MODEL 1
REMARK VINA RESULT:     -12.7      0.000      0.000
REMARK SMILES O=C(NCCCNC(=O)c1cc(F)ccc1N1CCCc2ccccc21)c1ccc(-c2c3nc(c(-c4c(F)cc(S(=O)(=O)[O-])cc4F)c4ccc([nH]4)c(-c4c(F)cc(S(=O)(=O)[O-])cc4F)c4nc(c(-c5c(F)cc(S(=O)(=O)[O-])cc5F)c5ccc2[nH]5)C=C4)C=C3)cc1
REMARK SMILES IDX 4 1 3 2 1 3 2 4 27 6 28 7 92 8 29 9 91 10 30 11 31 12 32 13
REMARK SMILES IDX 85 14 33 15 90 16 84 17 86 18 34 19 89 20 83 21 82 22 35 24
REMARK SMILES IDX 69 25 48 26 68 27 49 28 52 29 67 30 87 31 50 32 51 33 66 35
REMARK SMILES IDX 88 36 53 37 36 38 37 39 46 40 38 41 39 42 45 43 47 44 40 45
REMARK SMILES IDX 41 46 42 47 43 48 44 49 70 50 71 51 80 52 72 53 73 54 79 55
REMARK SMILES IDX 81 56 74 57 75 58 76 59 77 60 78 61 54 62 55 63 64 64 56 65
REMARK SMILES IDX 57 66 63 67 65 68 58 69 59 70 60 71 61 72 62 73 5 74 6 75
REMARK SMILES IDX 7 76 8 77 9 79 10 80 11 81 16 82 12 83 15 84 13 85 14 86
REMARK SMILES IDX 17 87 18 88 26 89 19 90 21 91 25 92 20 93 22 94 24 95 23 96
REMARK H PARENT 3 5 86 23 52 34 7 78
REMARK Flexibility Score: inf
ROOT
ATOM      1  C   UNL A   1      37.881  24.131  26.199  1.00  0.00     0.118 C 
ENDROOT
BRANCH   1   2
ATOM      2  N   UNL A   1      39.322  24.020  26.006  1.00  0.00    -0.352 N 
ATOM      3  O   UNL A   1      41.502  24.557  26.115  1.00  0.00    -0.269 OA
ATOM      4  C   UNL A   1      40.365  24.736  26.547  1.00  0.00     0.251 C 
ATOM      5  H   UNL A   1      39.595  23.311  25.380  1.00  0.00     0.163 HD
BRANCH   4   6
ATOM      6  C   UNL A   1      40.129  25.738  27.610  1.00  0.00     0.039 A 
ATOM      7  C   UNL A   1      40.749  26.986  27.574  1.00  0.00     0.014 A 
ATOM      8  C   UNL A   1      39.258  25.430  28.660  1.00  0.00     0.014 A 
ATOM      9  C   UNL A   1      40.668  27.831  28.675  1.00  0.00     0.010 A 
ATOM     10  C   UNL A   1      39.085  26.334  29.716  1.00  0.00     0.010 A 
ATOM     11  C   UNL A   1      39.831  27.521  29.758  1.00  0.00    -0.014 A 
BRANCH  11  12
ATOM     12  C   UNL A   1      39.746  28.472  30.899  1.00  0.00     0.031 A 
ATOM     13  C   UNL A   1      40.702  28.386  32.060  1.00  0.00     0.074 A 
ATOM     14  C   UNL A   1      38.842  29.471  30.846  1.00  0.00     0.049 A 
ATOM     15  N   UNL A   1      40.807  29.177  33.098  1.00  0.00    -0.248 NA
ATOM     16  C   UNL A   1      41.658  27.268  32.065  1.00  0.00     0.031 C 
ATOM     17  C   UNL A   1      37.857  29.655  29.777  1.00  0.00     0.029 A 
ATOM     18  N   UNL A   1      38.626  30.538  31.681  1.00  0.00    -0.354 N 
ATOM     19  C   UNL A   1      41.824  28.647  33.885  1.00  0.00     0.074 A 
ATOM     20  C   UNL A   1      42.285  27.448  33.220  1.00  0.00     0.031 C 
ATOM     21  C   UNL A   1      37.196  30.803  29.980  1.00  0.00     0.029 A 
ATOM     22  C   UNL A   1      37.660  31.404  31.226  1.00  0.00     0.049 A 
ATOM     23  H   UNL A   1      39.115  30.670  32.525  1.00  0.00     0.167 HD
ATOM     24  C   UNL A   1      42.336  29.125  35.044  1.00  0.00     0.037 A 
ATOM     25  C   UNL A   1      37.193  32.554  31.749  1.00  0.00     0.037 A 
ATOM     26  C   UNL A   1      41.885  30.330  35.694  1.00  0.00     0.049 A 
ATOM     27  C   UNL A   1      37.770  33.058  33.037  1.00  0.00     0.074 A 
ATOM     28  C   UNL A   1      42.345  30.898  36.869  1.00  0.00     0.029 A 
ATOM     29  N   UNL A   1      40.876  31.157  35.221  1.00  0.00    -0.354 N 
ATOM     30  N   UNL A   1      38.729  32.540  33.765  1.00  0.00    -0.248 NA
ATOM     31  C   UNL A   1      37.201  34.299  33.580  1.00  0.00     0.031 C 
ATOM     32  C   UNL A   1      41.591  32.049  37.126  1.00  0.00     0.029 A 
ATOM     33  C   UNL A   1      40.691  32.224  36.086  1.00  0.00     0.049 A 
ATOM     34  H   UNL A   1      40.365  31.007  34.393  1.00  0.00     0.167 HD
ATOM     35  C   UNL A   1      38.886  33.394  34.849  1.00  0.00     0.074 A 
ATOM     36  C   UNL A   1      37.935  34.474  34.671  1.00  0.00     0.031 C 
ATOM     37  C   UNL A   1      39.737  33.289  35.898  1.00  0.00     0.037 A 
BRANCH  24  38
ATOM     38  C   UNL A   1      43.443  28.340  35.697  1.00  0.00     0.058 A 
ATOM     39  C   UNL A   1      43.151  27.351  36.650  1.00  0.00     0.135 A 
ATOM     40  C   UNL A   1      44.793  28.597  35.415  1.00  0.00     0.135 A 
ATOM     41  F   UNL A   1      41.877  27.061  36.957  1.00  0.00    -0.206 F 
ATOM     42  C   UNL A   1      44.159  26.649  37.304  1.00  0.00     0.059 A 
ATOM     43  C   UNL A   1      45.818  27.890  36.039  1.00  0.00     0.059 A 
ATOM     44  F   UNL A   1      45.129  29.516  34.496  1.00  0.00    -0.206 F 
ATOM     45  C   UNL A   1      45.490  26.924  36.991  1.00  0.00     0.060 A 
BRANCH  45  46
ATOM     46  S   UNL A   1      46.788  25.966  37.805  1.00  0.00     0.124 S 
ATOM     47  O   UNL A   1      46.246  25.808  39.150  1.00  0.00    -0.237 OA
ATOM     48  O   UNL A   1      46.833  24.756  36.989  1.00  0.00    -0.237 OA
ATOM     49  O   UNL A   1      47.961  26.827  37.694  1.00  0.00    -0.744 OA
ENDBRANCH  45  46
ENDBRANCH  24  38
BRANCH  25  50
ATOM     50  C   UNL A   1      36.131  33.301  31.024  1.00  0.00     0.058 A 
ATOM     51  C   UNL A   1      36.421  34.020  29.855  1.00  0.00     0.135 A 
ATOM     52  C   UNL A   1      34.826  33.373  31.532  1.00  0.00     0.135 A 
ATOM     53  F   UNL A   1      37.659  33.992  29.337  1.00  0.00    -0.206 F 
ATOM     54  C   UNL A   1      35.467  34.818  29.236  1.00  0.00     0.059 A 
ATOM     55  C   UNL A   1      33.845  34.144  30.914  1.00  0.00     0.059 A 
ATOM     56  F   UNL A   1      34.500  32.693  32.642  1.00  0.00    -0.206 F 
ATOM     57  C   UNL A   1      34.183  34.882  29.781  1.00  0.00     0.060 A 
BRANCH  57  58
ATOM     58  S   UNL A   1      32.969  35.957  28.987  1.00  0.00     0.124 S 
ATOM     59  O   UNL A   1      33.832  36.936  28.335  1.00  0.00    -0.237 OA
ATOM     60  O   UNL A   1      32.274  35.030  28.099  1.00  0.00    -0.237 OA
ATOM     61  O   UNL A   1      32.181  36.460  30.107  1.00  0.00    -0.744 OA
ENDBRANCH  57  58
ENDBRANCH  25  50
BRANCH  37  62
ATOM     62  C   UNL A   1      39.694  34.377  36.933  1.00  0.00     0.058 A 
ATOM     63  C   UNL A   1      40.412  35.569  36.743  1.00  0.00     0.135 A 
ATOM     64  C   UNL A   1      38.988  34.219  38.136  1.00  0.00     0.135 A 
ATOM     65  F   UNL A   1      41.105  35.768  35.611  1.00  0.00    -0.206 F 
ATOM     66  C   UNL A   1      40.441  36.562  37.716  1.00  0.00     0.059 A 
ATOM     67  C   UNL A   1      38.984  35.210  39.113  1.00  0.00     0.059 A 
ATOM     68  F   UNL A   1      38.276  33.102  38.359  1.00  0.00    -0.206 F 
ATOM     69  C   UNL A   1      39.725  36.372  38.899  1.00  0.00     0.060 A 
BRANCH  69  70
ATOM     70  S   UNL A   1      39.752  37.682  40.142  1.00  0.00     0.124 S 
ATOM     71  O   UNL A   1      38.877  38.682  39.540  1.00  0.00    -0.237 OA
ATOM     72  O   UNL A   1      39.223  37.000  41.320  1.00  0.00    -0.237 OA
ATOM     73  O   UNL A   1      41.164  38.045  40.219  1.00  0.00    -0.744 OA
ENDBRANCH  69  70
ENDBRANCH  37  62
ENDBRANCH  11  12
ENDBRANCH   4   6
ENDBRANCH   1   2
BRANCH   1  74
ATOM     74  C   UNL A   1      37.069  23.533  25.059  1.00  0.00     0.042 C 
BRANCH  74  75
ATOM     75  C   UNL A   1      36.621  22.099  25.295  1.00  0.00     0.118 C 
BRANCH  75  76
ATOM     76  N   UNL A   1      35.745  21.965  26.451  1.00  0.00    -0.352 N 
ATOM     77  C   UNL A   1      34.482  21.439  26.574  1.00  0.00     0.253 C 
ATOM     78  H   UNL A   1      36.124  22.312  27.291  1.00  0.00     0.163 HD
ATOM     79  O   UNL A   1      33.918  21.508  27.662  1.00  0.00    -0.269 OA
BRANCH  77  80
ATOM     80  C   UNL A   1      33.840  20.760  25.425  1.00  0.00     0.066 A 
ATOM     81  C   UNL A   1      34.248  19.446  25.140  1.00  0.00     0.055 A 
ATOM     82  C   UNL A   1      32.769  21.336  24.711  1.00  0.00     0.054 A 
ATOM     83  C   UNL A   1      33.678  18.752  24.083  1.00  0.00     0.124 A 
ATOM     84  C   UNL A   1      32.211  20.595  23.645  1.00  0.00     0.030 A 
ATOM     85  F   UNL A   1      34.102  17.513  23.805  1.00  0.00    -0.207 F 
ATOM     86  C   UNL A   1      32.674  19.320  23.319  1.00  0.00     0.041 A 
BRANCH  82  87
ATOM     87  N   UNL A   1      32.177  22.577  25.012  1.00  0.00    -0.341 N 
ATOM     88  C   UNL A   1      30.931  22.570  25.784  1.00  0.00     0.123 C 
ATOM     89  C   UNL A   1      32.667  23.845  24.623  1.00  0.00     0.044 A 
ATOM     90  C   UNL A   1      31.050  23.554  26.943  1.00  0.00     0.027 C 
ATOM     91  C   UNL A   1      32.264  25.019  25.289  1.00  0.00    -0.024 A 
ATOM     92  C   UNL A   1      33.576  23.970  23.557  1.00  0.00     0.026 A 
ATOM     93  C   UNL A   1      31.260  24.968  26.412  1.00  0.00     0.039 C 
ATOM     94  C   UNL A   1      32.767  26.268  24.885  1.00  0.00     0.006 A 
ATOM     95  C   UNL A   1      34.070  25.214  23.159  1.00  0.00     0.002 A 
ATOM     96  C   UNL A   1      33.669  26.363  23.826  1.00  0.00     0.000 A 
ENDBRANCH  82  87
ENDBRANCH  77  80
ENDBRANCH  75  76
ENDBRANCH  74  75
ENDBRANCH   1  74
TORSDOF 14
ENDMDL
MODEL 2
REMARK VINA RESULT:     -12.5      7.078     12.298
REMARK SMILES O=C(NCCCNC(=O)c1cc(F)ccc1N1CCCc2ccccc21)c1ccc(-c2c3nc(c(-c4c(F)cc(S(=O)(=O)[O-])cc4F)c4ccc([nH]4)c(-c4c(F)cc(S(=O)(=O)[O-])cc4F)c4nc(c(-c5c(F)cc(S(=O)(=O)[O-])cc5F)c5ccc2[nH]5)C=C4)C=C3)cc1
REMARK SMILES IDX 4 1 3 2 1 3 2 4 27 6 28 7 92 8 29 9 91 10 30 11 31 12 32 13
REMARK SMILES IDX 85 14 33 15 90 16 84 17 86 18 34 19 89 20 83 21 82 22 35 24
REMARK SMILES IDX 69 25 48 26 68 27 49 28 52 29 67 30 87 31 50 32 51 33 66 35
REMARK SMILES IDX 88 36 53 37 36 38 37 39 46 40 38 41 39 42 45 43 47 44 40 45
REMARK SMILES IDX 41 46 42 47 43 48 44 49 70 50 71 51 80 52 72 53 73 54 79 55
REMARK SMILES IDX 81 56 74 57 75 58 76 59 77 60 78 61 54 62 55 63 64 64 56 65
REMARK SMILES IDX 57 66 63 67 65 68 58 69 59 70 60 71 61 72 62 73 5 74 6 75
REMARK SMILES IDX 7 76 8 77 9 79 10 80 11 81 16 82 12 83 15 84 13 85 14 86
REMARK SMILES IDX 17 87 18 88 26 89 19 90 21 91 25 92 20 93 22 94 24 95 23 96
REMARK H PARENT 3 5 86 23 52 34 7 78
REMARK Flexibility Score: inf
ROOT
ATOM      1  C   UNL A   1      35.237  29.777  27.621  1.00  0.00     0.118 C 
ENDROOT
BRANCH   1   2
ATOM      2  N   UNL A   1      35.216  30.003  29.061  1.00  0.00    -0.352 N 
ATOM      3  O   UNL A   1      35.933  30.035  31.191  1.00  0.00    -0.269 OA
ATOM      4  C   UNL A   1      36.221  29.954  29.999  1.00  0.00     0.251 C 
ATOM      5  H   UNL A   1      34.329  30.229  29.425  1.00  0.00     0.163 HD
BRANCH   4   6
ATOM      6  C   UNL A   1      37.632  29.769  29.593  1.00  0.00     0.039 A 
ATOM      7  C   UNL A   1      38.043  30.014  28.284  1.00  0.00     0.014 A 
ATOM      8  C   UNL A   1      38.570  29.355  30.544  1.00  0.00     0.014 A 
ATOM      9  C   UNL A   1      39.322  29.649  27.880  1.00  0.00     0.010 A 
ATOM     10  C   UNL A   1      39.892  29.098  30.160  1.00  0.00     0.010 A 
ATOM     11  C   UNL A   1      40.267  29.192  28.811  1.00  0.00    -0.014 A 
BRANCH  11  12
ATOM     12  C   UNL A   1      41.636  28.847  28.341  1.00  0.00     0.031 A 
ATOM     13  C   UNL A   1      42.756  29.853  28.397  1.00  0.00     0.074 A 
ATOM     14  C   UNL A   1      41.883  27.587  27.931  1.00  0.00     0.049 A 
ATOM     15  N   UNL A   1      44.019  29.692  28.091  1.00  0.00    -0.248 NA
ATOM     16  C   UNL A   1      42.420  31.213  28.845  1.00  0.00     0.031 C 
ATOM     17  C   UNL A   1      40.878  26.526  27.825  1.00  0.00     0.029 A 
ATOM     18  N   UNL A   1      43.052  26.971  27.564  1.00  0.00    -0.354 N 
ATOM     19  C   UNL A   1      44.624  30.928  28.293  1.00  0.00     0.074 A 
ATOM     20  C   UNL A   1      43.582  31.839  28.718  1.00  0.00     0.031 C 
ATOM     21  C   UNL A   1      41.483  25.378  27.495  1.00  0.00     0.029 A 
ATOM     22  C   UNL A   1      42.907  25.630  27.300  1.00  0.00     0.049 A 
ATOM     23  H   UNL A   1      43.913  27.444  27.496  1.00  0.00     0.167 HD
ATOM     24  C   UNL A   1      45.928  31.268  28.153  1.00  0.00     0.037 A 
ATOM     25  C   UNL A   1      43.812  24.701  26.939  1.00  0.00     0.037 A 
ATOM     26  C   UNL A   1      46.964  30.353  27.746  1.00  0.00     0.049 A 
ATOM     27  C   UNL A   1      45.248  25.102  26.783  1.00  0.00     0.074 A 
ATOM     28  C   UNL A   1      48.315  30.602  27.579  1.00  0.00     0.029 A 
ATOM     29  N   UNL A   1      46.767  29.011  27.449  1.00  0.00    -0.354 N 
ATOM     30  N   UNL A   1      45.797  26.278  26.976  1.00  0.00    -0.248 NA
ATOM     31  C   UNL A   1      46.188  24.058  26.354  1.00  0.00     0.031 C 
ATOM     32  C   UNL A   1      48.930  29.421  27.148  1.00  0.00     0.029 A 
ATOM     33  C   UNL A   1      47.970  28.423  27.089  1.00  0.00     0.049 A 
ATOM     34  H   UNL A   1      45.901  28.546  27.486  1.00  0.00     0.167 HD
ATOM     35  C   UNL A   1      47.149  26.113  26.701  1.00  0.00     0.074 A 
ATOM     36  C   UNL A   1      47.337  24.721  26.346  1.00  0.00     0.031 C 
ATOM     37  C   UNL A   1      48.141  27.036  26.734  1.00  0.00     0.037 A 
BRANCH  24  38
ATOM     38  C   UNL A   1      46.314  32.696  28.434  1.00  0.00     0.058 A 
ATOM     39  C   UNL A   1      46.392  33.634  27.391  1.00  0.00     0.135 A 
ATOM     40  C   UNL A   1      46.651  33.127  29.726  1.00  0.00     0.135 A 
ATOM     41  F   UNL A   1      46.077  33.277  26.135  1.00  0.00    -0.206 F 
ATOM     42  C   UNL A   1      46.796  34.945  27.619  1.00  0.00     0.059 A 
ATOM     43  C   UNL A   1      47.035  34.441  29.982  1.00  0.00     0.059 A 
ATOM     44  F   UNL A   1      46.573  32.279  30.763  1.00  0.00    -0.206 F 
ATOM     45  C   UNL A   1      47.115  35.341  28.918  1.00  0.00     0.060 A 
BRANCH  45  46
ATOM     46  S   UNL A   1      47.583  37.061  29.210  1.00  0.00     0.124 S 
ATOM     47  O   UNL A   1      46.289  37.733  29.186  1.00  0.00    -0.237 OA
ATOM     48  O   UNL A   1      48.237  36.984  30.513  1.00  0.00    -0.237 OA
ATOM     49  O   UNL A   1      48.471  37.362  28.091  1.00  0.00    -0.744 OA
ENDBRANCH  45  46
ENDBRANCH  24  38
BRANCH  25  50
ATOM     50  C   UNL A   1      43.367  23.299  26.724  1.00  0.00     0.058 A 
ATOM     51  C   UNL A   1      43.057  22.463  27.808  1.00  0.00     0.135 A 
ATOM     52  C   UNL A   1      43.319  22.747  25.436  1.00  0.00     0.135 A 
ATOM     53  F   UNL A   1      43.101  22.942  29.061  1.00  0.00    -0.206 F 
ATOM     54  C   UNL A   1      42.756  21.119  27.627  1.00  0.00     0.059 A 
ATOM     55  C   UNL A   1      42.993  21.410  25.227  1.00  0.00     0.059 A 
ATOM     56  F   UNL A   1      43.597  23.511  24.369  1.00  0.00    -0.206 F 
ATOM     57  C   UNL A   1      42.737  20.599  26.332  1.00  0.00     0.060 A 
BRANCH  57  58
ATOM     58  S   UNL A   1      42.385  18.841  26.121  1.00  0.00     0.124 S 
ATOM     59  O   UNL A   1      40.980  18.873  25.727  1.00  0.00    -0.237 OA
ATOM     60  O   UNL A   1      43.330  18.463  25.075  1.00  0.00    -0.237 OA
ATOM     61  O   UNL A   1      42.655  18.282  27.441  1.00  0.00    -0.744 OA
ENDBRANCH  57  58
ENDBRANCH  25  50
BRANCH  37  62
ATOM     62  C   UNL A   1      49.528  26.569  26.393  1.00  0.00     0.058 A 
ATOM     63  C   UNL A   1      50.025  26.710  25.087  1.00  0.00     0.135 A 
ATOM     64  C   UNL A   1      50.343  25.934  27.342  1.00  0.00     0.135 A 
ATOM     65  F   UNL A   1      49.283  27.309  24.141  1.00  0.00    -0.206 F 
ATOM     66  C   UNL A   1      51.279  26.227  24.731  1.00  0.00     0.059 A 
ATOM     67  C   UNL A   1      51.612  25.463  27.013  1.00  0.00     0.059 A 
ATOM     68  F   UNL A   1      49.918  25.787  28.606  1.00  0.00    -0.206 F 
ATOM     69  C   UNL A   1      52.064  25.602  25.700  1.00  0.00     0.060 A 
BRANCH  69  70
ATOM     70  S   UNL A   1      53.700  25.001  25.229  1.00  0.00     0.124 S 
ATOM     71  O   UNL A   1      54.545  25.601  26.256  1.00  0.00    -0.237 OA
ATOM     72  O   UNL A   1      53.533  23.553  25.309  1.00  0.00    -0.237 OA
ATOM     73  O   UNL A   1      53.878  25.530  23.880  1.00  0.00    -0.744 OA
ENDBRANCH  69  70
ENDBRANCH  37  62
ENDBRANCH  11  12
ENDBRANCH   4   6
ENDBRANCH   1   2
BRANCH   1  74
ATOM     74  C   UNL A   1      34.071  28.936  27.122  1.00  0.00     0.042 C 
BRANCH  74  75
ATOM     75  C   UNL A   1      33.359  29.510  25.907  1.00  0.00     0.118 C 
BRANCH  75  76
ATOM     76  N   UNL A   1      33.952  29.075  24.650  1.00  0.00    -0.352 N 
ATOM     77  C   UNL A   1      33.392  28.492  23.538  1.00  0.00     0.253 C 
ATOM     78  H   UNL A   1      34.922  29.226  24.584  1.00  0.00     0.163 HD
ATOM     79  O   UNL A   1      34.129  28.149  22.619  1.00  0.00    -0.269 OA
BRANCH  77  80
ATOM     80  C   UNL A   1      31.923  28.327  23.440  1.00  0.00     0.066 A 
ATOM     81  C   UNL A   1      31.213  29.296  22.711  1.00  0.00     0.055 A 
ATOM     82  C   UNL A   1      31.257  27.187  23.936  1.00  0.00     0.054 A 
ATOM     83  C   UNL A   1      29.836  29.193  22.573  1.00  0.00     0.124 A 
ATOM     84  C   UNL A   1      29.855  27.118  23.771  1.00  0.00     0.030 A 
ATOM     85  F   UNL A   1      29.169  30.142  21.904  1.00  0.00    -0.207 F 
ATOM     86  C   UNL A   1      29.145  28.122  23.112  1.00  0.00     0.041 A 
BRANCH  82  87
ATOM     87  N   UNL A   1      31.890  26.086  24.540  1.00  0.00    -0.341 N 
ATOM     88  C   UNL A   1      32.077  26.117  25.993  1.00  0.00     0.123 C 
ATOM     89  C   UNL A   1      32.383  24.942  23.869  1.00  0.00     0.044 A 
ATOM     90  C   UNL A   1      31.587  24.805  26.595  1.00  0.00     0.027 C 
ATOM     91  C   UNL A   1      32.622  23.738  24.559  1.00  0.00    -0.024 A 
ATOM     92  C   UNL A   1      32.647  24.976  22.488  1.00  0.00     0.026 A 
ATOM     93  C   UNL A   1      32.402  23.639  26.047  1.00  0.00     0.039 C 
ATOM     94  C   UNL A   1      33.111  22.614  23.869  1.00  0.00     0.006 A 
ATOM     95  C   UNL A   1      33.134  23.858  21.809  1.00  0.00     0.002 A 
ATOM     96  C   UNL A   1      33.362  22.674  22.499  1.00  0.00     0.000 A 
ENDBRANCH  82  87
ENDBRANCH  77  80
ENDBRANCH  75  76
ENDBRANCH  74  75
ENDBRANCH   1  74
TORSDOF 14
ENDMDL
MODEL 3
REMARK VINA RESULT:     -12.5      6.966     12.201
REMARK SMILES O=C(NCCCNC(=O)c1cc(F)ccc1N1CCCc2ccccc21)c1ccc(-c2c3nc(c(-c4c(F)cc(S(=O)(=O)[O-])cc4F)c4ccc([nH]4)c(-c4c(F)cc(S(=O)(=O)[O-])cc4F)c4nc(c(-c5c(F)cc(S(=O)(=O)[O-])cc5F)c5ccc2[nH]5)C=C4)C=C3)cc1
REMARK SMILES IDX 4 1 3 2 1 3 2 4 27 6 28 7 92 8 29 9 91 10 30 11 31 12 32 13
REMARK SMILES IDX 85 14 33 15 90 16 84 17 86 18 34 19 89 20 83 21 82 22 35 24
REMARK SMILES IDX 69 25 48 26 68 27 49 28 52 29 67 30 87 31 50 32 51 33 66 35
REMARK SMILES IDX 88 36 53 37 36 38 37 39 46 40 38 41 39 42 45 43 47 44 40 45
REMARK SMILES IDX 41 46 42 47 43 48 44 49 70 50 71 51 80 52 72 53 73 54 79 55
REMARK SMILES IDX 81 56 74 57 75 58 76 59 77 60 78 61 54 62 55 63 64 64 56 65
REMARK SMILES IDX 57 66 63 67 65 68 58 69 59 70 60 71 61 72 62 73 5 74 6 75
REMARK SMILES IDX 7 76 8 77 9 79 10 80 11 81 16 82 12 83 15 84 13 85 14 86
REMARK SMILES IDX 17 87 18 88 26 89 19 90 21 91 25 92 20 93 22 94 24 95 23 96
REMARK H PARENT 3 5 86 23 52 34 7 78
REMARK Flexibility Score: inf
ROOT
ATOM      1  C   UNL A   1      35.283  29.165  27.569  1.00  0.00     0.118 C 
ENDROOT
BRANCH   1   2
ATOM      2  N   UNL A   1      35.261  29.767  28.896  1.00  0.00    -0.352 N 
ATOM      3  O   UNL A   1      35.996  30.411  30.921  1.00  0.00    -0.269 OA
ATOM      4  C   UNL A   1      36.277  30.031  29.787  1.00  0.00     0.251 C 
ATOM      5  H   UNL A   1      34.366  30.029  29.210  1.00  0.00     0.163 HD
BRANCH   4   6
ATOM      6  C   UNL A   1      37.693  29.827  29.407  1.00  0.00     0.039 A 
ATOM      7  C   UNL A   1      38.126  30.044  28.100  1.00  0.00     0.014 A 
ATOM      8  C   UNL A   1      38.612  29.424  30.381  1.00  0.00     0.014 A 
ATOM      9  C   UNL A   1      39.409  29.662  27.724  1.00  0.00     0.010 A 
ATOM     10  C   UNL A   1      39.938  29.150  30.023  1.00  0.00     0.010 A 
ATOM     11  C   UNL A   1      40.335  29.215  28.679  1.00  0.00    -0.014 A 
BRANCH  11  12
ATOM     12  C   UNL A   1      41.708  28.851  28.238  1.00  0.00     0.031 A 
ATOM     13  C   UNL A   1      42.838  29.846  28.303  1.00  0.00     0.074 A 
ATOM     14  C   UNL A   1      41.950  27.584  27.846  1.00  0.00     0.049 A 
ATOM     15  N   UNL A   1      44.104  29.669  28.022  1.00  0.00    -0.248 NA
ATOM     16  C   UNL A   1      42.508  31.214  28.729  1.00  0.00     0.031 C 
ATOM     17  C   UNL A   1      40.936  26.532  27.734  1.00  0.00     0.029 A 
ATOM     18  N   UNL A   1      43.119  26.952  27.508  1.00  0.00    -0.354 N 
ATOM     19  C   UNL A   1      44.718  30.901  28.221  1.00  0.00     0.074 A 
ATOM     20  C   UNL A   1      43.679  31.827  28.616  1.00  0.00     0.031 C 
ATOM     21  C   UNL A   1      41.535  25.374  27.429  1.00  0.00     0.029 A 
ATOM     22  C   UNL A   1      42.965  25.609  27.257  1.00  0.00     0.049 A 
ATOM     23  H   UNL A   1      43.986  27.415  27.450  1.00  0.00     0.167 HD
ATOM     24  C   UNL A   1      46.028  31.225  28.100  1.00  0.00     0.037 A 
ATOM     25  C   UNL A   1      43.867  24.667  26.923  1.00  0.00     0.037 A 
ATOM     26  C   UNL A   1      47.062  30.296  27.723  1.00  0.00     0.049 A 
ATOM     27  C   UNL A   1      45.309  25.052  26.788  1.00  0.00     0.074 A 
ATOM     28  C   UNL A   1      48.419  30.529  27.578  1.00  0.00     0.029 A 
ATOM     29  N   UNL A   1      46.857  28.953  27.437  1.00  0.00    -0.354 N 
ATOM     30  N   UNL A   1      45.867  26.224  26.978  1.00  0.00    -0.248 NA
ATOM     31  C   UNL A   1      46.246  23.993  26.388  1.00  0.00     0.031 C 
ATOM     32  C   UNL A   1      49.029  29.337  27.171  1.00  0.00     0.029 A 
ATOM     33  C   UNL A   1      48.059  28.348  27.106  1.00  0.00     0.049 A 
ATOM     34  H   UNL A   1      45.985  28.497  27.465  1.00  0.00     0.167 HD
ATOM     35  C   UNL A   1      47.222  26.043  26.729  1.00  0.00     0.074 A 
ATOM     36  C   UNL A   1      47.402  24.644  26.394  1.00  0.00     0.031 C 
ATOM     37  C   UNL A   1      48.223  26.955  26.770  1.00  0.00     0.037 A 
BRANCH  24  38
ATOM     38  C   UNL A   1      46.424  32.653  28.372  1.00  0.00     0.058 A 
ATOM     39  C   UNL A   1      46.425  33.603  27.339  1.00  0.00     0.135 A 
ATOM     40  C   UNL A   1      46.846  33.071  29.644  1.00  0.00     0.135 A 
ATOM     41  F   UNL A   1      46.028  33.260  26.103  1.00  0.00    -0.206 F 
ATOM     42  C   UNL A   1      46.836  34.915  27.555  1.00  0.00     0.059 A 
ATOM     43  C   UNL A   1      47.239  34.384  29.889  1.00  0.00     0.059 A 
ATOM     44  F   UNL A   1      46.844  32.209  30.673  1.00  0.00    -0.206 F 
ATOM     45  C   UNL A   1      47.240  35.297  28.834  1.00  0.00     0.060 A 
BRANCH  45  46
ATOM     46  S   UNL A   1      47.717  37.017  29.115  1.00  0.00     0.124 S 
ATOM     47  O   UNL A   1      49.169  36.917  29.197  1.00  0.00    -0.237 OA
ATOM     48  O   UNL A   1      47.190  37.679  27.925  1.00  0.00    -0.237 OA
ATOM     49  O   UNL A   1      47.035  37.355  30.361  1.00  0.00    -0.744 OA
ENDBRANCH  45  46
ENDBRANCH  24  38
BRANCH  25  50
ATOM     50  C   UNL A   1      43.411  23.268  26.715  1.00  0.00     0.058 A 
ATOM     51  C   UNL A   1      43.080  22.445  27.803  1.00  0.00     0.135 A 
ATOM     52  C   UNL A   1      43.373  22.704  25.432  1.00  0.00     0.135 A 
ATOM     53  F   UNL A   1      43.114  22.935  29.052  1.00  0.00    -0.206 F 
ATOM     54  C   UNL A   1      42.769  21.102  27.631  1.00  0.00     0.059 A 
ATOM     55  C   UNL A   1      43.037  21.368  25.232  1.00  0.00     0.059 A 
ATOM     56  F   UNL A   1      43.671  23.456  24.361  1.00  0.00    -0.206 F 
ATOM     57  C   UNL A   1      42.760  20.570  26.341  1.00  0.00     0.060 A 
BRANCH  57  58
ATOM     58  S   UNL A   1      42.394  18.813  26.142  1.00  0.00     0.124 S 
ATOM     59  O   UNL A   1      42.638  18.312  27.490  1.00  0.00    -0.237 OA
ATOM     60  O   UNL A   1      40.998  18.838  25.716  1.00  0.00    -0.237 OA
ATOM     61  O   UNL A   1      43.350  18.382  25.128  1.00  0.00    -0.744 OA
ENDBRANCH  57  58
ENDBRANCH  25  50
BRANCH  37  62
ATOM     62  C   UNL A   1      49.611  26.471  26.459  1.00  0.00     0.058 A 
ATOM     63  C   UNL A   1      50.118  26.556  25.152  1.00  0.00     0.135 A 
ATOM     64  C   UNL A   1      50.416  25.873  27.440  1.00  0.00     0.135 A 
ATOM     65  F   UNL A   1      49.385  27.116  24.177  1.00  0.00    -0.206 F 
ATOM     66  C   UNL A   1      51.373  26.054  24.827  1.00  0.00     0.059 A 
ATOM     67  C   UNL A   1      51.686  25.385  27.141  1.00  0.00     0.059 A 
ATOM     68  F   UNL A   1      49.981  25.780  28.706  1.00  0.00    -0.206 F 
ATOM     69  C   UNL A   1      52.149  25.468  25.828  1.00  0.00     0.060 A 
BRANCH  69  70
ATOM     70  S   UNL A   1      53.786  24.843  25.394  1.00  0.00     0.124 S 
ATOM     71  O   UNL A   1      53.503  23.443  25.100  1.00  0.00    -0.237 OA
ATOM     72  O   UNL A   1      54.140  25.675  24.248  1.00  0.00    -0.237 OA
ATOM     73  O   UNL A   1      54.571  25.087  26.601  1.00  0.00    -0.744 OA
ENDBRANCH  69  70
ENDBRANCH  37  62
ENDBRANCH  11  12
ENDBRANCH   4   6
ENDBRANCH   1   2
BRANCH   1  74
ATOM     74  C   UNL A   1      33.896  28.866  27.017  1.00  0.00     0.042 C 
BRANCH  74  75
ATOM     75  C   UNL A   1      33.854  27.720  26.018  1.00  0.00     0.118 C 
BRANCH  75  76
ATOM     76  N   UNL A   1      33.080  26.583  26.498  1.00  0.00    -0.352 N 
ATOM     77  C   UNL A   1      32.256  25.704  25.836  1.00  0.00     0.253 C 
ATOM     78  H   UNL A   1      33.161  26.414  27.464  1.00  0.00     0.163 HD
ATOM     79  O   UNL A   1      31.652  24.858  26.489  1.00  0.00    -0.269 OA
BRANCH  77  80
ATOM     80  C   UNL A   1      32.143  25.752  24.360  1.00  0.00     0.066 A 
ATOM     81  C   UNL A   1      31.345  26.768  23.806  1.00  0.00     0.055 A 
ATOM     82  C   UNL A   1      32.897  24.908  23.518  1.00  0.00     0.054 A 
ATOM     83  C   UNL A   1      31.207  26.873  22.430  1.00  0.00     0.124 A 
ATOM     84  C   UNL A   1      32.732  25.050  22.122  1.00  0.00     0.030 A 
ATOM     85  F   UNL A   1      30.417  27.825  21.919  1.00  0.00    -0.207 F 
ATOM     86  C   UNL A   1      31.879  26.012  21.580  1.00  0.00     0.041 A 
BRANCH  82  87
ATOM     87  N   UNL A   1      33.843  23.966  23.963  1.00  0.00    -0.341 N 
ATOM     88  C   UNL A   1      35.181  24.452  24.309  1.00  0.00     0.123 C 
ATOM     89  C   UNL A   1      33.627  22.574  24.095  1.00  0.00     0.044 A 
ATOM     90  C   UNL A   1      35.579  23.905  25.676  1.00  0.00     0.027 C 
ATOM     91  C   UNL A   1      34.458  21.781  24.910  1.00  0.00    -0.024 A 
ATOM     92  C   UNL A   1      32.572  21.942  23.414  1.00  0.00     0.026 A 
ATOM     93  C   UNL A   1      35.634  22.383  25.636  1.00  0.00     0.039 C 
ATOM     94  C   UNL A   1      34.223  20.400  25.026  1.00  0.00     0.006 A 
ATOM     95  C   UNL A   1      32.344  20.569  23.532  1.00  0.00     0.002 A 
ATOM     96  C   UNL A   1      33.168  19.798  24.342  1.00  0.00     0.000 A 
ENDBRANCH  82  87
ENDBRANCH  77  80
ENDBRANCH  75  76
ENDBRANCH  74  75
ENDBRANCH   1  74
TORSDOF 14
ENDMDL
