MODEL 1
REMARK VINA RESULT:     -13.0      0.000      0.000
REMARK SMILES CC1(C)[C@H](C(=O)Nc2ccc(NC(=O)C[NH+]3CCCCC3)cc2)[C@@H]1C(=O)NCCCNC(=O)c1ccc(-c2c3nc(c(-c4c(F)cc(S(=O)(=O)[O-])cc4F)c4ccc([nH]4)c(-c4c(F)cc(S(=O)(=O)[O-])cc4F)c4nc(c(-c5c(F)cc(S(=O)(=O)[O-])cc5F)c5ccc2[nH]5)C=C4)C=C3)cc1
REMARK SMILES IDX 28 1 27 2 25 3 26 4 24 6 1 7 2 8 3 9 4 10 5 11 6 12 7 13
REMARK SMILES IDX 8 15 9 16 23 17 10 18 22 19 11 20 12 21 13 22 14 24 15 25
REMARK SMILES IDX 16 26 17 27 21 28 18 30 20 31 19 32 29 33 30 34 31 35 32 36
REMARK SMILES IDX 33 38 34 39 35 40 99 41 36 42 98 43 37 44 38 45 39 46 92 47
REMARK SMILES IDX 40 48 97 49 91 50 93 51 41 52 96 53 90 54 89 55 42 57 76 58
REMARK SMILES IDX 55 59 75 60 56 61 59 62 74 63 94 64 57 65 58 66 73 68 95 69
REMARK SMILES IDX 60 70 43 71 44 72 53 73 45 74 46 75 52 76 54 77 47 78 48 79
REMARK SMILES IDX 49 80 50 81 51 82 77 83 78 84 87 85 79 86 80 87 86 88 88 89
REMARK SMILES IDX 81 90 82 91 83 92 84 93 85 94 61 95 62 96 71 97 63 98 64 99
REMARK SMILES IDX 70 100 72 101 65 102 66 103 67 104 68 105 69 106
REMARK H PARENT 27 5 7 14 12 23 16 29 31 37 93 56 59 67
REMARK Flexibility Score: inf
ROOT
ATOM      1  C   UNL A   1      37.820  22.174  25.496  1.00  0.00     0.117 C 
ENDROOT
BRANCH   1   2
ATOM      2  N   UNL A   1      36.722  21.926  26.412  1.00  0.00    -0.356 N 
ATOM      3  C   UNL A   1      35.415  21.647  26.116  1.00  0.00     0.224 C 
ATOM      4  O   UNL A   1      34.616  21.433  27.015  1.00  0.00    -0.275 OA
ATOM      5  H   UNL A   1      36.947  21.963  27.370  1.00  0.00     0.163 HD
BRANCH   3   6
ATOM      6  C   UNL A   1      34.979  21.775  24.712  1.00  0.00     0.098 C 
ATOM      7  C   UNL A   1      34.803  23.412  22.692  1.00  0.00     0.013 C 
ATOM      8  C   UNL A   1      34.374  23.042  24.098  1.00  0.00    -0.011 C 
ATOM      9  C   UNL A   1      34.117  24.261  24.932  1.00  0.00     0.013 C 
ATOM     10  C   UNL A   1      33.562  21.764  24.210  1.00  0.00     0.098 C 
BRANCH  10  11
ATOM     11  C   UNL A   1      32.267  21.486  24.908  1.00  0.00     0.228 C 
ATOM     12  O   UNL A   1      32.057  20.310  25.213  1.00  0.00    -0.274 OA
ATOM     13  N   UNL A   1      31.472  22.433  25.500  1.00  0.00    -0.326 N 
ATOM     14  H   UNL A   1      31.263  22.265  26.447  1.00  0.00     0.169 HD
BRANCH  13  15
ATOM     15  C   UNL A   1      30.915  23.593  24.972  1.00  0.00     0.041 A 
ATOM     16  C   UNL A   1      30.502  24.575  25.861  1.00  0.00     0.028 A 
ATOM     17  C   UNL A   1      30.703  23.769  23.612  1.00  0.00     0.028 A 
ATOM     18  C   UNL A   1      30.109  25.821  25.381  1.00  0.00     0.028 A 
ATOM     19  C   UNL A   1      30.244  25.003  23.134  1.00  0.00     0.028 A 
ATOM     20  C   UNL A   1      29.966  26.052  24.017  1.00  0.00     0.041 A 
BRANCH  20  21
ATOM     21  N   UNL A   1      29.605  27.290  23.457  1.00  0.00    -0.321 N 
ATOM     22  C   UNL A   1      30.343  28.330  22.955  1.00  0.00     0.279 C 
ATOM     23  H   UNL A   1      28.632  27.439  23.418  1.00  0.00     0.170 HD
ATOM     24  O   UNL A   1      29.732  29.239  22.378  1.00  0.00    -0.268 OA
BRANCH  22  25
ATOM     25  C   UNL A   1      31.867  28.422  23.132  1.00  0.00     0.363 C 
BRANCH  25  26
ATOM     26  N   UNL A   1      32.222  28.389  24.560  1.00  0.00    -0.327 N 
ATOM     27  C   UNL A   1      33.616  28.016  24.804  1.00  0.00     0.262 C 
ATOM     28  C   UNL A   1      31.862  29.624  25.259  1.00  0.00     0.262 C 
ATOM     29  H   UNL A   1      31.653  27.642  24.958  1.00  0.00     0.348 HD
ATOM     30  C   UNL A   1      33.796  27.723  26.295  1.00  0.00     0.062 C 
ATOM     31  C   UNL A   1      32.012  29.432  26.769  1.00  0.00     0.062 C 
ATOM     32  C   UNL A   1      33.404  28.928  27.143  1.00  0.00     0.012 C 
ENDBRANCH  25  26
ENDBRANCH  22  25
ENDBRANCH  20  21
ENDBRANCH  13  15
ENDBRANCH  10  11
ENDBRANCH   3   6
ENDBRANCH   1   2
BRANCH   1  33
ATOM     33  C   UNL A   1      39.182  21.907  26.113  1.00  0.00     0.042 C 
BRANCH  33  34
ATOM     34  C   UNL A   1      39.865  23.130  26.713  1.00  0.00     0.118 C 
BRANCH  34  35
ATOM     35  N   UNL A   1      41.116  23.495  26.057  1.00  0.00    -0.352 N 
ATOM     36  C   UNL A   1      41.892  24.625  26.168  1.00  0.00     0.251 C 
ATOM     37  H   UNL A   1      41.462  22.819  25.432  1.00  0.00     0.163 HD
ATOM     38  O   UNL A   1      42.870  24.756  25.436  1.00  0.00    -0.269 OA
BRANCH  36  39
ATOM     39  C   UNL A   1      41.531  25.695  27.124  1.00  0.00     0.039 A 
ATOM     40  C   UNL A   1      40.551  25.439  28.087  1.00  0.00     0.014 A 
ATOM     41  C   UNL A   1      42.170  26.934  27.097  1.00  0.00     0.014 A 
ATOM     42  C   UNL A   1      40.291  26.386  29.081  1.00  0.00     0.010 A 
ATOM     43  C   UNL A   1      41.991  27.828  28.146  1.00  0.00     0.010 A 
ATOM     44  C   UNL A   1      41.052  27.564  29.155  1.00  0.00    -0.014 A 
BRANCH  44  45
ATOM     45  C   UNL A   1      40.901  28.523  30.282  1.00  0.00     0.031 A 
ATOM     46  C   UNL A   1      41.745  28.381  31.520  1.00  0.00     0.074 A 
ATOM     47  C   UNL A   1      39.933  29.460  30.232  1.00  0.00     0.049 A 
ATOM     48  N   UNL A   1      41.692  29.057  32.638  1.00  0.00    -0.248 NA
ATOM     49  C   UNL A   1      42.754  27.309  31.516  1.00  0.00     0.031 C 
ATOM     50  C   UNL A   1      38.993  29.650  29.125  1.00  0.00     0.029 A 
ATOM     51  N   UNL A   1      39.565  30.418  31.145  1.00  0.00    -0.354 N 
ATOM     52  C   UNL A   1      42.635  28.475  33.478  1.00  0.00     0.074 A 
ATOM     53  C   UNL A   1      43.204  27.357  32.760  1.00  0.00     0.031 C 
ATOM     54  C   UNL A   1      38.174  30.674  29.412  1.00  0.00     0.029 A 
ATOM     55  C   UNL A   1      38.502  31.191  30.738  1.00  0.00     0.049 A 
ATOM     56  H   UNL A   1      40.019  30.540  32.010  1.00  0.00     0.167 HD
ATOM     57  C   UNL A   1      43.009  28.852  34.725  1.00  0.00     0.037 A 
ATOM     58  C   UNL A   1      37.859  32.197  31.360  1.00  0.00     0.037 A 
ATOM     59  C   UNL A   1      42.468  29.991  35.417  1.00  0.00     0.049 A 
ATOM     60  C   UNL A   1      38.322  32.633  32.721  1.00  0.00     0.074 A 
ATOM     61  C   UNL A   1      42.846  30.515  36.642  1.00  0.00     0.029 A 
ATOM     62  N   UNL A   1      41.429  30.783  34.948  1.00  0.00    -0.354 N 
ATOM     63  N   UNL A   1      39.276  32.127  33.466  1.00  0.00    -0.248 NA
ATOM     64  C   UNL A   1      37.631  33.781  33.323  1.00  0.00     0.031 C 
ATOM     65  C   UNL A   1      42.009  31.599  36.931  1.00  0.00     0.029 A 
ATOM     66  C   UNL A   1      41.138  31.777  35.868  1.00  0.00     0.049 A 
ATOM     67  H   UNL A   1      40.967  30.656  34.089  1.00  0.00     0.167 HD
ATOM     68  C   UNL A   1      39.311  32.903  34.618  1.00  0.00     0.074 A 
ATOM     69  C   UNL A   1      38.293  33.923  34.465  1.00  0.00     0.031 C 
ATOM     70  C   UNL A   1      40.116  32.782  35.704  1.00  0.00     0.037 A 
BRANCH  57  71
ATOM     71  C   UNL A   1      44.055  28.017  35.413  1.00  0.00     0.058 A 
ATOM     72  C   UNL A   1      45.428  28.267  35.249  1.00  0.00     0.135 A 
ATOM     73  C   UNL A   1      43.681  26.948  36.244  1.00  0.00     0.135 A 
ATOM     74  F   UNL A   1      45.842  29.268  34.456  1.00  0.00    -0.206 F 
ATOM     75  C   UNL A   1      46.392  27.457  35.840  1.00  0.00     0.059 A 
ATOM     76  C   UNL A   1      44.629  26.143  36.871  1.00  0.00     0.059 A 
ATOM     77  F   UNL A   1      42.384  26.665  36.441  1.00  0.00    -0.206 F 
ATOM     78  C   UNL A   1      45.982  26.391  36.642  1.00  0.00     0.060 A 
BRANCH  78  79
ATOM     79  S   UNL A   1      47.243  25.328  37.376  1.00  0.00     0.124 S 
ATOM     80  O   UNL A   1      46.710  24.002  37.077  1.00  0.00    -0.237 OA
ATOM     81  O   UNL A   1      48.443  25.708  36.638  1.00  0.00    -0.237 OA
ATOM     82  O   UNL A   1      47.230  25.707  38.784  1.00  0.00    -0.744 OA
ENDBRANCH  78  79
ENDBRANCH  57  71
BRANCH  58  83
ATOM     83  C   UNL A   1      36.730  32.878  30.673  1.00  0.00     0.058 A 
ATOM     84  C   UNL A   1      35.401  32.570  30.995  1.00  0.00     0.135 A 
ATOM     85  C   UNL A   1      36.958  33.891  29.728  1.00  0.00     0.135 A 
ATOM     86  F   UNL A   1      35.134  31.603  31.886  1.00  0.00    -0.206 F 
ATOM     87  C   UNL A   1      34.335  33.244  30.409  1.00  0.00     0.059 A 
ATOM     88  C   UNL A   1      35.908  34.594  29.144  1.00  0.00     0.059 A 
ATOM     89  F   UNL A   1      38.213  34.235  29.399  1.00  0.00    -0.206 F 
ATOM     90  C   UNL A   1      34.599  34.263  29.491  1.00  0.00     0.060 A 
BRANCH  90  91
ATOM     91  S   UNL A   1      33.211  35.196  28.808  1.00  0.00     0.124 S 
ATOM     92  O   UNL A   1      32.491  35.580  30.016  1.00  0.00    -0.237 OA
ATOM     93  O   UNL A   1      33.890  36.277  28.098  1.00  0.00    -0.237 OA
ATOM     94  O   UNL A   1      32.541  34.221  27.954  1.00  0.00    -0.744 OA
ENDBRANCH  90  91
ENDBRANCH  58  83
BRANCH  70  95
ATOM     95  C   UNL A   1      39.939  33.786  36.809  1.00  0.00     0.058 A 
ATOM     96  C   UNL A   1      40.559  35.044  36.765  1.00  0.00     0.135 A 
ATOM     97  C   UNL A   1      39.100  33.505  37.899  1.00  0.00     0.135 A 
ATOM     98  F   UNL A   1      41.376  35.361  35.748  1.00  0.00    -0.206 F 
ATOM     99  C   UNL A   1      40.370  35.982  37.776  1.00  0.00     0.059 A 
ATOM    100  C   UNL A   1      38.877  34.435  38.908  1.00  0.00     0.059 A 
ATOM    101  F   UNL A   1      38.475  32.319  37.983  1.00  0.00    -0.206 F 
ATOM    102  C   UNL A   1      39.527  35.668  38.843  1.00  0.00     0.060 A 
BRANCH 102 103
ATOM    103  S   UNL A   1      39.265  36.903  40.134  1.00  0.00     0.124 S 
ATOM    104  O   UNL A   1      38.660  37.994  39.377  1.00  0.00    -0.237 OA
ATOM    105  O   UNL A   1      38.378  36.205  41.060  1.00  0.00    -0.237 OA
ATOM    106  O   UNL A   1      40.611  37.159  40.637  1.00  0.00    -0.744 OA
ENDBRANCH 102 103
ENDBRANCH  70  95
ENDBRANCH  44  45
ENDBRANCH  36  39
ENDBRANCH  34  35
ENDBRANCH  33  34
ENDBRANCH   1  33
TORSDOF 18
ENDMDL
MODEL 2
REMARK VINA RESULT:     -12.5      6.095     11.755
REMARK SMILES CC1(C)[C@H](C(=O)Nc2ccc(NC(=O)C[NH+]3CCCCC3)cc2)[C@@H]1C(=O)NCCCNC(=O)c1ccc(-c2c3nc(c(-c4c(F)cc(S(=O)(=O)[O-])cc4F)c4ccc([nH]4)c(-c4c(F)cc(S(=O)(=O)[O-])cc4F)c4nc(c(-c5c(F)cc(S(=O)(=O)[O-])cc5F)c5ccc2[nH]5)C=C4)C=C3)cc1
REMARK SMILES IDX 28 1 27 2 25 3 26 4 24 6 1 7 2 8 3 9 4 10 5 11 6 12 7 13
REMARK SMILES IDX 8 15 9 16 23 17 10 18 22 19 11 20 12 21 13 22 14 24 15 25
REMARK SMILES IDX 16 26 17 27 21 28 18 30 20 31 19 32 29 33 30 34 31 35 32 36
REMARK SMILES IDX 33 38 34 39 35 40 99 41 36 42 98 43 37 44 38 45 39 46 92 47
REMARK SMILES IDX 40 48 97 49 91 50 93 51 41 52 96 53 90 54 89 55 42 57 76 58
REMARK SMILES IDX 55 59 75 60 56 61 59 62 74 63 94 64 57 65 58 66 73 68 95 69
REMARK SMILES IDX 60 70 43 71 44 72 53 73 45 74 46 75 52 76 54 77 47 78 48 79
REMARK SMILES IDX 49 80 50 81 51 82 77 83 78 84 87 85 79 86 80 87 86 88 88 89
REMARK SMILES IDX 81 90 82 91 83 92 84 93 85 94 61 95 62 96 71 97 63 98 64 99
REMARK SMILES IDX 70 100 72 101 65 102 66 103 67 104 68 105 69 106
REMARK H PARENT 27 5 7 14 12 23 16 29 31 37 93 56 59 67
REMARK Flexibility Score: inf
ROOT
ATOM      1  C   UNL A   1      33.138  29.898  27.067  1.00  0.00     0.117 C 
ENDROOT
BRANCH   1   2
ATOM      2  N   UNL A   1      32.130  28.921  27.436  1.00  0.00    -0.356 N 
ATOM      3  C   UNL A   1      31.792  27.763  26.787  1.00  0.00     0.224 C 
ATOM      4  O   UNL A   1      30.932  27.030  27.251  1.00  0.00    -0.275 OA
ATOM      5  H   UNL A   1      31.625  29.115  28.258  1.00  0.00     0.163 HD
BRANCH   3   6
ATOM      6  C   UNL A   1      32.372  27.521  25.452  1.00  0.00     0.098 C 
ATOM      7  C   UNL A   1      33.098  28.660  23.223  1.00  0.00     0.013 C 
ATOM      8  C   UNL A   1      31.984  28.287  24.181  1.00  0.00    -0.011 C 
ATOM      9  C   UNL A   1      30.905  29.326  24.201  1.00  0.00     0.013 C 
ATOM     10  C   UNL A   1      31.715  26.798  24.309  1.00  0.00     0.098 C 
BRANCH  10  11
ATOM     11  C   UNL A   1      30.435  26.025  24.231  1.00  0.00     0.228 C 
ATOM     12  O   UNL A   1      29.404  26.657  24.471  1.00  0.00    -0.274 OA
ATOM     13  N   UNL A   1      30.288  24.804  23.625  1.00  0.00    -0.326 N 
ATOM     14  H   UNL A   1      29.589  24.766  22.934  1.00  0.00     0.169 HD
BRANCH  13  15
ATOM     15  C   UNL A   1      30.971  23.610  23.835  1.00  0.00     0.041 A 
ATOM     16  C   UNL A   1      31.074  23.144  25.137  1.00  0.00     0.028 A 
ATOM     17  C   UNL A   1      31.597  22.917  22.808  1.00  0.00     0.028 A 
ATOM     18  C   UNL A   1      31.586  21.872  25.377  1.00  0.00     0.028 A 
ATOM     19  C   UNL A   1      32.171  21.665  23.064  1.00  0.00     0.028 A 
ATOM     20  C   UNL A   1      32.147  21.118  24.351  1.00  0.00     0.041 A 
BRANCH  20  21
ATOM     21  N   UNL A   1      32.654  19.817  24.511  1.00  0.00    -0.321 N 
ATOM     22  C   UNL A   1      33.918  19.337  24.735  1.00  0.00     0.279 C 
ATOM     23  H   UNL A   1      31.967  19.113  24.450  1.00  0.00     0.170 HD
ATOM     24  O   UNL A   1      34.035  18.131  24.992  1.00  0.00    -0.268 OA
BRANCH  22  25
ATOM     25  C   UNL A   1      35.169  20.223  24.626  1.00  0.00     0.363 C 
BRANCH  25  26
ATOM     26  N   UNL A   1      34.845  21.616  24.973  1.00  0.00    -0.327 N 
ATOM     27  C   UNL A   1      35.166  21.959  26.359  1.00  0.00     0.262 C 
ATOM     28  C   UNL A   1      35.416  22.580  24.030  1.00  0.00     0.262 C 
ATOM     29  H   UNL A   1      33.830  21.681  24.891  1.00  0.00     0.348 HD
ATOM     30  C   UNL A   1      34.526  23.307  26.696  1.00  0.00     0.062 C 
ATOM     31  C   UNL A   1      34.835  23.970  24.289  1.00  0.00     0.062 C 
ATOM     32  C   UNL A   1      35.007  24.397  25.745  1.00  0.00     0.012 C 
ENDBRANCH  25  26
ENDBRANCH  22  25
ENDBRANCH  20  21
ENDBRANCH  13  15
ENDBRANCH  10  11
ENDBRANCH   3   6
ENDBRANCH   1   2
BRANCH   1  33
ATOM     33  C   UNL A   1      34.509  29.583  27.638  1.00  0.00     0.042 C 
BRANCH  33  34
ATOM     34  C   UNL A   1      35.325  30.802  28.054  1.00  0.00     0.118 C 
BRANCH  34  35
ATOM     35  N   UNL A   1      35.386  31.014  29.496  1.00  0.00    -0.352 N 
ATOM     36  C   UNL A   1      36.348  30.667  30.416  1.00  0.00     0.251 C 
ATOM     37  H   UNL A   1      34.608  31.484  29.874  1.00  0.00     0.163 HD
ATOM     38  O   UNL A   1      36.137  30.867  31.609  1.00  0.00    -0.269 OA
BRANCH  36  39
ATOM     39  C   UNL A   1      37.605  30.018  29.980  1.00  0.00     0.039 A 
ATOM     40  C   UNL A   1      37.943  30.040  28.625  1.00  0.00     0.014 A 
ATOM     41  C   UNL A   1      38.462  29.415  30.900  1.00  0.00     0.014 A 
ATOM     42  C   UNL A   1      39.187  29.553  28.213  1.00  0.00     0.010 A 
ATOM     43  C   UNL A   1      39.739  29.031  30.507  1.00  0.00     0.010 A 
ATOM     44  C   UNL A   1      40.120  29.099  29.158  1.00  0.00    -0.014 A 
BRANCH  44  45
ATOM     45  C   UNL A   1      41.502  28.712  28.769  1.00  0.00     0.031 A 
ATOM     46  C   UNL A   1      42.589  29.749  28.683  1.00  0.00     0.074 A 
ATOM     47  C   UNL A   1      41.755  27.441  28.392  1.00  0.00     0.049 A 
ATOM     48  N   UNL A   1      43.824  29.621  28.274  1.00  0.00    -0.248 NA
ATOM     49  C   UNL A   1      42.227  31.122  29.072  1.00  0.00     0.031 C 
ATOM     50  C   UNL A   1      40.770  26.358  28.350  1.00  0.00     0.029 A 
ATOM     51  N   UNL A   1      42.914  26.850  27.955  1.00  0.00    -0.354 N 
ATOM     52  C   UNL A   1      44.375  30.896  28.324  1.00  0.00     0.074 A 
ATOM     53  C   UNL A   1      43.324  31.791  28.752  1.00  0.00     0.031 C 
ATOM     54  C   UNL A   1      41.371  25.232  27.935  1.00  0.00     0.029 A 
ATOM     55  C   UNL A   1      42.772  25.517  27.644  1.00  0.00     0.049 A 
ATOM     56  H   UNL A   1      43.767  27.334  27.871  1.00  0.00     0.167 HD
ATOM     57  C   UNL A   1      45.647  31.283  28.062  1.00  0.00     0.037 A 
ATOM     58  C   UNL A   1      43.665  24.625  27.173  1.00  0.00     0.037 A 
ATOM     59  C   UNL A   1      46.699  30.380  27.678  1.00  0.00     0.049 A 
ATOM     60  C   UNL A   1      45.083  25.062  26.937  1.00  0.00     0.074 A 
ATOM     61  C   UNL A   1      48.042  30.654  27.482  1.00  0.00     0.029 A 
ATOM     62  N   UNL A   1      46.528  29.026  27.425  1.00  0.00    -0.354 N 
ATOM     63  N   UNL A   1      45.610  26.256  27.075  1.00  0.00    -0.248 NA
ATOM     64  C   UNL A   1      46.031  24.033  26.490  1.00  0.00     0.031 C 
ATOM     65  C   UNL A   1      48.674  29.475  27.073  1.00  0.00     0.029 A 
ATOM     66  C   UNL A   1      47.735  28.456  27.054  1.00  0.00     0.049 A 
ATOM     67  H   UNL A   1      45.674  28.542  27.498  1.00  0.00     0.167 HD
ATOM     68  C   UNL A   1      46.953  26.119  26.748  1.00  0.00     0.074 A 
ATOM     69  C   UNL A   1      47.162  24.723  26.420  1.00  0.00     0.031 C 
ATOM     70  C   UNL A   1      47.926  27.064  26.724  1.00  0.00     0.037 A 
BRANCH  57  71
ATOM     71  C   UNL A   1      45.962  32.749  28.185  1.00  0.00     0.058 A 
ATOM     72  C   UNL A   1      46.435  33.307  29.384  1.00  0.00     0.135 A 
ATOM     73  C   UNL A   1      45.781  33.612  27.090  1.00  0.00     0.135 A 
ATOM     74  F   UNL A   1      46.614  32.531  30.466  1.00  0.00    -0.206 F 
ATOM     75  C   UNL A   1      46.669  34.672  29.511  1.00  0.00     0.059 A 
ATOM     76  C   UNL A   1      46.038  34.977  27.185  1.00  0.00     0.059 A 
ATOM     77  F   UNL A   1      45.335  33.133  25.919  1.00  0.00    -0.206 F 
ATOM     78  C   UNL A   1      46.459  35.500  28.408  1.00  0.00     0.060 A 
BRANCH  78  79
ATOM     79  S   UNL A   1      46.734  37.275  28.595  1.00  0.00     0.124 S 
ATOM     80  O   UNL A   1      45.509  37.685  29.276  1.00  0.00    -0.237 OA
ATOM     81  O   UNL A   1      47.950  37.321  29.399  1.00  0.00    -0.237 OA
ATOM     82  O   UNL A   1      46.875  37.744  27.221  1.00  0.00    -0.744 OA
ENDBRANCH  78  79
ENDBRANCH  57  71
BRANCH  58  83
ATOM     83  C   UNL A   1      43.238  23.222  26.932  1.00  0.00     0.058 A 
ATOM     84  C   UNL A   1      43.078  22.733  25.628  1.00  0.00     0.135 A 
ATOM     85  C   UNL A   1      43.041  22.328  27.997  1.00  0.00     0.135 A 
ATOM     86  F   UNL A   1      43.248  23.552  24.579  1.00  0.00    -0.206 F 
ATOM     87  C   UNL A   1      42.743  21.405  25.384  1.00  0.00     0.059 A 
ATOM     88  C   UNL A   1      42.727  20.990  27.778  1.00  0.00     0.059 A 
ATOM     89  F   UNL A   1      43.200  22.745  29.263  1.00  0.00    -0.206 F 
ATOM     90  C   UNL A   1      42.580  20.538  26.467  1.00  0.00     0.060 A 
BRANCH  90  91
ATOM     91  S   UNL A   1      42.239  18.795  26.137  1.00  0.00     0.124 S 
ATOM     92  O   UNL A   1      42.526  18.188  27.432  1.00  0.00    -0.237 OA
ATOM     93  O   UNL A   1      40.833  18.827  25.745  1.00  0.00    -0.237 OA
ATOM     94  O   UNL A   1      43.172  18.468  25.064  1.00  0.00    -0.744 OA
ENDBRANCH  90  91
ENDBRANCH  58  83
BRANCH  70  95
ATOM     95  C   UNL A   1      49.311  26.620  26.343  1.00  0.00     0.058 A 
ATOM     96  C   UNL A   1      50.143  25.948  27.251  1.00  0.00     0.135 A 
ATOM     97  C   UNL A   1      49.791  26.826  25.040  1.00  0.00     0.135 A 
ATOM     98  F   UNL A   1      49.734  25.731  28.512  1.00  0.00    -0.206 F 
ATOM     99  C   UNL A   1      51.414  25.513  26.886  1.00  0.00     0.059 A 
ATOM    100  C   UNL A   1      51.047  26.378  24.646  1.00  0.00     0.059 A 
ATOM    101  F   UNL A   1      49.030  27.455  24.130  1.00  0.00    -0.206 F 
ATOM    102  C   UNL A   1      51.857  25.732  25.580  1.00  0.00     0.060 A 
BRANCH 102 103
ATOM    103  S   UNL A   1      53.495  25.137  25.108  1.00  0.00     0.124 S 
ATOM    104  O   UNL A   1      53.385  23.713  25.405  1.00  0.00    -0.237 OA
ATOM    105  O   UNL A   1      53.559  25.488  23.693  1.00  0.00    -0.237 OA
ATOM    106  O   UNL A   1      54.393  25.892  25.976  1.00  0.00    -0.744 OA
ENDBRANCH 102 103
ENDBRANCH  70  95
ENDBRANCH  44  45
ENDBRANCH  36  39
ENDBRANCH  34  35
ENDBRANCH  33  34
ENDBRANCH   1  33
TORSDOF 18
ENDMDL
MODEL 3
REMARK VINA RESULT:     -12.3      0.775      7.990
REMARK SMILES CC1(C)[C@H](C(=O)Nc2ccc(NC(=O)C[NH+]3CCCCC3)cc2)[C@@H]1C(=O)NCCCNC(=O)c1ccc(-c2c3nc(c(-c4c(F)cc(S(=O)(=O)[O-])cc4F)c4ccc([nH]4)c(-c4c(F)cc(S(=O)(=O)[O-])cc4F)c4nc(c(-c5c(F)cc(S(=O)(=O)[O-])cc5F)c5ccc2[nH]5)C=C4)C=C3)cc1
REMARK SMILES IDX 28 1 27 2 25 3 26 4 24 6 1 7 2 8 3 9 4 10 5 11 6 12 7 13
REMARK SMILES IDX 8 15 9 16 23 17 10 18 22 19 11 20 12 21 13 22 14 24 15 25
REMARK SMILES IDX 16 26 17 27 21 28 18 30 20 31 19 32 29 33 30 34 31 35 32 36
REMARK SMILES IDX 33 38 34 39 35 40 99 41 36 42 98 43 37 44 38 45 39 46 92 47
REMARK SMILES IDX 40 48 97 49 91 50 93 51 41 52 96 53 90 54 89 55 42 57 76 58
REMARK SMILES IDX 55 59 75 60 56 61 59 62 74 63 94 64 57 65 58 66 73 68 95 69
REMARK SMILES IDX 60 70 43 71 44 72 53 73 45 74 46 75 52 76 54 77 47 78 48 79
REMARK SMILES IDX 49 80 50 81 51 82 77 83 78 84 87 85 79 86 80 87 86 88 88 89
REMARK SMILES IDX 81 90 82 91 83 92 84 93 85 94 61 95 62 96 71 97 63 98 64 99
REMARK SMILES IDX 70 100 72 101 65 102 66 103 67 104 68 105 69 106
REMARK H PARENT 27 5 7 14 12 23 16 29 31 37 93 56 59 67
REMARK Flexibility Score: inf
ROOT
ATOM      1  C   UNL A   1      37.569  22.273  25.553  1.00  0.00     0.117 C 
ENDROOT
BRANCH   1   2
ATOM      2  N   UNL A   1      36.494  21.885  26.447  1.00  0.00    -0.356 N 
ATOM      3  C   UNL A   1      35.210  21.530  26.129  1.00  0.00     0.224 C 
ATOM      4  O   UNL A   1      34.431  21.200  27.010  1.00  0.00    -0.275 OA
ATOM      5  H   UNL A   1      36.717  21.875  27.406  1.00  0.00     0.163 HD
BRANCH   3   6
ATOM      6  C   UNL A   1      34.764  21.717  24.736  1.00  0.00     0.098 C 
ATOM      7  C   UNL A   1      34.667  23.407  22.753  1.00  0.00     0.013 C 
ATOM      8  C   UNL A   1      34.234  23.035  24.158  1.00  0.00    -0.011 C 
ATOM      9  C   UNL A   1      34.070  24.249  25.022  1.00  0.00     0.013 C 
ATOM     10  C   UNL A   1      33.342  21.811  24.256  1.00  0.00     0.098 C 
BRANCH  10  11
ATOM     11  C   UNL A   1      32.041  21.603  24.968  1.00  0.00     0.228 C 
ATOM     12  O   UNL A   1      31.785  20.444  25.302  1.00  0.00    -0.274 OA
ATOM     13  N   UNL A   1      31.291  22.595  25.543  1.00  0.00    -0.326 N 
ATOM     14  H   UNL A   1      31.081  22.458  26.494  1.00  0.00     0.169 HD
BRANCH  13  15
ATOM     15  C   UNL A   1      30.778  23.765  24.991  1.00  0.00     0.041 A 
ATOM     16  C   UNL A   1      30.312  24.740  25.861  1.00  0.00     0.028 A 
ATOM     17  C   UNL A   1      30.661  23.958  23.622  1.00  0.00     0.028 A 
ATOM     18  C   UNL A   1      29.960  25.994  25.369  1.00  0.00     0.028 A 
ATOM     19  C   UNL A   1      30.244  25.200  23.128  1.00  0.00     0.028 A 
ATOM     20  C   UNL A   1      29.913  26.242  24.002  1.00  0.00     0.041 A 
BRANCH  20  21
ATOM     21  N   UNL A   1      29.598  27.488  23.433  1.00  0.00    -0.321 N 
ATOM     22  C   UNL A   1      30.376  28.504  22.941  1.00  0.00     0.279 C 
ATOM     23  H   UNL A   1      28.631  27.666  23.378  1.00  0.00     0.170 HD
ATOM     24  O   UNL A   1      29.802  29.429  22.352  1.00  0.00    -0.268 OA
BRANCH  22  25
ATOM     25  C   UNL A   1      31.898  28.550  23.144  1.00  0.00     0.363 C 
BRANCH  25  26
ATOM     26  N   UNL A   1      32.231  28.450  24.574  1.00  0.00    -0.327 N 
ATOM     27  C   UNL A   1      33.648  28.186  24.824  1.00  0.00     0.262 C 
ATOM     28  C   UNL A   1      31.749  29.596  25.347  1.00  0.00     0.262 C 
ATOM     29  H   UNL A   1      31.725  27.630  24.907  1.00  0.00     0.348 HD
ATOM     30  C   UNL A   1      33.829  27.807  26.295  1.00  0.00     0.062 C 
ATOM     31  C   UNL A   1      31.890  29.314  26.843  1.00  0.00     0.062 C 
ATOM     32  C   UNL A   1      33.315  28.910  27.214  1.00  0.00     0.012 C 
ENDBRANCH  25  26
ENDBRANCH  22  25
ENDBRANCH  20  21
ENDBRANCH  13  15
ENDBRANCH  10  11
ENDBRANCH   3   6
ENDBRANCH   1   2
BRANCH   1  33
ATOM     33  C   UNL A   1      38.899  22.448  26.263  1.00  0.00     0.042 C 
BRANCH  33  34
ATOM     34  C   UNL A   1      39.306  23.896  26.513  1.00  0.00     0.118 C 
BRANCH  34  35
ATOM     35  N   UNL A   1      40.658  24.220  26.068  1.00  0.00    -0.352 N 
ATOM     36  C   UNL A   1      41.500  25.246  26.427  1.00  0.00     0.251 C 
ATOM     37  H   UNL A   1      41.028  23.600  25.400  1.00  0.00     0.163 HD
ATOM     38  O   UNL A   1      42.572  25.375  25.842  1.00  0.00    -0.269 OA
BRANCH  36  39
ATOM     39  C   UNL A   1      41.102  26.214  27.474  1.00  0.00     0.039 A 
ATOM     40  C   UNL A   1      40.238  25.795  28.490  1.00  0.00     0.014 A 
ATOM     41  C   UNL A   1      41.597  27.518  27.478  1.00  0.00     0.014 A 
ATOM     42  C   UNL A   1      39.959  26.650  29.559  1.00  0.00     0.010 A 
ATOM     43  C   UNL A   1      41.406  28.327  28.592  1.00  0.00     0.010 A 
ATOM     44  C   UNL A   1      40.589  27.902  29.650  1.00  0.00    -0.014 A 
BRANCH  44  45
ATOM     45  C   UNL A   1      40.426  28.774  30.844  1.00  0.00     0.031 A 
ATOM     46  C   UNL A   1      39.375  29.851  30.863  1.00  0.00     0.074 A 
ATOM     47  C   UNL A   1      41.293  28.662  31.871  1.00  0.00     0.049 A 
ATOM     48  N   UNL A   1      39.145  30.765  31.769  1.00  0.00    -0.248 NA
ATOM     49  C   UNL A   1      38.492  29.936  29.688  1.00  0.00     0.031 C 
ATOM     50  C   UNL A   1      42.407  27.715  31.941  1.00  0.00     0.029 A 
ATOM     51  N   UNL A   1      41.383  29.365  33.048  1.00  0.00    -0.354 N 
ATOM     52  C   UNL A   1      38.116  31.551  31.262  1.00  0.00     0.074 A 
ATOM     53  C   UNL A   1      37.806  31.039  29.946  1.00  0.00     0.031 C 
ATOM     54  C   UNL A   1      43.054  27.879  33.106  1.00  0.00     0.029 A 
ATOM     55  C   UNL A   1      42.427  28.967  33.850  1.00  0.00     0.049 A 
ATOM     56  H   UNL A   1      40.760  30.086  33.293  1.00  0.00     0.167 HD
ATOM     57  C   UNL A   1      37.473  32.589  31.848  1.00  0.00     0.037 A 
ATOM     58  C   UNL A   1      42.839  29.426  35.048  1.00  0.00     0.037 A 
ATOM     59  C   UNL A   1      37.758  33.067  33.175  1.00  0.00     0.049 A 
ATOM     60  C   UNL A   1      42.080  30.545  35.704  1.00  0.00     0.074 A 
ATOM     61  C   UNL A   1      37.101  34.048  33.898  1.00  0.00     0.029 A 
ATOM     62  N   UNL A   1      38.789  32.601  33.979  1.00  0.00    -0.354 N 
ATOM     63  N   UNL A   1      41.052  31.220  35.248  1.00  0.00    -0.248 NA
ATOM     64  C   UNL A   1      42.529  30.959  37.040  1.00  0.00     0.031 C 
ATOM     65  C   UNL A   1      37.759  34.203  35.123  1.00  0.00     0.029 A 
ATOM     66  C   UNL A   1      38.800  33.289  35.181  1.00  0.00     0.049 A 
ATOM     67  H   UNL A   1      39.420  31.887  33.732  1.00  0.00     0.167 HD
ATOM     68  C   UNL A   1      40.720  32.128  36.245  1.00  0.00     0.074 A 
ATOM     69  C   UNL A   1      41.648  31.906  37.337  1.00  0.00     0.031 C 
ATOM     70  C   UNL A   1      39.735  33.061  36.257  1.00  0.00     0.037 A 
BRANCH  57  71
ATOM     71  C   UNL A   1      36.397  33.274  31.049  1.00  0.00     0.058 A 
ATOM     72  C   UNL A   1      36.698  34.076  29.935  1.00  0.00     0.135 A 
ATOM     73  C   UNL A   1      35.045  33.132  31.404  1.00  0.00     0.135 A 
ATOM     74  F   UNL A   1      37.974  34.258  29.558  1.00  0.00    -0.206 F 
ATOM     75  C   UNL A   1      35.705  34.754  29.236  1.00  0.00     0.059 A 
ATOM     76  C   UNL A   1      34.032  33.776  30.699  1.00  0.00     0.059 A 
ATOM     77  F   UNL A   1      34.699  32.374  32.457  1.00  0.00    -0.206 F 
ATOM     78  C   UNL A   1      34.375  34.605  29.631  1.00  0.00     0.060 A 
BRANCH  78  79
ATOM     79  S   UNL A   1      33.100  35.516  28.736  1.00  0.00     0.124 S 
ATOM     80  O   UNL A   1      32.236  35.952  29.829  1.00  0.00    -0.237 OA
ATOM     81  O   UNL A   1      33.868  36.568  28.079  1.00  0.00    -0.237 OA
ATOM     82  O   UNL A   1      32.527  34.513  27.845  1.00  0.00    -0.744 OA
ENDBRANCH  78  79
ENDBRANCH  57  71
BRANCH  58  83
ATOM     83  C   UNL A   1      44.010  28.794  35.709  1.00  0.00     0.058 A 
ATOM     84  C   UNL A   1      45.302  29.308  35.530  1.00  0.00     0.135 A 
ATOM     85  C   UNL A   1      43.853  27.704  36.581  1.00  0.00     0.135 A 
ATOM     86  F   UNL A   1      45.502  30.344  34.701  1.00  0.00    -0.206 F 
ATOM     87  C   UNL A   1      46.399  28.769  36.193  1.00  0.00     0.059 A 
ATOM     88  C   UNL A   1      44.932  27.162  37.272  1.00  0.00     0.059 A 
ATOM     89  F   UNL A   1      42.634  27.188  36.799  1.00  0.00    -0.206 F 
ATOM     90  C   UNL A   1      46.202  27.701  37.072  1.00  0.00     0.060 A 
BRANCH  90  91
ATOM     91  S   UNL A   1      47.617  27.070  38.000  1.00  0.00     0.124 S 
ATOM     92  O   UNL A   1      48.358  28.295  38.277  1.00  0.00    -0.237 OA
ATOM     93  O   UNL A   1      46.972  26.440  39.149  1.00  0.00    -0.237 OA
ATOM     94  O   UNL A   1      48.247  26.146  37.063  1.00  0.00    -0.744 OA
ENDBRANCH  90  91
ENDBRANCH  58  83
BRANCH  70  95
ATOM     95  C   UNL A   1      39.597  33.905  37.494  1.00  0.00     0.058 A 
ATOM     96  C   UNL A   1      38.869  33.462  38.608  1.00  0.00     0.135 A 
ATOM     97  C   UNL A   1      40.242  35.148  37.582  1.00  0.00     0.135 A 
ATOM     98  F   UNL A   1      38.228  32.282  38.573  1.00  0.00    -0.206 F 
ATOM     99  C   UNL A   1      38.768  34.234  39.762  1.00  0.00     0.059 A 
ATOM    100  C   UNL A   1      40.175  35.925  38.733  1.00  0.00     0.059 A 
ATOM    101  F   UNL A   1      40.960  35.613  36.547  1.00  0.00    -0.206 F 
ATOM    102  C   UNL A   1      39.425  35.464  39.815  1.00  0.00     0.060 A 
BRANCH 102 103
ATOM    103  S   UNL A   1      39.312  36.443  41.328  1.00  0.00     0.124 S 
ATOM    104  O   UNL A   1      40.678  36.358  41.834  1.00  0.00    -0.237 OA
ATOM    105  O   UNL A   1      38.903  37.750  40.824  1.00  0.00    -0.237 OA
ATOM    106  O   UNL A   1      38.306  35.737  42.115  1.00  0.00    -0.744 OA
ENDBRANCH 102 103
ENDBRANCH  70  95
ENDBRANCH  44  45
ENDBRANCH  36  39
ENDBRANCH  34  35
ENDBRANCH  33  34
ENDBRANCH   1  33
TORSDOF 18
ENDMDL
