MODEL 1
REMARK VINA RESULT:     -11.9      0.000      0.000
REMARK SMILES Cc1cc(C[N@@H+]2CC[C@@H](C(=O)NCCCNC(=O)c3ccc(-c4c5nc(c(-c6c(F)cc(S(=O)(=O)[O-])cc6F)c6ccc([nH]6)c(-c6c(F)cc(S(=O)(=O)[O-])cc6F)c6nc(c(-c7c(F)cc(S(=O)(=O)[O-])cc7F)c7ccc4[nH]7)C=C6)C=C5)cc3)C2)ccc1Br
REMARK SMILES IDX 14 1 13 2 12 3 10 4 11 5 9 7 6 8 7 9 85 10 8 12 5 13 4 14
REMARK SMILES IDX 1 15 2 16 3 17 88 18 87 19 89 20 86 21 15 22 16 23 17 24
REMARK SMILES IDX 18 26 19 27 20 28 84 29 21 30 83 31 22 32 23 33 24 34 77 35
REMARK SMILES IDX 25 36 82 37 76 38 78 39 26 40 81 41 75 42 74 43 27 45 61 46
REMARK SMILES IDX 40 47 60 48 41 49 44 50 59 51 79 52 42 53 43 54 58 56 80 57
REMARK SMILES IDX 45 58 28 59 29 60 38 61 30 62 31 63 37 64 39 65 32 66 33 67
REMARK SMILES IDX 34 68 35 69 36 70 62 71 63 72 72 73 64 74 65 75 71 76 73 77
REMARK SMILES IDX 66 78 67 79 68 80 69 81 70 82 46 83 47 84 56 85 48 86 49 87
REMARK SMILES IDX 55 88 57 89 50 90 51 91 52 92 53 93 54 94
REMARK H PARENT 12 6 6 11 16 25 78 44 44 55
REMARK Flexibility Score: inf
ROOT
ATOM      1  C   UNL A   1      39.195  22.504  26.521  1.00  0.00     0.042 C 
ENDROOT
BRANCH   1   2
ATOM      2  C   UNL A   1      38.150  23.482  26.007  1.00  0.00     0.117 C 
BRANCH   2   3
ATOM      3  N   UNL A   1      37.773  23.231  24.631  1.00  0.00    -0.356 N 
ATOM      4  C   UNL A   1      36.608  22.902  24.024  1.00  0.00     0.229 C 
ATOM      5  O   UNL A   1      36.649  22.813  22.790  1.00  0.00    -0.275 OA
ATOM      6  H   UNL A   1      38.526  23.318  24.003  1.00  0.00     0.163 HD
BRANCH   4   7
ATOM      7  C   UNL A   1      35.307  22.579  24.743  1.00  0.00     0.139 C 
ATOM      8  N   UNL A   1      33.484  21.091  24.189  1.00  0.00    -0.330 N 
ATOM      9  C   UNL A   1      34.454  20.354  24.993  1.00  0.00     0.263 C 
ATOM     10  C   UNL A   1      34.159  22.325  23.762  1.00  0.00     0.276 C 
ATOM     11  H   UNL A   1      33.218  20.549  23.367  1.00  0.00     0.348 HD
ATOM     12  C   UNL A   1      35.272  21.418  25.715  1.00  0.00     0.081 C 
BRANCH   8  13
ATOM     13  C   UNL A   1      32.146  21.243  24.783  1.00  0.00     0.299 C 
BRANCH  13  14
ATOM     14  C   UNL A   1      31.736  22.631  25.236  1.00  0.00     0.007 A 
ATOM     15  C   UNL A   1      29.963  25.687  23.815  1.00  0.00     0.045 C 
ATOM     16  C   UNL A   1      30.767  24.823  24.743  1.00  0.00    -0.036 A 
ATOM     17  C   UNL A   1      31.053  23.497  24.371  1.00  0.00     0.014 A 
ATOM     18  C   UNL A   1      31.253  25.298  25.970  1.00  0.00     0.020 A 
ATOM     19  C   UNL A   1      31.875  24.430  26.865  1.00  0.00     0.016 A 
ATOM     20  Br  UNL A   1      31.123  27.124  26.472  1.00  0.00    -0.051 Br
ATOM     21  C   UNL A   1      32.057  23.092  26.521  1.00  0.00     0.011 A 
ENDBRANCH  13  14
ENDBRANCH   8  13
ENDBRANCH   4   7
ENDBRANCH   2   3
ENDBRANCH   1   2
BRANCH   1  22
ATOM     22  C   UNL A   1      40.392  23.229  27.108  1.00  0.00     0.118 C 
BRANCH  22  23
ATOM     23  N   UNL A   1      41.127  23.973  26.085  1.00  0.00    -0.352 N 
ATOM     24  C   UNL A   1      41.500  25.288  26.045  1.00  0.00     0.251 C 
ATOM     25  H   UNL A   1      41.396  23.443  25.300  1.00  0.00     0.163 HD
ATOM     26  O   UNL A   1      41.938  25.759  24.995  1.00  0.00    -0.269 OA
BRANCH  24  27
ATOM     27  C   UNL A   1      41.360  26.133  27.243  1.00  0.00     0.039 A 
ATOM     28  C   UNL A   1      42.298  27.142  27.469  1.00  0.00     0.014 A 
ATOM     29  C   UNL A   1      40.310  25.930  28.143  1.00  0.00     0.014 A 
ATOM     30  C   UNL A   1      42.150  27.978  28.573  1.00  0.00     0.010 A 
ATOM     31  C   UNL A   1      40.101  26.833  29.174  1.00  0.00     0.010 A 
ATOM     32  C   UNL A   1      41.031  27.852  29.412  1.00  0.00    -0.014 A 
BRANCH  32  33
ATOM     33  C   UNL A   1      40.827  28.769  30.555  1.00  0.00     0.031 A 
ATOM     34  C   UNL A   1      41.659  28.616  31.798  1.00  0.00     0.074 A 
ATOM     35  C   UNL A   1      39.857  29.702  30.482  1.00  0.00     0.049 A 
ATOM     36  N   UNL A   1      41.611  29.301  32.910  1.00  0.00    -0.248 NA
ATOM     37  C   UNL A   1      42.655  27.529  31.810  1.00  0.00     0.031 C 
ATOM     38  C   UNL A   1      38.945  29.886  29.349  1.00  0.00     0.029 A 
ATOM     39  N   UNL A   1      39.474  30.666  31.375  1.00  0.00    -0.354 N 
ATOM     40  C   UNL A   1      42.552  28.722  33.753  1.00  0.00     0.074 A 
ATOM     41  C   UNL A   1      43.114  27.590  33.052  1.00  0.00     0.031 C 
ATOM     42  C   UNL A   1      38.131  30.923  29.604  1.00  0.00     0.029 A 
ATOM     43  C   UNL A   1      38.435  31.450  30.929  1.00  0.00     0.049 A 
ATOM     44  H   UNL A   1      39.900  30.787  32.254  1.00  0.00     0.167 HD
ATOM     45  C   UNL A   1      42.933  29.118  34.990  1.00  0.00     0.037 A 
ATOM     46  C   UNL A   1      37.800  32.475  31.526  1.00  0.00     0.037 A 
ATOM     47  C   UNL A   1      42.386  30.269  35.660  1.00  0.00     0.049 A 
ATOM     48  C   UNL A   1      38.261  32.910  32.890  1.00  0.00     0.074 A 
ATOM     49  C   UNL A   1      42.751  30.806  36.880  1.00  0.00     0.029 A 
ATOM     50  N   UNL A   1      41.357  31.058  35.165  1.00  0.00    -0.354 N 
ATOM     51  N   UNL A   1      39.213  32.405  33.639  1.00  0.00    -0.248 NA
ATOM     52  C   UNL A   1      37.572  34.061  33.485  1.00  0.00     0.031 C 
ATOM     53  C   UNL A   1      41.906  31.888  37.149  1.00  0.00     0.029 A 
ATOM     54  C   UNL A   1      41.056  32.063  36.069  1.00  0.00     0.049 A 
ATOM     55  H   UNL A   1      40.909  30.924  34.299  1.00  0.00     0.167 HD
ATOM     56  C   UNL A   1      39.252  33.191  34.785  1.00  0.00     0.074 A 
ATOM     57  C   UNL A   1      38.244  34.219  34.617  1.00  0.00     0.031 C 
ATOM     58  C   UNL A   1      40.046  33.075  35.879  1.00  0.00     0.037 A 
BRANCH  45  59
ATOM     59  C   UNL A   1      43.991  28.313  35.694  1.00  0.00     0.058 A 
ATOM     60  C   UNL A   1      43.663  27.276  36.582  1.00  0.00     0.135 A 
ATOM     61  C   UNL A   1      45.351  28.548  35.439  1.00  0.00     0.135 A 
ATOM     62  F   UNL A   1      42.379  27.020  36.881  1.00  0.00    -0.206 F 
ATOM     63  C   UNL A   1      44.645  26.513  37.206  1.00  0.00     0.059 A 
ATOM     64  C   UNL A   1      46.349  27.777  36.028  1.00  0.00     0.059 A 
ATOM     65  F   UNL A   1      45.723  29.532  34.604  1.00  0.00    -0.206 F 
ATOM     66  C   UNL A   1      45.986  26.767  36.916  1.00  0.00     0.060 A 
BRANCH  66  67
ATOM     67  S   UNL A   1      47.245  25.744  37.709  1.00  0.00     0.124 S 
ATOM     68  O   UNL A   1      48.061  25.348  36.565  1.00  0.00    -0.237 OA
ATOM     69  O   UNL A   1      47.869  26.683  38.635  1.00  0.00    -0.237 OA
ATOM     70  O   UNL A   1      46.473  24.672  38.330  1.00  0.00    -0.744 OA
ENDBRANCH  66  67
ENDBRANCH  45  59
BRANCH  46  71
ATOM     71  C   UNL A   1      36.681  33.165  30.831  1.00  0.00     0.058 A 
ATOM     72  C   UNL A   1      35.345  32.908  31.172  1.00  0.00     0.135 A 
ATOM     73  C   UNL A   1      36.925  34.105  29.816  1.00  0.00     0.135 A 
ATOM     74  F   UNL A   1      35.058  32.019  32.137  1.00  0.00    -0.206 F 
ATOM     75  C   UNL A   1      34.290  33.533  30.515  1.00  0.00     0.059 A 
ATOM     76  C   UNL A   1      35.888  34.765  29.165  1.00  0.00     0.059 A 
ATOM     77  F   UNL A   1      38.185  34.405  29.467  1.00  0.00    -0.206 F 
ATOM     78  C   UNL A   1      34.573  34.461  29.511  1.00  0.00     0.060 A 
BRANCH  78  79
ATOM     79  S   UNL A   1      33.199  35.290  28.685  1.00  0.00     0.124 S 
ATOM     80  O   UNL A   1      32.509  35.907  29.812  1.00  0.00    -0.237 OA
ATOM     81  O   UNL A   1      33.891  36.204  27.781  1.00  0.00    -0.237 OA
ATOM     82  O   UNL A   1      32.489  34.194  28.033  1.00  0.00    -0.744 OA
ENDBRANCH  78  79
ENDBRANCH  46  71
BRANCH  58  83
ATOM     83  C   UNL A   1      39.874  34.102  36.962  1.00  0.00     0.058 A 
ATOM     84  C   UNL A   1      40.522  35.346  36.910  1.00  0.00     0.135 A 
ATOM     85  C   UNL A   1      39.022  33.850  38.050  1.00  0.00     0.135 A 
ATOM     86  F   UNL A   1      41.350  35.636  35.894  1.00  0.00    -0.206 F 
ATOM     87  C   UNL A   1      40.362  36.289  37.919  1.00  0.00     0.059 A 
ATOM     88  C   UNL A   1      38.820  34.792  39.052  1.00  0.00     0.059 A 
ATOM     89  F   UNL A   1      38.367  32.682  38.140  1.00  0.00    -0.206 F 
ATOM     90  C   UNL A   1      39.509  36.002  38.987  1.00  0.00     0.060 A 
BRANCH  90  91
ATOM     91  S   UNL A   1      39.302  37.239  40.284  1.00  0.00     0.124 S 
ATOM     92  O   UNL A   1      38.590  36.478  41.304  1.00  0.00    -0.237 OA
ATOM     93  O   UNL A   1      40.683  37.590  40.603  1.00  0.00    -0.237 OA
ATOM     94  O   UNL A   1      38.529  38.290  39.631  1.00  0.00    -0.744 OA
ENDBRANCH  90  91
ENDBRANCH  58  83
ENDBRANCH  32  33
ENDBRANCH  24  27
ENDBRANCH  22  23
ENDBRANCH   1  22
TORSDOF 15
ENDMDL
MODEL 2
REMARK VINA RESULT:     -11.8      5.430     12.121
REMARK SMILES Cc1cc(C[N@@H+]2CC[C@@H](C(=O)NCCCNC(=O)c3ccc(-c4c5nc(c(-c6c(F)cc(S(=O)(=O)[O-])cc6F)c6ccc([nH]6)c(-c6c(F)cc(S(=O)(=O)[O-])cc6F)c6nc(c(-c7c(F)cc(S(=O)(=O)[O-])cc7F)c7ccc4[nH]7)C=C6)C=C5)cc3)C2)ccc1Br
REMARK SMILES IDX 14 1 13 2 12 3 10 4 11 5 9 7 6 8 7 9 85 10 8 12 5 13 4 14
REMARK SMILES IDX 1 15 2 16 3 17 88 18 87 19 89 20 86 21 15 22 16 23 17 24
REMARK SMILES IDX 18 26 19 27 20 28 84 29 21 30 83 31 22 32 23 33 24 34 77 35
REMARK SMILES IDX 25 36 82 37 76 38 78 39 26 40 81 41 75 42 74 43 27 45 61 46
REMARK SMILES IDX 40 47 60 48 41 49 44 50 59 51 79 52 42 53 43 54 58 56 80 57
REMARK SMILES IDX 45 58 28 59 29 60 38 61 30 62 31 63 37 64 39 65 32 66 33 67
REMARK SMILES IDX 34 68 35 69 36 70 62 71 63 72 72 73 64 74 65 75 71 76 73 77
REMARK SMILES IDX 66 78 67 79 68 80 69 81 70 82 46 83 47 84 56 85 48 86 49 87
REMARK SMILES IDX 55 88 57 89 50 90 51 91 52 92 53 93 54 94
REMARK H PARENT 12 6 6 11 16 25 78 44 44 55
REMARK Flexibility Score: inf
ROOT
ATOM      1  C   UNL A   1      33.790  33.583  28.020  1.00  0.00     0.042 C 
ENDROOT
BRANCH   1   2
ATOM      2  C   UNL A   1      34.741  34.768  27.967  1.00  0.00     0.117 C 
BRANCH   2   3
ATOM      3  N   UNL A   1      34.106  36.016  28.337  1.00  0.00    -0.356 N 
ATOM      4  C   UNL A   1      33.526  36.470  29.473  1.00  0.00     0.229 C 
ATOM      5  O   UNL A   1      33.121  37.639  29.442  1.00  0.00    -0.275 OA
ATOM      6  H   UNL A   1      34.093  36.673  27.605  1.00  0.00     0.163 HD
BRANCH   4   7
ATOM      7  C   UNL A   1      33.288  35.642  30.727  1.00  0.00     0.139 C 
ATOM      8  N   UNL A   1      34.599  35.339  32.735  1.00  0.00    -0.330 N 
ATOM      9  C   UNL A   1      33.686  36.458  32.944  1.00  0.00     0.263 C 
ATOM     10  C   UNL A   1      34.591  35.068  31.291  1.00  0.00     0.276 C 
ATOM     11  H   UNL A   1      35.543  35.592  33.026  1.00  0.00     0.348 HD
ATOM     12  C   UNL A   1      32.583  36.279  31.906  1.00  0.00     0.081 C 
BRANCH   8  13
ATOM     13  C   UNL A   1      34.407  34.183  33.624  1.00  0.00     0.299 C 
BRANCH  13  14
ATOM     14  C   UNL A   1      35.484  33.116  33.626  1.00  0.00     0.007 A 
ATOM     15  C   UNL A   1      38.548  32.158  35.675  1.00  0.00     0.045 C 
ATOM     16  C   UNL A   1      37.547  32.185  34.556  1.00  0.00    -0.036 A 
ATOM     17  C   UNL A   1      36.483  33.103  34.609  1.00  0.00     0.014 A 
ATOM     18  C   UNL A   1      37.645  31.331  33.448  1.00  0.00     0.020 A 
ATOM     19  C   UNL A   1      36.626  31.289  32.499  1.00  0.00     0.016 A 
ATOM     20  Br  UNL A   1      39.154  30.216  33.160  1.00  0.00    -0.051 Br
ATOM     21  C   UNL A   1      35.525  32.134  32.625  1.00  0.00     0.011 A 
ENDBRANCH  13  14
ENDBRANCH   8  13
ENDBRANCH   4   7
ENDBRANCH   2   3
ENDBRANCH   1   2
BRANCH   1  22
ATOM     22  C   UNL A   1      34.418  32.397  28.731  1.00  0.00     0.118 C 
BRANCH  22  23
ATOM     23  N   UNL A   1      33.852  31.129  28.269  1.00  0.00    -0.352 N 
ATOM     24  C   UNL A   1      34.468  29.957  27.932  1.00  0.00     0.251 C 
ATOM     25  H   UNL A   1      32.870  31.119  28.191  1.00  0.00     0.163 HD
ATOM     26  O   UNL A   1      33.817  29.072  27.374  1.00  0.00    -0.269 OA
BRANCH  24  27
ATOM     27  C   UNL A   1      35.899  29.764  28.217  1.00  0.00     0.039 A 
ATOM     28  C   UNL A   1      36.280  29.314  29.483  1.00  0.00     0.014 A 
ATOM     29  C   UNL A   1      36.865  30.029  27.242  1.00  0.00     0.014 A 
ATOM     30  C   UNL A   1      37.627  29.083  29.750  1.00  0.00     0.010 A 
ATOM     31  C   UNL A   1      38.189  29.690  27.473  1.00  0.00     0.010 A 
ATOM     32  C   UNL A   1      38.586  29.235  28.735  1.00  0.00    -0.014 A 
BRANCH  32  33
ATOM     33  C   UNL A   1      40.013  28.937  28.985  1.00  0.00     0.031 A 
ATOM     34  C   UNL A   1      40.910  29.994  29.568  1.00  0.00     0.074 A 
ATOM     35  C   UNL A   1      40.502  27.731  28.636  1.00  0.00     0.049 A 
ATOM     36  N   UNL A   1      42.188  29.934  29.833  1.00  0.00    -0.248 NA
ATOM     37  C   UNL A   1      40.302  31.304  29.862  1.00  0.00     0.031 C 
ATOM     38  C   UNL A   1      39.733  26.660  27.996  1.00  0.00     0.029 A 
ATOM     39  N   UNL A   1      41.759  27.202  28.767  1.00  0.00    -0.354 N 
ATOM     40  C   UNL A   1      42.537  31.193  30.307  1.00  0.00     0.074 A 
ATOM     41  C   UNL A   1      41.353  32.019  30.236  1.00  0.00     0.031 C 
ATOM     42  C   UNL A   1      40.526  25.591  27.821  1.00  0.00     0.029 A 
ATOM     43  C   UNL A   1      41.866  25.913  28.298  1.00  0.00     0.049 A 
ATOM     44  H   UNL A   1      42.514  27.697  29.158  1.00  0.00     0.167 HD
ATOM     45  C   UNL A   1      43.731  31.613  30.786  1.00  0.00     0.037 A 
ATOM     46  C   UNL A   1      42.929  25.088  28.256  1.00  0.00     0.037 A 
ATOM     47  C   UNL A   1      44.892  30.767  30.882  1.00  0.00     0.049 A 
ATOM     48  C   UNL A   1      44.238  25.572  28.819  1.00  0.00     0.074 A 
ATOM     49  C   UNL A   1      46.130  31.065  31.420  1.00  0.00     0.029 A 
ATOM     50  N   UNL A   1      44.956  29.457  30.426  1.00  0.00    -0.354 N 
ATOM     51  N   UNL A   1      44.528  26.740  29.344  1.00  0.00    -0.248 NA
ATOM     52  C   UNL A   1      45.359  24.626  28.796  1.00  0.00     0.031 C 
ATOM     53  C   UNL A   1      46.960  29.954  31.240  1.00  0.00     0.029 A 
ATOM     54  C   UNL A   1      46.222  28.942  30.646  1.00  0.00     0.049 A 
ATOM     55  H   UNL A   1      44.211  28.968  30.008  1.00  0.00     0.167 HD
ATOM     56  C   UNL A   1      45.860  26.660  29.734  1.00  0.00     0.074 A 
ATOM     57  C   UNL A   1      46.308  25.321  29.406  1.00  0.00     0.031 C 
ATOM     58  C   UNL A   1      46.644  27.606  30.310  1.00  0.00     0.037 A 
BRANCH  45  59
ATOM     59  C   UNL A   1      43.843  33.040  31.249  1.00  0.00     0.058 A 
ATOM     60  C   UNL A   1      43.506  33.423  32.557  1.00  0.00     0.135 A 
ATOM     61  C   UNL A   1      44.343  34.031  30.388  1.00  0.00     0.135 A 
ATOM     62  F   UNL A   1      43.002  32.523  33.417  1.00  0.00    -0.206 F 
ATOM     63  C   UNL A   1      43.642  34.738  32.990  1.00  0.00     0.059 A 
ATOM     64  C   UNL A   1      44.518  35.346  30.809  1.00  0.00     0.059 A 
ATOM     65  F   UNL A   1      44.675  33.723  29.124  1.00  0.00    -0.206 F 
ATOM     66  C   UNL A   1      44.156  35.691  32.110  1.00  0.00     0.060 A 
BRANCH  66  67
ATOM     67  S   UNL A   1      44.359  37.385  32.700  1.00  0.00     0.124 S 
ATOM     68  O   UNL A   1      45.803  37.452  32.904  1.00  0.00    -0.237 OA
ATOM     69  O   UNL A   1      43.841  38.166  31.582  1.00  0.00    -0.237 OA
ATOM     70  O   UNL A   1      43.551  37.422  33.916  1.00  0.00    -0.744 OA
ENDBRANCH  66  67
ENDBRANCH  45  59
BRANCH  46  71
ATOM     71  C   UNL A   1      42.792  23.724  27.681  1.00  0.00     0.058 A 
ATOM     72  C   UNL A   1      42.856  23.510  26.296  1.00  0.00     0.135 A 
ATOM     73  C   UNL A   1      42.604  22.603  28.506  1.00  0.00     0.135 A 
ATOM     74  F   UNL A   1      43.036  24.548  25.465  1.00  0.00    -0.206 F 
ATOM     75  C   UNL A   1      42.709  22.241  25.746  1.00  0.00     0.059 A 
ATOM     76  C   UNL A   1      42.485  21.320  27.982  1.00  0.00     0.059 A 
ATOM     77  F   UNL A   1      42.559  22.750  29.839  1.00  0.00    -0.206 F 
ATOM     78  C   UNL A   1      42.523  21.151  26.599  1.00  0.00     0.060 A 
BRANCH  78  79
ATOM     79  S   UNL A   1      42.365  19.503  25.878  1.00  0.00     0.124 S 
ATOM     80  O   UNL A   1      40.993  19.531  25.383  1.00  0.00    -0.237 OA
ATOM     81  O   UNL A   1      43.412  19.512  24.861  1.00  0.00    -0.237 OA
ATOM     82  O   UNL A   1      42.610  18.616  27.011  1.00  0.00    -0.744 OA
ENDBRANCH  78  79
ENDBRANCH  46  71
BRANCH  58  83
ATOM     83  C   UNL A   1      48.056  27.213  30.646  1.00  0.00     0.058 A 
ATOM     84  C   UNL A   1      49.103  27.358  29.722  1.00  0.00     0.135 A 
ATOM     85  C   UNL A   1      48.369  26.717  31.922  1.00  0.00     0.135 A 
ATOM     86  F   UNL A   1      48.855  27.824  28.488  1.00  0.00    -0.206 F 
ATOM     87  C   UNL A   1      50.405  26.988  30.038  1.00  0.00     0.059 A 
ATOM     88  C   UNL A   1      49.671  26.374  32.271  1.00  0.00     0.059 A 
ATOM     89  F   UNL A   1      47.408  26.573  32.848  1.00  0.00    -0.206 F 
ATOM     90  C   UNL A   1      50.678  26.496  31.316  1.00  0.00     0.060 A 
BRANCH  90  91
ATOM     91  S   UNL A   1      52.374  26.029  31.717  1.00  0.00     0.124 S 
ATOM     92  O   UNL A   1      53.048  26.246  30.441  1.00  0.00    -0.237 OA
ATOM     93  O   UNL A   1      52.713  26.970  32.781  1.00  0.00    -0.237 OA
ATOM     94  O   UNL A   1      52.254  24.636  32.135  1.00  0.00    -0.744 OA
ENDBRANCH  90  91
ENDBRANCH  58  83
ENDBRANCH  32  33
ENDBRANCH  24  27
ENDBRANCH  22  23
ENDBRANCH   1  22
TORSDOF 15
ENDMDL
MODEL 3
REMARK VINA RESULT:     -11.8      3.499      9.562
REMARK SMILES Cc1cc(C[N@@H+]2CC[C@@H](C(=O)NCCCNC(=O)c3ccc(-c4c5nc(c(-c6c(F)cc(S(=O)(=O)[O-])cc6F)c6ccc([nH]6)c(-c6c(F)cc(S(=O)(=O)[O-])cc6F)c6nc(c(-c7c(F)cc(S(=O)(=O)[O-])cc7F)c7ccc4[nH]7)C=C6)C=C5)cc3)C2)ccc1Br
REMARK SMILES IDX 14 1 13 2 12 3 10 4 11 5 9 7 6 8 7 9 85 10 8 12 5 13 4 14
REMARK SMILES IDX 1 15 2 16 3 17 88 18 87 19 89 20 86 21 15 22 16 23 17 24
REMARK SMILES IDX 18 26 19 27 20 28 84 29 21 30 83 31 22 32 23 33 24 34 77 35
REMARK SMILES IDX 25 36 82 37 76 38 78 39 26 40 81 41 75 42 74 43 27 45 61 46
REMARK SMILES IDX 40 47 60 48 41 49 44 50 59 51 79 52 42 53 43 54 58 56 80 57
REMARK SMILES IDX 45 58 28 59 29 60 38 61 30 62 31 63 37 64 39 65 32 66 33 67
REMARK SMILES IDX 34 68 35 69 36 70 62 71 63 72 72 73 64 74 65 75 71 76 73 77
REMARK SMILES IDX 66 78 67 79 68 80 69 81 70 82 46 83 47 84 56 85 48 86 49 87
REMARK SMILES IDX 55 88 57 89 50 90 51 91 52 92 53 93 54 94
REMARK H PARENT 12 6 6 11 16 25 78 44 44 55
REMARK Flexibility Score: inf
ROOT
ATOM      1  C   UNL A   1      32.968  27.701  26.915  1.00  0.00     0.042 C 
ENDROOT
BRANCH   1   2
ATOM      2  C   UNL A   1      31.593  27.840  26.280  1.00  0.00     0.117 C 
BRANCH   2   3
ATOM      3  N   UNL A   1      30.752  26.683  26.502  1.00  0.00    -0.356 N 
ATOM      4  C   UNL A   1      30.780  25.405  26.055  1.00  0.00     0.229 C 
ATOM      5  O   UNL A   1      29.903  24.656  26.504  1.00  0.00    -0.275 OA
ATOM      6  H   UNL A   1      29.997  26.865  27.107  1.00  0.00     0.163 HD
BRANCH   4   7
ATOM      7  C   UNL A   1      31.750  24.862  25.016  1.00  0.00     0.139 C 
ATOM      8  N   UNL A   1      33.080  22.844  24.948  1.00  0.00    -0.330 N 
ATOM      9  C   UNL A   1      31.792  22.570  24.319  1.00  0.00     0.263 C 
ATOM     10  C   UNL A   1      32.924  24.120  25.661  1.00  0.00     0.276 C 
ATOM     11  H   UNL A   1      33.312  22.110  25.616  1.00  0.00     0.348 HD
ATOM     12  C   UNL A   1      31.230  23.935  23.937  1.00  0.00     0.081 C 
BRANCH   8  13
ATOM     13  C   UNL A   1      34.257  22.716  24.075  1.00  0.00     0.299 C 
BRANCH  13  14
ATOM     14  C   UNL A   1      35.584  22.390  24.735  1.00  0.00     0.007 A 
ATOM     15  C   UNL A   1      38.416  24.223  26.501  1.00  0.00     0.045 C 
ATOM     16  C   UNL A   1      37.648  23.125  25.824  1.00  0.00    -0.036 A 
ATOM     17  C   UNL A   1      36.368  23.400  25.309  1.00  0.00     0.014 A 
ATOM     18  C   UNL A   1      38.170  21.831  25.676  1.00  0.00     0.020 A 
ATOM     19  C   UNL A   1      37.376  20.806  25.166  1.00  0.00     0.016 A 
ATOM     20  Br  UNL A   1      39.964  21.406  26.126  1.00  0.00    -0.051 Br
ATOM     21  C   UNL A   1      36.071  21.075  24.758  1.00  0.00     0.011 A 
ENDBRANCH  13  14
ENDBRANCH   8  13
ENDBRANCH   4   7
ENDBRANCH   2   3
ENDBRANCH   1   2
BRANCH   1  22
ATOM     22  C   UNL A   1      34.012  28.504  26.160  1.00  0.00     0.118 C 
BRANCH  22  23
ATOM     23  N   UNL A   1      33.872  29.939  26.407  1.00  0.00    -0.352 N 
ATOM     24  C   UNL A   1      34.564  30.762  27.252  1.00  0.00     0.251 C 
ATOM     25  H   UNL A   1      33.168  30.383  25.881  1.00  0.00     0.163 HD
ATOM     26  O   UNL A   1      34.150  31.904  27.454  1.00  0.00    -0.269 OA
BRANCH  24  27
ATOM     27  C   UNL A   1      35.782  30.279  27.923  1.00  0.00     0.039 A 
ATOM     28  C   UNL A   1      37.016  30.472  27.301  1.00  0.00     0.014 A 
ATOM     29  C   UNL A   1      35.707  29.633  29.160  1.00  0.00     0.014 A 
ATOM     30  C   UNL A   1      38.180  30.062  27.948  1.00  0.00     0.010 A 
ATOM     31  C   UNL A   1      36.870  29.330  29.851  1.00  0.00     0.010 A 
ATOM     32  C   UNL A   1      38.116  29.521  29.243  1.00  0.00    -0.014 A 
BRANCH  32  33
ATOM     33  C   UNL A   1      39.346  29.134  29.968  1.00  0.00     0.031 A 
ATOM     34  C   UNL A   1      39.730  29.853  31.233  1.00  0.00     0.074 A 
ATOM     35  C   UNL A   1      40.136  28.172  29.453  1.00  0.00     0.049 A 
ATOM     36  N   UNL A   1      40.778  29.678  31.993  1.00  0.00    -0.248 NA
ATOM     37  C   UNL A   1      38.836  30.933  31.689  1.00  0.00     0.031 C 
ATOM     38  C   UNL A   1      39.893  27.464  28.192  1.00  0.00     0.029 A 
ATOM     39  N   UNL A   1      41.302  27.625  29.920  1.00  0.00    -0.354 N 
ATOM     40  C   UNL A   1      40.680  30.629  33.000  1.00  0.00     0.074 A 
ATOM     41  C   UNL A   1      39.503  31.422  32.724  1.00  0.00     0.031 C 
ATOM     42  C   UNL A   1      40.861  26.553  28.005  1.00  0.00     0.029 A 
ATOM     43  C   UNL A   1      41.813  26.640  29.107  1.00  0.00     0.049 A 
ATOM     44  H   UNL A   1      41.734  27.910  30.757  1.00  0.00     0.167 HD
ATOM     45  C   UNL A   1      41.482  30.806  34.076  1.00  0.00     0.037 A 
ATOM     46  C   UNL A   1      42.926  25.895  29.237  1.00  0.00     0.037 A 
ATOM     47  C   UNL A   1      42.631  29.984  34.354  1.00  0.00     0.049 A 
ATOM     48  C   UNL A   1      43.787  26.095  30.455  1.00  0.00     0.074 A 
ATOM     49  C   UNL A   1      43.470  30.024  35.452  1.00  0.00     0.029 A 
ATOM     50  N   UNL A   1      43.101  28.975  33.525  1.00  0.00    -0.354 N 
ATOM     51  N   UNL A   1      43.630  26.942  31.445  1.00  0.00    -0.248 NA
ATOM     52  C   UNL A   1      44.965  25.230  30.582  1.00  0.00     0.031 C 
ATOM     53  C   UNL A   1      44.481  29.076  35.261  1.00  0.00     0.029 A 
ATOM     54  C   UNL A   1      44.236  28.403  34.074  1.00  0.00     0.049 A 
ATOM     55  H   UNL A   1      42.689  28.706  32.672  1.00  0.00     0.167 HD
ATOM     56  C   UNL A   1      44.680  26.697  32.324  1.00  0.00     0.074 A 
ATOM     57  C   UNL A   1      45.447  25.606  31.757  1.00  0.00     0.031 C 
ATOM     58  C   UNL A   1      44.984  27.318  33.491  1.00  0.00     0.037 A 
BRANCH  45  59
ATOM     59  C   UNL A   1      41.146  31.917  35.033  1.00  0.00     0.058 A 
ATOM     60  C   UNL A   1      41.735  33.187  34.928  1.00  0.00     0.135 A 
ATOM     61  C   UNL A   1      40.184  31.724  36.037  1.00  0.00     0.135 A 
ATOM     62  F   UNL A   1      42.678  33.423  34.002  1.00  0.00    -0.206 F 
ATOM     63  C   UNL A   1      41.397  34.221  35.796  1.00  0.00     0.059 A 
ATOM     64  C   UNL A   1      39.807  32.753  36.896  1.00  0.00     0.059 A 
ATOM     65  F   UNL A   1      39.593  30.528  36.188  1.00  0.00    -0.206 F 
ATOM     66  C   UNL A   1      40.426  33.996  36.772  1.00  0.00     0.060 A 
BRANCH  66  67
ATOM     67  S   UNL A   1      39.974  35.359  37.867  1.00  0.00     0.124 S 
ATOM     68  O   UNL A   1      38.837  34.792  38.584  1.00  0.00    -0.237 OA
ATOM     69  O   UNL A   1      41.190  35.542  38.651  1.00  0.00    -0.237 OA
ATOM     70  O   UNL A   1      39.656  36.445  36.944  1.00  0.00    -0.744 OA
ENDBRANCH  66  67
ENDBRANCH  45  59
BRANCH  46  71
ATOM     71  C   UNL A   1      43.275  24.887  28.201  1.00  0.00     0.058 A 
ATOM     72  C   UNL A   1      42.816  23.565  28.290  1.00  0.00     0.135 A 
ATOM     73  C   UNL A   1      44.069  25.229  27.094  1.00  0.00     0.135 A 
ATOM     74  F   UNL A   1      42.053  23.188  29.327  1.00  0.00    -0.206 F 
ATOM     75  C   UNL A   1      43.154  22.609  27.336  1.00  0.00     0.059 A 
ATOM     76  C   UNL A   1      44.396  24.299  26.112  1.00  0.00     0.059 A 
ATOM     77  F   UNL A   1      44.515  26.486  26.949  1.00  0.00    -0.206 F 
ATOM     78  C   UNL A   1      43.945  22.988  26.250  1.00  0.00     0.060 A 
BRANCH  78  79
ATOM     79  S   UNL A   1      44.353  21.749  25.001  1.00  0.00     0.124 S 
ATOM     80  O   UNL A   1      45.747  21.461  25.318  1.00  0.00    -0.237 OA
ATOM     81  O   UNL A   1      43.397  20.687  25.301  1.00  0.00    -0.237 OA
ATOM     82  O   UNL A   1      44.122  22.452  23.743  1.00  0.00    -0.744 OA
ENDBRANCH  78  79
ENDBRANCH  46  71
BRANCH  58  83
ATOM     83  C   UNL A   1      46.181  26.809  34.245  1.00  0.00     0.058 A 
ATOM     84  C   UNL A   1      46.077  25.772  35.184  1.00  0.00     0.135 A 
ATOM     85  C   UNL A   1      47.456  27.346  33.997  1.00  0.00     0.135 A 
ATOM     86  F   UNL A   1      44.882  25.228  35.460  1.00  0.00    -0.206 F 
ATOM     87  C   UNL A   1      47.188  25.311  35.881  1.00  0.00     0.059 A 
ATOM     88  C   UNL A   1      48.585  26.876  34.657  1.00  0.00     0.059 A 
ATOM     89  F   UNL A   1      47.613  28.329  33.097  1.00  0.00    -0.206 F 
ATOM     90  C   UNL A   1      48.438  25.871  35.610  1.00  0.00     0.060 A 
BRANCH  90  91
ATOM     91  S   UNL A   1      49.874  25.256  36.514  1.00  0.00     0.124 S 
ATOM     92  O   UNL A   1      50.933  26.119  36.005  1.00  0.00    -0.237 OA
ATOM     93  O   UNL A   1      49.486  25.479  37.904  1.00  0.00    -0.237 OA
ATOM     94  O   UNL A   1      49.956  23.856  36.110  1.00  0.00    -0.744 OA
ENDBRANCH  90  91
ENDBRANCH  58  83
ENDBRANCH  32  33
ENDBRANCH  24  27
ENDBRANCH  22  23
ENDBRANCH   1  22
TORSDOF 15
ENDMDL
