MODEL 1
REMARK VINA RESULT:     -12.4      0.000      0.000
REMARK SMILES NS(=O)(=O)c1ccc(N2N=C(C(=O)NCCCNC(=O)c3ccc(-c4c5nc(c(-c6c(F)cc(S(=O)(=O)[O-])cc6F)c6ccc([nH]6)c(-c6c(F)cc(S(=O)(=O)[O-])cc6F)c6nc(c(-c7c(F)cc(S(=O)(=O)[O-])cc7F)c7ccc4[nH]7)C=C6)C=C5)cc3)C[C@H]2c2cccs2)cc1
REMARK SMILES IDX 16 1 15 2 14 3 12 4 13 5 11 7 9 8 10 9 88 10 87 11 8 12 5 13
REMARK SMILES IDX 6 14 95 15 7 16 94 17 2 18 3 19 4 20 1 21 89 24 90 25 93 26
REMARK SMILES IDX 91 27 92 28 17 29 18 30 19 31 20 33 21 34 22 35 86 36 23 37
REMARK SMILES IDX 85 38 24 39 25 40 26 41 79 42 27 43 84 44 78 45 80 46 28 47
REMARK SMILES IDX 83 48 77 49 76 50 29 52 63 53 42 54 62 55 43 56 46 57 61 58
REMARK SMILES IDX 81 59 44 60 45 61 60 63 82 64 47 65 30 66 31 67 40 68 32 69
REMARK SMILES IDX 33 70 39 71 41 72 34 73 35 74 36 75 37 76 38 77 64 78 65 79
REMARK SMILES IDX 74 80 66 81 67 82 73 83 75 84 68 85 69 86 70 87 71 88 72 89
REMARK SMILES IDX 48 90 49 91 58 92 50 93 51 94 57 95 59 96 52 97 53 98 54 99
REMARK SMILES IDX 55 100 56 101
REMARK H PARENT 14 6 1 22 1 23 18 32 80 51 46 62
REMARK Flexibility Score: inf
ROOT
ATOM      1  C   UNL A   1      33.978  28.150  25.425  1.00  0.00     0.042 C 
ENDROOT
BRANCH   1   2
ATOM      2  C   UNL A   1      33.079  27.122  24.752  1.00  0.00     0.118 C 
BRANCH   2   3
ATOM      3  N   UNL A   1      32.319  26.360  25.725  1.00  0.00    -0.351 N 
ATOM      4  C   UNL A   1      32.315  25.057  26.148  1.00  0.00     0.267 C 
ATOM      5  O   UNL A   1      31.445  24.731  26.955  1.00  0.00    -0.268 OA
ATOM      6  H   UNL A   1      31.646  26.908  26.190  1.00  0.00     0.163 HD
BRANCH   4   7
ATOM      7  C   UNL A   1      33.336  24.010  25.729  1.00  0.00     0.128 C 
ATOM      8  N   UNL A   1      34.268  22.086  25.624  1.00  0.00    -0.256 N 
ATOM      9  N   UNL A   1      33.157  22.758  26.031  1.00  0.00    -0.171 NA
ATOM     10  C   UNL A   1      35.223  22.925  24.893  1.00  0.00     0.154 C 
ATOM     11  C   UNL A   1      34.556  24.305  24.926  1.00  0.00     0.097 C 
BRANCH   8  12
ATOM     12  C   UNL A   1      34.194  20.720  25.342  1.00  0.00     0.060 A 
ATOM     13  C   UNL A   1      34.079  18.004  24.644  1.00  0.00     0.082 A 
ATOM     14  C   UNL A   1      32.913  18.669  25.026  1.00  0.00     0.024 A 
ATOM     15  C   UNL A   1      35.304  18.669  24.630  1.00  0.00     0.024 A 
ATOM     16  C   UNL A   1      32.979  20.022  25.386  1.00  0.00     0.029 A 
ATOM     17  C   UNL A   1      35.352  20.019  24.979  1.00  0.00     0.029 A 
BRANCH  13  18
ATOM     18  S   UNL A   1      34.017  16.300  24.187  1.00  0.00     0.238 S 
ATOM     19  O   UNL A   1      34.929  15.548  25.025  1.00  0.00    -0.207 OA
ATOM     20  O   UNL A   1      34.027  16.201  22.751  1.00  0.00    -0.207 OA
BRANCH  18  21
ATOM     21  N   UNL A   1      32.486  15.825  24.686  1.00  0.00    -0.225 NA
ATOM     22  H   UNL A   1      31.799  16.515  24.381  1.00  0.00     0.137 HD
ATOM     23  H   UNL A   1      32.466  15.753  25.704  1.00  0.00     0.137 HD
ENDBRANCH  18  21
ENDBRANCH  13  18
ENDBRANCH   8  12
BRANCH  10  24
ATOM     24  C   UNL A   1      36.656  22.911  25.411  1.00  0.00     0.030 A 
ATOM     25  C   UNL A   1      37.274  23.897  26.162  1.00  0.00     0.017 A 
ATOM     26  S   UNL A   1      37.762  21.637  25.072  1.00  0.00    -0.147 S 
ATOM     27  C   UNL A   1      38.620  23.578  26.501  1.00  0.00     0.012 A 
ATOM     28  C   UNL A   1      38.991  22.345  26.018  1.00  0.00     0.065 A 
ENDBRANCH  10  24
ENDBRANCH   4   7
ENDBRANCH   2   3
ENDBRANCH   1   2
BRANCH   1  29
ATOM     29  C   UNL A   1      33.729  28.261  26.924  1.00  0.00     0.118 C 
BRANCH  29  30
ATOM     30  N   UNL A   1      33.610  29.650  27.354  1.00  0.00    -0.352 N 
ATOM     31  C   UNL A   1      34.475  30.432  28.080  1.00  0.00     0.251 C 
ATOM     32  H   UNL A   1      32.778  30.098  27.080  1.00  0.00     0.163 HD
ATOM     33  O   UNL A   1      34.074  31.492  28.552  1.00  0.00    -0.269 OA
BRANCH  31  34
ATOM     34  C   UNL A   1      35.870  29.999  28.301  1.00  0.00     0.039 A 
ATOM     35  C   UNL A   1      36.782  30.074  27.244  1.00  0.00     0.014 A 
ATOM     36  C   UNL A   1      36.275  29.493  29.538  1.00  0.00     0.014 A 
ATOM     37  C   UNL A   1      38.112  29.703  27.451  1.00  0.00     0.010 A 
ATOM     38  C   UNL A   1      37.617  29.215  29.769  1.00  0.00     0.010 A 
ATOM     39  C   UNL A   1      38.549  29.308  28.726  1.00  0.00    -0.014 A 
BRANCH  39  40
ATOM     40  C   UNL A   1      39.971  28.974  28.992  1.00  0.00     0.031 A 
ATOM     41  C   UNL A   1      40.899  30.021  29.547  1.00  0.00     0.074 A 
ATOM     42  C   UNL A   1      40.441  27.755  28.660  1.00  0.00     0.049 A 
ATOM     43  N   UNL A   1      42.188  29.954  29.757  1.00  0.00    -0.248 NA
ATOM     44  C   UNL A   1      40.305  31.326  29.880  1.00  0.00     0.031 C 
ATOM     45  C   UNL A   1      39.651  26.676  28.064  1.00  0.00     0.029 A 
ATOM     46  N   UNL A   1      41.702  27.224  28.763  1.00  0.00    -0.354 N 
ATOM     47  C   UNL A   1      42.561  31.209  30.224  1.00  0.00     0.074 A 
ATOM     48  C   UNL A   1      41.374  32.034  30.215  1.00  0.00     0.031 C 
ATOM     49  C   UNL A   1      40.439  25.604  27.876  1.00  0.00     0.029 A 
ATOM     50  C   UNL A   1      41.796  25.933  28.298  1.00  0.00     0.049 A 
ATOM     51  H   UNL A   1      42.467  27.719  29.135  1.00  0.00     0.167 HD
ATOM     52  C   UNL A   1      43.778  31.628  30.646  1.00  0.00     0.037 A 
ATOM     53  C   UNL A   1      42.859  25.110  28.212  1.00  0.00     0.037 A 
ATOM     54  C   UNL A   1      44.947  30.790  30.683  1.00  0.00     0.049 A 
ATOM     55  C   UNL A   1      44.199  25.594  28.698  1.00  0.00     0.074 A 
ATOM     56  C   UNL A   1      46.212  31.098  31.153  1.00  0.00     0.029 A 
ATOM     57  N   UNL A   1      44.996  29.479  30.233  1.00  0.00    -0.354 N 
ATOM     58  N   UNL A   1      44.520  26.764  29.197  1.00  0.00    -0.248 NA
ATOM     59  C   UNL A   1      45.318  24.646  28.616  1.00  0.00     0.031 C 
ATOM     60  C   UNL A   1      47.036  29.985  30.950  1.00  0.00     0.029 A 
ATOM     61  C   UNL A   1      46.273  28.969  30.397  1.00  0.00     0.049 A 
ATOM     62  H   UNL A   1      44.235  28.984  29.853  1.00  0.00     0.167 HD
ATOM     63  C   UNL A   1      45.872  26.684  29.512  1.00  0.00     0.074 A 
ATOM     64  C   UNL A   1      46.304  25.347  29.159  1.00  0.00     0.031 C 
ATOM     65  C   UNL A   1      46.683  27.632  30.046  1.00  0.00     0.037 A 
BRANCH  52  66
ATOM     66  C   UNL A   1      43.902  33.054  31.111  1.00  0.00     0.058 A 
ATOM     67  C   UNL A   1      43.678  33.416  32.449  1.00  0.00     0.135 A 
ATOM     68  C   UNL A   1      44.282  34.067  30.215  1.00  0.00     0.135 A 
ATOM     69  F   UNL A   1      43.298  32.491  33.345  1.00  0.00    -0.206 F 
ATOM     70  C   UNL A   1      43.793  34.735  32.876  1.00  0.00     0.059 A 
ATOM     71  C   UNL A   1      44.432  35.389  30.627  1.00  0.00     0.059 A 
ATOM     72  F   UNL A   1      44.508  33.779  28.924  1.00  0.00    -0.206 F 
ATOM     73  C   UNL A   1      44.170  35.714  31.957  1.00  0.00     0.060 A 
BRANCH  73  74
ATOM     74  S   UNL A   1      44.319  37.420  32.529  1.00  0.00     0.124 S 
ATOM     75  O   UNL A   1      43.376  37.435  33.644  1.00  0.00    -0.237 OA
ATOM     76  O   UNL A   1      45.730  37.505  32.893  1.00  0.00    -0.237 OA
ATOM     77  O   UNL A   1      43.925  38.206  31.364  1.00  0.00    -0.744 OA
ENDBRANCH  73  74
ENDBRANCH  52  66
BRANCH  53  78
ATOM     78  C   UNL A   1      42.693  23.737  27.666  1.00  0.00     0.058 A 
ATOM     79  C   UNL A   1      42.838  23.485  26.293  1.00  0.00     0.135 A 
ATOM     80  C   UNL A   1      42.406  22.647  28.503  1.00  0.00     0.135 A 
ATOM     81  F   UNL A   1      43.108  24.495  25.452  1.00  0.00    -0.206 F 
ATOM     82  C   UNL A   1      42.690  22.206  25.767  1.00  0.00     0.059 A 
ATOM     83  C   UNL A   1      42.278  21.356  28.003  1.00  0.00     0.059 A 
ATOM     84  F   UNL A   1      42.278  22.832  29.827  1.00  0.00    -0.206 F 
ATOM     85  C   UNL A   1      42.413  21.147  26.632  1.00  0.00     0.060 A 
BRANCH  85  86
ATOM     86  S   UNL A   1      42.273  19.483  25.945  1.00  0.00     0.124 S 
ATOM     87  O   UNL A   1      40.842  19.392  25.681  1.00  0.00    -0.237 OA
ATOM     88  O   UNL A   1      43.136  19.563  24.770  1.00  0.00    -0.237 OA
ATOM     89  O   UNL A   1      42.775  18.633  27.023  1.00  0.00    -0.744 OA
ENDBRANCH  85  86
ENDBRANCH  53  78
BRANCH  65  90
ATOM     90  C   UNL A   1      48.110  27.248  30.313  1.00  0.00     0.058 A 
ATOM     91  C   UNL A   1      49.135  27.534  29.397  1.00  0.00     0.135 A 
ATOM     92  C   UNL A   1      48.465  26.634  31.525  1.00  0.00     0.135 A 
ATOM     93  F   UNL A   1      48.847  28.112  28.221  1.00  0.00    -0.206 F 
ATOM     94  C   UNL A   1      50.459  27.203  29.665  1.00  0.00     0.059 A 
ATOM     95  C   UNL A   1      49.787  26.321  31.825  1.00  0.00     0.059 A 
ATOM     96  F   UNL A   1      47.525  26.349  32.440  1.00  0.00    -0.206 F 
ATOM     97  C   UNL A   1      50.776  26.599  30.883  1.00  0.00     0.060 A 
BRANCH  97  98
ATOM     98  S   UNL A   1      52.503  26.209  31.233  1.00  0.00     0.124 S 
ATOM     99  O   UNL A   1      52.393  24.866  31.793  1.00  0.00    -0.237 OA
ATOM    100  O   UNL A   1      53.117  26.296  29.912  1.00  0.00    -0.237 OA
ATOM    101  O   UNL A   1      52.904  27.250  32.173  1.00  0.00    -0.744 OA
ENDBRANCH  97  98
ENDBRANCH  65  90
ENDBRANCH  39  40
ENDBRANCH  31  34
ENDBRANCH  29  30
ENDBRANCH   1  29
TORSDOF 17
ENDMDL
MODEL 2
REMARK VINA RESULT:     -12.2      3.264      4.553
REMARK SMILES NS(=O)(=O)c1ccc(N2N=C(C(=O)NCCCNC(=O)c3ccc(-c4c5nc(c(-c6c(F)cc(S(=O)(=O)[O-])cc6F)c6ccc([nH]6)c(-c6c(F)cc(S(=O)(=O)[O-])cc6F)c6nc(c(-c7c(F)cc(S(=O)(=O)[O-])cc7F)c7ccc4[nH]7)C=C6)C=C5)cc3)C[C@H]2c2cccs2)cc1
REMARK SMILES IDX 16 1 15 2 14 3 12 4 13 5 11 7 9 8 10 9 88 10 87 11 8 12 5 13
REMARK SMILES IDX 6 14 95 15 7 16 94 17 2 18 3 19 4 20 1 21 89 24 90 25 93 26
REMARK SMILES IDX 91 27 92 28 17 29 18 30 19 31 20 33 21 34 22 35 86 36 23 37
REMARK SMILES IDX 85 38 24 39 25 40 26 41 79 42 27 43 84 44 78 45 80 46 28 47
REMARK SMILES IDX 83 48 77 49 76 50 29 52 63 53 42 54 62 55 43 56 46 57 61 58
REMARK SMILES IDX 81 59 44 60 45 61 60 63 82 64 47 65 30 66 31 67 40 68 32 69
REMARK SMILES IDX 33 70 39 71 41 72 34 73 35 74 36 75 37 76 38 77 64 78 65 79
REMARK SMILES IDX 74 80 66 81 67 82 73 83 75 84 68 85 69 86 70 87 71 88 72 89
REMARK SMILES IDX 48 90 49 91 58 92 50 93 51 94 57 95 59 96 52 97 53 98 54 99
REMARK SMILES IDX 55 100 56 101
REMARK H PARENT 14 6 1 22 1 23 18 32 80 51 46 62
REMARK Flexibility Score: inf
ROOT
ATOM      1  C   UNL A   1      34.086  28.311  24.329  1.00  0.00     0.042 C 
ENDROOT
BRANCH   1   2
ATOM      2  C   UNL A   1      32.782  27.599  23.998  1.00  0.00     0.118 C 
BRANCH   2   3
ATOM      3  N   UNL A   1      32.833  26.973  22.690  1.00  0.00    -0.351 N 
ATOM      4  C   UNL A   1      33.225  25.750  22.214  1.00  0.00     0.267 C 
ATOM      5  O   UNL A   1      33.212  25.591  20.993  1.00  0.00    -0.268 OA
ATOM      6  H   UNL A   1      32.511  27.569  21.975  1.00  0.00     0.163 HD
BRANCH   4   7
ATOM      7  C   UNL A   1      33.624  24.571  23.088  1.00  0.00     0.128 C 
ATOM      8  N   UNL A   1      34.900  23.070  23.924  1.00  0.00    -0.256 N 
ATOM      9  N   UNL A   1      34.867  24.197  23.162  1.00  0.00    -0.171 NA
ATOM     10  C   UNL A   1      33.599  22.715  24.500  1.00  0.00     0.154 C 
ATOM     11  C   UNL A   1      32.673  23.801  23.940  1.00  0.00     0.097 C 
BRANCH   8  12
ATOM     12  C   UNL A   1      36.071  22.716  24.598  1.00  0.00     0.060 A 
ATOM     13  C   UNL A   1      38.493  22.096  25.875  1.00  0.00     0.082 A 
ATOM     14  C   UNL A   1      37.854  21.129  25.097  1.00  0.00     0.024 A 
ATOM     15  C   UNL A   1      37.926  23.359  26.045  1.00  0.00     0.024 A 
ATOM     16  C   UNL A   1      36.639  21.440  24.472  1.00  0.00     0.029 A 
ATOM     17  C   UNL A   1      36.722  23.658  25.407  1.00  0.00     0.029 A 
BRANCH  13  18
ATOM     18  S   UNL A   1      40.024  21.723  26.670  1.00  0.00     0.238 S 
ATOM     19  O   UNL A   1      40.098  20.297  26.915  1.00  0.00    -0.207 OA
ATOM     20  O   UNL A   1      40.264  22.698  27.701  1.00  0.00    -0.207 OA
BRANCH  18  21
ATOM     21  N   UNL A   1      41.160  22.011  25.468  1.00  0.00    -0.225 NA
ATOM     22  H   UNL A   1      40.725  22.531  24.705  1.00  0.00     0.137 HD
ATOM     23  H   UNL A   1      41.515  21.122  25.114  1.00  0.00     0.137 HD
ENDBRANCH  18  21
ENDBRANCH  13  18
ENDBRANCH   8  12
BRANCH  10  24
ATOM     24  C   UNL A   1      33.120  21.291  24.241  1.00  0.00     0.030 A 
ATOM     25  C   UNL A   1      32.499  20.823  23.094  1.00  0.00     0.017 A 
ATOM     26  S   UNL A   1      33.245  20.033  25.408  1.00  0.00    -0.147 S 
ATOM     27  C   UNL A   1      32.185  19.436  23.157  1.00  0.00     0.012 A 
ATOM     28  C   UNL A   1      32.593  18.872  24.343  1.00  0.00     0.065 A 
ENDBRANCH  10  24
ENDBRANCH   4   7
ENDBRANCH   2   3
ENDBRANCH   1   2
BRANCH   1  29
ATOM     29  C   UNL A   1      34.313  28.460  25.828  1.00  0.00     0.118 C 
BRANCH  29  30
ATOM     30  N   UNL A   1      33.982  29.801  26.298  1.00  0.00    -0.352 N 
ATOM     31  C   UNL A   1      34.503  30.532  27.336  1.00  0.00     0.251 C 
ATOM     32  H   UNL A   1      33.272  30.255  25.788  1.00  0.00     0.163 HD
ATOM     33  O   UNL A   1      33.911  31.537  27.721  1.00  0.00    -0.269 OA
BRANCH  31  34
ATOM     34  C   UNL A   1      35.759  30.111  27.992  1.00  0.00     0.039 A 
ATOM     35  C   UNL A   1      36.978  30.366  27.356  1.00  0.00     0.014 A 
ATOM     36  C   UNL A   1      35.737  29.442  29.217  1.00  0.00     0.014 A 
ATOM     37  C   UNL A   1      38.172  30.006  27.983  1.00  0.00     0.010 A 
ATOM     38  C   UNL A   1      36.927  29.171  29.883  1.00  0.00     0.010 A 
ATOM     39  C   UNL A   1      38.158  29.441  29.269  1.00  0.00    -0.014 A 
BRANCH  39  40
ATOM     40  C   UNL A   1      39.414  29.112  29.989  1.00  0.00     0.031 A 
ATOM     41  C   UNL A   1      39.800  29.886  31.221  1.00  0.00     0.074 A 
ATOM     42  C   UNL A   1      40.242  28.174  29.487  1.00  0.00     0.049 A 
ATOM     43  N   UNL A   1      40.896  29.814  31.931  1.00  0.00    -0.248 NA
ATOM     44  C   UNL A   1      38.841  30.895  31.701  1.00  0.00     0.031 C 
ATOM     45  C   UNL A   1      40.002  27.397  28.270  1.00  0.00     0.029 A 
ATOM     46  N   UNL A   1      41.459  27.724  29.932  1.00  0.00    -0.354 N 
ATOM     47  C   UNL A   1      40.769  30.779  32.923  1.00  0.00     0.074 A 
ATOM     48  C   UNL A   1      39.514  31.460  32.692  1.00  0.00     0.031 C 
ATOM     49  C   UNL A   1      41.027  26.551  28.077  1.00  0.00     0.029 A 
ATOM     50  C   UNL A   1      42.015  26.754  29.132  1.00  0.00     0.049 A 
ATOM     51  H   UNL A   1      41.894  28.064  30.747  1.00  0.00     0.167 HD
ATOM     52  C   UNL A   1      41.609  31.056  33.948  1.00  0.00     0.037 A 
ATOM     53  C   UNL A   1      43.192  26.107  29.231  1.00  0.00     0.037 A 
ATOM     54  C   UNL A   1      42.840  30.351  34.190  1.00  0.00     0.049 A 
ATOM     55  C   UNL A   1      44.104  26.423  30.386  1.00  0.00     0.074 A 
ATOM     56  C   UNL A   1      43.731  30.509  35.237  1.00  0.00     0.029 A 
ATOM     57  N   UNL A   1      43.353  29.352  33.375  1.00  0.00    -0.354 N 
ATOM     58  N   UNL A   1      43.937  27.295  31.352  1.00  0.00    -0.248 NA
ATOM     59  C   UNL A   1      45.359  25.664  30.469  1.00  0.00     0.031 C 
ATOM     60  C   UNL A   1      44.804  29.634  35.033  1.00  0.00     0.029 A 
ATOM     61  C   UNL A   1      44.558  28.897  33.885  1.00  0.00     0.049 A 
ATOM     62  H   UNL A   1      42.924  29.016  32.556  1.00  0.00     0.167 HD
ATOM     63  C   UNL A   1      45.053  27.171  32.172  1.00  0.00     0.074 A 
ATOM     64  C   UNL A   1      45.882  26.132  31.595  1.00  0.00     0.031 C 
ATOM     65  C   UNL A   1      45.365  27.856  33.301  1.00  0.00     0.037 A 
BRANCH  52  66
ATOM     66  C   UNL A   1      41.219  32.162  34.891  1.00  0.00     0.058 A 
ATOM     67  C   UNL A   1      41.663  33.482  34.704  1.00  0.00     0.135 A 
ATOM     68  C   UNL A   1      40.365  31.908  35.977  1.00  0.00     0.135 A 
ATOM     69  F   UNL A   1      42.493  33.779  33.692  1.00  0.00    -0.206 F 
ATOM     70  C   UNL A   1      41.302  34.502  35.578  1.00  0.00     0.059 A 
ATOM     71  C   UNL A   1      39.967  32.920  36.847  1.00  0.00     0.059 A 
ATOM     72  F   UNL A   1      39.911  30.665  36.204  1.00  0.00    -0.206 F 
ATOM     73  C   UNL A   1      40.454  34.211  36.647  1.00  0.00     0.060 A 
BRANCH  73  74
ATOM     74  S   UNL A   1      39.992  35.548  37.769  1.00  0.00     0.124 S 
ATOM     75  O   UNL A   1      41.175  35.633  38.621  1.00  0.00    -0.237 OA
ATOM     76  O   UNL A   1      39.789  36.667  36.854  1.00  0.00    -0.237 OA
ATOM     77  O   UNL A   1      38.786  35.046  38.419  1.00  0.00    -0.744 OA
ENDBRANCH  73  74
ENDBRANCH  52  66
BRANCH  53  78
ATOM     78  C   UNL A   1      43.563  25.080  28.221  1.00  0.00     0.058 A 
ATOM     79  C   UNL A   1      43.387  23.714  28.486  1.00  0.00     0.135 A 
ATOM     80  C   UNL A   1      44.082  25.442  26.968  1.00  0.00     0.135 A 
ATOM     81  F   UNL A   1      42.899  23.318  29.671  1.00  0.00    -0.206 F 
ATOM     82  C   UNL A   1      43.725  22.740  27.551  1.00  0.00     0.059 A 
ATOM     83  C   UNL A   1      44.403  24.488  26.008  1.00  0.00     0.059 A 
ATOM     84  F   UNL A   1      44.251  26.737  26.659  1.00  0.00    -0.206 F 
ATOM     85  C   UNL A   1      44.230  23.139  26.313  1.00  0.00     0.060 A 
BRANCH  85  86
ATOM     86  S   UNL A   1      44.617  21.870  25.087  1.00  0.00     0.124 S 
ATOM     87  O   UNL A   1      46.069  21.793  25.191  1.00  0.00    -0.237 OA
ATOM     88  O   UNL A   1      43.878  20.718  25.595  1.00  0.00    -0.237 OA
ATOM     89  O   UNL A   1      44.100  22.438  23.844  1.00  0.00    -0.744 OA
ENDBRANCH  85  86
ENDBRANCH  53  78
BRANCH  65  90
ATOM     90  C   UNL A   1      46.638  27.482  34.006  1.00  0.00     0.058 A 
ATOM     91  C   UNL A   1      47.851  28.134  33.734  1.00  0.00     0.135 A 
ATOM     92  C   UNL A   1      46.632  26.495  35.004  1.00  0.00     0.135 A 
ATOM     93  F   UNL A   1      47.911  29.079  32.784  1.00  0.00    -0.206 F 
ATOM     94  C   UNL A   1      49.019  27.804  34.413  1.00  0.00     0.059 A 
ATOM     95  C   UNL A   1      47.782  26.169  35.715  1.00  0.00     0.059 A 
ATOM     96  F   UNL A   1      45.496  25.848  35.309  1.00  0.00    -0.206 F 
ATOM     97  C   UNL A   1      48.975  26.821  35.404  1.00  0.00     0.060 A 
BRANCH  97  98
ATOM     98  S   UNL A   1      50.489  26.427  36.302  1.00  0.00     0.124 S 
ATOM     99  O   UNL A   1      51.509  26.972  35.411  1.00  0.00    -0.237 OA
ATOM    100  O   UNL A   1      50.300  27.141  37.561  1.00  0.00    -0.237 OA
ATOM    101  O   UNL A   1      50.457  24.972  36.403  1.00  0.00    -0.744 OA
ENDBRANCH  97  98
ENDBRANCH  65  90
ENDBRANCH  39  40
ENDBRANCH  31  34
ENDBRANCH  29  30
ENDBRANCH   1  29
TORSDOF 17
ENDMDL
MODEL 3
REMARK VINA RESULT:     -12.1      3.755     10.010
REMARK SMILES NS(=O)(=O)c1ccc(N2N=C(C(=O)NCCCNC(=O)c3ccc(-c4c5nc(c(-c6c(F)cc(S(=O)(=O)[O-])cc6F)c6ccc([nH]6)c(-c6c(F)cc(S(=O)(=O)[O-])cc6F)c6nc(c(-c7c(F)cc(S(=O)(=O)[O-])cc7F)c7ccc4[nH]7)C=C6)C=C5)cc3)C[C@H]2c2cccs2)cc1
REMARK SMILES IDX 16 1 15 2 14 3 12 4 13 5 11 7 9 8 10 9 88 10 87 11 8 12 5 13
REMARK SMILES IDX 6 14 95 15 7 16 94 17 2 18 3 19 4 20 1 21 89 24 90 25 93 26
REMARK SMILES IDX 91 27 92 28 17 29 18 30 19 31 20 33 21 34 22 35 86 36 23 37
REMARK SMILES IDX 85 38 24 39 25 40 26 41 79 42 27 43 84 44 78 45 80 46 28 47
REMARK SMILES IDX 83 48 77 49 76 50 29 52 63 53 42 54 62 55 43 56 46 57 61 58
REMARK SMILES IDX 81 59 44 60 45 61 60 63 82 64 47 65 30 66 31 67 40 68 32 69
REMARK SMILES IDX 33 70 39 71 41 72 34 73 35 74 36 75 37 76 38 77 64 78 65 79
REMARK SMILES IDX 74 80 66 81 67 82 73 83 75 84 68 85 69 86 70 87 71 88 72 89
REMARK SMILES IDX 48 90 49 91 58 92 50 93 51 94 57 95 59 96 52 97 53 98 54 99
REMARK SMILES IDX 55 100 56 101
REMARK H PARENT 14 6 1 22 1 23 18 32 80 51 46 62
REMARK Flexibility Score: inf
ROOT
ATOM      1  C   UNL A   1      35.348  23.186  24.875  1.00  0.00     0.042 C 
ENDROOT
BRANCH   1   2
ATOM      2  C   UNL A   1      35.006  23.357  23.402  1.00  0.00     0.118 C 
BRANCH   2   3
ATOM      3  N   UNL A   1      33.702  22.804  23.089  1.00  0.00    -0.351 N 
ATOM      4  C   UNL A   1      32.406  23.207  23.278  1.00  0.00     0.267 C 
ATOM      5  O   UNL A   1      31.519  22.418  22.953  1.00  0.00    -0.268 OA
ATOM      6  H   UNL A   1      33.762  21.932  22.635  1.00  0.00     0.163 HD
BRANCH   4   7
ATOM      7  C   UNL A   1      31.995  24.570  23.812  1.00  0.00     0.128 C 
ATOM      8  N   UNL A   1      31.455  26.641  23.745  1.00  0.00    -0.256 N 
ATOM      9  N   UNL A   1      31.669  25.526  22.993  1.00  0.00    -0.171 NA
ATOM     10  C   UNL A   1      31.535  26.396  25.189  1.00  0.00     0.154 C 
ATOM     11  C   UNL A   1      31.888  24.905  25.260  1.00  0.00     0.097 C 
BRANCH   8  12
ATOM     12  C   UNL A   1      30.631  27.660  23.264  1.00  0.00     0.060 A 
ATOM     13  C   UNL A   1      29.030  29.795  22.391  1.00  0.00     0.082 A 
ATOM     14  C   UNL A   1      28.436  28.690  23.003  1.00  0.00     0.024 A 
ATOM     15  C   UNL A   1      30.409  29.836  22.186  1.00  0.00     0.024 A 
ATOM     16  C   UNL A   1      29.238  27.622  23.425  1.00  0.00     0.029 A 
ATOM     17  C   UNL A   1      31.196  28.771  22.623  1.00  0.00     0.029 A 
BRANCH  13  18
ATOM     18  S   UNL A   1      28.036  31.150  21.852  1.00  0.00     0.238 S 
ATOM     19  O   UNL A   1      27.120  31.520  22.913  1.00  0.00    -0.207 OA
ATOM     20  O   UNL A   1      27.596  30.899  20.506  1.00  0.00    -0.207 OA
BRANCH  18  21
ATOM     21  N   UNL A   1      29.130  32.420  21.768  1.00  0.00    -0.225 NA
ATOM     22  H   UNL A   1      29.617  32.390  20.872  1.00  0.00     0.137 HD
ATOM     23  H   UNL A   1      29.808  32.336  22.526  1.00  0.00     0.137 HD
ENDBRANCH  18  21
ENDBRANCH  13  18
ENDBRANCH   8  12
BRANCH  10  24
ATOM     24  C   UNL A   1      32.483  27.301  25.967  1.00  0.00     0.030 A 
ATOM     25  C   UNL A   1      32.198  27.985  27.138  1.00  0.00     0.017 A 
ATOM     26  S   UNL A   1      34.085  27.650  25.446  1.00  0.00    -0.147 S 
ATOM     27  C   UNL A   1      33.304  28.738  27.626  1.00  0.00     0.012 A 
ATOM     28  C   UNL A   1      34.414  28.593  26.827  1.00  0.00     0.065 A 
ENDBRANCH  10  24
ENDBRANCH   4   7
ENDBRANCH   2   3
ENDBRANCH   1   2
BRANCH   1  29
ATOM     29  C   UNL A   1      36.666  23.848  25.257  1.00  0.00     0.118 C 
BRANCH  29  30
ATOM     30  N   UNL A   1      37.718  22.865  25.500  1.00  0.00    -0.352 N 
ATOM     31  C   UNL A   1      38.959  23.016  26.066  1.00  0.00     0.251 C 
ATOM     32  H   UNL A   1      37.502  21.949  25.214  1.00  0.00     0.163 HD
ATOM     33  O   UNL A   1      39.788  22.117  25.947  1.00  0.00    -0.269 OA
BRANCH  31  34
ATOM     34  C   UNL A   1      39.301  24.250  26.804  1.00  0.00     0.039 A 
ATOM     35  C   UNL A   1      38.828  24.416  28.109  1.00  0.00     0.014 A 
ATOM     36  C   UNL A   1      40.063  25.254  26.204  1.00  0.00     0.014 A 
ATOM     37  C   UNL A   1      39.175  25.561  28.829  1.00  0.00     0.010 A 
ATOM     38  C   UNL A   1      40.487  26.346  26.953  1.00  0.00     0.010 A 
ATOM     39  C   UNL A   1      40.039  26.517  28.271  1.00  0.00    -0.014 A 
BRANCH  39  40
ATOM     40  C   UNL A   1      40.482  27.709  29.038  1.00  0.00     0.031 A 
ATOM     41  C   UNL A   1      41.809  27.698  29.748  1.00  0.00     0.074 A 
ATOM     42  C   UNL A   1      39.654  28.766  29.158  1.00  0.00     0.049 A 
ATOM     43  N   UNL A   1      42.327  28.597  30.543  1.00  0.00    -0.248 NA
ATOM     44  C   UNL A   1      42.650  26.503  29.566  1.00  0.00     0.031 C 
ATOM     45  C   UNL A   1      38.321  28.871  28.562  1.00  0.00     0.029 A 
ATOM     46  N   UNL A   1      39.807  29.949  29.835  1.00  0.00    -0.354 N 
ATOM     47  C   UNL A   1      43.540  28.071  30.971  1.00  0.00     0.074 A 
ATOM     48  C   UNL A   1      43.655  26.750  30.392  1.00  0.00     0.031 C 
ATOM     49  C   UNL A   1      37.787  30.061  28.880  1.00  0.00     0.029 A 
ATOM     50  C   UNL A   1      38.720  30.787  29.735  1.00  0.00     0.049 A 
ATOM     51  H   UNL A   1      40.617  30.178  30.345  1.00  0.00     0.167 HD
ATOM     52  C   UNL A   1      44.483  28.644  31.755  1.00  0.00     0.037 A 
ATOM     53  C   UNL A   1      38.497  31.998  30.280  1.00  0.00     0.037 A 
ATOM     54  C   UNL A   1      44.375  29.973  32.299  1.00  0.00     0.049 A 
ATOM     55  C   UNL A   1      39.565  32.621  31.138  1.00  0.00     0.074 A 
ATOM     56  C   UNL A   1      45.302  30.673  33.051  1.00  0.00     0.029 A 
ATOM     57  N   UNL A   1      43.273  30.802  32.149  1.00  0.00    -0.354 N 
ATOM     58  N   UNL A   1      40.735  32.135  31.480  1.00  0.00    -0.248 NA
ATOM     59  C   UNL A   1      39.287  33.959  31.678  1.00  0.00     0.031 C 
ATOM     60  C   UNL A   1      44.744  31.910  33.391  1.00  0.00     0.029 A 
ATOM     61  C   UNL A   1      43.488  32.000  32.810  1.00  0.00     0.049 A 
ATOM     62  H   UNL A   1      42.458  30.573  31.647  1.00  0.00     0.167 HD
ATOM     63  C   UNL A   1      41.342  33.117  32.254  1.00  0.00     0.074 A 
ATOM     64  C   UNL A   1      40.417  34.230  32.318  1.00  0.00     0.031 C 
ATOM     65  C   UNL A   1      42.558  33.100  32.857  1.00  0.00     0.037 A 
BRANCH  52  66
ATOM     66  C   UNL A   1      45.719  27.842  32.061  1.00  0.00     0.058 A 
ATOM     67  C   UNL A   1      46.855  27.894  31.237  1.00  0.00     0.135 A 
ATOM     68  C   UNL A   1      45.781  27.036  33.210  1.00  0.00     0.135 A 
ATOM     69  F   UNL A   1      46.846  28.636  30.119  1.00  0.00    -0.206 F 
ATOM     70  C   UNL A   1      47.996  27.151  31.523  1.00  0.00     0.059 A 
ATOM     71  C   UNL A   1      46.923  26.307  33.531  1.00  0.00     0.059 A 
ATOM     72  F   UNL A   1      44.723  26.949  34.033  1.00  0.00    -0.206 F 
ATOM     73  C   UNL A   1      48.020  26.360  32.672  1.00  0.00     0.060 A 
BRANCH  73  74
ATOM     74  S   UNL A   1      49.510  25.406  33.029  1.00  0.00     0.124 S 
ATOM     75  O   UNL A   1      50.357  26.416  33.657  1.00  0.00    -0.237 OA
ATOM     76  O   UNL A   1      49.007  24.362  33.917  1.00  0.00    -0.237 OA
ATOM     77  O   UNL A   1      49.947  24.950  31.714  1.00  0.00    -0.744 OA
ENDBRANCH  73  74
ENDBRANCH  52  66
BRANCH  53  78
ATOM     78  C   UNL A   1      37.220  32.711  30.009  1.00  0.00     0.058 A 
ATOM     79  C   UNL A   1      36.067  32.430  30.756  1.00  0.00     0.135 A 
ATOM     80  C   UNL A   1      37.130  33.697  29.014  1.00  0.00     0.135 A 
ATOM     81  F   UNL A   1      36.101  31.493  31.715  1.00  0.00    -0.206 F 
ATOM     82  C   UNL A   1      34.865  33.090  30.518  1.00  0.00     0.059 A 
ATOM     83  C   UNL A   1      35.947  34.387  28.774  1.00  0.00     0.059 A 
ATOM     84  F   UNL A   1      38.211  34.016  28.284  1.00  0.00    -0.206 F 
ATOM     85  C   UNL A   1      34.817  34.070  29.526  1.00  0.00     0.060 A 
BRANCH  85  86
ATOM     86  S   UNL A   1      33.266  34.956  29.260  1.00  0.00     0.124 S 
ATOM     87  O   UNL A   1      32.722  35.010  30.611  1.00  0.00    -0.237 OA
ATOM     88  O   UNL A   1      33.730  36.225  28.705  1.00  0.00    -0.237 OA
ATOM     89  O   UNL A   1      32.548  34.097  28.321  1.00  0.00    -0.744 OA
ENDBRANCH  85  86
ENDBRANCH  53  78
BRANCH  65  90
ATOM     90  C   UNL A   1      42.972  34.332  33.610  1.00  0.00     0.058 A 
ATOM     91  C   UNL A   1      42.734  34.470  34.987  1.00  0.00     0.135 A 
ATOM     92  C   UNL A   1      43.663  35.364  32.956  1.00  0.00     0.135 A 
ATOM     93  F   UNL A   1      42.070  33.515  35.656  1.00  0.00    -0.206 F 
ATOM     94  C   UNL A   1      43.148  35.600  35.684  1.00  0.00     0.059 A 
ATOM     95  C   UNL A   1      44.111  36.490  33.640  1.00  0.00     0.059 A 
ATOM     96  F   UNL A   1      43.925  35.277  31.643  1.00  0.00    -0.206 F 
ATOM     97  C   UNL A   1      43.838  36.604  35.003  1.00  0.00     0.060 A 
BRANCH  97  98
ATOM     98  S   UNL A   1      44.402  38.048  35.927  1.00  0.00     0.124 S 
ATOM     99  O   UNL A   1      43.974  39.139  35.056  1.00  0.00    -0.237 OA
ATOM    100  O   UNL A   1      43.674  37.917  37.185  1.00  0.00    -0.237 OA
ATOM    101  O   UNL A   1      45.845  37.850  36.021  1.00  0.00    -0.744 OA
ENDBRANCH  97  98
ENDBRANCH  65  90
ENDBRANCH  39  40
ENDBRANCH  31  34
ENDBRANCH  29  30
ENDBRANCH   1  29
TORSDOF 17
ENDMDL
