MODEL 1
REMARK VINA RESULT:     -11.3      0.000      0.000
REMARK SMILES CCCCCNC(=O)Oc1cccc(-c2ccc([C@@H](C)C(=O)NCCCNC(=O)c3ccc(-c4c5nc(c(-c6c(F)cc(S(=O)(=O)[O-])cc6F)c6ccc([nH]6)c(-c6c(F)cc(S(=O)(=O)[O-])cc6F)c6nc(c(-c7c(F)cc(S(=O)(=O)[O-])cc7F)c7ccc4[nH]7)C=C6)C=C5)cc3)cc2F)c1
REMARK SMILES IDX 19 1 20 2 18 3 15 4 16 5 97 6 17 7 96 8 98 9 14 10 10 11
REMARK SMILES IDX 11 12 99 13 12 14 13 15 9 16 7 17 6 18 8 20 5 21 4 22 3 23
REMARK SMILES IDX 2 24 1 25 21 26 22 27 23 28 24 30 25 31 26 32 27 33 28 34
REMARK SMILES IDX 29 36 30 37 31 38 95 39 32 40 94 41 33 42 34 43 35 44 88 45
REMARK SMILES IDX 36 46 93 47 87 48 89 49 37 50 92 51 86 52 85 53 38 55 72 56
REMARK SMILES IDX 51 57 71 58 52 59 55 60 70 61 90 62 53 63 54 64 69 66 91 67
REMARK SMILES IDX 56 68 39 69 40 70 49 71 41 72 42 73 48 74 50 75 43 76 44 77
REMARK SMILES IDX 45 78 46 79 47 80 73 81 74 82 83 83 75 84 76 85 82 86 84 87
REMARK SMILES IDX 77 88 78 89 79 90 80 91 81 92 57 93 58 94 67 95 59 96 60 97
REMARK SMILES IDX 66 98 68 99 61 100 62 101 63 102 64 103 65 104
REMARK H PARENT 6 19 23 29 27 35 89 54 55 65
REMARK Flexibility Score: inf
ROOT
ATOM      1  C   UNL A   1      42.072  20.596  27.067  1.00  0.00     0.105 C 
ATOM      2  C   UNL A   1      42.100  19.176  27.627  1.00  0.00     0.023 C 
ENDROOT
BRANCH   1   3
ATOM      3  C   UNL A   1      40.702  21.122  26.672  1.00  0.00    -0.033 A 
ATOM      4  C   UNL A   1      38.262  22.246  25.693  1.00  0.00     0.018 A 
ATOM      5  C   UNL A   1      38.539  20.875  25.579  1.00  0.00     0.012 A 
ATOM      6  C   UNL A   1      39.209  23.023  26.375  1.00  0.00     0.131 A 
ATOM      7  C   UNL A   1      39.716  20.319  26.095  1.00  0.00     0.005 A 
ATOM      8  C   UNL A   1      40.413  22.484  26.837  1.00  0.00     0.044 A 
ATOM      9  F   UNL A   1      38.990  24.329  26.595  1.00  0.00    -0.206 F 
BRANCH   4  10
ATOM     10  C   UNL A   1      37.059  22.824  25.060  1.00  0.00    -0.012 A 
ATOM     11  C   UNL A   1      35.066  24.216  25.186  1.00  0.00     0.133 A 
ATOM     12  C   UNL A   1      34.822  24.051  23.826  1.00  0.00     0.047 A 
ATOM     13  C   UNL A   1      36.157  23.603  25.803  1.00  0.00     0.056 A 
ATOM     14  C   UNL A   1      35.697  23.276  23.072  1.00  0.00     0.004 A 
ATOM     15  C   UNL A   1      36.798  22.667  23.684  1.00  0.00     0.009 A 
BRANCH  11  16
ATOM     16  O   UNL A   1      34.114  24.927  25.929  1.00  0.00    -0.410 OA
BRANCH  16  17
ATOM     17  C   UNL A   1      32.913  24.296  26.225  1.00  0.00     0.412 C 
ATOM     18  N   UNL A   1      31.822  25.014  25.818  1.00  0.00    -0.321 N 
ATOM     19  H   UNL A   1      30.939  24.633  26.027  1.00  0.00     0.167 HD
ATOM     20  O   UNL A   1      32.782  23.214  26.781  1.00  0.00    -0.224 OA
BRANCH  18  21
ATOM     21  C   UNL A   1      31.835  26.276  25.109  1.00  0.00     0.119 C 
BRANCH  21  22
ATOM     22  C   UNL A   1      31.800  26.077  23.594  1.00  0.00     0.021 C 
BRANCH  22  23
ATOM     23  C   UNL A   1      30.777  26.945  22.852  1.00  0.00     0.002 C 
BRANCH  23  24
ATOM     24  C   UNL A   1      30.222  28.133  23.643  1.00  0.00    -0.003 C 
ATOM     25  C   UNL A   1      29.275  29.008  22.837  1.00  0.00     0.004 C 
ENDBRANCH  23  24
ENDBRANCH  22  23
ENDBRANCH  21  22
ENDBRANCH  18  21
ENDBRANCH  16  17
ENDBRANCH  11  16
ENDBRANCH   4  10
ENDBRANCH   1   3
BRANCH   1  26
ATOM     26  C   UNL A   1      43.166  20.892  26.027  1.00  0.00     0.227 C 
ATOM     27  O   UNL A   1      43.256  20.186  25.015  1.00  0.00    -0.274 OA
ATOM     28  N   UNL A   1      44.063  21.909  26.133  1.00  0.00    -0.356 N 
ATOM     29  H   UNL A   1      44.673  21.986  25.364  1.00  0.00     0.163 HD
BRANCH  28  30
ATOM     30  C   UNL A   1      44.288  22.901  27.165  1.00  0.00     0.117 C 
BRANCH  30  31
ATOM     31  C   UNL A   1      45.481  23.803  26.861  1.00  0.00     0.042 C 
BRANCH  31  32
ATOM     32  C   UNL A   1      45.108  25.247  26.551  1.00  0.00     0.118 C 
BRANCH  32  33
ATOM     33  N   UNL A   1      43.966  25.335  25.652  1.00  0.00    -0.352 N 
ATOM     34  C   UNL A   1      42.685  25.775  25.862  1.00  0.00     0.251 C 
ATOM     35  H   UNL A   1      44.146  25.026  24.735  1.00  0.00     0.163 HD
ATOM     36  O   UNL A   1      41.839  25.529  25.005  1.00  0.00    -0.269 OA
BRANCH  34  37
ATOM     37  C   UNL A   1      42.304  26.527  27.082  1.00  0.00     0.039 A 
ATOM     38  C   UNL A   1      42.834  27.809  27.260  1.00  0.00     0.014 A 
ATOM     39  C   UNL A   1      41.504  25.971  28.084  1.00  0.00     0.014 A 
ATOM     40  C   UNL A   1      42.539  28.534  28.416  1.00  0.00     0.010 A 
ATOM     41  C   UNL A   1      41.132  26.732  29.193  1.00  0.00     0.010 A 
ATOM     42  C   UNL A   1      41.662  28.014  29.382  1.00  0.00    -0.014 A 
BRANCH  42  43
ATOM     43  C   UNL A   1      41.313  28.815  30.586  1.00  0.00     0.031 A 
ATOM     44  C   UNL A   1      42.109  28.680  31.861  1.00  0.00     0.074 A 
ATOM     45  C   UNL A   1      40.263  29.660  30.528  1.00  0.00     0.049 A 
ATOM     46  N   UNL A   1      41.979  29.340  32.984  1.00  0.00    -0.248 NA
ATOM     47  C   UNL A   1      43.173  27.663  31.890  1.00  0.00     0.031 C 
ATOM     48  C   UNL A   1      39.372  29.820  29.376  1.00  0.00     0.029 A 
ATOM     49  N   UNL A   1      39.770  30.549  31.450  1.00  0.00    -0.354 N 
ATOM     50  C   UNL A   1      42.928  28.809  33.852  1.00  0.00     0.074 A 
ATOM     51  C   UNL A   1      43.598  27.743  33.143  1.00  0.00     0.031 C 
ATOM     52  C   UNL A   1      38.470  30.777  29.643  1.00  0.00     0.029 A 
ATOM     53  C   UNL A   1      38.693  31.275  30.996  1.00  0.00     0.049 A 
ATOM     54  H   UNL A   1      40.151  30.656  32.351  1.00  0.00     0.167 HD
ATOM     55  C   UNL A   1      43.225  29.191  35.117  1.00  0.00     0.037 A 
ATOM     56  C   UNL A   1      37.969  32.236  31.602  1.00  0.00     0.037 A 
ATOM     57  C   UNL A   1      42.578  30.282  35.800  1.00  0.00     0.049 A 
ATOM     58  C   UNL A   1      38.352  32.664  32.993  1.00  0.00     0.074 A 
ATOM     59  C   UNL A   1      42.871  30.809  37.048  1.00  0.00     0.029 A 
ATOM     60  N   UNL A   1      41.507  31.008  35.303  1.00  0.00    -0.354 N 
ATOM     61  N   UNL A   1      39.324  32.222  33.756  1.00  0.00    -0.248 NA
ATOM     62  C   UNL A   1      37.549  33.733  33.601  1.00  0.00     0.031 C 
ATOM     63  C   UNL A   1      41.940  31.814  37.327  1.00  0.00     0.029 A 
ATOM     64  C   UNL A   1      41.106  31.957  36.229  1.00  0.00     0.049 A 
ATOM     65  H   UNL A   1      41.092  30.871  34.421  1.00  0.00     0.167 HD
ATOM     66  C   UNL A   1      39.263  32.977  34.922  1.00  0.00     0.074 A 
ATOM     67  C   UNL A   1      38.182  33.924  34.750  1.00  0.00     0.031 C 
ATOM     68  C   UNL A   1      40.027  32.891  36.040  1.00  0.00     0.037 A 
BRANCH  55  69
ATOM     69  C   UNL A   1      44.303  28.444  35.856  1.00  0.00     0.058 A 
ATOM     70  C   UNL A   1      45.653  28.818  35.777  1.00  0.00     0.135 A 
ATOM     71  C   UNL A   1      43.964  27.404  36.739  1.00  0.00     0.135 A 
ATOM     72  F   UNL A   1      46.036  29.794  34.937  1.00  0.00    -0.206 F 
ATOM     73  C   UNL A   1      46.630  28.190  36.544  1.00  0.00     0.059 A 
ATOM     74  C   UNL A   1      44.920  26.779  37.535  1.00  0.00     0.059 A 
ATOM     75  F   UNL A   1      42.689  27.002  36.851  1.00  0.00    -0.206 F 
ATOM     76  C   UNL A   1      46.251  27.179  37.429  1.00  0.00     0.060 A 
BRANCH  76  77
ATOM     77  S   UNL A   1      47.522  26.423  38.467  1.00  0.00     0.124 S 
ATOM     78  O   UNL A   1      46.771  26.133  39.684  1.00  0.00    -0.237 OA
ATOM     79  O   UNL A   1      47.920  25.263  37.675  1.00  0.00    -0.237 OA
ATOM     80  O   UNL A   1      48.531  27.471  38.588  1.00  0.00    -0.744 OA
ENDBRANCH  76  77
ENDBRANCH  55  69
BRANCH  56  81
ATOM     81  C   UNL A   1      36.816  32.870  30.904  1.00  0.00     0.058 A 
ATOM     82  C   UNL A   1      37.011  33.841  29.910  1.00  0.00     0.135 A 
ATOM     83  C   UNL A   1      35.495  32.545  31.246  1.00  0.00     0.135 A 
ATOM     84  F   UNL A   1      38.254  34.187  29.544  1.00  0.00    -0.206 F 
ATOM     85  C   UNL A   1      35.940  34.505  29.317  1.00  0.00     0.059 A 
ATOM     86  C   UNL A   1      34.407  33.169  30.643  1.00  0.00     0.059 A 
ATOM     87  F   UNL A   1      35.249  31.606  32.173  1.00  0.00    -0.206 F 
ATOM     88  C   UNL A   1      34.640  34.166  29.697  1.00  0.00     0.060 A 
BRANCH  88  89
ATOM     89  S   UNL A   1      33.256  35.036  28.931  1.00  0.00     0.124 S 
ATOM     90  O   UNL A   1      32.425  35.339  30.090  1.00  0.00    -0.237 OA
ATOM     91  O   UNL A   1      33.917  36.175  28.302  1.00  0.00    -0.237 OA
ATOM     92  O   UNL A   1      32.712  34.048  28.005  1.00  0.00    -0.744 OA
ENDBRANCH  88  89
ENDBRANCH  56  81
BRANCH  68  93
ATOM     93  C   UNL A   1      39.733  33.872  37.143  1.00  0.00     0.058 A 
ATOM     94  C   UNL A   1      40.279  35.166  37.148  1.00  0.00     0.135 A 
ATOM     95  C   UNL A   1      38.898  33.510  38.214  1.00  0.00     0.135 A 
ATOM     96  F   UNL A   1      41.084  35.563  36.150  1.00  0.00    -0.206 F 
ATOM     97  C   UNL A   1      40.056  36.044  38.203  1.00  0.00     0.059 A 
ATOM     98  C   UNL A   1      38.632  34.386  39.260  1.00  0.00     0.059 A 
ATOM     99  F   UNL A   1      38.334  32.293  38.251  1.00  0.00    -0.206 F 
ATOM    100  C   UNL A   1      39.236  35.642  39.259  1.00  0.00     0.060 A 
BRANCH 100 101
ATOM    101  S   UNL A   1      38.975  36.781  40.634  1.00  0.00     0.124 S 
ATOM    102  O   UNL A   1      38.154  35.974  41.531  1.00  0.00    -0.237 OA
ATOM    103  O   UNL A   1      40.338  37.043  41.086  1.00  0.00    -0.237 OA
ATOM    104  O   UNL A   1      38.299  37.914  40.011  1.00  0.00    -0.744 OA
ENDBRANCH 100 101
ENDBRANCH  68  93
ENDBRANCH  42  43
ENDBRANCH  34  37
ENDBRANCH  32  33
ENDBRANCH  31  32
ENDBRANCH  30  31
ENDBRANCH  28  30
ENDBRANCH   1  26
TORSDOF 21
ENDMDL
MODEL 2
REMARK VINA RESULT:     -11.2      1.270      1.909
REMARK SMILES CCCCCNC(=O)Oc1cccc(-c2ccc([C@@H](C)C(=O)NCCCNC(=O)c3ccc(-c4c5nc(c(-c6c(F)cc(S(=O)(=O)[O-])cc6F)c6ccc([nH]6)c(-c6c(F)cc(S(=O)(=O)[O-])cc6F)c6nc(c(-c7c(F)cc(S(=O)(=O)[O-])cc7F)c7ccc4[nH]7)C=C6)C=C5)cc3)cc2F)c1
REMARK SMILES IDX 19 1 20 2 18 3 15 4 16 5 97 6 17 7 96 8 98 9 14 10 10 11
REMARK SMILES IDX 11 12 99 13 12 14 13 15 9 16 7 17 6 18 8 20 5 21 4 22 3 23
REMARK SMILES IDX 2 24 1 25 21 26 22 27 23 28 24 30 25 31 26 32 27 33 28 34
REMARK SMILES IDX 29 36 30 37 31 38 95 39 32 40 94 41 33 42 34 43 35 44 88 45
REMARK SMILES IDX 36 46 93 47 87 48 89 49 37 50 92 51 86 52 85 53 38 55 72 56
REMARK SMILES IDX 51 57 71 58 52 59 55 60 70 61 90 62 53 63 54 64 69 66 91 67
REMARK SMILES IDX 56 68 39 69 40 70 49 71 41 72 42 73 48 74 50 75 43 76 44 77
REMARK SMILES IDX 45 78 46 79 47 80 73 81 74 82 83 83 75 84 76 85 82 86 84 87
REMARK SMILES IDX 77 88 78 89 79 90 80 91 81 92 57 93 58 94 67 95 59 96 60 97
REMARK SMILES IDX 66 98 68 99 61 100 62 101 63 102 64 103 65 104
REMARK H PARENT 6 19 23 29 27 35 89 54 55 65
REMARK Flexibility Score: inf
ROOT
ATOM      1  C   UNL A   1      41.893  20.118  26.852  1.00  0.00     0.105 C 
ATOM      2  C   UNL A   1      41.815  19.080  27.970  1.00  0.00     0.023 C 
ENDROOT
BRANCH   1   3
ATOM      3  C   UNL A   1      40.560  20.593  26.300  1.00  0.00    -0.033 A 
ATOM      4  C   UNL A   1      37.920  21.336  25.490  1.00  0.00     0.018 A 
ATOM      5  C   UNL A   1      38.800  22.262  26.072  1.00  0.00     0.012 A 
ATOM      6  C   UNL A   1      38.426  20.049  25.259  1.00  0.00     0.131 A 
ATOM      7  C   UNL A   1      40.106  21.907  26.431  1.00  0.00     0.005 A 
ATOM      8  C   UNL A   1      39.708  19.673  25.672  1.00  0.00     0.044 A 
ATOM      9  F   UNL A   1      37.678  19.122  24.640  1.00  0.00    -0.206 F 
BRANCH   4  10
ATOM     10  C   UNL A   1      36.519  21.709  25.205  1.00  0.00    -0.012 A 
ATOM     11  C   UNL A   1      34.897  23.096  24.035  1.00  0.00     0.133 A 
ATOM     12  C   UNL A   1      33.840  22.347  24.540  1.00  0.00     0.047 A 
ATOM     13  C   UNL A   1      36.219  22.797  24.369  1.00  0.00     0.056 A 
ATOM     14  C   UNL A   1      34.113  21.270  25.376  1.00  0.00     0.004 A 
ATOM     15  C   UNL A   1      35.437  20.959  25.707  1.00  0.00     0.009 A 
BRANCH  11  16
ATOM     16  O   UNL A   1      34.578  24.227  23.271  1.00  0.00    -0.410 OA
BRANCH  16  17
ATOM     17  C   UNL A   1      33.554  24.118  22.340  1.00  0.00     0.412 C 
ATOM     18  N   UNL A   1      32.476  24.904  22.642  1.00  0.00    -0.321 N 
ATOM     19  H   UNL A   1      31.704  24.847  22.034  1.00  0.00     0.167 HD
ATOM     20  O   UNL A   1      33.560  23.418  21.336  1.00  0.00    -0.224 OA
BRANCH  18  21
ATOM     21  C   UNL A   1      32.357  25.812  23.762  1.00  0.00     0.119 C 
BRANCH  21  22
ATOM     22  C   UNL A   1      30.903  25.988  24.198  1.00  0.00     0.021 C 
BRANCH  22  23
ATOM     23  C   UNL A   1      30.708  26.809  25.479  1.00  0.00     0.002 C 
BRANCH  23  24
ATOM     24  C   UNL A   1      31.981  27.416  26.074  1.00  0.00    -0.003 C 
ATOM     25  C   UNL A   1      31.771  28.043  27.444  1.00  0.00     0.004 C 
ENDBRANCH  23  24
ENDBRANCH  22  23
ENDBRANCH  21  22
ENDBRANCH  18  21
ENDBRANCH  16  17
ENDBRANCH  11  16
ENDBRANCH   4  10
ENDBRANCH   1   3
BRANCH   1  26
ATOM     26  C   UNL A   1      42.932  19.803  25.763  1.00  0.00     0.227 C 
ATOM     27  O   UNL A   1      43.093  18.634  25.389  1.00  0.00    -0.274 OA
ATOM     28  N   UNL A   1      43.703  20.741  25.151  1.00  0.00    -0.356 N 
ATOM     29  H   UNL A   1      44.291  20.380  24.448  1.00  0.00     0.163 HD
BRANCH  28  30
ATOM     30  C   UNL A   1      43.822  22.173  25.340  1.00  0.00     0.117 C 
BRANCH  30  31
ATOM     31  C   UNL A   1      44.038  22.556  26.802  1.00  0.00     0.042 C 
BRANCH  31  32
ATOM     32  C   UNL A   1      43.416  23.889  27.195  1.00  0.00     0.118 C 
BRANCH  32  33
ATOM     33  N   UNL A   1      42.720  24.518  26.081  1.00  0.00    -0.352 N 
ATOM     34  C   UNL A   1      41.778  25.514  26.053  1.00  0.00     0.251 C 
ATOM     35  H   UNL A   1      42.971  24.168  25.196  1.00  0.00     0.163 HD
ATOM     36  O   UNL A   1      41.170  25.707  25.002  1.00  0.00    -0.269 OA
BRANCH  34  37
ATOM     37  C   UNL A   1      41.480  26.346  27.243  1.00  0.00     0.039 A 
ATOM     38  C   UNL A   1      42.232  27.508  27.441  1.00  0.00     0.014 A 
ATOM     39  C   UNL A   1      40.536  25.969  28.202  1.00  0.00     0.014 A 
ATOM     40  C   UNL A   1      42.016  28.297  28.572  1.00  0.00     0.010 A 
ATOM     41  C   UNL A   1      40.255  26.807  29.282  1.00  0.00     0.010 A 
ATOM     42  C   UNL A   1      41.006  27.969  29.492  1.00  0.00    -0.014 A 
BRANCH  42  43
ATOM     43  C   UNL A   1      40.749  28.844  30.667  1.00  0.00     0.031 A 
ATOM     44  C   UNL A   1      41.564  28.700  31.929  1.00  0.00     0.074 A 
ATOM     45  C   UNL A   1      39.767  29.766  30.595  1.00  0.00     0.049 A 
ATOM     46  N   UNL A   1      41.513  29.413  33.025  1.00  0.00    -0.248 NA
ATOM     47  C   UNL A   1      42.546  27.604  31.980  1.00  0.00     0.031 C 
ATOM     48  C   UNL A   1      38.863  29.947  29.456  1.00  0.00     0.029 A 
ATOM     49  N   UNL A   1      39.367  30.727  31.488  1.00  0.00    -0.354 N 
ATOM     50  C   UNL A   1      42.438  28.846  33.895  1.00  0.00     0.074 A 
ATOM     51  C   UNL A   1      43.007  27.702  33.219  1.00  0.00     0.031 C 
ATOM     52  C   UNL A   1      38.045  30.983  29.701  1.00  0.00     0.029 A 
ATOM     53  C   UNL A   1      38.339  31.516  31.026  1.00  0.00     0.049 A 
ATOM     54  H   UNL A   1      39.777  30.841  32.375  1.00  0.00     0.167 HD
ATOM     55  C   UNL A   1      42.795  29.255  35.136  1.00  0.00     0.037 A 
ATOM     56  C   UNL A   1      37.706  32.555  31.605  1.00  0.00     0.037 A 
ATOM     57  C   UNL A   1      42.251  30.421  35.786  1.00  0.00     0.049 A 
ATOM     58  C   UNL A   1      38.155  33.009  32.969  1.00  0.00     0.074 A 
ATOM     59  C   UNL A   1      42.613  30.973  37.003  1.00  0.00     0.029 A 
ATOM     60  N   UNL A   1      41.227  31.207  35.280  1.00  0.00    -0.354 N 
ATOM     61  N   UNL A   1      39.108  32.524  33.729  1.00  0.00    -0.248 NA
ATOM     62  C   UNL A   1      37.452  34.162  33.547  1.00  0.00     0.031 C 
ATOM     63  C   UNL A   1      41.771  32.058  37.259  1.00  0.00     0.029 A 
ATOM     64  C   UNL A   1      40.924  32.222  36.173  1.00  0.00     0.049 A 
ATOM     65  H   UNL A   1      40.782  31.067  34.414  1.00  0.00     0.167 HD
ATOM     66  C   UNL A   1      39.134  33.328  34.863  1.00  0.00     0.074 A 
ATOM     67  C   UNL A   1      38.125  34.350  34.673  1.00  0.00     0.031 C 
ATOM     68  C   UNL A   1      39.916  33.229  35.967  1.00  0.00     0.037 A 
BRANCH  55  69
ATOM     69  C   UNL A   1      43.829  28.457  35.884  1.00  0.00     0.058 A 
ATOM     70  C   UNL A   1      43.478  27.394  36.730  1.00  0.00     0.135 A 
ATOM     71  C   UNL A   1      45.198  28.695  35.668  1.00  0.00     0.135 A 
ATOM     72  F   UNL A   1      42.185  27.132  36.986  1.00  0.00    -0.206 F 
ATOM     73  C   UNL A   1      44.443  26.594  37.335  1.00  0.00     0.059 A 
ATOM     74  C   UNL A   1      46.180  27.892  36.242  1.00  0.00     0.059 A 
ATOM     75  F   UNL A   1      45.591  29.702  34.873  1.00  0.00    -0.206 F 
ATOM     76  C   UNL A   1      45.792  26.844  37.075  1.00  0.00     0.060 A 
BRANCH  76  77
ATOM     77  S   UNL A   1      47.027  25.754  37.814  1.00  0.00     0.124 S 
ATOM     78  O   UNL A   1      48.256  26.509  37.590  1.00  0.00    -0.237 OA
ATOM     79  O   UNL A   1      46.578  25.670  39.200  1.00  0.00    -0.237 OA
ATOM     80  O   UNL A   1      46.900  24.521  37.042  1.00  0.00    -0.744 OA
ENDBRANCH  76  77
ENDBRANCH  55  69
BRANCH  56  81
ATOM     81  C   UNL A   1      36.589  33.248  30.905  1.00  0.00     0.058 A 
ATOM     82  C   UNL A   1      36.834  34.169  29.875  1.00  0.00     0.135 A 
ATOM     83  C   UNL A   1      35.254  33.034  31.281  1.00  0.00     0.135 A 
ATOM     84  F   UNL A   1      38.093  34.410  29.476  1.00  0.00    -0.206 F 
ATOM     85  C   UNL A   1      35.804  34.889  29.277  1.00  0.00     0.059 A 
ATOM     86  C   UNL A   1      34.203  33.716  30.675  1.00  0.00     0.059 A 
ATOM     87  F   UNL A   1      34.959  32.147  32.245  1.00  0.00    -0.206 F 
ATOM     88  C   UNL A   1      34.491  34.660  29.691  1.00  0.00     0.060 A 
BRANCH  88  89
ATOM     89  S   UNL A   1      33.159  35.603  28.919  1.00  0.00     0.124 S 
ATOM     90  O   UNL A   1      33.908  36.578  28.135  1.00  0.00    -0.237 OA
ATOM     91  O   UNL A   1      32.454  34.577  28.158  1.00  0.00    -0.237 OA
ATOM     92  O   UNL A   1      32.425  36.140  30.061  1.00  0.00    -0.744 OA
ENDBRANCH  88  89
ENDBRANCH  56  81
BRANCH  68  93
ATOM     93  C   UNL A   1      39.726  34.274  37.034  1.00  0.00     0.058 A 
ATOM     94  C   UNL A   1      40.355  35.528  36.961  1.00  0.00     0.135 A 
ATOM     95  C   UNL A   1      38.907  34.016  38.146  1.00  0.00     0.135 A 
ATOM     96  F   UNL A   1      41.149  35.827  35.920  1.00  0.00    -0.206 F 
ATOM     97  C   UNL A   1      40.227  36.464  37.981  1.00  0.00     0.059 A 
ATOM     98  C   UNL A   1      38.736  34.953  39.159  1.00  0.00     0.059 A 
ATOM     99  F   UNL A   1      38.267  32.842  38.257  1.00  0.00    -0.206 F 
ATOM    100  C   UNL A   1      39.421  36.163  39.080  1.00  0.00     0.060 A 
BRANCH 100 101
ATOM    101  S   UNL A   1      39.283  37.376  40.410  1.00  0.00     0.124 S 
ATOM    102  O   UNL A   1      38.954  36.526  41.549  1.00  0.00    -0.237 OA
ATOM    103  O   UNL A   1      40.615  37.973  40.428  1.00  0.00    -0.237 OA
ATOM    104  O   UNL A   1      38.214  38.259  39.954  1.00  0.00    -0.744 OA
ENDBRANCH 100 101
ENDBRANCH  68  93
ENDBRANCH  42  43
ENDBRANCH  34  37
ENDBRANCH  32  33
ENDBRANCH  31  32
ENDBRANCH  30  31
ENDBRANCH  28  30
ENDBRANCH   1  26
TORSDOF 21
ENDMDL
MODEL 3
REMARK VINA RESULT:     -11.0      0.952      1.840
REMARK SMILES CCCCCNC(=O)Oc1cccc(-c2ccc([C@@H](C)C(=O)NCCCNC(=O)c3ccc(-c4c5nc(c(-c6c(F)cc(S(=O)(=O)[O-])cc6F)c6ccc([nH]6)c(-c6c(F)cc(S(=O)(=O)[O-])cc6F)c6nc(c(-c7c(F)cc(S(=O)(=O)[O-])cc7F)c7ccc4[nH]7)C=C6)C=C5)cc3)cc2F)c1
REMARK SMILES IDX 19 1 20 2 18 3 15 4 16 5 97 6 17 7 96 8 98 9 14 10 10 11
REMARK SMILES IDX 11 12 99 13 12 14 13 15 9 16 7 17 6 18 8 20 5 21 4 22 3 23
REMARK SMILES IDX 2 24 1 25 21 26 22 27 23 28 24 30 25 31 26 32 27 33 28 34
REMARK SMILES IDX 29 36 30 37 31 38 95 39 32 40 94 41 33 42 34 43 35 44 88 45
REMARK SMILES IDX 36 46 93 47 87 48 89 49 37 50 92 51 86 52 85 53 38 55 72 56
REMARK SMILES IDX 51 57 71 58 52 59 55 60 70 61 90 62 53 63 54 64 69 66 91 67
REMARK SMILES IDX 56 68 39 69 40 70 49 71 41 72 42 73 48 74 50 75 43 76 44 77
REMARK SMILES IDX 45 78 46 79 47 80 73 81 74 82 83 83 75 84 76 85 82 86 84 87
REMARK SMILES IDX 77 88 78 89 79 90 80 91 81 92 57 93 58 94 67 95 59 96 60 97
REMARK SMILES IDX 66 98 68 99 61 100 62 101 63 102 64 103 65 104
REMARK H PARENT 6 19 23 29 27 35 89 54 55 65
REMARK Flexibility Score: inf
ROOT
ATOM      1  C   UNL A   1      42.193  19.854  26.825  1.00  0.00     0.105 C 
ATOM      2  C   UNL A   1      42.302  18.749  27.874  1.00  0.00     0.023 C 
ENDROOT
BRANCH   1   3
ATOM      3  C   UNL A   1      40.780  20.257  26.437  1.00  0.00    -0.033 A 
ATOM      4  C   UNL A   1      38.247  21.171  25.476  1.00  0.00     0.018 A 
ATOM      5  C   UNL A   1      38.657  19.837  25.318  1.00  0.00     0.012 A 
ATOM      6  C   UNL A   1      39.110  22.012  26.192  1.00  0.00     0.131 A 
ATOM      7  C   UNL A   1      39.880  19.382  25.825  1.00  0.00     0.005 A 
ATOM      8  C   UNL A   1      40.359  21.578  26.645  1.00  0.00     0.044 A 
ATOM      9  F   UNL A   1      38.763  23.282  26.454  1.00  0.00    -0.206 F 
BRANCH   4  10
ATOM     10  C   UNL A   1      36.996  21.650  24.853  1.00  0.00    -0.012 A 
ATOM     11  C   UNL A   1      34.572  21.874  24.880  1.00  0.00     0.133 A 
ATOM     12  C   UNL A   1      34.599  22.679  23.747  1.00  0.00     0.047 A 
ATOM     13  C   UNL A   1      35.747  21.351  25.422  1.00  0.00     0.056 A 
ATOM     14  C   UNL A   1      35.823  22.981  23.160  1.00  0.00     0.004 A 
ATOM     15  C   UNL A   1      37.006  22.468  23.705  1.00  0.00     0.009 A 
BRANCH  11  16
ATOM     16  O   UNL A   1      33.315  21.518  25.387  1.00  0.00    -0.410 OA
BRANCH  16  17
ATOM     17  C   UNL A   1      32.882  22.134  26.552  1.00  0.00     0.412 C 
ATOM     18  N   UNL A   1      31.817  22.968  26.347  1.00  0.00    -0.321 N 
ATOM     19  H   UNL A   1      31.482  23.459  27.132  1.00  0.00     0.167 HD
ATOM     20  O   UNL A   1      33.356  21.983  27.670  1.00  0.00    -0.224 OA
BRANCH  18  21
ATOM     21  C   UNL A   1      31.131  23.200  25.094  1.00  0.00     0.119 C 
BRANCH  21  22
ATOM     22  C   UNL A   1      31.392  24.606  24.555  1.00  0.00     0.021 C 
BRANCH  22  23
ATOM     23  C   UNL A   1      30.135  25.380  24.137  1.00  0.00     0.002 C 
BRANCH  23  24
ATOM     24  C   UNL A   1      30.382  26.775  23.557  1.00  0.00    -0.003 C 
ATOM     25  C   UNL A   1      31.398  26.789  22.424  1.00  0.00     0.004 C 
ENDBRANCH  23  24
ENDBRANCH  22  23
ENDBRANCH  21  22
ENDBRANCH  18  21
ENDBRANCH  16  17
ENDBRANCH  11  16
ENDBRANCH   4  10
ENDBRANCH   1   3
BRANCH   1  26
ATOM     26  C   UNL A   1      43.135  19.684  25.622  1.00  0.00     0.227 C 
ATOM     27  O   UNL A   1      43.364  18.552  25.178  1.00  0.00    -0.274 OA
ATOM     28  N   UNL A   1      43.746  20.716  24.981  1.00  0.00    -0.356 N 
ATOM     29  H   UNL A   1      44.287  20.441  24.205  1.00  0.00     0.163 HD
BRANCH  28  30
ATOM     30  C   UNL A   1      43.750  22.144  25.225  1.00  0.00     0.117 C 
BRANCH  30  31
ATOM     31  C   UNL A   1      44.074  22.490  26.676  1.00  0.00     0.042 C 
BRANCH  31  32
ATOM     32  C   UNL A   1      43.649  23.892  27.093  1.00  0.00     0.118 C 
BRANCH  32  33
ATOM     33  N   UNL A   1      43.107  24.653  25.977  1.00  0.00    -0.352 N 
ATOM     34  C   UNL A   1      42.266  25.736  25.948  1.00  0.00     0.251 C 
ATOM     35  H   UNL A   1      43.394  24.336  25.090  1.00  0.00     0.163 HD
ATOM     36  O   UNL A   1      41.765  26.053  24.871  1.00  0.00    -0.269 OA
BRANCH  34  37
ATOM     37  C   UNL A   1      41.951  26.518  27.167  1.00  0.00     0.039 A 
ATOM     38  C   UNL A   1      42.676  27.691  27.404  1.00  0.00     0.014 A 
ATOM     39  C   UNL A   1      41.020  26.085  28.115  1.00  0.00     0.014 A 
ATOM     40  C   UNL A   1      42.444  28.434  28.563  1.00  0.00     0.010 A 
ATOM     41  C   UNL A   1      40.722  26.877  29.224  1.00  0.00     0.010 A 
ATOM     42  C   UNL A   1      41.446  28.050  29.472  1.00  0.00    -0.014 A 
BRANCH  42  43
ATOM     43  C   UNL A   1      41.171  28.876  30.678  1.00  0.00     0.031 A 
ATOM     44  C   UNL A   1      42.000  28.716  31.929  1.00  0.00     0.074 A 
ATOM     45  C   UNL A   1      40.160  29.768  30.645  1.00  0.00     0.049 A 
ATOM     46  N   UNL A   1      41.936  29.390  33.049  1.00  0.00    -0.248 NA
ATOM     47  C   UNL A   1      43.016  27.650  31.935  1.00  0.00     0.031 C 
ATOM     48  C   UNL A   1      39.241  29.959  29.519  1.00  0.00     0.029 A 
ATOM     49  N   UNL A   1      39.738  30.686  31.572  1.00  0.00    -0.354 N 
ATOM     50  C   UNL A   1      42.886  28.823  33.892  1.00  0.00     0.074 A 
ATOM     51  C   UNL A   1      43.484  27.721  33.174  1.00  0.00     0.031 C 
ATOM     52  C   UNL A   1      38.393  30.959  29.805  1.00  0.00     0.029 A 
ATOM     53  C   UNL A   1      38.681  31.458  31.145  1.00  0.00     0.049 A 
ATOM     54  H   UNL A   1      40.151  30.784  32.460  1.00  0.00     0.167 HD
ATOM     55  C   UNL A   1      43.239  29.202  35.144  1.00  0.00     0.037 A 
ATOM     56  C   UNL A   1      38.021  32.456  31.763  1.00  0.00     0.037 A 
ATOM     57  C   UNL A   1      42.665  30.327  35.836  1.00  0.00     0.049 A 
ATOM     58  C   UNL A   1      38.467  32.878  33.138  1.00  0.00     0.074 A 
ATOM     59  C   UNL A   1      43.020  30.850  37.069  1.00  0.00     0.029 A 
ATOM     60  N   UNL A   1      41.613  31.098  35.365  1.00  0.00    -0.354 N 
ATOM     61  N   UNL A   1      39.441  32.398  33.874  1.00  0.00    -0.248 NA
ATOM     62  C   UNL A   1      37.733  33.988  33.760  1.00  0.00     0.031 C 
ATOM     63  C   UNL A   1      42.146  31.899  37.367  1.00  0.00     0.029 A 
ATOM     64  C   UNL A   1      41.286  32.072  36.294  1.00  0.00     0.049 A 
ATOM     65  H   UNL A   1      41.165  30.972  34.497  1.00  0.00     0.167 HD
ATOM     66  C   UNL A   1      39.452  33.164  35.035  1.00  0.00     0.074 A 
ATOM     67  C   UNL A   1      38.410  34.159  34.886  1.00  0.00     0.031 C 
ATOM     68  C   UNL A   1      40.245  33.053  36.130  1.00  0.00     0.037 A 
BRANCH  55  69
ATOM     69  C   UNL A   1      44.305  28.412  35.857  1.00  0.00     0.058 A 
ATOM     70  C   UNL A   1      44.007  27.245  36.578  1.00  0.00     0.135 A 
ATOM     71  C   UNL A   1      45.657  28.772  35.728  1.00  0.00     0.135 A 
ATOM     72  F   UNL A   1      42.730  26.863  36.748  1.00  0.00    -0.206 F 
ATOM     73  C   UNL A   1      45.008  26.464  37.146  1.00  0.00     0.059 A 
ATOM     74  C   UNL A   1      46.677  27.992  36.265  1.00  0.00     0.059 A 
ATOM     75  F   UNL A   1      46.000  29.881  35.054  1.00  0.00    -0.206 F 
ATOM     76  C   UNL A   1      46.342  26.839  36.974  1.00  0.00     0.060 A 
BRANCH  76  77
ATOM     77  S   UNL A   1      47.631  25.775  37.659  1.00  0.00     0.124 S 
ATOM     78  O   UNL A   1      46.913  25.102  38.737  1.00  0.00    -0.237 OA
ATOM     79  O   UNL A   1      47.985  24.941  36.515  1.00  0.00    -0.237 OA
ATOM     80  O   UNL A   1      48.660  26.719  38.085  1.00  0.00    -0.744 OA
ENDBRANCH  76  77
ENDBRANCH  55  69
BRANCH  56  81
ATOM     81  C   UNL A   1      36.877  33.137  31.095  1.00  0.00     0.058 A 
ATOM     82  C   UNL A   1      35.550  32.781  31.379  1.00  0.00     0.135 A 
ATOM     83  C   UNL A   1      37.091  34.130  30.127  1.00  0.00     0.135 A 
ATOM     84  F   UNL A   1      35.290  31.838  32.297  1.00  0.00    -0.206 F 
ATOM     85  C   UNL A   1      34.479  33.347  30.693  1.00  0.00     0.059 A 
ATOM     86  C   UNL A   1      36.036  34.737  29.453  1.00  0.00     0.059 A 
ATOM     87  F   UNL A   1      38.340  34.527  29.832  1.00  0.00    -0.206 F 
ATOM     88  C   UNL A   1      34.734  34.320  29.725  1.00  0.00     0.060 A 
BRANCH  88  89
ATOM     89  S   UNL A   1      33.342  35.044  28.833  1.00  0.00     0.124 S 
ATOM     90  O   UNL A   1      34.011  36.040  28.005  1.00  0.00    -0.237 OA
ATOM     91  O   UNL A   1      32.792  33.891  28.128  1.00  0.00    -0.237 OA
ATOM     92  O   UNL A   1      32.500  35.575  29.902  1.00  0.00    -0.744 OA
ENDBRANCH  88  89
ENDBRANCH  56  81
BRANCH  68  93
ATOM     93  C   UNL A   1      40.031  34.055  37.232  1.00  0.00     0.058 A 
ATOM     94  C   UNL A   1      39.033  33.884  38.205  1.00  0.00     0.135 A 
ATOM     95  C   UNL A   1      40.833  35.206  37.312  1.00  0.00     0.135 A 
ATOM     96  F   UNL A   1      38.237  32.802  38.173  1.00  0.00    -0.206 F 
ATOM     97  C   UNL A   1      38.798  34.845  39.181  1.00  0.00     0.059 A 
ATOM     98  C   UNL A   1      40.640  36.162  38.304  1.00  0.00     0.059 A 
ATOM     99  F   UNL A   1      41.815  35.411  36.421  1.00  0.00    -0.206 F 
ATOM    100  C   UNL A   1      39.603  35.985  39.217  1.00  0.00     0.060 A 
BRANCH 100 101
ATOM    101  S   UNL A   1      39.272  37.238  40.474  1.00  0.00     0.124 S 
ATOM    102  O   UNL A   1      38.933  36.413  41.628  1.00  0.00    -0.237 OA
ATOM    103  O   UNL A   1      40.546  37.946  40.553  1.00  0.00    -0.237 OA
ATOM    104  O   UNL A   1      38.169  38.006  39.904  1.00  0.00    -0.744 OA
ENDBRANCH 100 101
ENDBRANCH  68  93
ENDBRANCH  42  43
ENDBRANCH  34  37
ENDBRANCH  32  33
ENDBRANCH  31  32
ENDBRANCH  30  31
ENDBRANCH  28  30
ENDBRANCH   1  26
TORSDOF 21
ENDMDL
