MODEL 1
REMARK VINA RESULT:     -11.2      0.000      0.000
REMARK SMILES CC(=O)N(C)n1cnn(CC(=O)NCCCNC(=O)c2ccc(-c3c4nc(c(-c5c(F)cc(S(=O)(=O)[O-])cc5F)c5ccc([nH]5)c(-c5c(F)cc(S(=O)(=O)[O-])cc5F)c5nc(c(-c6c(F)cc(S(=O)(=O)[O-])cc6F)c6ccc3[nH]6)C=C5)C=C4)cc2)c1=S
REMARK SMILES IDX 15 1 14 2 13 3 11 4 12 5 10 7 9 8 6 9 7 10 86 11 8 12 87 13
REMARK SMILES IDX 4 14 5 15 2 16 1 17 3 18 16 19 17 20 18 21 19 23 20 24 21 25
REMARK SMILES IDX 85 26 22 27 84 28 23 29 24 30 25 31 78 32 26 33 83 34 77 35
REMARK SMILES IDX 79 36 27 37 82 38 76 39 75 40 28 42 62 43 41 44 61 45 42 46
REMARK SMILES IDX 45 47 60 48 80 49 43 50 44 51 59 53 81 54 46 55 29 56 30 57
REMARK SMILES IDX 39 58 31 59 32 60 38 61 40 62 33 63 34 64 35 65 36 66 37 67
REMARK SMILES IDX 63 68 64 69 73 70 65 71 66 72 72 73 74 74 67 75 68 76 69 77
REMARK SMILES IDX 70 78 71 79 47 80 48 81 57 82 49 83 50 84 56 85 58 86 51 87
REMARK SMILES IDX 52 88 53 89 54 90 55 91
REMARK H PARENT 13 6 17 22 79 41 45 52
REMARK Flexibility Score: inf
ROOT
ATOM      1  C   UNL A   1      39.759  20.458  25.996  1.00  0.00     0.042 C 
ENDROOT
BRANCH   1   2
ATOM      2  C   UNL A   1      39.155  21.824  26.321  1.00  0.00     0.117 C 
BRANCH   2   3
ATOM      3  N   UNL A   1      38.526  22.461  25.182  1.00  0.00    -0.354 N 
ATOM      4  C   UNL A   1      37.201  22.618  24.893  1.00  0.00     0.241 C 
ATOM      5  O   UNL A   1      36.912  23.419  23.997  1.00  0.00    -0.273 OA
ATOM      6  H   UNL A   1      39.147  22.837  24.517  1.00  0.00     0.163 HD
BRANCH   4   7
ATOM      7  C   UNL A   1      36.105  22.001  25.767  1.00  0.00     0.247 C 
BRANCH   7   8
ATOM      8  N   UNL A   1      35.606  20.709  25.312  1.00  0.00    -0.227 N 
ATOM      9  N   UNL A   1      34.432  18.945  24.679  1.00  0.00    -0.211 N 
ATOM     10  C   UNL A   1      35.762  18.708  24.621  1.00  0.00     0.247 A 
ATOM     11  C   UNL A   1      34.284  20.256  25.111  1.00  0.00     0.217 A 
ATOM     12  N   UNL A   1      36.504  19.712  24.965  1.00  0.00    -0.158 NA
ATOM     13  S   UNL A   1      32.881  21.135  25.314  1.00  0.00    -0.037 S 
BRANCH   9  14
ATOM     14  N   UNL A   1      33.451  17.967  24.457  1.00  0.00    -0.250 N 
ATOM     15  C   UNL A   1      32.703  17.558  25.633  1.00  0.00     0.176 C 
BRANCH  14  16
ATOM     16  C   UNL A   1      33.300  17.482  23.167  1.00  0.00     0.238 C 
ATOM     17  C   UNL A   1      32.338  18.226  22.275  1.00  0.00     0.116 C 
ATOM     18  O   UNL A   1      33.916  16.507  22.737  1.00  0.00    -0.273 OA
ENDBRANCH  14  16
ENDBRANCH   9  14
ENDBRANCH   7   8
ENDBRANCH   4   7
ENDBRANCH   2   3
ENDBRANCH   1   2
BRANCH   1  19
ATOM     19  C   UNL A   1      40.904  20.093  26.933  1.00  0.00     0.118 C 
BRANCH  19  20
ATOM     20  N   UNL A   1      42.094  19.651  26.208  1.00  0.00    -0.352 N 
ATOM     21  C   UNL A   1      43.096  20.412  25.644  1.00  0.00     0.251 C 
ATOM     22  H   UNL A   1      42.193  18.677  26.110  1.00  0.00     0.163 HD
ATOM     23  O   UNL A   1      43.826  19.917  24.797  1.00  0.00    -0.269 OA
BRANCH  21  24
ATOM     24  C   UNL A   1      43.274  21.822  26.052  1.00  0.00     0.039 A 
ATOM     25  C   UNL A   1      42.650  22.835  25.319  1.00  0.00     0.014 A 
ATOM     26  C   UNL A   1      44.072  22.140  27.153  1.00  0.00     0.014 A 
ATOM     27  C   UNL A   1      42.761  24.154  25.752  1.00  0.00     0.010 A 
ATOM     28  C   UNL A   1      44.110  23.435  27.635  1.00  0.00     0.010 A 
ATOM     29  C   UNL A   1      43.465  24.449  26.934  1.00  0.00    -0.014 A 
BRANCH  29  30
ATOM     30  C   UNL A   1      43.312  25.771  27.550  1.00  0.00     0.031 A 
ATOM     31  C   UNL A   1      44.416  26.703  27.175  1.00  0.00     0.074 A 
ATOM     32  C   UNL A   1      42.205  26.204  28.196  1.00  0.00     0.049 A 
ATOM     33  N   UNL A   1      45.362  27.151  27.931  1.00  0.00    -0.248 NA
ATOM     34  C   UNL A   1      44.610  27.018  25.747  1.00  0.00     0.031 C 
ATOM     35  C   UNL A   1      40.931  25.489  28.338  1.00  0.00     0.029 A 
ATOM     36  N   UNL A   1      41.931  27.414  28.773  1.00  0.00    -0.354 N 
ATOM     37  C   UNL A   1      46.098  28.028  27.135  1.00  0.00     0.074 A 
ATOM     38  C   UNL A   1      45.745  27.721  25.779  1.00  0.00     0.031 C 
ATOM     39  C   UNL A   1      39.969  26.348  28.741  1.00  0.00     0.029 A 
ATOM     40  C   UNL A   1      40.577  27.632  29.042  1.00  0.00     0.049 A 
ATOM     41  H   UNL A   1      42.630  28.075  28.981  1.00  0.00     0.167 HD
ATOM     42  C   UNL A   1      46.679  29.131  27.686  1.00  0.00     0.037 A 
ATOM     43  C   UNL A   1      39.991  28.781  29.472  1.00  0.00     0.037 A 
ATOM     44  C   UNL A   1      46.682  29.016  29.124  1.00  0.00     0.049 A 
ATOM     45  C   UNL A   1      41.054  29.607  30.089  1.00  0.00     0.074 A 
ATOM     46  C   UNL A   1      47.324  28.247  30.068  1.00  0.00     0.029 A 
ATOM     47  N   UNL A   1      45.573  29.558  29.716  1.00  0.00    -0.354 N 
ATOM     48  N   UNL A   1      41.662  29.288  31.198  1.00  0.00    -0.248 NA
ATOM     49  C   UNL A   1      41.704  30.642  29.296  1.00  0.00     0.031 C 
ATOM     50  C   UNL A   1      46.438  28.179  31.184  1.00  0.00     0.029 A 
ATOM     51  C   UNL A   1      45.311  28.956  30.914  1.00  0.00     0.049 A 
ATOM     52  H   UNL A   1      45.035  30.288  29.331  1.00  0.00     0.167 HD
ATOM     53  C   UNL A   1      42.955  29.736  31.017  1.00  0.00     0.074 A 
ATOM     54  C   UNL A   1      42.876  30.706  29.934  1.00  0.00     0.031 C 
ATOM     55  C   UNL A   1      44.004  29.031  31.528  1.00  0.00     0.037 A 
BRANCH  42  56
ATOM     56  C   UNL A   1      46.761  30.507  27.033  1.00  0.00     0.058 A 
ATOM     57  C   UNL A   1      47.993  31.205  27.080  1.00  0.00     0.135 A 
ATOM     58  C   UNL A   1      45.648  31.292  26.660  1.00  0.00     0.135 A 
ATOM     59  F   UNL A   1      49.128  30.569  27.409  1.00  0.00    -0.206 F 
ATOM     60  C   UNL A   1      48.091  32.582  26.867  1.00  0.00     0.059 A 
ATOM     61  C   UNL A   1      45.733  32.656  26.399  1.00  0.00     0.059 A 
ATOM     62  F   UNL A   1      44.405  30.805  26.608  1.00  0.00    -0.206 F 
ATOM     63  C   UNL A   1      46.948  33.303  26.542  1.00  0.00     0.060 A 
BRANCH  63  64
ATOM     64  S   UNL A   1      47.052  35.088  26.331  1.00  0.00     0.124 S 
ATOM     65  O   UNL A   1      48.233  35.215  25.484  1.00  0.00    -0.237 OA
ATOM     66  O   UNL A   1      45.773  35.391  25.697  1.00  0.00    -0.237 OA
ATOM     67  O   UNL A   1      47.197  35.578  27.699  1.00  0.00    -0.744 OA
ENDBRANCH  63  64
ENDBRANCH  42  56
BRANCH  43  68
ATOM     68  C   UNL A   1      38.624  29.328  29.248  1.00  0.00     0.058 A 
ATOM     69  C   UNL A   1      37.797  29.691  30.331  1.00  0.00     0.135 A 
ATOM     70  C   UNL A   1      38.223  29.796  27.983  1.00  0.00     0.135 A 
ATOM     71  F   UNL A   1      38.097  29.292  31.576  1.00  0.00    -0.206 F 
ATOM     72  C   UNL A   1      36.689  30.533  30.181  1.00  0.00     0.059 A 
ATOM     73  C   UNL A   1      37.117  30.631  27.808  1.00  0.00     0.059 A 
ATOM     74  F   UNL A   1      38.955  29.535  26.890  1.00  0.00    -0.206 F 
ATOM     75  C   UNL A   1      36.374  31.024  28.916  1.00  0.00     0.060 A 
BRANCH  75  76
ATOM     76  S   UNL A   1      35.081  32.282  28.750  1.00  0.00     0.124 S 
ATOM     77  O   UNL A   1      35.552  33.051  27.604  1.00  0.00    -0.237 OA
ATOM     78  O   UNL A   1      33.887  31.472  28.526  1.00  0.00    -0.237 OA
ATOM     79  O   UNL A   1      35.123  32.981  30.032  1.00  0.00    -0.744 OA
ENDBRANCH  75  76
ENDBRANCH  43  68
BRANCH  55  80
ATOM     80  C   UNL A   1      43.752  28.184  32.740  1.00  0.00     0.058 A 
ATOM     81  C   UNL A   1      43.601  26.788  32.748  1.00  0.00     0.135 A 
ATOM     82  C   UNL A   1      43.748  28.844  33.979  1.00  0.00     0.135 A 
ATOM     83  F   UNL A   1      43.677  26.075  31.614  1.00  0.00    -0.206 F 
ATOM     84  C   UNL A   1      43.417  26.085  33.941  1.00  0.00     0.059 A 
ATOM     85  C   UNL A   1      43.603  28.161  35.178  1.00  0.00     0.059 A 
ATOM     86  F   UNL A   1      43.932  30.173  34.034  1.00  0.00    -0.206 F 
ATOM     87  C   UNL A   1      43.421  26.782  35.151  1.00  0.00     0.060 A 
BRANCH  87  88
ATOM     88  S   UNL A   1      43.239  25.875  36.699  1.00  0.00     0.124 S 
ATOM     89  O   UNL A   1      42.599  24.641  36.259  1.00  0.00    -0.237 OA
ATOM     90  O   UNL A   1      44.621  25.746  37.155  1.00  0.00    -0.237 OA
ATOM     91  O   UNL A   1      42.404  26.754  37.515  1.00  0.00    -0.744 OA
ENDBRANCH  87  88
ENDBRANCH  55  80
ENDBRANCH  29  30
ENDBRANCH  21  24
ENDBRANCH  19  20
ENDBRANCH   1  19
TORSDOF 16
ENDMDL
MODEL 2
REMARK VINA RESULT:     -11.1      2.259      3.100
REMARK SMILES CC(=O)N(C)n1cnn(CC(=O)NCCCNC(=O)c2ccc(-c3c4nc(c(-c5c(F)cc(S(=O)(=O)[O-])cc5F)c5ccc([nH]5)c(-c5c(F)cc(S(=O)(=O)[O-])cc5F)c5nc(c(-c6c(F)cc(S(=O)(=O)[O-])cc6F)c6ccc3[nH]6)C=C5)C=C4)cc2)c1=S
REMARK SMILES IDX 15 1 14 2 13 3 11 4 12 5 10 7 9 8 6 9 7 10 86 11 8 12 87 13
REMARK SMILES IDX 4 14 5 15 2 16 1 17 3 18 16 19 17 20 18 21 19 23 20 24 21 25
REMARK SMILES IDX 85 26 22 27 84 28 23 29 24 30 25 31 78 32 26 33 83 34 77 35
REMARK SMILES IDX 79 36 27 37 82 38 76 39 75 40 28 42 62 43 41 44 61 45 42 46
REMARK SMILES IDX 45 47 60 48 80 49 43 50 44 51 59 53 81 54 46 55 29 56 30 57
REMARK SMILES IDX 39 58 31 59 32 60 38 61 40 62 33 63 34 64 35 65 36 66 37 67
REMARK SMILES IDX 63 68 64 69 73 70 65 71 66 72 72 73 74 74 67 75 68 76 69 77
REMARK SMILES IDX 70 78 71 79 47 80 48 81 57 82 49 83 50 84 56 85 58 86 51 87
REMARK SMILES IDX 52 88 53 89 54 90 55 91
REMARK H PARENT 13 6 17 22 79 41 45 52
REMARK Flexibility Score: inf
ROOT
ATOM      1  C   UNL A   1      36.486  22.921  24.725  1.00  0.00     0.042 C 
ENDROOT
BRANCH   1   2
ATOM      2  C   UNL A   1      35.321  23.900  24.577  1.00  0.00     0.117 C 
BRANCH   2   3
ATOM      3  N   UNL A   1      34.798  23.972  23.227  1.00  0.00    -0.354 N 
ATOM      4  C   UNL A   1      33.567  23.622  22.750  1.00  0.00     0.241 C 
ATOM      5  O   UNL A   1      33.272  24.016  21.616  1.00  0.00    -0.273 OA
ATOM      6  H   UNL A   1      35.423  24.325  22.554  1.00  0.00     0.163 HD
BRANCH   4   7
ATOM      7  C   UNL A   1      32.513  22.959  23.641  1.00  0.00     0.247 C 
BRANCH   7   8
ATOM      8  N   UNL A   1      32.565  21.502  23.680  1.00  0.00    -0.227 N 
ATOM      9  N   UNL A   1      32.838  19.361  24.157  1.00  0.00    -0.211 N 
ATOM     10  C   UNL A   1      32.253  19.534  22.950  1.00  0.00     0.247 A 
ATOM     11  C   UNL A   1      33.045  20.629  24.681  1.00  0.00     0.217 A 
ATOM     12  N   UNL A   1      32.051  20.770  22.622  1.00  0.00    -0.158 NA
ATOM     13  S   UNL A   1      33.673  21.055  26.167  1.00  0.00    -0.037 S 
BRANCH   9  14
ATOM     14  N   UNL A   1      33.248  18.116  24.658  1.00  0.00    -0.250 N 
ATOM     15  C   UNL A   1      32.369  17.527  25.655  1.00  0.00     0.176 C 
BRANCH  14  16
ATOM     16  C   UNL A   1      34.434  17.582  24.179  1.00  0.00     0.238 C 
ATOM     17  C   UNL A   1      34.313  16.502  23.133  1.00  0.00     0.116 C 
ATOM     18  O   UNL A   1      35.544  17.960  24.554  1.00  0.00    -0.273 OA
ENDBRANCH  14  16
ENDBRANCH   9  14
ENDBRANCH   7   8
ENDBRANCH   4   7
ENDBRANCH   2   3
ENDBRANCH   1   2
BRANCH   1  19
ATOM     19  C   UNL A   1      37.329  23.207  25.962  1.00  0.00     0.118 C 
BRANCH  19  20
ATOM     20  N   UNL A   1      38.366  22.200  26.172  1.00  0.00    -0.352 N 
ATOM     21  C   UNL A   1      39.709  22.380  26.431  1.00  0.00     0.251 C 
ATOM     22  H   UNL A   1      38.065  21.265  26.121  1.00  0.00     0.163 HD
ATOM     23  O   UNL A   1      40.489  21.458  26.245  1.00  0.00    -0.269 OA
BRANCH  21  24
ATOM     24  C   UNL A   1      40.198  23.688  26.917  1.00  0.00     0.039 A 
ATOM     25  C   UNL A   1      39.694  24.864  26.354  1.00  0.00     0.014 A 
ATOM     26  C   UNL A   1      41.169  23.748  27.918  1.00  0.00     0.014 A 
ATOM     27  C   UNL A   1      40.105  26.093  26.865  1.00  0.00     0.010 A 
ATOM     28  C   UNL A   1      41.511  24.961  28.486  1.00  0.00     0.010 A 
ATOM     29  C   UNL A   1      40.989  26.138  27.958  1.00  0.00    -0.014 A 
BRANCH  29  30
ATOM     30  C   UNL A   1      41.166  27.399  28.687  1.00  0.00     0.031 A 
ATOM     31  C   UNL A   1      42.335  28.182  28.191  1.00  0.00     0.074 A 
ATOM     32  C   UNL A   1      40.269  27.930  29.549  1.00  0.00     0.049 A 
ATOM     33  N   UNL A   1      43.454  28.400  28.798  1.00  0.00    -0.248 NA
ATOM     34  C   UNL A   1      42.344  28.607  26.778  1.00  0.00     0.031 C 
ATOM     35  C   UNL A   1      38.933  27.410  29.863  1.00  0.00     0.029 A 
ATOM     36  N   UNL A   1      40.302  29.103  30.253  1.00  0.00    -0.354 N 
ATOM     37  C   UNL A   1      44.188  29.229  27.950  1.00  0.00     0.074 A 
ATOM     38  C   UNL A   1      43.571  29.119  26.659  1.00  0.00     0.031 C 
ATOM     39  C   UNL A   1      38.209  28.362  30.493  1.00  0.00     0.029 A 
ATOM     40  C   UNL A   1      39.067  29.499  30.774  1.00  0.00     0.049 A 
ATOM     41  H   UNL A   1      41.127  29.624  30.382  1.00  0.00     0.167 HD
ATOM     42  C   UNL A   1      45.030  30.168  28.468  1.00  0.00     0.037 A 
ATOM     43  C   UNL A   1      38.763  30.675  31.385  1.00  0.00     0.037 A 
ATOM     44  C   UNL A   1      45.249  29.908  29.870  1.00  0.00     0.049 A 
ATOM     45  C   UNL A   1      40.037  31.260  31.862  1.00  0.00     0.074 A 
ATOM     46  C   UNL A   1      45.897  28.958  30.627  1.00  0.00     0.029 A 
ATOM     47  N   UNL A   1      44.359  30.552  30.689  1.00  0.00    -0.354 N 
ATOM     48  N   UNL A   1      40.754  30.740  32.819  1.00  0.00    -0.248 NA
ATOM     49  C   UNL A   1      40.714  32.257  31.044  1.00  0.00     0.031 C 
ATOM     50  C   UNL A   1      45.206  28.915  31.874  1.00  0.00     0.029 A 
ATOM     51  C   UNL A   1      44.199  29.879  31.866  1.00  0.00     0.049 A 
ATOM     52  H   UNL A   1      43.897  31.391  30.459  1.00  0.00     0.167 HD
ATOM     53  C   UNL A   1      42.058  30.999  32.444  1.00  0.00     0.074 A 
ATOM     54  C   UNL A   1      41.968  32.075  31.467  1.00  0.00     0.031 C 
ATOM     55  C   UNL A   1      43.042  30.092  32.707  1.00  0.00     0.037 A 
BRANCH  42  56
ATOM     56  C   UNL A   1      45.236  31.573  27.914  1.00  0.00     0.058 A 
ATOM     57  C   UNL A   1      46.536  31.952  27.499  1.00  0.00     0.135 A 
ATOM     58  C   UNL A   1      44.326  32.643  28.064  1.00  0.00     0.135 A 
ATOM     59  F   UNL A   1      47.491  31.028  27.308  1.00  0.00    -0.206 F 
ATOM     60  C   UNL A   1      46.922  33.285  27.341  1.00  0.00     0.059 A 
ATOM     61  C   UNL A   1      44.678  33.975  27.867  1.00  0.00     0.059 A 
ATOM     62  F   UNL A   1      43.072  32.470  28.490  1.00  0.00    -0.206 F 
ATOM     63  C   UNL A   1      45.986  34.293  27.543  1.00  0.00     0.060 A 
BRANCH  63  64
ATOM     64  S   UNL A   1      46.489  36.016  27.406  1.00  0.00     0.124 S 
ATOM     65  O   UNL A   1      47.249  36.001  26.161  1.00  0.00    -0.237 OA
ATOM     66  O   UNL A   1      45.202  36.703  27.364  1.00  0.00    -0.237 OA
ATOM     67  O   UNL A   1      47.268  36.234  28.621  1.00  0.00    -0.744 OA
ENDBRANCH  63  64
ENDBRANCH  42  56
BRANCH  43  68
ATOM     68  C   UNL A   1      37.490  31.446  31.448  1.00  0.00     0.058 A 
ATOM     69  C   UNL A   1      36.762  31.556  32.652  1.00  0.00     0.135 A 
ATOM     70  C   UNL A   1      37.127  32.341  30.426  1.00  0.00     0.135 A 
ATOM     71  F   UNL A   1      37.036  30.745  33.685  1.00  0.00    -0.206 F 
ATOM     72  C   UNL A   1      35.794  32.545  32.856  1.00  0.00     0.059 A 
ATOM     73  C   UNL A   1      36.158  33.332  30.604  1.00  0.00     0.059 A 
ATOM     74  F   UNL A   1      37.776  32.343  29.252  1.00  0.00    -0.206 F 
ATOM     75  C   UNL A   1      35.519  33.450  31.834  1.00  0.00     0.060 A 
BRANCH  75  76
ATOM     76  S   UNL A   1      34.432  34.860  32.167  1.00  0.00     0.124 S 
ATOM     77  O   UNL A   1      34.090  35.304  30.820  1.00  0.00    -0.237 OA
ATOM     78  O   UNL A   1      33.349  34.244  32.927  1.00  0.00    -0.237 OA
ATOM     79  O   UNL A   1      35.282  35.771  32.928  1.00  0.00    -0.744 OA
ENDBRANCH  75  76
ENDBRANCH  43  68
BRANCH  55  80
ATOM     80  C   UNL A   1      42.851  29.176  33.879  1.00  0.00     0.058 A 
ATOM     81  C   UNL A   1      43.029  29.522  35.228  1.00  0.00     0.135 A 
ATOM     82  C   UNL A   1      42.375  27.886  33.597  1.00  0.00     0.135 A 
ATOM     83  F   UNL A   1      43.401  30.761  35.585  1.00  0.00    -0.206 F 
ATOM     84  C   UNL A   1      42.778  28.604  36.251  1.00  0.00     0.059 A 
ATOM     85  C   UNL A   1      42.084  26.971  34.599  1.00  0.00     0.059 A 
ATOM     86  F   UNL A   1      42.145  27.515  32.327  1.00  0.00    -0.206 F 
ATOM     87  C   UNL A   1      42.305  27.331  35.925  1.00  0.00     0.060 A 
BRANCH  87  88
ATOM     88  S   UNL A   1      41.925  26.160  37.243  1.00  0.00     0.124 S 
ATOM     89  O   UNL A   1      43.001  26.409  38.195  1.00  0.00    -0.237 OA
ATOM     90  O   UNL A   1      40.592  26.581  37.668  1.00  0.00    -0.237 OA
ATOM     91  O   UNL A   1      41.972  24.862  36.572  1.00  0.00    -0.744 OA
ENDBRANCH  87  88
ENDBRANCH  55  80
ENDBRANCH  29  30
ENDBRANCH  21  24
ENDBRANCH  19  20
ENDBRANCH   1  19
TORSDOF 16
ENDMDL
MODEL 3
REMARK VINA RESULT:     -11.0      2.563      3.793
REMARK SMILES CC(=O)N(C)n1cnn(CC(=O)NCCCNC(=O)c2ccc(-c3c4nc(c(-c5c(F)cc(S(=O)(=O)[O-])cc5F)c5ccc([nH]5)c(-c5c(F)cc(S(=O)(=O)[O-])cc5F)c5nc(c(-c6c(F)cc(S(=O)(=O)[O-])cc6F)c6ccc3[nH]6)C=C5)C=C4)cc2)c1=S
REMARK SMILES IDX 15 1 14 2 13 3 11 4 12 5 10 7 9 8 6 9 7 10 86 11 8 12 87 13
REMARK SMILES IDX 4 14 5 15 2 16 1 17 3 18 16 19 17 20 18 21 19 23 20 24 21 25
REMARK SMILES IDX 85 26 22 27 84 28 23 29 24 30 25 31 78 32 26 33 83 34 77 35
REMARK SMILES IDX 79 36 27 37 82 38 76 39 75 40 28 42 62 43 41 44 61 45 42 46
REMARK SMILES IDX 45 47 60 48 80 49 43 50 44 51 59 53 81 54 46 55 29 56 30 57
REMARK SMILES IDX 39 58 31 59 32 60 38 61 40 62 33 63 34 64 35 65 36 66 37 67
REMARK SMILES IDX 63 68 64 69 73 70 65 71 66 72 72 73 74 74 67 75 68 76 69 77
REMARK SMILES IDX 70 78 71 79 47 80 48 81 57 82 49 83 50 84 56 85 58 86 51 87
REMARK SMILES IDX 52 88 53 89 54 90 55 91
REMARK H PARENT 13 6 17 22 79 41 45 52
REMARK Flexibility Score: inf
ROOT
ATOM      1  C   UNL A   1      36.374  22.454  24.909  1.00  0.00     0.042 C 
ENDROOT
BRANCH   1   2
ATOM      2  C   UNL A   1      35.873  21.422  25.921  1.00  0.00     0.117 C 
BRANCH   2   3
ATOM      3  N   UNL A   1      35.369  20.211  25.306  1.00  0.00    -0.354 N 
ATOM      4  C   UNL A   1      34.090  19.874  24.966  1.00  0.00     0.241 C 
ATOM      5  O   UNL A   1      33.946  18.898  24.221  1.00  0.00    -0.273 OA
ATOM      6  H   UNL A   1      36.049  19.530  25.103  1.00  0.00     0.163 HD
BRANCH   4   7
ATOM      7  C   UNL A   1      32.899  20.774  25.307  1.00  0.00     0.247 C 
BRANCH   7   8
ATOM      8  N   UNL A   1      32.719  21.922  24.426  1.00  0.00    -0.227 N 
ATOM      9  N   UNL A   1      32.471  23.907  23.486  1.00  0.00    -0.211 N 
ATOM     10  C   UNL A   1      32.461  22.914  22.568  1.00  0.00     0.247 A 
ATOM     11  C   UNL A   1      32.656  23.301  24.721  1.00  0.00     0.217 A 
ATOM     12  N   UNL A   1      32.620  21.727  23.058  1.00  0.00    -0.158 NA
ATOM     13  S   UNL A   1      32.817  24.015  26.220  1.00  0.00    -0.037 S 
BRANCH   9  14
ATOM     14  N   UNL A   1      32.206  25.253  23.189  1.00  0.00    -0.250 N 
ATOM     15  C   UNL A   1      30.808  25.642  23.258  1.00  0.00     0.176 C 
BRANCH  14  16
ATOM     16  C   UNL A   1      33.277  26.064  22.848  1.00  0.00     0.238 C 
ATOM     17  C   UNL A   1      33.790  26.990  23.923  1.00  0.00     0.116 C 
ATOM     18  O   UNL A   1      33.815  26.043  21.741  1.00  0.00    -0.273 OA
ENDBRANCH  14  16
ENDBRANCH   9  14
ENDBRANCH   7   8
ENDBRANCH   4   7
ENDBRANCH   2   3
ENDBRANCH   1   2
BRANCH   1  19
ATOM     19  C   UNL A   1      37.858  22.756  25.078  1.00  0.00     0.118 C 
BRANCH  19  20
ATOM     20  N   UNL A   1      38.515  21.819  25.985  1.00  0.00    -0.352 N 
ATOM     21  C   UNL A   1      39.592  22.032  26.821  1.00  0.00     0.251 C 
ATOM     22  H   UNL A   1      38.137  20.911  26.003  1.00  0.00     0.163 HD
ATOM     23  O   UNL A   1      40.221  21.077  27.251  1.00  0.00    -0.269 OA
BRANCH  21  24
ATOM     24  C   UNL A   1      39.987  23.411  27.179  1.00  0.00     0.039 A 
ATOM     25  C   UNL A   1      39.091  24.462  26.965  1.00  0.00     0.014 A 
ATOM     26  C   UNL A   1      41.253  23.664  27.711  1.00  0.00     0.014 A 
ATOM     27  C   UNL A   1      39.441  25.748  27.372  1.00  0.00     0.010 A 
ATOM     28  C   UNL A   1      41.567  24.920  28.196  1.00  0.00     0.010 A 
ATOM     29  C   UNL A   1      40.669  25.968  28.021  1.00  0.00    -0.014 A 
BRANCH  29  30
ATOM     30  C   UNL A   1      40.893  27.237  28.722  1.00  0.00     0.031 A 
ATOM     31  C   UNL A   1      42.029  28.012  28.144  1.00  0.00     0.074 A 
ATOM     32  C   UNL A   1      40.053  27.780  29.633  1.00  0.00     0.049 A 
ATOM     33  N   UNL A   1      43.185  28.235  28.676  1.00  0.00    -0.248 NA
ATOM     34  C   UNL A   1      41.949  28.420  26.729  1.00  0.00     0.031 C 
ATOM     35  C   UNL A   1      38.739  27.265  30.037  1.00  0.00     0.029 A 
ATOM     36  N   UNL A   1      40.132  28.961  30.320  1.00  0.00    -0.354 N 
ATOM     37  C   UNL A   1      43.865  29.053  27.773  1.00  0.00     0.074 A 
ATOM     38  C   UNL A   1      43.167  28.929  26.526  1.00  0.00     0.031 C 
ATOM     39  C   UNL A   1      38.058  28.226  30.700  1.00  0.00     0.029 A 
ATOM     40  C   UNL A   1      38.933  29.365  30.913  1.00  0.00     0.049 A 
ATOM     41  H   UNL A   1      40.964  29.482  30.389  1.00  0.00     0.167 HD
ATOM     42  C   UNL A   1      44.738  29.996  28.227  1.00  0.00     0.037 A 
ATOM     43  C   UNL A   1      38.669  30.548  31.528  1.00  0.00     0.037 A 
ATOM     44  C   UNL A   1      45.045  29.753  29.615  1.00  0.00     0.049 A 
ATOM     45  C   UNL A   1      39.972  31.137  31.917  1.00  0.00     0.074 A 
ATOM     46  C   UNL A   1      45.739  28.810  30.340  1.00  0.00     0.029 A 
ATOM     47  N   UNL A   1      44.210  30.408  30.480  1.00  0.00    -0.354 N 
ATOM     48  N   UNL A   1      40.748  30.627  32.832  1.00  0.00    -0.248 NA
ATOM     49  C   UNL A   1      40.597  32.124  31.046  1.00  0.00     0.031 C 
ATOM     50  C   UNL A   1      45.128  28.783  31.629  1.00  0.00     0.029 A 
ATOM     51  C   UNL A   1      44.124  29.749  31.673  1.00  0.00     0.049 A 
ATOM     52  H   UNL A   1      43.735  31.245  30.271  1.00  0.00     0.167 HD
ATOM     53  C   UNL A   1      42.025  30.879  32.372  1.00  0.00     0.074 A 
ATOM     54  C   UNL A   1      41.875  31.944  31.390  1.00  0.00     0.031 C 
ATOM     55  C   UNL A   1      43.023  29.974  32.583  1.00  0.00     0.037 A 
BRANCH  42  56
ATOM     56  C   UNL A   1      44.911  31.395  27.643  1.00  0.00     0.058 A 
ATOM     57  C   UNL A   1      46.137  31.719  27.015  1.00  0.00     0.135 A 
ATOM     58  C   UNL A   1      44.087  32.502  27.944  1.00  0.00     0.135 A 
ATOM     59  F   UNL A   1      47.005  30.755  26.667  1.00  0.00    -0.206 F 
ATOM     60  C   UNL A   1      46.550  33.035  26.792  1.00  0.00     0.059 A 
ATOM     61  C   UNL A   1      44.460  33.819  27.688  1.00  0.00     0.059 A 
ATOM     62  F   UNL A   1      42.917  32.383  28.576  1.00  0.00    -0.206 F 
ATOM     63  C   UNL A   1      45.707  34.081  27.148  1.00  0.00     0.060 A 
BRANCH  63  64
ATOM     64  S   UNL A   1      46.256  35.782  26.926  1.00  0.00     0.124 S 
ATOM     65  O   UNL A   1      47.136  35.657  25.769  1.00  0.00    -0.237 OA
ATOM     66  O   UNL A   1      44.994  36.478  26.701  1.00  0.00    -0.237 OA
ATOM     67  O   UNL A   1      46.915  36.088  28.193  1.00  0.00    -0.744 OA
ENDBRANCH  63  64
ENDBRANCH  42  56
BRANCH  43  68
ATOM     68  C   UNL A   1      37.404  31.323  31.663  1.00  0.00     0.058 A 
ATOM     69  C   UNL A   1      36.857  31.613  32.931  1.00  0.00     0.135 A 
ATOM     70  C   UNL A   1      36.877  32.055  30.584  1.00  0.00     0.135 A 
ATOM     71  F   UNL A   1      37.295  30.965  34.021  1.00  0.00    -0.206 F 
ATOM     72  C   UNL A   1      35.909  32.623  33.126  1.00  0.00     0.059 A 
ATOM     73  C   UNL A   1      35.925  33.063  30.753  1.00  0.00     0.059 A 
ATOM     74  F   UNL A   1      37.348  31.880  29.340  1.00  0.00    -0.206 F 
ATOM     75  C   UNL A   1      35.470  33.365  32.032  1.00  0.00     0.060 A 
BRANCH  75  76
ATOM     76  S   UNL A   1      34.414  34.811  32.308  1.00  0.00     0.124 S 
ATOM     77  O   UNL A   1      33.269  34.224  32.995  1.00  0.00    -0.237 OA
ATOM     78  O   UNL A   1      35.271  35.670  33.120  1.00  0.00    -0.237 OA
ATOM     79  O   UNL A   1      34.150  35.300  30.957  1.00  0.00    -0.744 OA
ENDBRANCH  75  76
ENDBRANCH  43  68
BRANCH  55  80
ATOM     80  C   UNL A   1      42.906  29.072  33.775  1.00  0.00     0.058 A 
ATOM     81  C   UNL A   1      43.253  29.406  35.094  1.00  0.00     0.135 A 
ATOM     82  C   UNL A   1      42.322  27.814  33.557  1.00  0.00     0.135 A 
ATOM     83  F   UNL A   1      43.739  30.619  35.399  1.00  0.00    -0.206 F 
ATOM     84  C   UNL A   1      43.060  28.506  36.145  1.00  0.00     0.059 A 
ATOM     85  C   UNL A   1      42.087  26.920  34.592  1.00  0.00     0.059 A 
ATOM     86  F   UNL A   1      41.930  27.459  32.323  1.00  0.00    -0.206 F 
ATOM     87  C   UNL A   1      42.475  27.266  35.883  1.00  0.00     0.060 A 
BRANCH  87  88
ATOM     88  S   UNL A   1      42.170  26.121  37.243  1.00  0.00     0.124 S 
ATOM     89  O   UNL A   1      42.518  24.837  36.648  1.00  0.00    -0.237 OA
ATOM     90  O   UNL A   1      43.078  26.609  38.278  1.00  0.00    -0.237 OA
ATOM     91  O   UNL A   1      40.750  26.308  37.536  1.00  0.00    -0.744 OA
ENDBRANCH  87  88
ENDBRANCH  55  80
ENDBRANCH  29  30
ENDBRANCH  21  24
ENDBRANCH  19  20
ENDBRANCH   1  19
TORSDOF 16
ENDMDL
