MODEL 1
REMARK VINA RESULT:     -10.8      0.000      0.000
REMARK SMILES O=C(Cc1ccccc1[N+](=O)[O-])N[C@@H]1C=C[C@H](C(=O)NCCCNC(=O)c2ccc(-c3c4nc(c(-c5c(F)cc(S(=O)(=O)[O-])cc5F)c5ccc([nH]5)c(-c5c(F)cc(S(=O)(=O)[O-])cc5F)c5nc(c(-c6c(F)cc(S(=O)(=O)[O-])cc6F)c6ccc3[nH]6)C=C5)C=C4)cc2)C1
REMARK SMILES IDX 21 1 20 2 18 3 19 4 17 6 14 7 15 8 93 9 16 10 13 11 1 12
REMARK SMILES IDX 2 13 3 15 4 16 5 17 9 18 6 19 8 20 7 21 10 22 11 23 12 24
REMARK SMILES IDX 22 25 23 26 24 27 25 28 26 30 27 31 28 32 92 33 29 34 91 35
REMARK SMILES IDX 30 36 31 37 32 38 85 39 33 40 90 41 84 42 86 43 34 44 89 45
REMARK SMILES IDX 83 46 82 47 35 49 69 50 48 51 68 52 49 53 52 54 67 55 87 56
REMARK SMILES IDX 50 57 51 58 66 60 88 61 53 62 36 63 37 64 46 65 38 66 39 67
REMARK SMILES IDX 45 68 47 69 40 70 41 71 42 72 43 73 44 74 70 75 71 76 80 77
REMARK SMILES IDX 72 78 73 79 79 80 81 81 74 82 75 83 76 84 77 85 78 86 54 87
REMARK SMILES IDX 55 88 64 89 56 90 57 91 63 92 65 93 58 94 59 95 60 96 61 97
REMARK SMILES IDX 62 98
REMARK H PARENT 20 5 13 14 24 29 86 48 52 59
REMARK Flexibility Score: inf
ROOT
ATOM      1  C   UNL A   1      33.646  34.485  29.564  1.00  0.00     0.117 C 
ENDROOT
BRANCH   1   2
ATOM      2  N   UNL A   1      33.546  35.890  29.211  1.00  0.00    -0.356 N 
ATOM      3  C   UNL A   1      33.332  37.003  29.948  1.00  0.00     0.227 C 
ATOM      4  O   UNL A   1      33.435  38.082  29.346  1.00  0.00    -0.274 OA
ATOM      5  H   UNL A   1      33.658  36.066  28.248  1.00  0.00     0.163 HD
BRANCH   3   6
ATOM      6  C   UNL A   1      32.955  37.024  31.440  1.00  0.00     0.103 C 
ATOM      7  C   UNL A   1      34.255  35.620  32.997  1.00  0.00     0.106 C 
ATOM      8  C   UNL A   1      32.848  35.159  32.881  1.00  0.00    -0.006 C 
ATOM      9  C   UNL A   1      34.245  36.979  32.285  1.00  0.00     0.047 C 
ATOM     10  C   UNL A   1      32.129  35.955  32.079  1.00  0.00    -0.016 C 
BRANCH   7  11
ATOM     11  N   UNL A   1      35.255  34.689  32.499  1.00  0.00    -0.350 N 
ATOM     12  O   UNL A   1      35.170  32.981  34.040  1.00  0.00    -0.275 OA
ATOM     13  C   UNL A   1      35.542  33.424  32.963  1.00  0.00     0.225 C 
ATOM     14  H   UNL A   1      35.794  35.000  31.736  1.00  0.00     0.164 HD
BRANCH  13  15
ATOM     15  C   UNL A   1      36.405  32.570  32.041  1.00  0.00     0.142 C 
BRANCH  15  16
ATOM     16  C   UNL A   1      37.446  33.375  31.284  1.00  0.00     0.039 A 
ATOM     17  C   UNL A   1      37.323  33.450  29.881  1.00  0.00     0.011 A 
ATOM     18  C   UNL A   1      38.544  34.049  31.862  1.00  0.00     0.273 A 
ATOM     19  C   UNL A   1      38.258  34.127  29.093  1.00  0.00     0.001 A 
ATOM     20  C   UNL A   1      39.488  34.730  31.067  1.00  0.00     0.086 A 
ATOM     21  C   UNL A   1      39.344  34.760  29.684  1.00  0.00     0.007 A 
BRANCH  18  22
ATOM     22  N   UNL A   1      38.737  34.151  33.309  1.00  0.00     0.063 N 
ATOM     23  O   UNL A   1      39.505  33.335  33.837  1.00  0.00    -0.258 OA
ATOM     24  O   UNL A   1      38.185  35.093  33.894  1.00  0.00    -0.258 OA
ENDBRANCH  18  22
ENDBRANCH  15  16
ENDBRANCH  13  15
ENDBRANCH   7  11
ENDBRANCH   3   6
ENDBRANCH   1   2
BRANCH   1  25
ATOM     25  C   UNL A   1      33.540  33.578  28.355  1.00  0.00     0.042 C 
BRANCH  25  26
ATOM     26  C   UNL A   1      34.536  32.431  28.407  1.00  0.00     0.118 C 
BRANCH  26  27
ATOM     27  N   UNL A   1      33.927  31.145  28.073  1.00  0.00    -0.352 N 
ATOM     28  C   UNL A   1      34.509  29.924  27.853  1.00  0.00     0.251 C 
ATOM     29  H   UNL A   1      32.945  31.158  27.991  1.00  0.00     0.163 HD
ATOM     30  O   UNL A   1      33.850  29.007  27.364  1.00  0.00    -0.269 OA
BRANCH  28  31
ATOM     31  C   UNL A   1      35.928  29.715  28.191  1.00  0.00     0.039 A 
ATOM     32  C   UNL A   1      36.275  29.362  29.497  1.00  0.00     0.014 A 
ATOM     33  C   UNL A   1      36.917  29.869  27.218  1.00  0.00     0.014 A 
ATOM     34  C   UNL A   1      37.610  29.103  29.807  1.00  0.00     0.010 A 
ATOM     35  C   UNL A   1      38.224  29.502  27.499  1.00  0.00     0.010 A 
ATOM     36  C   UNL A   1      38.589  29.135  28.801  1.00  0.00    -0.014 A 
BRANCH  36  37
ATOM     37  C   UNL A   1      40.009  28.823  29.089  1.00  0.00     0.031 A 
ATOM     38  C   UNL A   1      40.881  29.860  29.744  1.00  0.00     0.074 A 
ATOM     39  C   UNL A   1      40.524  27.641  28.701  1.00  0.00     0.049 A 
ATOM     40  N   UNL A   1      42.161  29.816  30.008  1.00  0.00    -0.248 NA
ATOM     41  C   UNL A   1      40.235  31.129  30.121  1.00  0.00     0.031 C 
ATOM     42  C   UNL A   1      39.785  26.577  28.018  1.00  0.00     0.029 A 
ATOM     43  N   UNL A   1      41.794  27.137  28.822  1.00  0.00    -0.354 N 
ATOM     44  C   UNL A   1      42.472  31.049  30.568  1.00  0.00     0.074 A 
ATOM     45  C   UNL A   1      41.266  31.846  30.536  1.00  0.00     0.031 C 
ATOM     46  C   UNL A   1      40.605  25.533  27.813  1.00  0.00     0.029 A 
ATOM     47  C   UNL A   1      41.936  25.870  28.307  1.00  0.00     0.049 A 
ATOM     48  H   UNL A   1      42.534  27.635  29.238  1.00  0.00     0.167 HD
ATOM     49  C   UNL A   1      43.649  31.470  31.092  1.00  0.00     0.037 A 
ATOM     50  C   UNL A   1      43.020  25.073  28.240  1.00  0.00     0.037 A 
ATOM     51  C   UNL A   1      44.837  30.660  31.133  1.00  0.00     0.049 A 
ATOM     52  C   UNL A   1      44.323  25.568  28.807  1.00  0.00     0.074 A 
ATOM     53  C   UNL A   1      46.071  30.969  31.675  1.00  0.00     0.029 A 
ATOM     54  N   UNL A   1      44.940  29.379  30.608  1.00  0.00    -0.354 N 
ATOM     55  N   UNL A   1      44.589  26.717  29.382  1.00  0.00    -0.248 NA
ATOM     56  C   UNL A   1      45.471  24.655  28.723  1.00  0.00     0.031 C 
ATOM     57  C   UNL A   1      46.935  29.896  31.433  1.00  0.00     0.029 A 
ATOM     58  C   UNL A   1      46.223  28.891  30.795  1.00  0.00     0.049 A 
ATOM     59  H   UNL A   1      44.209  28.888  30.167  1.00  0.00     0.167 HD
ATOM     60  C   UNL A   1      45.926  26.652  29.761  1.00  0.00     0.074 A 
ATOM     61  C   UNL A   1      46.410  25.348  29.355  1.00  0.00     0.031 C 
ATOM     62  C   UNL A   1      46.684  27.584  30.391  1.00  0.00     0.037 A 
BRANCH  49  63
ATOM     63  C   UNL A   1      43.696  32.864  31.657  1.00  0.00     0.058 A 
ATOM     64  C   UNL A   1      44.087  33.966  30.875  1.00  0.00     0.135 A 
ATOM     65  C   UNL A   1      43.348  33.109  32.995  1.00  0.00     0.135 A 
ATOM     66  F   UNL A   1      44.447  33.792  29.593  1.00  0.00    -0.206 F 
ATOM     67  C   UNL A   1      44.175  35.246  31.410  1.00  0.00     0.059 A 
ATOM     68  C   UNL A   1      43.394  34.388  33.542  1.00  0.00     0.059 A 
ATOM     69  F   UNL A   1      42.965  32.097  33.790  1.00  0.00    -0.206 F 
ATOM     70  C   UNL A   1      43.829  35.447  32.747  1.00  0.00     0.060 A 
BRANCH  70  71
ATOM     71  S   UNL A   1      43.965  37.112  33.431  1.00  0.00     0.124 S 
ATOM     72  O   UNL A   1      44.031  37.920  32.218  1.00  0.00    -0.237 OA
ATOM     73  O   UNL A   1      42.733  37.232  34.206  1.00  0.00    -0.237 OA
ATOM     74  O   UNL A   1      45.193  37.058  34.216  1.00  0.00    -0.744 OA
ENDBRANCH  70  71
ENDBRANCH  49  63
BRANCH  50  75
ATOM     75  C   UNL A   1      42.905  23.712  27.651  1.00  0.00     0.058 A 
ATOM     76  C   UNL A   1      42.588  22.606  28.455  1.00  0.00     0.135 A 
ATOM     77  C   UNL A   1      43.078  23.491  26.276  1.00  0.00     0.135 A 
ATOM     78  F   UNL A   1      42.418  22.766  29.776  1.00  0.00    -0.206 F 
ATOM     79  C   UNL A   1      42.463  21.327  27.921  1.00  0.00     0.059 A 
ATOM     80  C   UNL A   1      42.932  22.225  25.715  1.00  0.00     0.059 A 
ATOM     81  F   UNL A   1      43.364  24.517  25.459  1.00  0.00    -0.206 F 
ATOM     82  C   UNL A   1      42.631  21.148  26.548  1.00  0.00     0.060 A 
BRANCH  82  83
ATOM     83  S   UNL A   1      42.413  19.493  25.861  1.00  0.00     0.124 S 
ATOM     84  O   UNL A   1      43.375  19.498  24.765  1.00  0.00    -0.237 OA
ATOM     85  O   UNL A   1      42.746  18.643  27.000  1.00  0.00    -0.237 OA
ATOM     86  O   UNL A   1      41.007  19.475  25.466  1.00  0.00    -0.744 OA
ENDBRANCH  82  83
ENDBRANCH  50  75
BRANCH  62  87
ATOM     87  C   UNL A   1      48.103  27.214  30.725  1.00  0.00     0.058 A 
ATOM     88  C   UNL A   1      48.426  26.469  31.870  1.00  0.00     0.135 A 
ATOM     89  C   UNL A   1      49.147  27.563  29.853  1.00  0.00     0.135 A 
ATOM     90  F   UNL A   1      47.468  26.114  32.740  1.00  0.00    -0.206 F 
ATOM     91  C   UNL A   1      49.741  26.108  32.153  1.00  0.00     0.059 A 
ATOM     92  C   UNL A   1      50.463  27.185  30.099  1.00  0.00     0.059 A 
ATOM     93  F   UNL A   1      48.891  28.265  28.737  1.00  0.00    -0.206 F 
ATOM     94  C   UNL A   1      50.751  26.468  31.258  1.00  0.00     0.060 A 
BRANCH  94  95
ATOM     95  S   UNL A   1      52.445  25.961  31.620  1.00  0.00     0.124 S 
ATOM     96  O   UNL A   1      52.251  24.590  32.079  1.00  0.00    -0.237 OA
ATOM     97  O   UNL A   1      53.098  26.109  30.323  1.00  0.00    -0.237 OA
ATOM     98  O   UNL A   1      52.874  26.910  32.643  1.00  0.00    -0.744 OA
ENDBRANCH  94  95
ENDBRANCH  62  87
ENDBRANCH  36  37
ENDBRANCH  28  31
ENDBRANCH  26  27
ENDBRANCH  25  26
ENDBRANCH   1  25
TORSDOF 17
ENDMDL
MODEL 2
REMARK VINA RESULT:     -10.7      5.041     11.981
REMARK SMILES O=C(Cc1ccccc1[N+](=O)[O-])N[C@@H]1C=C[C@H](C(=O)NCCCNC(=O)c2ccc(-c3c4nc(c(-c5c(F)cc(S(=O)(=O)[O-])cc5F)c5ccc([nH]5)c(-c5c(F)cc(S(=O)(=O)[O-])cc5F)c5nc(c(-c6c(F)cc(S(=O)(=O)[O-])cc6F)c6ccc3[nH]6)C=C5)C=C4)cc2)C1
REMARK SMILES IDX 21 1 20 2 18 3 19 4 17 6 14 7 15 8 93 9 16 10 13 11 1 12
REMARK SMILES IDX 2 13 3 15 4 16 5 17 9 18 6 19 8 20 7 21 10 22 11 23 12 24
REMARK SMILES IDX 22 25 23 26 24 27 25 28 26 30 27 31 28 32 92 33 29 34 91 35
REMARK SMILES IDX 30 36 31 37 32 38 85 39 33 40 90 41 84 42 86 43 34 44 89 45
REMARK SMILES IDX 83 46 82 47 35 49 69 50 48 51 68 52 49 53 52 54 67 55 87 56
REMARK SMILES IDX 50 57 51 58 66 60 88 61 53 62 36 63 37 64 46 65 38 66 39 67
REMARK SMILES IDX 45 68 47 69 40 70 41 71 42 72 43 73 44 74 70 75 71 76 80 77
REMARK SMILES IDX 72 78 73 79 79 80 81 81 74 82 75 83 76 84 77 85 78 86 54 87
REMARK SMILES IDX 55 88 64 89 56 90 57 91 63 92 65 93 58 94 59 95 60 96 61 97
REMARK SMILES IDX 62 98
REMARK H PARENT 20 5 13 14 24 29 86 48 52 59
REMARK Flexibility Score: inf
ROOT
ATOM      1  C   UNL A   1      38.543  21.789  25.784  1.00  0.00     0.117 C 
ENDROOT
BRANCH   1   2
ATOM      2  N   UNL A   1      37.481  22.743  26.050  1.00  0.00    -0.356 N 
ATOM      3  C   UNL A   1      36.227  22.872  25.562  1.00  0.00     0.227 C 
ATOM      4  O   UNL A   1      35.518  23.733  26.103  1.00  0.00    -0.274 OA
ATOM      5  H   UNL A   1      37.721  23.428  26.716  1.00  0.00     0.163 HD
BRANCH   3   6
ATOM      6  C   UNL A   1      35.638  22.059  24.394  1.00  0.00     0.103 C 
ATOM      7  C   UNL A   1      33.831  23.074  23.056  1.00  0.00     0.106 C 
ATOM      8  C   UNL A   1      33.356  21.891  23.820  1.00  0.00    -0.006 C 
ATOM      9  C   UNL A   1      35.356  23.010  23.213  1.00  0.00     0.047 C 
ATOM     10  C   UNL A   1      34.351  21.309  24.502  1.00  0.00    -0.016 C 
BRANCH   7  11
ATOM     11  N   UNL A   1      33.239  24.343  23.448  1.00  0.00    -0.350 N 
ATOM     12  O   UNL A   1      33.765  25.716  21.677  1.00  0.00    -0.275 OA
ATOM     13  C   UNL A   1      33.139  25.498  22.704  1.00  0.00     0.225 C 
ATOM     14  H   UNL A   1      32.864  24.382  24.358  1.00  0.00     0.164 HD
BRANCH  13  15
ATOM     15  C   UNL A   1      32.185  26.551  23.257  1.00  0.00     0.142 C 
BRANCH  15  16
ATOM     16  C   UNL A   1      32.705  27.226  24.513  1.00  0.00     0.039 A 
ATOM     17  C   UNL A   1      33.553  28.342  24.353  1.00  0.00     0.011 A 
ATOM     18  C   UNL A   1      32.425  26.826  25.838  1.00  0.00     0.273 A 
ATOM     19  C   UNL A   1      34.120  29.001  25.447  1.00  0.00     0.001 A 
ATOM     20  C   UNL A   1      32.998  27.490  26.941  1.00  0.00     0.086 A 
ATOM     21  C   UNL A   1      33.850  28.572  26.740  1.00  0.00     0.007 A 
BRANCH  18  22
ATOM     22  N   UNL A   1      31.476  25.759  26.158  1.00  0.00     0.063 N 
ATOM     23  O   UNL A   1      31.910  24.599  26.166  1.00  0.00    -0.258 OA
ATOM     24  O   UNL A   1      30.327  26.093  26.479  1.00  0.00    -0.258 OA
ENDBRANCH  18  22
ENDBRANCH  15  16
ENDBRANCH  13  15
ENDBRANCH   7  11
ENDBRANCH   3   6
ENDBRANCH   1   2
BRANCH   1  25
ATOM     25  C   UNL A   1      39.712  21.948  26.736  1.00  0.00     0.042 C 
BRANCH  25  26
ATOM     26  C   UNL A   1      40.006  23.407  27.046  1.00  0.00     0.118 C 
BRANCH  26  27
ATOM     27  N   UNL A   1      40.980  23.990  26.125  1.00  0.00    -0.352 N 
ATOM     28  C   UNL A   1      41.460  25.271  26.044  1.00  0.00     0.251 C 
ATOM     29  H   UNL A   1      41.347  23.366  25.457  1.00  0.00     0.163 HD
ATOM     30  O   UNL A   1      42.108  25.625  25.059  1.00  0.00    -0.269 OA
BRANCH  28  31
ATOM     31  C   UNL A   1      41.188  26.228  27.132  1.00  0.00     0.039 A 
ATOM     32  C   UNL A   1      40.258  25.893  28.118  1.00  0.00     0.014 A 
ATOM     33  C   UNL A   1      41.850  27.456  27.176  1.00  0.00     0.014 A 
ATOM     34  C   UNL A   1      40.042  26.768  29.183  1.00  0.00     0.010 A 
ATOM     35  C   UNL A   1      41.719  28.270  28.290  1.00  0.00     0.010 A 
ATOM     36  C   UNL A   1      40.799  27.946  29.296  1.00  0.00    -0.014 A 
BRANCH  36  37
ATOM     37  C   UNL A   1      40.623  28.876  30.437  1.00  0.00     0.031 A 
ATOM     38  C   UNL A   1      41.488  28.726  31.659  1.00  0.00     0.074 A 
ATOM     39  C   UNL A   1      39.648  29.803  30.398  1.00  0.00     0.049 A 
ATOM     40  N   UNL A   1      41.441  29.380  32.790  1.00  0.00    -0.248 NA
ATOM     41  C   UNL A   1      42.520  27.675  31.618  1.00  0.00     0.031 C 
ATOM     42  C   UNL A   1      38.720  30.012  29.284  1.00  0.00     0.029 A 
ATOM     43  N   UNL A   1      39.270  30.742  31.324  1.00  0.00    -0.354 N 
ATOM     44  C   UNL A   1      42.424  28.814  33.594  1.00  0.00     0.074 A 
ATOM     45  C   UNL A   1      42.999  27.715  32.851  1.00  0.00     0.031 C 
ATOM     46  C   UNL A   1      37.905  31.039  29.576  1.00  0.00     0.029 A 
ATOM     47  C   UNL A   1      38.221  31.530  30.914  1.00  0.00     0.049 A 
ATOM     48  H   UNL A   1      39.709  30.843  32.199  1.00  0.00     0.167 HD
ATOM     49  C   UNL A   1      42.834  29.196  34.827  1.00  0.00     0.037 A 
ATOM     50  C   UNL A   1      37.584  32.533  31.548  1.00  0.00     0.037 A 
ATOM     51  C   UNL A   1      42.265  30.303  35.549  1.00  0.00     0.049 A 
ATOM     52  C   UNL A   1      38.040  32.927  32.928  1.00  0.00     0.074 A 
ATOM     53  C   UNL A   1      42.628  30.802  36.786  1.00  0.00     0.029 A 
ATOM     54  N   UNL A   1      41.207  31.081  35.098  1.00  0.00    -0.354 N 
ATOM     55  N   UNL A   1      39.007  32.416  33.654  1.00  0.00    -0.248 NA
ATOM     56  C   UNL A   1      37.324  34.036  33.571  1.00  0.00     0.031 C 
ATOM     57  C   UNL A   1      41.759  31.850  37.106  1.00  0.00     0.029 A 
ATOM     58  C   UNL A   1      40.892  32.045  36.042  1.00  0.00     0.049 A 
ATOM     59  H   UNL A   1      40.749  30.966  34.235  1.00  0.00     0.167 HD
ATOM     60  C   UNL A   1      39.038  33.166  34.825  1.00  0.00     0.074 A 
ATOM     61  C   UNL A   1      37.998  34.167  34.706  1.00  0.00     0.031 C 
ATOM     62  C   UNL A   1      39.857  33.041  35.900  1.00  0.00     0.037 A 
BRANCH  49  63
ATOM     63  C   UNL A   1      43.947  28.406  35.462  1.00  0.00     0.058 A 
ATOM     64  C   UNL A   1      43.689  27.314  36.310  1.00  0.00     0.135 A 
ATOM     65  C   UNL A   1      45.290  28.739  35.223  1.00  0.00     0.135 A 
ATOM     66  F   UNL A   1      42.424  26.959  36.589  1.00  0.00    -0.206 F 
ATOM     67  C   UNL A   1      44.716  26.615  36.933  1.00  0.00     0.059 A 
ATOM     68  C   UNL A   1      46.336  28.029  35.807  1.00  0.00     0.059 A 
ATOM     69  F   UNL A   1      45.599  29.769  34.421  1.00  0.00    -0.206 F 
ATOM     70  C   UNL A   1      46.038  26.982  36.678  1.00  0.00     0.060 A 
BRANCH  70  71
ATOM     71  S   UNL A   1      47.360  26.075  37.506  1.00  0.00     0.124 S 
ATOM     72  O   UNL A   1      46.984  26.229  38.909  1.00  0.00    -0.237 OA
ATOM     73  O   UNL A   1      47.208  24.731  36.955  1.00  0.00    -0.237 OA
ATOM     74  O   UNL A   1      48.567  26.784  37.099  1.00  0.00    -0.744 OA
ENDBRANCH  70  71
ENDBRANCH  49  63
BRANCH  50  75
ATOM     75  C   UNL A   1      36.478  33.259  30.867  1.00  0.00     0.058 A 
ATOM     76  C   UNL A   1      35.145  33.067  31.260  1.00  0.00     0.135 A 
ATOM     77  C   UNL A   1      36.730  34.176  29.835  1.00  0.00     0.135 A 
ATOM     78  F   UNL A   1      34.853  32.197  32.239  1.00  0.00    -0.206 F 
ATOM     79  C   UNL A   1      34.098  33.746  30.644  1.00  0.00     0.059 A 
ATOM     80  C   UNL A   1      35.702  34.887  29.223  1.00  0.00     0.059 A 
ATOM     81  F   UNL A   1      37.989  34.410  29.434  1.00  0.00    -0.206 F 
ATOM     82  C   UNL A   1      34.388  34.659  29.630  1.00  0.00     0.060 A 
BRANCH  82  83
ATOM     83  S   UNL A   1      33.025  35.573  28.876  1.00  0.00     0.124 S 
ATOM     84  O   UNL A   1      32.302  36.048  30.050  1.00  0.00    -0.237 OA
ATOM     85  O   UNL A   1      33.730  36.591  28.104  1.00  0.00    -0.237 OA
ATOM     86  O   UNL A   1      32.338  34.558  28.081  1.00  0.00    -0.744 OA
ENDBRANCH  82  83
ENDBRANCH  50  75
BRANCH  62  87
ATOM     87  C   UNL A   1      39.695  34.038  37.014  1.00  0.00     0.058 A 
ATOM     88  C   UNL A   1      38.929  33.759  38.156  1.00  0.00     0.135 A 
ATOM     89  C   UNL A   1      40.365  35.272  36.959  1.00  0.00     0.135 A 
ATOM     90  F   UNL A   1      38.263  32.598  38.257  1.00  0.00    -0.206 F 
ATOM     91  C   UNL A   1      38.810  34.679  39.193  1.00  0.00     0.059 A 
ATOM     92  C   UNL A   1      40.287  36.193  37.999  1.00  0.00     0.059 A 
ATOM     93  F   UNL A   1      41.121  35.585  35.895  1.00  0.00    -0.206 F 
ATOM     94  C   UNL A   1      39.497  35.892  39.106  1.00  0.00     0.060 A 
BRANCH  94  95
ATOM     95  S   UNL A   1      39.362  37.061  40.476  1.00  0.00     0.124 S 
ATOM     96  O   UNL A   1      38.644  38.165  39.851  1.00  0.00    -0.237 OA
ATOM     97  O   UNL A   1      38.611  36.295  41.466  1.00  0.00    -0.237 OA
ATOM     98  O   UNL A   1      40.753  37.335  40.828  1.00  0.00    -0.744 OA
ENDBRANCH  94  95
ENDBRANCH  62  87
ENDBRANCH  36  37
ENDBRANCH  28  31
ENDBRANCH  26  27
ENDBRANCH  25  26
ENDBRANCH   1  25
TORSDOF 17
ENDMDL
MODEL 3
REMARK VINA RESULT:     -10.5      4.017     10.535
REMARK SMILES O=C(Cc1ccccc1[N+](=O)[O-])N[C@@H]1C=C[C@H](C(=O)NCCCNC(=O)c2ccc(-c3c4nc(c(-c5c(F)cc(S(=O)(=O)[O-])cc5F)c5ccc([nH]5)c(-c5c(F)cc(S(=O)(=O)[O-])cc5F)c5nc(c(-c6c(F)cc(S(=O)(=O)[O-])cc6F)c6ccc3[nH]6)C=C5)C=C4)cc2)C1
REMARK SMILES IDX 21 1 20 2 18 3 19 4 17 6 14 7 15 8 93 9 16 10 13 11 1 12
REMARK SMILES IDX 2 13 3 15 4 16 5 17 9 18 6 19 8 20 7 21 10 22 11 23 12 24
REMARK SMILES IDX 22 25 23 26 24 27 25 28 26 30 27 31 28 32 92 33 29 34 91 35
REMARK SMILES IDX 30 36 31 37 32 38 85 39 33 40 90 41 84 42 86 43 34 44 89 45
REMARK SMILES IDX 83 46 82 47 35 49 69 50 48 51 68 52 49 53 52 54 67 55 87 56
REMARK SMILES IDX 50 57 51 58 66 60 88 61 53 62 36 63 37 64 46 65 38 66 39 67
REMARK SMILES IDX 45 68 47 69 40 70 41 71 42 72 43 73 44 74 70 75 71 76 80 77
REMARK SMILES IDX 72 78 73 79 79 80 81 81 74 82 75 83 76 84 77 85 78 86 54 87
REMARK SMILES IDX 55 88 64 89 56 90 57 91 63 92 65 93 58 94 59 95 60 96 61 97
REMARK SMILES IDX 62 98
REMARK H PARENT 20 5 13 14 24 29 86 48 52 59
REMARK Flexibility Score: inf
ROOT
ATOM      1  C   UNL A   1      33.171  30.352  27.266  1.00  0.00     0.117 C 
ENDROOT
BRANCH   1   2
ATOM      2  N   UNL A   1      32.288  29.214  27.076  1.00  0.00    -0.356 N 
ATOM      3  C   UNL A   1      31.798  28.616  25.967  1.00  0.00     0.227 C 
ATOM      4  O   UNL A   1      31.163  27.567  26.151  1.00  0.00    -0.274 OA
ATOM      5  H   UNL A   1      31.991  28.798  27.917  1.00  0.00     0.163 HD
BRANCH   3   6
ATOM      6  C   UNL A   1      31.949  29.144  24.529  1.00  0.00     0.103 C 
ATOM      7  C   UNL A   1      32.138  27.507  22.693  1.00  0.00     0.106 C 
ATOM      8  C   UNL A   1      33.390  28.287  22.869  1.00  0.00    -0.006 C 
ATOM      9  C   UNL A   1      31.128  28.251  23.576  1.00  0.00     0.047 C 
ATOM     10  C   UNL A   1      33.267  29.213  23.829  1.00  0.00    -0.016 C 
BRANCH   7  11
ATOM     11  N   UNL A   1      32.250  26.084  22.975  1.00  0.00    -0.350 N 
ATOM     12  O   UNL A   1      33.438  25.301  21.166  1.00  0.00    -0.275 OA
ATOM     13  C   UNL A   1      32.974  25.137  22.285  1.00  0.00     0.225 C 
ATOM     14  H   UNL A   1      31.746  25.758  23.755  1.00  0.00     0.164 HD
BRANCH  13  15
ATOM     15  C   UNL A   1      33.159  23.805  23.004  1.00  0.00     0.142 C 
BRANCH  15  16
ATOM     16  C   UNL A   1      34.497  23.691  23.713  1.00  0.00     0.039 A 
ATOM     17  C   UNL A   1      35.527  22.986  23.057  1.00  0.00     0.011 A 
ATOM     18  C   UNL A   1      34.800  24.221  24.986  1.00  0.00     0.273 A 
ATOM     19  C   UNL A   1      36.777  22.786  23.648  1.00  0.00     0.001 A 
ATOM     20  C   UNL A   1      36.060  24.018  25.583  1.00  0.00     0.086 A 
ATOM     21  C   UNL A   1      37.043  23.294  24.913  1.00  0.00     0.007 A 
BRANCH  18  22
ATOM     22  N   UNL A   1      33.869  25.067  25.734  1.00  0.00     0.063 N 
ATOM     23  O   UNL A   1      34.078  26.287  25.722  1.00  0.00    -0.258 OA
ATOM     24  O   UNL A   1      32.891  24.515  26.257  1.00  0.00    -0.258 OA
ENDBRANCH  18  22
ENDBRANCH  15  16
ENDBRANCH  13  15
ENDBRANCH   7  11
ENDBRANCH   3   6
ENDBRANCH   1   2
BRANCH   1  25
ATOM     25  C   UNL A   1      34.608  30.031  26.914  1.00  0.00     0.042 C 
BRANCH  25  26
ATOM     26  C   UNL A   1      35.315  29.266  28.021  1.00  0.00     0.118 C 
BRANCH  26  27
ATOM     27  N   UNL A   1      35.438  30.045  29.251  1.00  0.00    -0.352 N 
ATOM     28  C   UNL A   1      36.521  30.240  30.068  1.00  0.00     0.251 C 
ATOM     29  H   UNL A   1      34.613  30.502  29.538  1.00  0.00     0.163 HD
ATOM     30  O   UNL A   1      36.370  30.748  31.179  1.00  0.00    -0.269 OA
BRANCH  28  31
ATOM     31  C   UNL A   1      37.863  29.827  29.620  1.00  0.00     0.039 A 
ATOM     32  C   UNL A   1      38.180  29.895  28.261  1.00  0.00     0.014 A 
ATOM     33  C   UNL A   1      38.807  29.372  30.541  1.00  0.00     0.014 A 
ATOM     34  C   UNL A   1      39.468  29.565  27.840  1.00  0.00     0.010 A 
ATOM     35  C   UNL A   1      40.115  29.153  30.137  1.00  0.00     0.010 A 
ATOM     36  C   UNL A   1      40.456  29.227  28.780  1.00  0.00    -0.014 A 
BRANCH  36  37
ATOM     37  C   UNL A   1      41.845  28.913  28.368  1.00  0.00     0.031 A 
ATOM     38  C   UNL A   1      42.206  27.504  27.984  1.00  0.00     0.074 A 
ATOM     39  C   UNL A   1      42.786  29.875  28.407  1.00  0.00     0.049 A 
ATOM     40  N   UNL A   1      43.375  27.006  27.672  1.00  0.00    -0.248 NA
ATOM     41  C   UNL A   1      41.115  26.514  27.984  1.00  0.00     0.031 C 
ATOM     42  C   UNL A   1      42.561  31.267  28.805  1.00  0.00     0.029 A 
ATOM     43  N   UNL A   1      44.124  29.828  28.110  1.00  0.00    -0.354 N 
ATOM     44  C   UNL A   1      43.159  25.651  27.453  1.00  0.00     0.074 A 
ATOM     45  C   UNL A   1      41.767  25.389  27.740  1.00  0.00     0.031 C 
ATOM     46  C   UNL A   1      43.712  31.948  28.694  1.00  0.00     0.029 A 
ATOM     47  C   UNL A   1      44.765  31.035  28.261  1.00  0.00     0.049 A 
ATOM     48  H   UNL A   1      44.582  29.008  27.816  1.00  0.00     0.167 HD
ATOM     49  C   UNL A   1      44.036  24.713  27.019  1.00  0.00     0.037 A 
ATOM     50  C   UNL A   1      46.058  31.365  28.073  1.00  0.00     0.037 A 
ATOM     51  C   UNL A   1      45.416  24.989  26.720  1.00  0.00     0.049 A 
ATOM     52  C   UNL A   1      47.020  30.303  27.613  1.00  0.00     0.074 A 
ATOM     53  C   UNL A   1      46.382  24.126  26.237  1.00  0.00     0.029 A 
ATOM     54  N   UNL A   1      46.027  26.226  26.879  1.00  0.00    -0.354 N 
ATOM     55  N   UNL A   1      46.790  29.036  27.359  1.00  0.00    -0.248 NA
ATOM     56  C   UNL A   1      48.414  30.717  27.408  1.00  0.00     0.031 C 
ATOM     57  C   UNL A   1      47.589  24.827  26.151  1.00  0.00     0.029 A 
ATOM     58  C   UNL A   1      47.363  26.144  26.522  1.00  0.00     0.049 A 
ATOM     59  H   UNL A   1      45.578  27.041  27.198  1.00  0.00     0.167 HD
ATOM     60  C   UNL A   1      48.004  28.509  26.929  1.00  0.00     0.074 A 
ATOM     61  C   UNL A   1      48.961  29.597  26.953  1.00  0.00     0.031 C 
ATOM     62  C   UNL A   1      48.299  27.242  26.545  1.00  0.00     0.037 A 
BRANCH  49  63
ATOM     63  C   UNL A   1      43.519  23.309  26.848  1.00  0.00     0.058 A 
ATOM     64  C   UNL A   1      43.293  22.465  27.948  1.00  0.00     0.135 A 
ATOM     65  C   UNL A   1      43.246  22.797  25.569  1.00  0.00     0.135 A 
ATOM     66  F   UNL A   1      43.552  22.894  29.194  1.00  0.00    -0.206 F 
ATOM     67  C   UNL A   1      42.860  21.153  27.785  1.00  0.00     0.059 A 
ATOM     68  C   UNL A   1      42.777  21.499  25.385  1.00  0.00     0.059 A 
ATOM     69  F   UNL A   1      43.440  23.557  24.480  1.00  0.00    -0.206 F 
ATOM     70  C   UNL A   1      42.608  20.678  26.498  1.00  0.00     0.060 A 
BRANCH  70  71
ATOM     71  S   UNL A   1      42.063  18.968  26.303  1.00  0.00     0.124 S 
ATOM     72  O   UNL A   1      40.697  19.152  25.820  1.00  0.00    -0.237 OA
ATOM     73  O   UNL A   1      43.015  18.447  25.325  1.00  0.00    -0.237 OA
ATOM     74  O   UNL A   1      42.184  18.416  27.647  1.00  0.00    -0.744 OA
ENDBRANCH  70  71
ENDBRANCH  49  63
BRANCH  50  75
ATOM     75  C   UNL A   1      46.503  32.769  28.280  1.00  0.00     0.058 A 
ATOM     76  C   UNL A   1      46.417  33.709  27.241  1.00  0.00     0.135 A 
ATOM     77  C   UNL A   1      46.993  33.208  29.519  1.00  0.00     0.135 A 
ATOM     78  F   UNL A   1      45.959  33.337  26.037  1.00  0.00    -0.206 F 
ATOM     79  C   UNL A   1      46.816  35.030  27.418  1.00  0.00     0.059 A 
ATOM     80  C   UNL A   1      47.373  34.531  29.728  1.00  0.00     0.059 A 
ATOM     81  F   UNL A   1      47.079  32.354  30.551  1.00  0.00    -0.206 F 
ATOM     82  C   UNL A   1      47.287  35.433  28.668  1.00  0.00     0.060 A 
BRANCH  82  83
ATOM     83  S   UNL A   1      47.751  37.163  28.899  1.00  0.00     0.124 S 
ATOM     84  O   UNL A   1      47.589  37.695  27.551  1.00  0.00    -0.237 OA
ATOM     85  O   UNL A   1      46.773  37.612  29.886  1.00  0.00    -0.237 OA
ATOM     86  O   UNL A   1      49.126  37.081  29.384  1.00  0.00    -0.744 OA
ENDBRANCH  82  83
ENDBRANCH  50  75
BRANCH  62  87
ATOM     87  C   UNL A   1      49.701  26.970  26.073  1.00  0.00     0.058 A 
ATOM     88  C   UNL A   1      50.693  26.478  26.935  1.00  0.00     0.135 A 
ATOM     89  C   UNL A   1      50.039  27.153  24.721  1.00  0.00     0.135 A 
ATOM     90  F   UNL A   1      50.426  26.291  28.238  1.00  0.00    -0.206 F 
ATOM     91  C   UNL A   1      51.979  26.203  26.480  1.00  0.00     0.059 A 
ATOM     92  C   UNL A   1      51.308  26.853  24.238  1.00  0.00     0.059 A 
ATOM     93  F   UNL A   1      49.124  27.609  23.851  1.00  0.00    -0.206 F 
ATOM     94  C   UNL A   1      52.275  26.390  25.128  1.00  0.00     0.060 A 
BRANCH  94  95
ATOM     95  S   UNL A   1      53.937  25.994  24.545  1.00  0.00     0.124 S 
ATOM     96  O   UNL A   1      54.757  26.861  25.384  1.00  0.00    -0.237 OA
ATOM     97  O   UNL A   1      54.034  24.565  24.827  1.00  0.00    -0.237 OA
ATOM     98  O   UNL A   1      53.895  26.347  23.129  1.00  0.00    -0.744 OA
ENDBRANCH  94  95
ENDBRANCH  62  87
ENDBRANCH  36  37
ENDBRANCH  28  31
ENDBRANCH  26  27
ENDBRANCH  25  26
ENDBRANCH   1  25
TORSDOF 17
ENDMDL
