MODEL 1
REMARK VINA RESULT:     -11.0      0.000      0.000
REMARK SMILES C[C@@H](Sc1ccccc1[N+](=O)[O-])[C@@H](C)C(=O)NCCCNC(=O)c1ccc(-c2c3nc(c(-c4c(F)cc(S(=O)(=O)[O-])cc4F)c4ccc([nH]4)c(-c4c(F)cc(S(=O)(=O)[O-])cc4F)c4nc(c(-c5c(F)cc(S(=O)(=O)[O-])cc5F)c5ccc2[nH]5)C=C4)C=C3)cc1
REMARK SMILES IDX 18 1 17 2 15 3 16 4 13 6 14 7 2 8 1 9 3 10 4 11 5 12 9 13
REMARK SMILES IDX 6 14 8 15 7 16 10 17 11 18 12 19 19 20 20 21 21 22 22 23
REMARK SMILES IDX 23 25 24 26 25 27 89 28 26 29 88 30 27 31 28 32 29 33 82 34
REMARK SMILES IDX 30 35 87 36 81 37 83 38 31 39 86 40 80 41 79 42 32 44 66 45
REMARK SMILES IDX 45 46 65 47 46 48 49 49 64 50 84 51 47 52 48 53 63 55 85 56
REMARK SMILES IDX 50 57 33 58 34 59 43 60 35 61 36 62 42 63 44 64 37 65 38 66
REMARK SMILES IDX 39 67 40 68 41 69 67 70 68 71 77 72 69 73 70 74 76 75 78 76
REMARK SMILES IDX 71 77 72 78 73 79 74 80 75 81 51 82 52 83 61 84 53 85 54 86
REMARK SMILES IDX 60 87 62 88 55 89 56 90 57 91 58 92 59 93
REMARK H PARENT 17 5 21 24 83 43 49 54
REMARK Flexibility Score: inf
ROOT
ATOM      1  C   UNL A   1      34.801  31.147  27.538  1.00  0.00     0.117 C 
ENDROOT
BRANCH   1   2
ATOM      2  N   UNL A   1      33.898  30.061  27.866  1.00  0.00    -0.356 N 
ATOM      3  C   UNL A   1      32.815  29.555  27.222  1.00  0.00     0.223 C 
ATOM      4  O   UNL A   1      32.268  28.573  27.734  1.00  0.00    -0.275 OA
ATOM      5  H   UNL A   1      34.110  29.604  28.712  1.00  0.00     0.163 HD
BRANCH   3   6
ATOM      6  C   UNL A   1      32.311  30.110  25.890  1.00  0.00     0.088 C 
ATOM      7  C   UNL A   1      31.338  31.265  26.159  1.00  0.00     0.019 C 
BRANCH   6   8
ATOM      8  C   UNL A   1      31.818  29.031  24.891  1.00  0.00     0.061 C 
ATOM      9  C   UNL A   1      30.638  29.530  24.052  1.00  0.00     0.020 C 
BRANCH   8  10
ATOM     10  S   UNL A   1      33.238  28.562  23.786  1.00  0.00    -0.115 SA
BRANCH  10  11
ATOM     11  C   UNL A   1      33.490  26.826  24.150  1.00  0.00     0.085 A 
ATOM     12  C   UNL A   1      34.029  26.482  25.400  1.00  0.00     0.022 A 
ATOM     13  C   UNL A   1      33.307  25.789  23.217  1.00  0.00     0.282 A 
ATOM     14  C   UNL A   1      34.370  25.159  25.706  1.00  0.00     0.002 A 
ATOM     15  C   UNL A   1      33.656  24.459  23.516  1.00  0.00     0.087 A 
ATOM     16  C   UNL A   1      34.190  24.150  24.764  1.00  0.00     0.007 A 
BRANCH  13  17
ATOM     17  N   UNL A   1      32.731  26.034  21.901  1.00  0.00     0.063 N 
ATOM     18  O   UNL A   1      33.517  26.291  20.978  1.00  0.00    -0.258 OA
ATOM     19  O   UNL A   1      31.507  25.889  21.766  1.00  0.00    -0.258 OA
ENDBRANCH  13  17
ENDBRANCH  10  11
ENDBRANCH   8  10
ENDBRANCH   6   8
ENDBRANCH   3   6
ENDBRANCH   1   2
BRANCH   1  20
ATOM     20  C   UNL A   1      34.770  32.255  28.581  1.00  0.00     0.042 C 
BRANCH  20  21
ATOM     21  C   UNL A   1      36.023  32.340  29.443  1.00  0.00     0.118 C 
BRANCH  21  22
ATOM     22  N   UNL A   1      35.876  31.635  30.708  1.00  0.00    -0.352 N 
ATOM     23  C   UNL A   1      36.665  30.673  31.284  1.00  0.00     0.251 C 
ATOM     24  H   UNL A   1      35.084  31.888  31.234  1.00  0.00     0.163 HD
ATOM     25  O   UNL A   1      36.237  30.049  32.256  1.00  0.00    -0.269 OA
BRANCH  23  26
ATOM     26  C   UNL A   1      38.007  30.366  30.741  1.00  0.00     0.039 A 
ATOM     27  C   UNL A   1      39.052  30.097  31.630  1.00  0.00     0.014 A 
ATOM     28  C   UNL A   1      38.250  30.371  29.366  1.00  0.00     0.014 A 
ATOM     29  C   UNL A   1      40.317  29.772  31.137  1.00  0.00     0.010 A 
ATOM     30  C   UNL A   1      39.484  29.955  28.874  1.00  0.00     0.010 A 
ATOM     31  C   UNL A   1      40.535  29.660  29.754  1.00  0.00    -0.014 A 
BRANCH  31  32
ATOM     32  C   UNL A   1      41.854  29.245  29.210  1.00  0.00     0.031 A 
ATOM     33  C   UNL A   1      42.966  30.248  29.065  1.00  0.00     0.074 A 
ATOM     34  C   UNL A   1      42.027  27.978  28.782  1.00  0.00     0.049 A 
ATOM     35  N   UNL A   1      44.159  30.091  28.551  1.00  0.00    -0.248 NA
ATOM     36  C   UNL A   1      42.691  31.617  29.531  1.00  0.00     0.031 C 
ATOM     37  C   UNL A   1      41.007  26.926  28.821  1.00  0.00     0.029 A 
ATOM     38  N   UNL A   1      43.116  27.360  28.221  1.00  0.00    -0.354 N 
ATOM     39  C   UNL A   1      44.768  31.339  28.616  1.00  0.00     0.074 A 
ATOM     40  C   UNL A   1      43.793  32.255  29.164  1.00  0.00     0.031 C 
ATOM     41  C   UNL A   1      41.528  25.791  28.329  1.00  0.00     0.029 A 
ATOM     42  C   UNL A   1      42.901  26.041  27.901  1.00  0.00     0.049 A 
ATOM     43  H   UNL A   1      43.973  27.820  28.062  1.00  0.00     0.167 HD
ATOM     44  C   UNL A   1      46.031  31.685  28.271  1.00  0.00     0.037 A 
ATOM     45  C   UNL A   1      43.711  25.136  27.319  1.00  0.00     0.037 A 
ATOM     46  C   UNL A   1      47.003  30.761  27.745  1.00  0.00     0.049 A 
ATOM     47  C   UNL A   1      45.112  25.541  26.946  1.00  0.00     0.074 A 
ATOM     48  C   UNL A   1      48.329  30.995  27.426  1.00  0.00     0.029 A 
ATOM     49  N   UNL A   1      46.753  29.427  27.454  1.00  0.00    -0.354 N 
ATOM     50  N   UNL A   1      45.694  26.709  27.081  1.00  0.00    -0.248 NA
ATOM     51  C   UNL A   1      45.966  24.506  26.350  1.00  0.00     0.031 C 
ATOM     52  C   UNL A   1      48.865  29.818  26.893  1.00  0.00     0.029 A 
ATOM     53  C   UNL A   1      47.892  28.833  26.934  1.00  0.00     0.049 A 
ATOM     54  H   UNL A   1      45.892  28.970  27.596  1.00  0.00     0.167 HD
ATOM     55  C   UNL A   1      46.992  26.542  26.610  1.00  0.00     0.074 A 
ATOM     56  C   UNL A   1      47.111  25.158  26.200  1.00  0.00     0.031 C 
ATOM     57  C   UNL A   1      47.995  27.452  26.529  1.00  0.00     0.037 A 
BRANCH  44  58
ATOM     58  C   UNL A   1      46.433  33.126  28.449  1.00  0.00     0.058 A 
ATOM     59  C   UNL A   1      47.027  33.588  29.635  1.00  0.00     0.135 A 
ATOM     60  C   UNL A   1      46.237  34.055  27.413  1.00  0.00     0.135 A 
ATOM     61  F   UNL A   1      47.227  32.749  30.664  1.00  0.00    -0.206 F 
ATOM     62  C   UNL A   1      47.375  34.924  29.803  1.00  0.00     0.059 A 
ATOM     63  C   UNL A   1      46.609  35.390  27.547  1.00  0.00     0.059 A 
ATOM     64  F   UNL A   1      45.676  33.669  26.257  1.00  0.00    -0.206 F 
ATOM     65  C   UNL A   1      47.160  35.819  28.754  1.00  0.00     0.060 A 
BRANCH  65  66
ATOM     66  S   UNL A   1      47.607  37.551  28.992  1.00  0.00     0.124 S 
ATOM     67  O   UNL A   1      49.046  37.450  29.219  1.00  0.00    -0.237 OA
ATOM     68  O   UNL A   1      47.208  38.153  27.724  1.00  0.00    -0.237 OA
ATOM     69  O   UNL A   1      46.816  37.952  30.150  1.00  0.00    -0.744 OA
ENDBRANCH  65  66
ENDBRANCH  44  58
BRANCH  45  70
ATOM     70  C   UNL A   1      43.220  23.753  27.078  1.00  0.00     0.058 A 
ATOM     71  C   UNL A   1      42.809  23.345  25.800  1.00  0.00     0.135 A 
ATOM     72  C   UNL A   1      43.187  22.802  28.110  1.00  0.00     0.135 A 
ATOM     73  F   UNL A   1      42.818  24.218  24.783  1.00  0.00    -0.206 F 
ATOM     74  C   UNL A   1      42.377  22.046  25.554  1.00  0.00     0.059 A 
ATOM     75  C   UNL A   1      42.782  21.491  27.883  1.00  0.00     0.059 A 
ATOM     76  F   UNL A   1      43.588  23.137  29.346  1.00  0.00    -0.206 F 
ATOM     77  C   UNL A   1      42.374  21.123  26.602  1.00  0.00     0.060 A 
BRANCH  77  78
ATOM     78  S   UNL A   1      41.879  19.421  26.256  1.00  0.00     0.124 S 
ATOM     79  O   UNL A   1      42.659  19.126  25.060  1.00  0.00    -0.237 OA
ATOM     80  O   UNL A   1      42.290  18.731  27.475  1.00  0.00    -0.237 OA
ATOM     81  O   UNL A   1      40.436  19.526  26.061  1.00  0.00    -0.744 OA
ENDBRANCH  77  78
ENDBRANCH  45  70
BRANCH  57  82
ATOM     82  C   UNL A   1      49.321  26.977  26.002  1.00  0.00     0.058 A 
ATOM     83  C   UNL A   1      49.656  27.073  24.643  1.00  0.00     0.135 A 
ATOM     84  C   UNL A   1      50.292  26.466  26.881  1.00  0.00     0.135 A 
ATOM     85  F   UNL A   1      48.763  27.546  23.758  1.00  0.00    -0.206 F 
ATOM     86  C   UNL A   1      50.896  26.656  24.169  1.00  0.00     0.059 A 
ATOM     87  C   UNL A   1      51.549  26.074  26.434  1.00  0.00     0.059 A 
ATOM     88  F   UNL A   1      50.028  26.363  28.193  1.00  0.00    -0.206 F 
ATOM     89  C   UNL A   1      51.837  26.161  25.073  1.00  0.00     0.060 A 
BRANCH  89  90
ATOM     90  S   UNL A   1      53.454  25.655  24.449  1.00  0.00     0.124 S 
ATOM     91  O   UNL A   1      54.346  26.526  25.206  1.00  0.00    -0.237 OA
ATOM     92  O   UNL A   1      53.497  24.240  24.803  1.00  0.00    -0.237 OA
ATOM     93  O   UNL A   1      53.368  25.935  23.019  1.00  0.00    -0.744 OA
ENDBRANCH  89  90
ENDBRANCH  57  82
ENDBRANCH  31  32
ENDBRANCH  23  26
ENDBRANCH  21  22
ENDBRANCH  20  21
ENDBRANCH   1  20
TORSDOF 17
ENDMDL
MODEL 2
REMARK VINA RESULT:     -10.9      1.477      2.134
REMARK SMILES C[C@@H](Sc1ccccc1[N+](=O)[O-])[C@@H](C)C(=O)NCCCNC(=O)c1ccc(-c2c3nc(c(-c4c(F)cc(S(=O)(=O)[O-])cc4F)c4ccc([nH]4)c(-c4c(F)cc(S(=O)(=O)[O-])cc4F)c4nc(c(-c5c(F)cc(S(=O)(=O)[O-])cc5F)c5ccc2[nH]5)C=C4)C=C3)cc1
REMARK SMILES IDX 18 1 17 2 15 3 16 4 13 6 14 7 2 8 1 9 3 10 4 11 5 12 9 13
REMARK SMILES IDX 6 14 8 15 7 16 10 17 11 18 12 19 19 20 20 21 21 22 22 23
REMARK SMILES IDX 23 25 24 26 25 27 89 28 26 29 88 30 27 31 28 32 29 33 82 34
REMARK SMILES IDX 30 35 87 36 81 37 83 38 31 39 86 40 80 41 79 42 32 44 66 45
REMARK SMILES IDX 45 46 65 47 46 48 49 49 64 50 84 51 47 52 48 53 63 55 85 56
REMARK SMILES IDX 50 57 33 58 34 59 43 60 35 61 36 62 42 63 44 64 37 65 38 66
REMARK SMILES IDX 39 67 40 68 41 69 67 70 68 71 77 72 69 73 70 74 76 75 78 76
REMARK SMILES IDX 71 77 72 78 73 79 74 80 75 81 51 82 52 83 61 84 53 85 54 86
REMARK SMILES IDX 60 87 62 88 55 89 56 90 57 91 58 92 59 93
REMARK H PARENT 17 5 21 24 83 43 49 54
REMARK Flexibility Score: inf
ROOT
ATOM      1  C   UNL A   1      33.591  30.450  26.877  1.00  0.00     0.117 C 
ENDROOT
BRANCH   1   2
ATOM      2  N   UNL A   1      32.672  29.468  27.419  1.00  0.00    -0.356 N 
ATOM      3  C   UNL A   1      31.973  28.461  26.837  1.00  0.00     0.223 C 
ATOM      4  O   UNL A   1      31.298  27.745  27.583  1.00  0.00    -0.275 OA
ATOM      5  H   UNL A   1      32.529  29.546  28.390  1.00  0.00     0.163 HD
BRANCH   3   6
ATOM      6  C   UNL A   1      32.050  28.158  25.341  1.00  0.00     0.088 C 
ATOM      7  C   UNL A   1      30.775  28.667  24.656  1.00  0.00     0.019 C 
BRANCH   6   8
ATOM      8  C   UNL A   1      32.463  26.702  25.001  1.00  0.00     0.061 C 
ATOM      9  C   UNL A   1      33.511  26.167  25.980  1.00  0.00     0.020 C 
BRANCH   8  10
ATOM     10  S   UNL A   1      30.941  25.634  25.043  1.00  0.00    -0.115 SA
BRANCH  10  11
ATOM     11  C   UNL A   1      31.572  24.001  24.664  1.00  0.00     0.085 A 
ATOM     12  C   UNL A   1      32.121  23.781  23.390  1.00  0.00     0.022 A 
ATOM     13  C   UNL A   1      31.433  22.885  25.509  1.00  0.00     0.282 A 
ATOM     14  C   UNL A   1      32.517  22.503  22.979  1.00  0.00     0.002 A 
ATOM     15  C   UNL A   1      31.821  21.596  25.098  1.00  0.00     0.087 A 
ATOM     16  C   UNL A   1      32.362  21.411  23.829  1.00  0.00     0.007 A 
BRANCH  13  17
ATOM     17  N   UNL A   1      30.899  23.008  26.859  1.00  0.00     0.063 N 
ATOM     18  O   UNL A   1      31.665  23.436  27.735  1.00  0.00    -0.258 OA
ATOM     19  O   UNL A   1      29.698  22.759  27.034  1.00  0.00    -0.258 OA
ENDBRANCH  13  17
ENDBRANCH  10  11
ENDBRANCH   8  10
ENDBRANCH   6   8
ENDBRANCH   3   6
ENDBRANCH   1   2
BRANCH   1  20
ATOM     20  C   UNL A   1      34.156  31.366  27.953  1.00  0.00     0.042 C 
BRANCH  20  21
ATOM     21  C   UNL A   1      35.479  30.897  28.545  1.00  0.00     0.118 C 
BRANCH  21  22
ATOM     22  N   UNL A   1      35.465  30.889  30.000  1.00  0.00    -0.352 N 
ATOM     23  C   UNL A   1      36.421  30.481  30.894  1.00  0.00     0.251 C 
ATOM     24  H   UNL A   1      34.637  31.231  30.409  1.00  0.00     0.163 HD
ATOM     25  O   UNL A   1      36.117  30.353  32.082  1.00  0.00    -0.269 OA
BRANCH  23  26
ATOM     26  C   UNL A   1      37.799  30.177  30.448  1.00  0.00     0.039 A 
ATOM     27  C   UNL A   1      38.751  29.799  31.399  1.00  0.00     0.014 A 
ATOM     28  C   UNL A   1      38.166  30.293  29.105  1.00  0.00     0.014 A 
ATOM     29  C   UNL A   1      40.048  29.475  30.994  1.00  0.00     0.010 A 
ATOM     30  C   UNL A   1      39.429  29.880  28.691  1.00  0.00     0.010 A 
ATOM     31  C   UNL A   1      40.388  29.475  29.631  1.00  0.00    -0.014 A 
BRANCH  31  32
ATOM     32  C   UNL A   1      41.739  29.065  29.171  1.00  0.00     0.031 A 
ATOM     33  C   UNL A   1      42.858  30.069  29.108  1.00  0.00     0.074 A 
ATOM     34  C   UNL A   1      41.941  27.802  28.744  1.00  0.00     0.049 A 
ATOM     35  N   UNL A   1      44.083  29.917  28.672  1.00  0.00    -0.248 NA
ATOM     36  C   UNL A   1      42.553  31.434  29.567  1.00  0.00     0.031 C 
ATOM     37  C   UNL A   1      40.922  26.749  28.706  1.00  0.00     0.029 A 
ATOM     38  N   UNL A   1      43.065  27.189  28.250  1.00  0.00    -0.354 N 
ATOM     39  C   UNL A   1      44.685  31.164  28.789  1.00  0.00     0.074 A 
ATOM     40  C   UNL A   1      43.675  32.076  29.280  1.00  0.00     0.031 C 
ATOM     41  C   UNL A   1      41.474  25.619  28.240  1.00  0.00     0.029 A 
ATOM     42  C   UNL A   1      42.872  25.872  27.905  1.00  0.00     0.049 A 
ATOM     43  H   UNL A   1      43.930  27.651  28.153  1.00  0.00     0.167 HD
ATOM     44  C   UNL A   1      45.969  31.513  28.531  1.00  0.00     0.037 A 
ATOM     45  C   UNL A   1      43.720  24.973  27.370  1.00  0.00     0.037 A 
ATOM     46  C   UNL A   1      46.973  30.594  28.062  1.00  0.00     0.049 A 
ATOM     47  C   UNL A   1      45.142  25.381  27.094  1.00  0.00     0.074 A 
ATOM     48  C   UNL A   1      48.317  30.831  27.834  1.00  0.00     0.029 A 
ATOM     49  N   UNL A   1      46.744  29.263  27.743  1.00  0.00    -0.354 N 
ATOM     50  N   UNL A   1      45.714  26.548  27.277  1.00  0.00    -0.248 NA
ATOM     51  C   UNL A   1      46.034  24.351  26.546  1.00  0.00     0.031 C 
ATOM     52  C   UNL A   1      48.888  29.659  27.326  1.00  0.00     0.029 A 
ATOM     53  C   UNL A   1      47.914  28.673  27.294  1.00  0.00     0.049 A 
ATOM     54  H   UNL A   1      45.876  28.805  27.824  1.00  0.00     0.167 HD
ATOM     55  C   UNL A   1      47.040  26.385  26.891  1.00  0.00     0.074 A 
ATOM     56  C   UNL A   1      47.186  25.005  26.478  1.00  0.00     0.031 C 
ATOM     57  C   UNL A   1      48.045  27.296  26.885  1.00  0.00     0.037 A 
BRANCH  44  58
ATOM     58  C   UNL A   1      46.357  32.953  28.748  1.00  0.00     0.058 A 
ATOM     59  C   UNL A   1      46.828  33.413  29.988  1.00  0.00     0.135 A 
ATOM     60  C   UNL A   1      46.273  33.881  27.697  1.00  0.00     0.135 A 
ATOM     61  F   UNL A   1      46.918  32.575  31.033  1.00  0.00    -0.206 F 
ATOM     62  C   UNL A   1      47.164  34.748  30.190  1.00  0.00     0.059 A 
ATOM     63  C   UNL A   1      46.635  35.214  27.867  1.00  0.00     0.059 A 
ATOM     64  F   UNL A   1      45.831  33.496  26.489  1.00  0.00    -0.206 F 
ATOM     65  C   UNL A   1      47.061  35.643  29.123  1.00  0.00     0.060 A 
BRANCH  65  66
ATOM     66  S   UNL A   1      47.490  37.373  29.404  1.00  0.00     0.124 S 
ATOM     67  O   UNL A   1      47.211  37.512  30.832  1.00  0.00    -0.237 OA
ATOM     68  O   UNL A   1      48.900  37.409  29.029  1.00  0.00    -0.237 OA
ATOM     69  O   UNL A   1      46.588  38.097  28.515  1.00  0.00    -0.744 OA
ENDBRANCH  65  66
ENDBRANCH  44  58
BRANCH  45  70
ATOM     70  C   UNL A   1      43.246  23.592  27.084  1.00  0.00     0.058 A 
ATOM     71  C   UNL A   1      42.953  23.186  25.775  1.00  0.00     0.135 A 
ATOM     72  C   UNL A   1      43.114  22.642  28.109  1.00  0.00     0.135 A 
ATOM     73  F   UNL A   1      43.058  24.059  24.762  1.00  0.00    -0.206 F 
ATOM     74  C   UNL A   1      42.538  21.888  25.489  1.00  0.00     0.059 A 
ATOM     75  C   UNL A   1      42.726  21.332  27.846  1.00  0.00     0.059 A 
ATOM     76  F   UNL A   1      43.402  22.975  29.377  1.00  0.00    -0.206 F 
ATOM     77  C   UNL A   1      42.435  20.966  26.533  1.00  0.00     0.060 A 
BRANCH  77  78
ATOM     78  S   UNL A   1      41.967  19.266  26.143  1.00  0.00     0.124 S 
ATOM     79  O   UNL A   1      40.532  19.399  25.922  1.00  0.00    -0.237 OA
ATOM     80  O   UNL A   1      42.774  18.992  24.959  1.00  0.00    -0.237 OA
ATOM     81  O   UNL A   1      42.357  18.529  27.342  1.00  0.00    -0.744 OA
ENDBRANCH  77  78
ENDBRANCH  45  70
BRANCH  57  82
ATOM     82  C   UNL A   1      49.403  26.825  26.443  1.00  0.00     0.058 A 
ATOM     83  C   UNL A   1      50.287  26.182  27.323  1.00  0.00     0.135 A 
ATOM     84  C   UNL A   1      49.805  26.973  25.104  1.00  0.00     0.135 A 
ATOM     85  F   UNL A   1      49.957  26.020  28.615  1.00  0.00    -0.206 F 
ATOM     86  C   UNL A   1      51.530  25.724  26.898  1.00  0.00     0.059 A 
ATOM     87  C   UNL A   1      51.030  26.495  24.652  1.00  0.00     0.059 A 
ATOM     88  F   UNL A   1      48.994  27.572  24.218  1.00  0.00    -0.206 F 
ATOM     89  C   UNL A   1      51.891  25.883  25.559  1.00  0.00     0.060 A 
BRANCH  89  90
ATOM     90  S   UNL A   1      53.494  25.254  25.016  1.00  0.00     0.124 S 
ATOM     91  O   UNL A   1      54.406  25.970  25.902  1.00  0.00    -0.237 OA
ATOM     92  O   UNL A   1      53.367  23.821  25.260  1.00  0.00    -0.237 OA
ATOM     93  O   UNL A   1      53.552  25.643  23.610  1.00  0.00    -0.744 OA
ENDBRANCH  89  90
ENDBRANCH  57  82
ENDBRANCH  31  32
ENDBRANCH  23  26
ENDBRANCH  21  22
ENDBRANCH  20  21
ENDBRANCH   1  20
TORSDOF 17
ENDMDL
MODEL 3
REMARK VINA RESULT:     -10.8      3.069      4.273
REMARK SMILES C[C@@H](Sc1ccccc1[N+](=O)[O-])[C@@H](C)C(=O)NCCCNC(=O)c1ccc(-c2c3nc(c(-c4c(F)cc(S(=O)(=O)[O-])cc4F)c4ccc([nH]4)c(-c4c(F)cc(S(=O)(=O)[O-])cc4F)c4nc(c(-c5c(F)cc(S(=O)(=O)[O-])cc5F)c5ccc2[nH]5)C=C4)C=C3)cc1
REMARK SMILES IDX 18 1 17 2 15 3 16 4 13 6 14 7 2 8 1 9 3 10 4 11 5 12 9 13
REMARK SMILES IDX 6 14 8 15 7 16 10 17 11 18 12 19 19 20 20 21 21 22 22 23
REMARK SMILES IDX 23 25 24 26 25 27 89 28 26 29 88 30 27 31 28 32 29 33 82 34
REMARK SMILES IDX 30 35 87 36 81 37 83 38 31 39 86 40 80 41 79 42 32 44 66 45
REMARK SMILES IDX 45 46 65 47 46 48 49 49 64 50 84 51 47 52 48 53 63 55 85 56
REMARK SMILES IDX 50 57 33 58 34 59 43 60 35 61 36 62 42 63 44 64 37 65 38 66
REMARK SMILES IDX 39 67 40 68 41 69 67 70 68 71 77 72 69 73 70 74 76 75 78 76
REMARK SMILES IDX 71 77 72 78 73 79 74 80 75 81 51 82 52 83 61 84 53 85 54 86
REMARK SMILES IDX 60 87 62 88 55 89 56 90 57 91 58 92 59 93
REMARK H PARENT 17 5 21 24 83 43 49 54
REMARK Flexibility Score: inf
ROOT
ATOM      1  C   UNL A   1      32.421  27.895  24.892  1.00  0.00     0.117 C 
ENDROOT
BRANCH   1   2
ATOM      2  N   UNL A   1      31.358  27.272  25.656  1.00  0.00    -0.356 N 
ATOM      3  C   UNL A   1      30.895  25.996  25.695  1.00  0.00     0.223 C 
ATOM      4  O   UNL A   1      29.992  25.754  26.500  1.00  0.00    -0.275 OA
ATOM      5  H   UNL A   1      30.883  27.889  26.260  1.00  0.00     0.163 HD
BRANCH   3   6
ATOM      6  C   UNL A   1      31.489  24.875  24.842  1.00  0.00     0.088 C 
ATOM      7  C   UNL A   1      30.526  24.550  23.693  1.00  0.00     0.019 C 
BRANCH   6   8
ATOM      8  C   UNL A   1      32.008  23.659  25.652  1.00  0.00     0.061 C 
ATOM      9  C   UNL A   1      31.040  23.269  26.773  1.00  0.00     0.020 C 
BRANCH   8  10
ATOM     10  S   UNL A   1      32.245  22.232  24.483  1.00  0.00    -0.115 SA
BRANCH  10  11
ATOM     11  C   UNL A   1      34.022  22.168  24.263  1.00  0.00     0.085 A 
ATOM     12  C   UNL A   1      34.766  21.341  25.119  1.00  0.00     0.022 A 
ATOM     13  C   UNL A   1      34.738  22.992  23.377  1.00  0.00     0.282 A 
ATOM     14  C   UNL A   1      36.166  21.335  25.091  1.00  0.00     0.002 A 
ATOM     15  C   UNL A   1      36.145  22.998  23.350  1.00  0.00     0.087 A 
ATOM     16  C   UNL A   1      36.855  22.167  24.212  1.00  0.00     0.007 A 
BRANCH  13  17
ATOM     17  N   UNL A   1      34.062  23.869  22.429  1.00  0.00     0.063 N 
ATOM     18  O   UNL A   1      33.475  23.330  21.479  1.00  0.00    -0.258 OA
ATOM     19  O   UNL A   1      34.043  25.084  22.673  1.00  0.00    -0.258 OA
ENDBRANCH  13  17
ENDBRANCH  10  11
ENDBRANCH   8  10
ENDBRANCH   6   8
ENDBRANCH   3   6
ENDBRANCH   1   2
BRANCH   1  20
ATOM     20  C   UNL A   1      33.739  27.916  25.652  1.00  0.00     0.042 C 
BRANCH  20  21
ATOM     21  C   UNL A   1      33.600  28.194  27.143  1.00  0.00     0.118 C 
BRANCH  21  22
ATOM     22  N   UNL A   1      33.505  29.617  27.437  1.00  0.00    -0.352 N 
ATOM     23  C   UNL A   1      34.403  30.459  28.040  1.00  0.00     0.251 C 
ATOM     24  H   UNL A   1      32.663  30.042  27.158  1.00  0.00     0.163 HD
ATOM     25  O   UNL A   1      34.031  31.581  28.391  1.00  0.00    -0.269 OA
BRANCH  23  26
ATOM     26  C   UNL A   1      35.797  30.032  28.290  1.00  0.00     0.039 A 
ATOM     27  C   UNL A   1      36.722  30.089  27.243  1.00  0.00     0.014 A 
ATOM     28  C   UNL A   1      36.193  29.546  29.538  1.00  0.00     0.014 A 
ATOM     29  C   UNL A   1      38.050  29.722  27.467  1.00  0.00     0.010 A 
ATOM     30  C   UNL A   1      37.535  29.271  29.786  1.00  0.00     0.010 A 
ATOM     31  C   UNL A   1      38.477  29.347  28.751  1.00  0.00    -0.014 A 
BRANCH  31  32
ATOM     32  C   UNL A   1      39.900  29.023  29.029  1.00  0.00     0.031 A 
ATOM     33  C   UNL A   1      40.823  30.072  29.589  1.00  0.00     0.074 A 
ATOM     34  C   UNL A   1      40.379  27.803  28.710  1.00  0.00     0.049 A 
ATOM     35  N   UNL A   1      42.106  29.999  29.834  1.00  0.00    -0.248 NA
ATOM     36  C   UNL A   1      40.232  31.387  29.886  1.00  0.00     0.031 C 
ATOM     37  C   UNL A   1      39.597  26.718  28.112  1.00  0.00     0.029 A 
ATOM     38  N   UNL A   1      41.638  27.272  28.834  1.00  0.00    -0.354 N 
ATOM     39  C   UNL A   1      42.477  31.256  30.295  1.00  0.00     0.074 A 
ATOM     40  C   UNL A   1      41.297  32.090  30.240  1.00  0.00     0.031 C 
ATOM     41  C   UNL A   1      40.387  25.646  27.946  1.00  0.00     0.029 A 
ATOM     42  C   UNL A   1      41.740  25.977  28.383  1.00  0.00     0.049 A 
ATOM     43  H   UNL A   1      42.398  27.772  29.213  1.00  0.00     0.167 HD
ATOM     44  C   UNL A   1      43.686  31.672  30.744  1.00  0.00     0.037 A 
ATOM     45  C   UNL A   1      42.802  25.152  28.318  1.00  0.00     0.037 A 
ATOM     46  C   UNL A   1      44.851  30.829  30.815  1.00  0.00     0.049 A 
ATOM     47  C   UNL A   1      44.135  25.634  28.824  1.00  0.00     0.074 A 
ATOM     48  C   UNL A   1      46.105  31.133  31.316  1.00  0.00     0.029 A 
ATOM     49  N   UNL A   1      44.909  29.516  30.367  1.00  0.00    -0.354 N 
ATOM     50  N   UNL A   1      44.451  26.805  29.324  1.00  0.00    -0.248 NA
ATOM     51  C   UNL A   1      45.251  24.682  28.766  1.00  0.00     0.031 C 
ATOM     52  C   UNL A   1      46.934  30.024  31.121  1.00  0.00     0.029 A 
ATOM     53  C   UNL A   1      46.184  29.007  30.554  1.00  0.00     0.049 A 
ATOM     54  H   UNL A   1      44.155  29.021  29.974  1.00  0.00     0.167 HD
ATOM     55  C   UNL A   1      45.797  26.722  29.663  1.00  0.00     0.074 A 
ATOM     56  C   UNL A   1      46.230  25.382  29.323  1.00  0.00     0.031 C 
ATOM     57  C   UNL A   1      46.600  27.669  30.210  1.00  0.00     0.037 A 
BRANCH  44  58
ATOM     58  C   UNL A   1      43.808  33.106  31.191  1.00  0.00     0.058 A 
ATOM     59  C   UNL A   1      44.099  34.141  30.288  1.00  0.00     0.135 A 
ATOM     60  C   UNL A   1      43.615  33.452  32.539  1.00  0.00     0.135 A 
ATOM     61  F   UNL A   1      44.306  33.868  28.990  1.00  0.00    -0.206 F 
ATOM     62  C   UNL A   1      44.233  35.459  30.709  1.00  0.00     0.059 A 
ATOM     63  C   UNL A   1      43.712  34.770  32.977  1.00  0.00     0.059 A 
ATOM     64  F   UNL A   1      43.333  32.504  33.447  1.00  0.00    -0.206 F 
ATOM     65  C   UNL A   1      44.041  35.764  32.058  1.00  0.00     0.060 A 
BRANCH  65  66
ATOM     66  S   UNL A   1      44.230  37.478  32.590  1.00  0.00     0.124 S 
ATOM     67  O   UNL A   1      45.566  37.453  33.179  1.00  0.00    -0.237 OA
ATOM     68  O   UNL A   1      44.107  38.210  31.333  1.00  0.00    -0.237 OA
ATOM     69  O   UNL A   1      43.132  37.666  33.532  1.00  0.00    -0.744 OA
ENDBRANCH  65  66
ENDBRANCH  44  58
BRANCH  45  70
ATOM     70  C   UNL A   1      42.637  23.778  27.771  1.00  0.00     0.058 A 
ATOM     71  C   UNL A   1      42.371  22.692  28.617  1.00  0.00     0.135 A 
ATOM     72  C   UNL A   1      42.704  23.532  26.391  1.00  0.00     0.135 A 
ATOM     73  F   UNL A   1      42.302  22.876  29.944  1.00  0.00    -0.206 F 
ATOM     74  C   UNL A   1      42.183  21.407  28.117  1.00  0.00     0.059 A 
ATOM     75  C   UNL A   1      42.496  22.261  25.865  1.00  0.00     0.059 A 
ATOM     76  F   UNL A   1      42.938  24.541  25.538  1.00  0.00    -0.206 F 
ATOM     77  C   UNL A   1      42.241  21.204  26.737  1.00  0.00     0.060 A 
BRANCH  77  78
ATOM     78  S   UNL A   1      41.924  19.547  26.092  1.00  0.00     0.124 S 
ATOM     79  O   UNL A   1      42.273  18.714  27.236  1.00  0.00    -0.237 OA
ATOM     80  O   UNL A   1      40.505  19.615  25.758  1.00  0.00    -0.237 OA
ATOM     81  O   UNL A   1      42.825  19.457  24.945  1.00  0.00    -0.744 OA
ENDBRANCH  77  78
ENDBRANCH  45  70
BRANCH  57  82
ATOM     82  C   UNL A   1      48.024  27.284  30.504  1.00  0.00     0.058 A 
ATOM     83  C   UNL A   1      49.048  27.455  29.559  1.00  0.00     0.135 A 
ATOM     84  C   UNL A   1      48.378  26.786  31.770  1.00  0.00     0.135 A 
ATOM     85  F   UNL A   1      48.764  27.921  28.332  1.00  0.00    -0.206 F 
ATOM     86  C   UNL A   1      50.367  27.122  29.849  1.00  0.00     0.059 A 
ATOM     87  C   UNL A   1      49.695  26.477  32.091  1.00  0.00     0.059 A 
ATOM     88  F   UNL A   1      47.440  26.613  32.714  1.00  0.00    -0.206 F 
ATOM     89  C   UNL A   1      50.681  26.636  31.120  1.00  0.00     0.060 A 
BRANCH  89  90
ATOM     90  S   UNL A   1      52.403  26.240  31.493  1.00  0.00     0.124 S 
ATOM     91  O   UNL A   1      53.021  26.349  30.176  1.00  0.00    -0.237 OA
ATOM     92  O   UNL A   1      52.762  27.281  32.451  1.00  0.00    -0.237 OA
ATOM     93  O   UNL A   1      52.329  24.890  32.042  1.00  0.00    -0.744 OA
ENDBRANCH  89  90
ENDBRANCH  57  82
ENDBRANCH  31  32
ENDBRANCH  23  26
ENDBRANCH  21  22
ENDBRANCH  20  21
ENDBRANCH   1  20
TORSDOF 17
ENDMDL
