MODEL 1
REMARK VINA RESULT:     -11.3      0.000      0.000
REMARK SMILES CCCCCCNC(=O)Oc1cccc(-c2ccc([C@H](C)C(=O)NCCCNC(=O)c3ccc(-c4c5nc(c(-c6c(F)cc(S(=O)(=O)[O-])cc6F)c6ccc([nH]6)c(-c6c(F)cc(S(=O)(=O)[O-])cc6F)c6nc(c(-c7c(F)cc(S(=O)(=O)[O-])cc7F)c7ccc4[nH]7)C=C6)C=C5)cc3)cc2F)c1
REMARK SMILES IDX 20 1 21 2 19 3 16 4 17 5 98 6 18 7 97 8 99 9 15 10 11 11
REMARK SMILES IDX 12 12 100 13 13 14 14 15 10 16 8 17 7 18 9 20 6 21 5 22 4 23
REMARK SMILES IDX 3 24 2 25 1 26 22 27 23 28 24 29 25 31 26 32 27 33 28 34
REMARK SMILES IDX 29 35 30 37 31 38 32 39 96 40 33 41 95 42 34 43 35 44 36 45
REMARK SMILES IDX 89 46 37 47 94 48 88 49 90 50 38 51 93 52 87 53 86 54 39 56
REMARK SMILES IDX 73 57 52 58 72 59 53 60 56 61 71 62 91 63 54 64 55 65 70 67
REMARK SMILES IDX 92 68 57 69 40 70 41 71 50 72 42 73 43 74 49 75 51 76 44 77
REMARK SMILES IDX 45 78 46 79 47 80 48 81 74 82 75 83 84 84 76 85 77 86 83 87
REMARK SMILES IDX 85 88 78 89 79 90 80 91 81 92 82 93 58 94 59 95 68 96 60 97
REMARK SMILES IDX 61 98 67 99 69 100 62 101 63 102 64 103 65 104 66 105
REMARK H PARENT 7 19 24 30 28 36 90 55 56 66
REMARK Flexibility Score: inf
ROOT
ATOM      1  C   UNL A   1      41.447  20.986  27.177  1.00  0.00     0.105 C 
ATOM      2  C   UNL A   1      42.221  21.822  28.197  1.00  0.00     0.023 C 
ENDROOT
BRANCH   1   3
ATOM      3  C   UNL A   1      40.172  21.637  26.649  1.00  0.00    -0.033 A 
ATOM      4  C   UNL A   1      37.787  22.907  25.715  1.00  0.00     0.018 A 
ATOM      5  C   UNL A   1      38.078  21.583  25.394  1.00  0.00     0.012 A 
ATOM      6  C   UNL A   1      38.729  23.600  26.483  1.00  0.00     0.131 A 
ATOM      7  C   UNL A   1      39.244  20.974  25.846  1.00  0.00     0.005 A 
ATOM      8  C   UNL A   1      39.898  22.982  26.946  1.00  0.00     0.044 A 
ATOM      9  F   UNL A   1      38.527  24.888  26.801  1.00  0.00    -0.206 F 
BRANCH   4  10
ATOM     10  C   UNL A   1      36.550  23.493  25.194  1.00  0.00    -0.012 A 
ATOM     11  C   UNL A   1      34.821  23.602  23.514  1.00  0.00     0.133 A 
ATOM     12  C   UNL A   1      34.037  24.424  24.320  1.00  0.00     0.047 A 
ATOM     13  C   UNL A   1      36.075  23.153  23.926  1.00  0.00     0.056 A 
ATOM     14  C   UNL A   1      34.508  24.789  25.575  1.00  0.00     0.004 A 
ATOM     15  C   UNL A   1      35.754  24.329  26.005  1.00  0.00     0.009 A 
BRANCH  11  16
ATOM     16  O   UNL A   1      34.355  23.332  22.225  1.00  0.00    -0.410 OA
BRANCH  16  17
ATOM     17  C   UNL A   1      33.037  23.650  21.942  1.00  0.00     0.412 C 
ATOM     18  N   UNL A   1      32.176  22.641  22.261  1.00  0.00    -0.321 N 
ATOM     19  H   UNL A   1      31.226  22.778  22.043  1.00  0.00     0.167 HD
ATOM     20  O   UNL A   1      32.630  24.702  21.457  1.00  0.00    -0.224 OA
BRANCH  18  21
ATOM     21  C   UNL A   1      32.535  21.388  22.891  1.00  0.00     0.119 C 
BRANCH  21  22
ATOM     22  C   UNL A   1      32.062  21.327  24.341  1.00  0.00     0.021 C 
BRANCH  22  23
ATOM     23  C   UNL A   1      32.810  20.311  25.212  1.00  0.00     0.002 C 
BRANCH  23  24
ATOM     24  C   UNL A   1      34.118  19.778  24.616  1.00  0.00    -0.000 C 
BRANCH  24  25
ATOM     25  C   UNL A   1      34.165  18.265  24.389  1.00  0.00    -0.003 C 
ATOM     26  C   UNL A   1      33.078  17.768  23.450  1.00  0.00     0.004 C 
ENDBRANCH  24  25
ENDBRANCH  23  24
ENDBRANCH  22  23
ENDBRANCH  21  22
ENDBRANCH  18  21
ENDBRANCH  16  17
ENDBRANCH  11  16
ENDBRANCH   4  10
ENDBRANCH   1   3
BRANCH   1  27
ATOM     27  C   UNL A   1      42.336  20.320  26.118  1.00  0.00     0.227 C 
ATOM     28  O   UNL A   1      42.275  19.096  25.943  1.00  0.00    -0.274 OA
ATOM     29  N   UNL A   1      43.227  20.995  25.343  1.00  0.00    -0.356 N 
ATOM     30  H   UNL A   1      43.878  20.423  24.875  1.00  0.00     0.163 HD
BRANCH  29  31
ATOM     31  C   UNL A   1      43.383  22.415  25.089  1.00  0.00     0.117 C 
BRANCH  31  32
ATOM     32  C   UNL A   1      44.456  23.084  25.914  1.00  0.00     0.042 C 
BRANCH  32  33
ATOM     33  C   UNL A   1      44.114  24.524  26.251  1.00  0.00     0.118 C 
BRANCH  33  34
ATOM     34  N   UNL A   1      43.002  25.057  25.458  1.00  0.00    -0.352 N 
ATOM     35  C   UNL A   1      41.976  25.903  25.819  1.00  0.00     0.251 C 
ATOM     36  H   UNL A   1      42.986  24.764  24.519  1.00  0.00     0.163 HD
ATOM     37  O   UNL A   1      41.042  26.105  25.051  1.00  0.00    -0.269 OA
BRANCH  35  38
ATOM     38  C   UNL A   1      42.001  26.533  27.153  1.00  0.00     0.039 A 
ATOM     39  C   UNL A   1      42.648  27.757  27.338  1.00  0.00     0.014 A 
ATOM     40  C   UNL A   1      41.307  25.939  28.203  1.00  0.00     0.014 A 
ATOM     41  C   UNL A   1      42.491  28.439  28.548  1.00  0.00     0.010 A 
ATOM     42  C   UNL A   1      41.033  26.679  29.340  1.00  0.00     0.010 A 
ATOM     43  C   UNL A   1      41.629  27.934  29.534  1.00  0.00    -0.014 A 
BRANCH  43  44
ATOM     44  C   UNL A   1      41.339  28.649  30.803  1.00  0.00     0.031 A 
ATOM     45  C   UNL A   1      40.191  29.626  30.837  1.00  0.00     0.074 A 
ATOM     46  C   UNL A   1      42.165  28.532  31.860  1.00  0.00     0.049 A 
ATOM     47  N   UNL A   1      39.906  30.539  31.726  1.00  0.00    -0.248 NA
ATOM     48  C   UNL A   1      39.280  29.612  29.678  1.00  0.00     0.031 C 
ATOM     49  C   UNL A   1      43.338  27.656  31.938  1.00  0.00     0.029 A 
ATOM     50  N   UNL A   1      42.160  29.178  33.072  1.00  0.00    -0.354 N 
ATOM     51  C   UNL A   1      38.819  31.235  31.210  1.00  0.00     0.074 A 
ATOM     52  C   UNL A   1      38.539  30.684  29.904  1.00  0.00     0.031 C 
ATOM     53  C   UNL A   1      43.921  27.803  33.138  1.00  0.00     0.029 A 
ATOM     54  C   UNL A   1      43.201  28.821  33.897  1.00  0.00     0.049 A 
ATOM     55  H   UNL A   1      41.473  29.835  33.328  1.00  0.00     0.167 HD
ATOM     56  C   UNL A   1      38.099  32.226  31.785  1.00  0.00     0.037 A 
ATOM     57  C   UNL A   1      43.545  29.276  35.118  1.00  0.00     0.037 A 
ATOM     58  C   UNL A   1      38.343  32.719  33.113  1.00  0.00     0.049 A 
ATOM     59  C   UNL A   1      42.707  30.353  35.756  1.00  0.00     0.074 A 
ATOM     60  C   UNL A   1      37.636  33.673  33.821  1.00  0.00     0.029 A 
ATOM     61  N   UNL A   1      39.365  32.277  33.941  1.00  0.00    -0.354 N 
ATOM     62  N   UNL A   1      41.663  30.981  35.269  1.00  0.00    -0.248 NA
ATOM     63  C   UNL A   1      43.090  30.783  37.108  1.00  0.00     0.031 C 
ATOM     64  C   UNL A   1      38.247  33.829  35.069  1.00  0.00     0.029 A 
ATOM     65  C   UNL A   1      39.307  32.939  35.154  1.00  0.00     0.049 A 
ATOM     66  H   UNL A   1      40.032  31.594  33.702  1.00  0.00     0.167 HD
ATOM     67  C   UNL A   1      41.239  31.848  36.270  1.00  0.00     0.074 A 
ATOM     68  C   UNL A   1      42.143  31.668  37.388  1.00  0.00     0.031 C 
ATOM     69  C   UNL A   1      40.197  32.714  36.266  1.00  0.00     0.037 A 
BRANCH  56  70
ATOM     70  C   UNL A   1      36.971  32.821  30.988  1.00  0.00     0.058 A 
ATOM     71  C   UNL A   1      35.631  32.477  31.235  1.00  0.00     0.135 A 
ATOM     72  C   UNL A   1      37.228  33.755  29.973  1.00  0.00     0.135 A 
ATOM     73  F   UNL A   1      35.329  31.573  32.181  1.00  0.00    -0.206 F 
ATOM     74  C   UNL A   1      34.592  33.007  30.480  1.00  0.00     0.059 A 
ATOM     75  C   UNL A   1      36.200  34.324  29.226  1.00  0.00     0.059 A 
ATOM     76  F   UNL A   1      38.489  34.121  29.692  1.00  0.00    -0.206 F 
ATOM     77  C   UNL A   1      34.887  33.930  29.476  1.00  0.00     0.060 A 
BRANCH  77  78
ATOM     78  S   UNL A   1      33.526  34.610  28.506  1.00  0.00     0.124 S 
ATOM     79  O   UNL A   1      34.173  35.745  27.853  1.00  0.00    -0.237 OA
ATOM     80  O   UNL A   1      33.176  33.494  27.632  1.00  0.00    -0.237 OA
ATOM     81  O   UNL A   1      32.527  34.951  29.513  1.00  0.00    -0.744 OA
ENDBRANCH  77  78
ENDBRANCH  56  70
BRANCH  57  82
ATOM     82  C   UNL A   1      44.714  28.696  35.832  1.00  0.00     0.058 A 
ATOM     83  C   UNL A   1      44.550  27.620  36.716  1.00  0.00     0.135 A 
ATOM     84  C   UNL A   1      46.013  29.194  35.644  1.00  0.00     0.135 A 
ATOM     85  F   UNL A   1      43.328  27.112  36.933  1.00  0.00    -0.206 F 
ATOM     86  C   UNL A   1      45.626  27.070  37.407  1.00  0.00     0.059 A 
ATOM     87  C   UNL A   1      47.109  28.644  36.304  1.00  0.00     0.059 A 
ATOM     88  F   UNL A   1      46.228  30.209  34.793  1.00  0.00    -0.206 F 
ATOM     89  C   UNL A   1      46.903  27.590  37.194  1.00  0.00     0.060 A 
BRANCH  89  90
ATOM     90  S   UNL A   1      48.298  26.844  38.066  1.00  0.00     0.124 S 
ATOM     91  O   UNL A   1      47.897  27.014  39.458  1.00  0.00    -0.237 OA
ATOM     92  O   UNL A   1      48.282  25.477  37.558  1.00  0.00    -0.237 OA
ATOM     93  O   UNL A   1      49.434  27.652  37.632  1.00  0.00    -0.744 OA
ENDBRANCH  89  90
ENDBRANCH  57  82
BRANCH  69  94
ATOM     94  C   UNL A   1      39.921  33.482  37.526  1.00  0.00     0.058 A 
ATOM     95  C   UNL A   1      40.610  34.664  37.837  1.00  0.00     0.135 A 
ATOM     96  C   UNL A   1      38.884  33.077  38.381  1.00  0.00     0.135 A 
ATOM     97  F   UNL A   1      41.613  35.089  37.054  1.00  0.00    -0.206 F 
ATOM     98  C   UNL A   1      40.283  35.416  38.960  1.00  0.00     0.059 A 
ATOM     99  C   UNL A   1      38.523  33.826  39.496  1.00  0.00     0.059 A 
ATOM    100  F   UNL A   1      38.189  31.959  38.120  1.00  0.00    -0.206 F 
ATOM    101  C   UNL A   1      39.232  34.993  39.780  1.00  0.00     0.060 A 
BRANCH 101 102
ATOM    102  S   UNL A   1      38.774  36.015  41.195  1.00  0.00     0.124 S 
ATOM    103  O   UNL A   1      37.579  35.331  41.678  1.00  0.00    -0.237 OA
ATOM    104  O   UNL A   1      39.953  35.913  42.049  1.00  0.00    -0.237 OA
ATOM    105  O   UNL A   1      38.548  37.331  40.604  1.00  0.00    -0.744 OA
ENDBRANCH 101 102
ENDBRANCH  69  94
ENDBRANCH  43  44
ENDBRANCH  35  38
ENDBRANCH  33  34
ENDBRANCH  32  33
ENDBRANCH  31  32
ENDBRANCH  29  31
ENDBRANCH   1  27
TORSDOF 22
ENDMDL
MODEL 2
REMARK VINA RESULT:     -11.0      1.491      2.589
REMARK SMILES CCCCCCNC(=O)Oc1cccc(-c2ccc([C@H](C)C(=O)NCCCNC(=O)c3ccc(-c4c5nc(c(-c6c(F)cc(S(=O)(=O)[O-])cc6F)c6ccc([nH]6)c(-c6c(F)cc(S(=O)(=O)[O-])cc6F)c6nc(c(-c7c(F)cc(S(=O)(=O)[O-])cc7F)c7ccc4[nH]7)C=C6)C=C5)cc3)cc2F)c1
REMARK SMILES IDX 20 1 21 2 19 3 16 4 17 5 98 6 18 7 97 8 99 9 15 10 11 11
REMARK SMILES IDX 12 12 100 13 13 14 14 15 10 16 8 17 7 18 9 20 6 21 5 22 4 23
REMARK SMILES IDX 3 24 2 25 1 26 22 27 23 28 24 29 25 31 26 32 27 33 28 34
REMARK SMILES IDX 29 35 30 37 31 38 32 39 96 40 33 41 95 42 34 43 35 44 36 45
REMARK SMILES IDX 89 46 37 47 94 48 88 49 90 50 38 51 93 52 87 53 86 54 39 56
REMARK SMILES IDX 73 57 52 58 72 59 53 60 56 61 71 62 91 63 54 64 55 65 70 67
REMARK SMILES IDX 92 68 57 69 40 70 41 71 50 72 42 73 43 74 49 75 51 76 44 77
REMARK SMILES IDX 45 78 46 79 47 80 48 81 74 82 75 83 84 84 76 85 77 86 83 87
REMARK SMILES IDX 85 88 78 89 79 90 80 91 81 92 82 93 58 94 59 95 68 96 60 97
REMARK SMILES IDX 61 98 67 99 69 100 62 101 63 102 64 103 65 104 66 105
REMARK H PARENT 7 19 24 30 28 36 90 55 56 66
REMARK Flexibility Score: inf
ROOT
ATOM      1  C   UNL A   1      41.365  21.986  27.007  1.00  0.00     0.105 C 
ATOM      2  C   UNL A   1      42.067  22.907  28.008  1.00  0.00     0.023 C 
ENDROOT
BRANCH   1   3
ATOM      3  C   UNL A   1      39.948  22.408  26.631  1.00  0.00    -0.033 A 
ATOM      4  C   UNL A   1      37.291  23.143  25.876  1.00  0.00     0.018 A 
ATOM      5  C   UNL A   1      38.151  24.054  26.485  1.00  0.00     0.012 A 
ATOM      6  C   UNL A   1      37.770  21.843  25.683  1.00  0.00     0.131 A 
ATOM      7  C   UNL A   1      39.440  23.687  26.856  1.00  0.00     0.005 A 
ATOM      8  C   UNL A   1      39.072  21.478  26.049  1.00  0.00     0.044 A 
ATOM      9  F   UNL A   1      36.982  20.907  25.132  1.00  0.00    -0.206 F 
BRANCH   4  10
ATOM     10  C   UNL A   1      35.941  23.590  25.525  1.00  0.00    -0.012 A 
ATOM     11  C   UNL A   1      34.351  24.404  23.902  1.00  0.00     0.133 A 
ATOM     12  C   UNL A   1      33.291  24.195  24.781  1.00  0.00     0.047 A 
ATOM     13  C   UNL A   1      35.668  24.130  24.267  1.00  0.00     0.056 A 
ATOM     14  C   UNL A   1      33.550  23.680  26.044  1.00  0.00     0.004 A 
ATOM     15  C   UNL A   1      34.863  23.384  26.413  1.00  0.00     0.009 A 
BRANCH  11  16
ATOM     16  O   UNL A   1      34.061  25.008  22.676  1.00  0.00    -0.410 OA
BRANCH  16  17
ATOM     17  C   UNL A   1      33.200  24.341  21.823  1.00  0.00     0.412 C 
ATOM     18  N   UNL A   1      32.087  25.073  21.526  1.00  0.00    -0.321 N 
ATOM     19  H   UNL A   1      31.405  24.642  20.961  1.00  0.00     0.167 HD
ATOM     20  O   UNL A   1      33.363  23.217  21.354  1.00  0.00    -0.224 OA
BRANCH  18  21
ATOM     21  C   UNL A   1      31.819  26.425  21.968  1.00  0.00     0.119 C 
BRANCH  21  22
ATOM     22  C   UNL A   1      30.911  26.450  23.195  1.00  0.00     0.021 C 
BRANCH  22  23
ATOM     23  C   UNL A   1      31.362  27.411  24.301  1.00  0.00     0.002 C 
BRANCH  23  24
ATOM     24  C   UNL A   1      30.976  26.996  25.725  1.00  0.00    -0.000 C 
BRANCH  24  25
ATOM     25  C   UNL A   1      32.096  27.098  26.763  1.00  0.00    -0.003 C 
ATOM     26  C   UNL A   1      33.428  27.523  26.166  1.00  0.00     0.004 C 
ENDBRANCH  24  25
ENDBRANCH  23  24
ENDBRANCH  22  23
ENDBRANCH  21  22
ENDBRANCH  18  21
ENDBRANCH  16  17
ENDBRANCH  11  16
ENDBRANCH   4  10
ENDBRANCH   1   3
BRANCH   1  27
ATOM     27  C   UNL A   1      42.256  21.547  25.838  1.00  0.00     0.227 C 
ATOM     28  O   UNL A   1      42.149  20.405  25.375  1.00  0.00    -0.274 OA
ATOM     29  N   UNL A   1      43.199  22.342  25.263  1.00  0.00    -0.356 N 
ATOM     30  H   UNL A   1      43.838  21.866  24.685  1.00  0.00     0.163 HD
BRANCH  29  31
ATOM     31  C   UNL A   1      43.423  23.773  25.358  1.00  0.00     0.117 C 
BRANCH  31  32
ATOM     32  C   UNL A   1      44.813  24.161  25.799  1.00  0.00     0.042 C 
BRANCH  32  33
ATOM     33  C   UNL A   1      44.963  25.659  25.992  1.00  0.00     0.118 C 
BRANCH  33  34
ATOM     34  N   UNL A   1      44.096  26.447  25.111  1.00  0.00    -0.352 N 
ATOM     35  C   UNL A   1      43.138  27.389  25.416  1.00  0.00     0.251 C 
ATOM     36  H   UNL A   1      44.218  26.276  24.150  1.00  0.00     0.163 HD
ATOM     37  O   UNL A   1      42.397  27.822  24.540  1.00  0.00    -0.269 OA
BRANCH  35  38
ATOM     38  C   UNL A   1      42.994  27.842  26.813  1.00  0.00     0.039 A 
ATOM     39  C   UNL A   1      43.547  29.059  27.215  1.00  0.00     0.014 A 
ATOM     40  C   UNL A   1      42.237  27.086  27.702  1.00  0.00     0.014 A 
ATOM     41  C   UNL A   1      43.233  29.572  28.476  1.00  0.00     0.010 A 
ATOM     42  C   UNL A   1      41.809  27.659  28.887  1.00  0.00     0.010 A 
ATOM     43  C   UNL A   1      42.309  28.905  29.296  1.00  0.00    -0.014 A 
BRANCH  43  44
ATOM     44  C   UNL A   1      41.854  29.436  30.606  1.00  0.00     0.031 A 
ATOM     45  C   UNL A   1      40.577  30.236  30.659  1.00  0.00     0.074 A 
ATOM     46  C   UNL A   1      42.632  29.323  31.700  1.00  0.00     0.049 A 
ATOM     47  N   UNL A   1      40.118  31.003  31.612  1.00  0.00    -0.248 NA
ATOM     48  C   UNL A   1      39.739  30.220  29.446  1.00  0.00     0.031 C 
ATOM     49  C   UNL A   1      43.913  28.614  31.770  1.00  0.00     0.029 A 
ATOM     50  N   UNL A   1      42.472  29.831  32.965  1.00  0.00    -0.354 N 
ATOM     51  C   UNL A   1      38.971  31.594  31.095  1.00  0.00     0.074 A 
ATOM     52  C   UNL A   1      38.841  31.150  29.726  1.00  0.00     0.031 C 
ATOM     53  C   UNL A   1      44.406  28.712  33.014  1.00  0.00     0.029 A 
ATOM     54  C   UNL A   1      43.510  29.536  33.819  1.00  0.00     0.049 A 
ATOM     55  H   UNL A   1      41.685  30.357  33.238  1.00  0.00     0.167 HD
ATOM     56  C   UNL A   1      38.087  32.410  31.714  1.00  0.00     0.037 A 
ATOM     57  C   UNL A   1      43.721  29.904  35.098  1.00  0.00     0.037 A 
ATOM     58  C   UNL A   1      38.190  32.790  33.097  1.00  0.00     0.049 A 
ATOM     59  C   UNL A   1      42.706  30.782  35.780  1.00  0.00     0.074 A 
ATOM     60  C   UNL A   1      37.317  33.558  33.846  1.00  0.00     0.029 A 
ATOM     61  N   UNL A   1      39.220  32.408  33.944  1.00  0.00    -0.354 N 
ATOM     62  N   UNL A   1      41.608  31.308  35.289  1.00  0.00    -0.248 NA
ATOM     63  C   UNL A   1      42.953  31.117  37.190  1.00  0.00     0.031 C 
ATOM     64  C   UNL A   1      37.835  33.664  35.140  1.00  0.00     0.029 A 
ATOM     65  C   UNL A   1      39.005  32.924  35.209  1.00  0.00     0.049 A 
ATOM     66  H   UNL A   1      39.989  31.852  33.684  1.00  0.00     0.167 HD
ATOM     67  C   UNL A   1      41.014  31.999  36.338  1.00  0.00     0.074 A 
ATOM     68  C   UNL A   1      41.874  31.829  37.491  1.00  0.00     0.031 C 
ATOM     69  C   UNL A   1      39.859  32.709  36.350  1.00  0.00     0.037 A 
BRANCH  56  70
ATOM     70  C   UNL A   1      36.928  32.925  30.906  1.00  0.00     0.058 A 
ATOM     71  C   UNL A   1      37.066  34.013  30.029  1.00  0.00     0.135 A 
ATOM     72  C   UNL A   1      35.667  32.316  30.998  1.00  0.00     0.135 A 
ATOM     73  F   UNL A   1      38.245  34.646  29.916  1.00  0.00    -0.206 F 
ATOM     74  C   UNL A   1      35.988  34.504  29.303  1.00  0.00     0.059 A 
ATOM     75  C   UNL A   1      34.581  32.770  30.254  1.00  0.00     0.059 A 
ATOM     76  F   UNL A   1      35.477  31.272  31.820  1.00  0.00    -0.206 F 
ATOM     77  C   UNL A   1      34.747  33.876  29.423  1.00  0.00     0.060 A 
BRANCH  77  78
ATOM     78  S   UNL A   1      33.358  34.525  28.472  1.00  0.00     0.124 S 
ATOM     79  O   UNL A   1      32.934  33.339  27.733  1.00  0.00    -0.237 OA
ATOM     80  O   UNL A   1      32.447  34.977  29.519  1.00  0.00    -0.237 OA
ATOM     81  O   UNL A   1      33.961  35.583  27.669  1.00  0.00    -0.744 OA
ENDBRANCH  77  78
ENDBRANCH  56  70
BRANCH  57  82
ATOM     82  C   UNL A   1      44.923  29.419  35.828  1.00  0.00     0.058 A 
ATOM     83  C   UNL A   1      44.900  28.193  36.510  1.00  0.00     0.135 A 
ATOM     84  C   UNL A   1      46.116  30.157  35.856  1.00  0.00     0.135 A 
ATOM     85  F   UNL A   1      43.781  27.452  36.516  1.00  0.00    -0.206 F 
ATOM     86  C   UNL A   1      46.006  27.724  37.212  1.00  0.00     0.059 A 
ATOM     87  C   UNL A   1      47.244  29.699  36.531  1.00  0.00     0.059 A 
ATOM     88  F   UNL A   1      46.199  31.327  35.204  1.00  0.00    -0.206 F 
ATOM     89  C   UNL A   1      47.175  28.486  37.216  1.00  0.00     0.060 A 
BRANCH  89  90
ATOM     90  S   UNL A   1      48.618  27.851  38.099  1.00  0.00     0.124 S 
ATOM     91  O   UNL A   1      48.897  28.942  39.025  1.00  0.00    -0.237 OA
ATOM     92  O   UNL A   1      48.097  26.625  38.695  1.00  0.00    -0.237 OA
ATOM     93  O   UNL A   1      49.600  27.655  37.038  1.00  0.00    -0.744 OA
ENDBRANCH  89  90
ENDBRANCH  57  82
BRANCH  69  94
ATOM     94  C   UNL A   1      39.411  33.295  37.657  1.00  0.00     0.058 A 
ATOM     95  C   UNL A   1      38.510  32.626  38.497  1.00  0.00     0.135 A 
ATOM     96  C   UNL A   1      39.970  34.500  38.113  1.00  0.00     0.135 A 
ATOM     97  F   UNL A   1      37.943  31.475  38.103  1.00  0.00    -0.206 F 
ATOM     98  C   UNL A   1      38.172  33.136  39.747  1.00  0.00     0.059 A 
ATOM     99  C   UNL A   1      39.666  35.015  39.369  1.00  0.00     0.059 A 
ATOM    100  F   UNL A   1      40.845  35.173  37.349  1.00  0.00    -0.206 F 
ATOM    101  C   UNL A   1      38.762  34.328  40.177  1.00  0.00     0.060 A 
BRANCH 101 102
ATOM    102  S   UNL A   1      38.368  34.941  41.828  1.00  0.00     0.124 S 
ATOM    103  O   UNL A   1      39.106  34.008  42.672  1.00  0.00    -0.237 OA
ATOM    104  O   UNL A   1      38.886  36.305  41.787  1.00  0.00    -0.237 OA
ATOM    105  O   UNL A   1      36.914  34.832  41.893  1.00  0.00    -0.744 OA
ENDBRANCH 101 102
ENDBRANCH  69  94
ENDBRANCH  43  44
ENDBRANCH  35  38
ENDBRANCH  33  34
ENDBRANCH  32  33
ENDBRANCH  31  32
ENDBRANCH  29  31
ENDBRANCH   1  27
TORSDOF 22
ENDMDL
MODEL 3
REMARK VINA RESULT:     -10.8      2.624      9.119
REMARK SMILES CCCCCCNC(=O)Oc1cccc(-c2ccc([C@H](C)C(=O)NCCCNC(=O)c3ccc(-c4c5nc(c(-c6c(F)cc(S(=O)(=O)[O-])cc6F)c6ccc([nH]6)c(-c6c(F)cc(S(=O)(=O)[O-])cc6F)c6nc(c(-c7c(F)cc(S(=O)(=O)[O-])cc7F)c7ccc4[nH]7)C=C6)C=C5)cc3)cc2F)c1
REMARK SMILES IDX 20 1 21 2 19 3 16 4 17 5 98 6 18 7 97 8 99 9 15 10 11 11
REMARK SMILES IDX 12 12 100 13 13 14 14 15 10 16 8 17 7 18 9 20 6 21 5 22 4 23
REMARK SMILES IDX 3 24 2 25 1 26 22 27 23 28 24 29 25 31 26 32 27 33 28 34
REMARK SMILES IDX 29 35 30 37 31 38 32 39 96 40 33 41 95 42 34 43 35 44 36 45
REMARK SMILES IDX 89 46 37 47 94 48 88 49 90 50 38 51 93 52 87 53 86 54 39 56
REMARK SMILES IDX 73 57 52 58 72 59 53 60 56 61 71 62 91 63 54 64 55 65 70 67
REMARK SMILES IDX 92 68 57 69 40 70 41 71 50 72 42 73 43 74 49 75 51 76 44 77
REMARK SMILES IDX 45 78 46 79 47 80 48 81 74 82 75 83 84 84 76 85 77 86 83 87
REMARK SMILES IDX 85 88 78 89 79 90 80 91 81 92 82 93 58 94 59 95 68 96 60 97
REMARK SMILES IDX 61 98 67 99 69 100 62 101 63 102 64 103 65 104 66 105
REMARK H PARENT 7 19 24 30 28 36 90 55 56 66
REMARK Flexibility Score: inf
ROOT
ATOM      1  C   UNL A   1      31.675  27.463  24.324  1.00  0.00     0.105 C 
ATOM      2  C   UNL A   1      30.300  27.238  23.692  1.00  0.00     0.023 C 
ENDROOT
BRANCH   1   3
ATOM      3  C   UNL A   1      32.547  26.215  24.423  1.00  0.00    -0.033 A 
ATOM      4  C   UNL A   1      34.186  23.887  24.684  1.00  0.00     0.018 A 
ATOM      5  C   UNL A   1      34.077  24.567  23.473  1.00  0.00     0.012 A 
ATOM      6  C   UNL A   1      33.431  24.371  25.758  1.00  0.00     0.131 A 
ATOM      7  C   UNL A   1      33.272  25.695  23.352  1.00  0.00     0.005 A 
ATOM      8  C   UNL A   1      32.628  25.513  25.637  1.00  0.00     0.044 A 
ATOM      9  F   UNL A   1      33.464  23.744  26.944  1.00  0.00    -0.206 F 
BRANCH   4  10
ATOM     10  C   UNL A   1      35.039  22.697  24.739  1.00  0.00    -0.012 A 
ATOM     11  C   UNL A   1      37.190  21.668  25.107  1.00  0.00     0.133 A 
ATOM     12  C   UNL A   1      36.623  20.396  25.108  1.00  0.00     0.047 A 
ATOM     13  C   UNL A   1      36.421  22.812  24.903  1.00  0.00     0.056 A 
ATOM     14  C   UNL A   1      35.252  20.266  24.923  1.00  0.00     0.004 A 
ATOM     15  C   UNL A   1      34.469  21.406  24.738  1.00  0.00     0.009 A 
BRANCH  11  16
ATOM     16  O   UNL A   1      38.581  21.751  25.203  1.00  0.00    -0.410 OA
BRANCH  16  17
ATOM     17  C   UNL A   1      39.107  22.410  26.302  1.00  0.00     0.412 C 
ATOM     18  N   UNL A   1      40.099  21.698  26.912  1.00  0.00    -0.321 N 
ATOM     19  H   UNL A   1      40.488  22.083  27.730  1.00  0.00     0.167 HD
ATOM     20  O   UNL A   1      38.760  23.508  26.728  1.00  0.00    -0.224 OA
BRANCH  18  21
ATOM     21  C   UNL A   1      40.630  20.428  26.463  1.00  0.00     0.119 C 
BRANCH  21  22
ATOM     22  C   UNL A   1      42.145  20.477  26.288  1.00  0.00     0.021 C 
BRANCH  22  23
ATOM     23  C   UNL A   1      42.800  19.116  26.026  1.00  0.00     0.002 C 
BRANCH  23  24
ATOM     24  C   UNL A   1      43.866  19.104  24.925  1.00  0.00    -0.000 C 
BRANCH  24  25
ATOM     25  C   UNL A   1      44.753  20.350  24.859  1.00  0.00    -0.003 C 
ATOM     26  C   UNL A   1      46.223  20.052  25.102  1.00  0.00     0.004 C 
ENDBRANCH  24  25
ENDBRANCH  23  24
ENDBRANCH  22  23
ENDBRANCH  21  22
ENDBRANCH  18  21
ENDBRANCH  16  17
ENDBRANCH  11  16
ENDBRANCH   4  10
ENDBRANCH   1   3
BRANCH   1  27
ATOM     27  C   UNL A   1      32.387  28.728  23.828  1.00  0.00     0.227 C 
ATOM     28  O   UNL A   1      32.195  29.131  22.674  1.00  0.00    -0.274 OA
ATOM     29  N   UNL A   1      33.255  29.455  24.582  1.00  0.00    -0.356 N 
ATOM     30  H   UNL A   1      33.799  30.099  24.073  1.00  0.00     0.163 HD
BRANCH  29  31
ATOM     31  C   UNL A   1      33.516  29.442  26.010  1.00  0.00     0.117 C 
BRANCH  31  32
ATOM     32  C   UNL A   1      32.748  30.477  26.796  1.00  0.00     0.042 C 
BRANCH  32  33
ATOM     33  C   UNL A   1      33.661  31.437  27.537  1.00  0.00     0.118 C 
BRANCH  33  34
ATOM     34  N   UNL A   1      33.125  32.798  27.624  1.00  0.00    -0.352 N 
ATOM     35  C   UNL A   1      33.438  33.825  28.487  1.00  0.00     0.251 C 
ATOM     36  H   UNL A   1      32.432  33.013  26.960  1.00  0.00     0.163 HD
ATOM     37  O   UNL A   1      32.758  34.845  28.507  1.00  0.00    -0.269 OA
BRANCH  35  38
ATOM     38  C   UNL A   1      34.580  33.666  29.409  1.00  0.00     0.039 A 
ATOM     39  C   UNL A   1      34.458  32.856  30.540  1.00  0.00     0.014 A 
ATOM     40  C   UNL A   1      35.797  34.264  29.100  1.00  0.00     0.014 A 
ATOM     41  C   UNL A   1      35.598  32.551  31.290  1.00  0.00     0.010 A 
ATOM     42  C   UNL A   1      36.943  33.846  29.753  1.00  0.00     0.010 A 
ATOM     43  C   UNL A   1      36.860  32.992  30.864  1.00  0.00    -0.014 A 
BRANCH  43  44
ATOM     44  C   UNL A   1      38.124  32.630  31.554  1.00  0.00     0.031 A 
ATOM     45  C   UNL A   1      39.006  31.573  30.939  1.00  0.00     0.074 A 
ATOM     46  C   UNL A   1      38.410  33.134  32.770  1.00  0.00     0.049 A 
ATOM     47  N   UNL A   1      40.004  30.917  31.468  1.00  0.00    -0.248 NA
ATOM     48  C   UNL A   1      38.675  31.156  29.565  1.00  0.00     0.031 C 
ATOM     49  C   UNL A   1      37.613  34.128  33.494  1.00  0.00     0.029 A 
ATOM     50  N   UNL A   1      39.443  32.855  33.630  1.00  0.00    -0.354 N 
ATOM     51  C   UNL A   1      40.383  29.981  30.513  1.00  0.00     0.074 A 
ATOM     52  C   UNL A   1      39.469  30.110  29.402  1.00  0.00     0.031 C 
ATOM     53  C   UNL A   1      38.199  34.391  34.673  1.00  0.00     0.029 A 
ATOM     54  C   UNL A   1      39.380  33.548  34.818  1.00  0.00     0.049 A 
ATOM     55  H   UNL A   1      40.163  32.218  33.417  1.00  0.00     0.167 HD
ATOM     56  C   UNL A   1      41.420  29.111  30.544  1.00  0.00     0.037 A 
ATOM     57  C   UNL A   1      40.176  33.493  35.904  1.00  0.00     0.037 A 
ATOM     58  C   UNL A   1      42.365  29.041  31.625  1.00  0.00     0.049 A 
ATOM     59  C   UNL A   1      41.346  32.546  35.903  1.00  0.00     0.074 A 
ATOM     60  C   UNL A   1      43.490  28.245  31.733  1.00  0.00     0.029 A 
ATOM     61  N   UNL A   1      42.304  29.813  32.776  1.00  0.00    -0.354 N 
ATOM     62  N   UNL A   1      41.712  31.689  34.979  1.00  0.00    -0.248 NA
ATOM     63  C   UNL A   1      42.215  32.557  37.089  1.00  0.00     0.031 C 
ATOM     64  C   UNL A   1      44.097  28.516  32.964  1.00  0.00     0.029 A 
ATOM     65  C   UNL A   1      43.374  29.513  33.601  1.00  0.00     0.049 A 
ATOM     66  H   UNL A   1      41.606  30.476  32.976  1.00  0.00     0.167 HD
ATOM     67  C   UNL A   1      42.874  31.090  35.452  1.00  0.00     0.074 A 
ATOM     68  C   UNL A   1      43.150  31.680  36.746  1.00  0.00     0.031 C 
ATOM     69  C   UNL A   1      43.646  30.141  34.869  1.00  0.00     0.037 A 
BRANCH  56  70
ATOM     70  C   UNL A   1      41.592  28.190  29.369  1.00  0.00     0.058 A 
ATOM     71  C   UNL A   1      42.598  28.398  28.410  1.00  0.00     0.135 A 
ATOM     72  C   UNL A   1      40.753  27.078  29.204  1.00  0.00     0.135 A 
ATOM     73  F   UNL A   1      43.416  29.458  28.508  1.00  0.00    -0.206 F 
ATOM     74  C   UNL A   1      42.739  27.561  27.310  1.00  0.00     0.059 A 
ATOM     75  C   UNL A   1      40.898  26.207  28.127  1.00  0.00     0.059 A 
ATOM     76  F   UNL A   1      39.775  26.830  30.089  1.00  0.00    -0.206 F 
ATOM     77  C   UNL A   1      41.883  26.467  27.176  1.00  0.00     0.060 A 
BRANCH  77  78
ATOM     78  S   UNL A   1      42.080  25.389  25.743  1.00  0.00     0.124 S 
ATOM     79  O   UNL A   1      40.845  25.652  25.010  1.00  0.00    -0.237 OA
ATOM     80  O   UNL A   1      43.301  25.905  25.130  1.00  0.00    -0.237 OA
ATOM     81  O   UNL A   1      42.191  24.059  26.331  1.00  0.00    -0.744 OA
ENDBRANCH  77  78
ENDBRANCH  56  70
BRANCH  57  82
ATOM     82  C   UNL A   1      39.916  34.383  37.068  1.00  0.00     0.058 A 
ATOM     83  C   UNL A   1      39.161  33.929  38.160  1.00  0.00     0.135 A 
ATOM     84  C   UNL A   1      40.416  35.693  37.120  1.00  0.00     0.135 A 
ATOM     85  F   UNL A   1      38.657  32.686  38.156  1.00  0.00    -0.206 F 
ATOM     86  C   UNL A   1      38.892  34.747  39.253  1.00  0.00     0.059 A 
ATOM     87  C   UNL A   1      40.181  36.523  38.213  1.00  0.00     0.059 A 
ATOM     88  F   UNL A   1      41.160  36.170  36.110  1.00  0.00    -0.206 F 
ATOM     89  C   UNL A   1      39.407  36.044  39.270  1.00  0.00     0.060 A 
BRANCH  89  90
ATOM     90  S   UNL A   1      39.083  37.085  40.711  1.00  0.00     0.124 S 
ATOM     91  O   UNL A   1      38.292  36.190  41.546  1.00  0.00    -0.237 OA
ATOM     92  O   UNL A   1      40.432  37.378  41.186  1.00  0.00    -0.237 OA
ATOM     93  O   UNL A   1      38.366  38.224  40.146  1.00  0.00    -0.744 OA
ENDBRANCH  89  90
ENDBRANCH  57  82
BRANCH  69  94
ATOM     94  C   UNL A   1      44.902  29.727  35.579  1.00  0.00     0.058 A 
ATOM     95  C   UNL A   1      46.122  30.385  35.368  1.00  0.00     0.135 A 
ATOM     96  C   UNL A   1      44.855  28.719  36.556  1.00  0.00     0.135 A 
ATOM     97  F   UNL A   1      46.219  31.351  34.441  1.00  0.00    -0.206 F 
ATOM     98  C   UNL A   1      47.258  30.052  36.098  1.00  0.00     0.059 A 
ATOM     99  C   UNL A   1      45.972  28.387  37.315  1.00  0.00     0.059 A 
ATOM    100  F   UNL A   1      43.707  28.066  36.801  1.00  0.00    -0.206 F 
ATOM    101  C   UNL A   1      47.171  29.057  37.075  1.00  0.00     0.060 A 
BRANCH 101 102
ATOM    102  S   UNL A   1      48.634  28.684  38.063  1.00  0.00     0.124 S 
ATOM    103  O   UNL A   1      49.685  29.337  37.290  1.00  0.00    -0.237 OA
ATOM    104  O   UNL A   1      48.312  29.302  39.346  1.00  0.00    -0.237 OA
ATOM    105  O   UNL A   1      48.676  27.224  38.071  1.00  0.00    -0.744 OA
ENDBRANCH 101 102
ENDBRANCH  69  94
ENDBRANCH  43  44
ENDBRANCH  35  38
ENDBRANCH  33  34
ENDBRANCH  32  33
ENDBRANCH  31  32
ENDBRANCH  29  31
ENDBRANCH   1  27
TORSDOF 22
ENDMDL
