MODEL 1
REMARK VINA RESULT:     -10.6      0.000      0.000
REMARK SMILES COc1cc(Br)c(OC)c(C(=O)NCCC(=O)NCCCNC(=O)c2ccc(-c3c4nc(c(-c5c(F)cc(S(=O)(=O)[O-])cc5F)c5ccc([nH]5)c(-c5c(F)cc(S(=O)(=O)[O-])cc5F)c5nc(c(-c6c(F)cc(S(=O)(=O)[O-])cc6F)c6ccc3[nH]6)C=C5)C=C4)cc2)c1
REMARK SMILES IDX 19 1 18 2 16 3 17 4 15 6 14 7 13 8 11 9 12 10 10 12 3 13
REMARK SMILES IDX 4 14 91 15 5 16 6 17 7 18 2 19 1 20 8 21 9 22 20 23 21 24
REMARK SMILES IDX 22 25 23 26 24 28 25 29 26 30 90 31 27 32 89 33 28 34 29 35
REMARK SMILES IDX 30 36 83 37 31 38 88 39 82 40 84 41 32 42 87 43 81 44 80 45
REMARK SMILES IDX 33 47 67 48 46 49 66 50 47 51 50 52 65 53 85 54 48 55 49 56
REMARK SMILES IDX 64 58 86 59 51 60 34 61 35 62 44 63 36 64 37 65 43 66 45 67
REMARK SMILES IDX 38 68 39 69 40 70 41 71 42 72 68 73 69 74 78 75 70 76 71 77
REMARK SMILES IDX 77 78 79 79 72 80 73 81 74 82 75 83 76 84 52 85 53 86 62 87
REMARK SMILES IDX 54 88 55 89 61 90 63 91 56 92 57 93 58 94 59 95 60 96
REMARK H PARENT 18 5 13 11 22 27 84 46 50 57
REMARK Flexibility Score: inf
ROOT
ATOM      1  C   UNL A   1      31.760  28.738  25.370  1.00  0.00     0.117 C 
ENDROOT
BRANCH   1   2
ATOM      2  N   UNL A   1      31.131  28.021  24.270  1.00  0.00    -0.356 N 
ATOM      3  C   UNL A   1      30.677  26.740  24.210  1.00  0.00     0.221 C 
ATOM      4  O   UNL A   1      30.200  26.338  23.147  1.00  0.00    -0.275 OA
ATOM      5  H   UNL A   1      31.018  28.542  23.443  1.00  0.00     0.163 HD
BRANCH   3   6
ATOM      6  C   UNL A   1      30.769  25.823  25.411  1.00  0.00     0.121 C 
BRANCH   6   7
ATOM      7  C   UNL A   1      31.976  24.903  25.302  1.00  0.00     0.126 C 
BRANCH   7   8
ATOM      8  N   UNL A   1      32.567  24.880  23.968  1.00  0.00    -0.351 N 
ATOM      9  C   UNL A   1      33.569  24.234  23.288  1.00  0.00     0.255 C 
ATOM     10  O   UNL A   1      33.849  24.762  22.209  1.00  0.00    -0.269 OA
ATOM     11  H   UNL A   1      32.107  25.520  23.378  1.00  0.00     0.163 HD
BRANCH   9  12
ATOM     12  C   UNL A   1      34.243  22.954  23.702  1.00  0.00     0.086 A 
ATOM     13  C   UNL A   1      36.227  21.799  24.497  1.00  0.00     0.121 A 
ATOM     14  C   UNL A   1      35.467  20.712  24.889  1.00  0.00     0.066 A 
ATOM     15  C   UNL A   1      35.618  22.922  23.955  1.00  0.00     0.064 A 
ATOM     16  C   UNL A   1      34.094  20.685  24.620  1.00  0.00     0.064 A 
ATOM     17  Br  UNL A   1      33.258  19.046  25.114  1.00  0.00    -0.047 Br
ATOM     18  C   UNL A   1      33.468  21.785  23.991  1.00  0.00     0.146 A 
BRANCH  13  19
ATOM     19  O   UNL A   1      37.581  21.851  24.685  1.00  0.00    -0.497 OA
ATOM     20  C   UNL A   1      37.919  22.666  25.808  1.00  0.00     0.278 C 
ENDBRANCH  13  19
BRANCH  18  21
ATOM     21  O   UNL A   1      32.196  21.767  23.476  1.00  0.00    -0.495 OA
ATOM     22  C   UNL A   1      31.937  21.099  22.247  1.00  0.00     0.278 C 
ENDBRANCH  18  21
ENDBRANCH   9  12
ENDBRANCH   7   8
ENDBRANCH   6   7
ENDBRANCH   3   6
ENDBRANCH   1   2
BRANCH   1  23
ATOM     23  C   UNL A   1      33.210  28.316  25.577  1.00  0.00     0.042 C 
BRANCH  23  24
ATOM     24  C   UNL A   1      33.717  28.474  27.003  1.00  0.00     0.118 C 
BRANCH  24  25
ATOM     25  N   UNL A   1      33.604  29.838  27.494  1.00  0.00    -0.352 N 
ATOM     26  C   UNL A   1      34.494  30.595  28.219  1.00  0.00     0.251 C 
ATOM     27  H   UNL A   1      32.758  30.290  27.272  1.00  0.00     0.163 HD
ATOM     28  O   UNL A   1      34.118  31.657  28.706  1.00  0.00    -0.269 OA
BRANCH  26  29
ATOM     29  C   UNL A   1      35.887  30.135  28.435  1.00  0.00     0.039 A 
ATOM     30  C   UNL A   1      36.782  30.164  27.361  1.00  0.00     0.014 A 
ATOM     31  C   UNL A   1      36.311  29.644  29.672  1.00  0.00     0.014 A 
ATOM     32  C   UNL A   1      38.111  29.770  27.546  1.00  0.00     0.010 A 
ATOM     33  C   UNL A   1      37.654  29.337  29.878  1.00  0.00     0.010 A 
ATOM     34  C   UNL A   1      38.570  29.392  28.818  1.00  0.00    -0.014 A 
BRANCH  34  35
ATOM     35  C   UNL A   1      39.997  29.047  29.063  1.00  0.00     0.031 A 
ATOM     36  C   UNL A   1      40.947  30.089  29.594  1.00  0.00     0.074 A 
ATOM     37  C   UNL A   1      40.456  27.822  28.737  1.00  0.00     0.049 A 
ATOM     38  N   UNL A   1      42.243  30.017  29.766  1.00  0.00    -0.248 NA
ATOM     39  C   UNL A   1      40.367  31.393  29.955  1.00  0.00     0.031 C 
ATOM     40  C   UNL A   1      39.648  26.736  28.176  1.00  0.00     0.029 A 
ATOM     41  N   UNL A   1      41.719  27.286  28.812  1.00  0.00    -0.354 N 
ATOM     42  C   UNL A   1      42.634  31.266  30.235  1.00  0.00     0.074 A 
ATOM     43  C   UNL A   1      41.447  32.092  30.275  1.00  0.00     0.031 C 
ATOM     44  C   UNL A   1      40.429  25.662  27.976  1.00  0.00     0.029 A 
ATOM     45  C   UNL A   1      41.801  25.993  28.346  1.00  0.00     0.049 A 
ATOM     46  H   UNL A   1      42.493  27.781  29.166  1.00  0.00     0.167 HD
ATOM     47  C   UNL A   1      43.865  31.680  30.618  1.00  0.00     0.037 A 
ATOM     48  C   UNL A   1      42.862  25.173  28.215  1.00  0.00     0.037 A 
ATOM     49  C   UNL A   1      45.037  30.843  30.605  1.00  0.00     0.049 A 
ATOM     50  C   UNL A   1      44.225  25.662  28.628  1.00  0.00     0.074 A 
ATOM     51  C   UNL A   1      46.316  31.150  31.035  1.00  0.00     0.029 A 
ATOM     52  N   UNL A   1      45.075  29.538  30.138  1.00  0.00    -0.354 N 
ATOM     53  N   UNL A   1      44.565  26.827  29.127  1.00  0.00    -0.248 NA
ATOM     54  C   UNL A   1      45.348  24.730  28.459  1.00  0.00     0.031 C 
ATOM     55  C   UNL A   1      47.138  30.046  30.785  1.00  0.00     0.029 A 
ATOM     56  C   UNL A   1      46.361  29.034  30.244  1.00  0.00     0.049 A 
ATOM     57  H   UNL A   1      44.301  29.042  29.784  1.00  0.00     0.167 HD
ATOM     58  C   UNL A   1      45.935  26.760  29.350  1.00  0.00     0.074 A 
ATOM     59  C   UNL A   1      46.360  25.436  28.945  1.00  0.00     0.031 C 
ATOM     60  C   UNL A   1      46.767  27.710  29.843  1.00  0.00     0.037 A 
BRANCH  47  61
ATOM     61  C   UNL A   1      44.012  33.101  31.091  1.00  0.00     0.058 A 
ATOM     62  C   UNL A   1      44.305  34.147  30.202  1.00  0.00     0.135 A 
ATOM     63  C   UNL A   1      43.815  33.428  32.443  1.00  0.00     0.135 A 
ATOM     64  F   UNL A   1      44.516  33.890  28.901  1.00  0.00    -0.206 F 
ATOM     65  C   UNL A   1      44.426  35.462  30.639  1.00  0.00     0.059 A 
ATOM     66  C   UNL A   1      43.902  34.741  32.898  1.00  0.00     0.059 A 
ATOM     67  F   UNL A   1      43.532  32.468  33.338  1.00  0.00    -0.206 F 
ATOM     68  C   UNL A   1      44.222  35.749  31.989  1.00  0.00     0.060 A 
BRANCH  68  69
ATOM     69  S   UNL A   1      44.375  37.463  32.537  1.00  0.00     0.124 S 
ATOM     70  O   UNL A   1      45.758  37.496  33.002  1.00  0.00    -0.237 OA
ATOM     71  O   UNL A   1      44.100  38.207  31.313  1.00  0.00    -0.237 OA
ATOM     72  O   UNL A   1      43.360  37.579  33.580  1.00  0.00    -0.744 OA
ENDBRANCH  68  69
ENDBRANCH  47  61
BRANCH  48  73
ATOM     73  C   UNL A   1      42.679  23.801  27.670  1.00  0.00     0.058 A 
ATOM     74  C   UNL A   1      42.536  22.698  28.526  1.00  0.00     0.135 A 
ATOM     75  C   UNL A   1      42.633  23.563  26.287  1.00  0.00     0.135 A 
ATOM     76  F   UNL A   1      42.583  22.872  29.855  1.00  0.00    -0.206 F 
ATOM     77  C   UNL A   1      42.371  21.408  28.033  1.00  0.00     0.059 A 
ATOM     78  C   UNL A   1      42.441  22.285  25.770  1.00  0.00     0.059 A 
ATOM     79  F   UNL A   1      42.752  24.584  25.425  1.00  0.00    -0.206 F 
ATOM     80  C   UNL A   1      42.321  21.212  26.651  1.00  0.00     0.060 A 
BRANCH  80  81
ATOM     81  S   UNL A   1      42.062  19.539  26.024  1.00  0.00     0.124 S 
ATOM     82  O   UNL A   1      40.636  19.555  25.723  1.00  0.00    -0.237 OA
ATOM     83  O   UNL A   1      42.959  19.500  24.872  1.00  0.00    -0.237 OA
ATOM     84  O   UNL A   1      42.461  18.694  27.145  1.00  0.00    -0.744 OA
ENDBRANCH  80  81
ENDBRANCH  48  73
BRANCH  60  85
ATOM     85  C   UNL A   1      48.220  27.354  30.000  1.00  0.00     0.058 A 
ATOM     86  C   UNL A   1      49.182  27.766  29.064  1.00  0.00     0.135 A 
ATOM     87  C   UNL A   1      48.665  26.662  31.138  1.00  0.00     0.135 A 
ATOM     88  F   UNL A   1      48.807  28.422  27.954  1.00  0.00    -0.206 F 
ATOM     89  C   UNL A   1      50.534  27.500  29.248  1.00  0.00     0.059 A 
ATOM     90  C   UNL A   1      50.015  26.407  31.355  1.00  0.00     0.059 A 
ATOM     91  F   UNL A   1      47.787  26.251  32.066  1.00  0.00    -0.206 F 
ATOM     92  C   UNL A   1      50.942  26.826  30.402  1.00  0.00     0.060 A 
BRANCH  92  93
ATOM     93  S   UNL A   1      52.707  26.544  30.659  1.00  0.00     0.124 S 
ATOM     94  O   UNL A   1      52.694  25.540  31.718  1.00  0.00    -0.237 OA
ATOM     95  O   UNL A   1      53.142  26.074  29.346  1.00  0.00    -0.237 OA
ATOM     96  O   UNL A   1      53.209  27.858  31.046  1.00  0.00    -0.744 OA
ENDBRANCH  92  93
ENDBRANCH  60  85
ENDBRANCH  34  35
ENDBRANCH  26  29
ENDBRANCH  24  25
ENDBRANCH  23  24
ENDBRANCH   1  23
TORSDOF 18
ENDMDL
MODEL 2
REMARK VINA RESULT:     -10.5      1.099      1.942
REMARK SMILES COc1cc(Br)c(OC)c(C(=O)NCCC(=O)NCCCNC(=O)c2ccc(-c3c4nc(c(-c5c(F)cc(S(=O)(=O)[O-])cc5F)c5ccc([nH]5)c(-c5c(F)cc(S(=O)(=O)[O-])cc5F)c5nc(c(-c6c(F)cc(S(=O)(=O)[O-])cc6F)c6ccc3[nH]6)C=C5)C=C4)cc2)c1
REMARK SMILES IDX 19 1 18 2 16 3 17 4 15 6 14 7 13 8 11 9 12 10 10 12 3 13
REMARK SMILES IDX 4 14 91 15 5 16 6 17 7 18 2 19 1 20 8 21 9 22 20 23 21 24
REMARK SMILES IDX 22 25 23 26 24 28 25 29 26 30 90 31 27 32 89 33 28 34 29 35
REMARK SMILES IDX 30 36 83 37 31 38 88 39 82 40 84 41 32 42 87 43 81 44 80 45
REMARK SMILES IDX 33 47 67 48 46 49 66 50 47 51 50 52 65 53 85 54 48 55 49 56
REMARK SMILES IDX 64 58 86 59 51 60 34 61 35 62 44 63 36 64 37 65 43 66 45 67
REMARK SMILES IDX 38 68 39 69 40 70 41 71 42 72 68 73 69 74 78 75 70 76 71 77
REMARK SMILES IDX 77 78 79 79 72 80 73 81 74 82 75 83 76 84 52 85 53 86 62 87
REMARK SMILES IDX 54 88 55 89 61 90 63 91 56 92 57 93 58 94 59 95 60 96
REMARK H PARENT 18 5 13 11 22 27 84 46 50 57
REMARK Flexibility Score: inf
ROOT
ATOM      1  C   UNL A   1      32.267  28.673  24.836  1.00  0.00     0.117 C 
ENDROOT
BRANCH   1   2
ATOM      2  N   UNL A   1      31.798  28.509  23.468  1.00  0.00    -0.356 N 
ATOM      3  C   UNL A   1      30.786  27.743  22.978  1.00  0.00     0.221 C 
ATOM      4  O   UNL A   1      30.589  27.743  21.762  1.00  0.00    -0.275 OA
ATOM      5  H   UNL A   1      32.289  29.031  22.794  1.00  0.00     0.163 HD
BRANCH   3   6
ATOM      6  C   UNL A   1      29.932  26.897  23.900  1.00  0.00     0.121 C 
BRANCH   6   7
ATOM      7  C   UNL A   1      30.099  25.417  23.589  1.00  0.00     0.126 C 
BRANCH   7   8
ATOM      8  N   UNL A   1      31.282  25.124  22.787  1.00  0.00    -0.351 N 
ATOM      9  C   UNL A   1      32.363  24.277  22.802  1.00  0.00     0.255 C 
ATOM     10  O   UNL A   1      33.248  24.598  22.005  1.00  0.00    -0.269 OA
ATOM     11  H   UNL A   1      31.314  25.709  21.996  1.00  0.00     0.163 HD
BRANCH   9  12
ATOM     12  C   UNL A   1      32.491  23.013  23.608  1.00  0.00     0.086 A 
ATOM     13  C   UNL A   1      32.531  20.585  23.697  1.00  0.00     0.121 A 
ATOM     14  C   UNL A   1      33.134  20.617  24.942  1.00  0.00     0.066 A 
ATOM     15  C   UNL A   1      32.257  21.766  23.020  1.00  0.00     0.064 A 
ATOM     16  C   UNL A   1      33.350  21.841  25.584  1.00  0.00     0.064 A 
ATOM     17  Br  UNL A   1      34.061  21.659  27.341  1.00  0.00    -0.047 Br
ATOM     18  C   UNL A   1      33.000  23.053  24.946  1.00  0.00     0.146 A 
BRANCH  13  19
ATOM     19  O   UNL A   1      32.245  19.414  23.051  1.00  0.00    -0.497 OA
ATOM     20  C   UNL A   1      32.551  18.283  23.868  1.00  0.00     0.278 C 
ENDBRANCH  13  19
BRANCH  18  21
ATOM     21  O   UNL A   1      32.950  24.275  25.570  1.00  0.00    -0.495 OA
ATOM     22  C   UNL A   1      31.900  24.564  26.484  1.00  0.00     0.278 C 
ENDBRANCH  18  21
ENDBRANCH   9  12
ENDBRANCH   7   8
ENDBRANCH   6   7
ENDBRANCH   3   6
ENDBRANCH   1   2
BRANCH   1  23
ATOM     23  C   UNL A   1      33.447  27.762  25.154  1.00  0.00     0.042 C 
BRANCH  23  24
ATOM     24  C   UNL A   1      34.159  28.082  26.460  1.00  0.00     0.118 C 
BRANCH  24  25
ATOM     25  N   UNL A   1      33.789  29.379  27.001  1.00  0.00    -0.352 N 
ATOM     26  C   UNL A   1      34.482  30.218  27.842  1.00  0.00     0.251 C 
ATOM     27  H   UNL A   1      32.904  29.708  26.723  1.00  0.00     0.163 HD
ATOM     28  O   UNL A   1      33.901  31.178  28.340  1.00  0.00    -0.269 OA
BRANCH  26  29
ATOM     29  C   UNL A   1      35.906  29.966  28.167  1.00  0.00     0.039 A 
ATOM     30  C   UNL A   1      36.239  29.536  29.455  1.00  0.00     0.014 A 
ATOM     31  C   UNL A   1      36.919  30.182  27.230  1.00  0.00     0.014 A 
ATOM     32  C   UNL A   1      37.571  29.255  29.777  1.00  0.00     0.010 A 
ATOM     33  C   UNL A   1      38.232  29.820  27.523  1.00  0.00     0.010 A 
ATOM     34  C   UNL A   1      38.575  29.356  28.801  1.00  0.00    -0.014 A 
BRANCH  34  35
ATOM     35  C   UNL A   1      39.988  28.986  29.092  1.00  0.00     0.031 A 
ATOM     36  C   UNL A   1      40.936  30.009  29.657  1.00  0.00     0.074 A 
ATOM     37  C   UNL A   1      40.436  27.753  28.776  1.00  0.00     0.049 A 
ATOM     38  N   UNL A   1      42.225  29.914  29.871  1.00  0.00    -0.248 NA
ATOM     39  C   UNL A   1      40.368  31.322  30.004  1.00  0.00     0.031 C 
ATOM     40  C   UNL A   1      39.628  26.684  28.186  1.00  0.00     0.029 A 
ATOM     41  N   UNL A   1      41.687  27.196  28.891  1.00  0.00    -0.354 N 
ATOM     42  C   UNL A   1      42.621  31.155  30.358  1.00  0.00     0.074 A 
ATOM     43  C   UNL A   1      41.449  32.001  30.361  1.00  0.00     0.031 C 
ATOM     44  C   UNL A   1      40.397  25.597  28.008  1.00  0.00     0.029 A 
ATOM     45  C   UNL A   1      41.761  25.903  28.424  1.00  0.00     0.049 A 
ATOM     46  H   UNL A   1      42.456  27.676  29.272  1.00  0.00     0.167 HD
ATOM     47  C   UNL A   1      43.846  31.547  30.783  1.00  0.00     0.037 A 
ATOM     48  C   UNL A   1      42.813  25.066  28.326  1.00  0.00     0.037 A 
ATOM     49  C   UNL A   1      45.004  30.690  30.806  1.00  0.00     0.049 A 
ATOM     50  C   UNL A   1      44.169  25.530  28.785  1.00  0.00     0.074 A 
ATOM     51  C   UNL A   1      46.273  30.973  31.279  1.00  0.00     0.029 A 
ATOM     52  N   UNL A   1      45.034  29.385  30.336  1.00  0.00    -0.354 N 
ATOM     53  N   UNL A   1      44.512  26.687  29.299  1.00  0.00    -0.248 NA
ATOM     54  C   UNL A   1      45.280  24.579  28.650  1.00  0.00     0.031 C 
ATOM     55  C   UNL A   1      47.083  29.856  31.052  1.00  0.00     0.029 A 
ATOM     56  C   UNL A   1      46.307  28.860  30.482  1.00  0.00     0.049 A 
ATOM     57  H   UNL A   1      44.264  28.904  29.954  1.00  0.00     0.167 HD
ATOM     58  C   UNL A   1      45.873  26.595  29.567  1.00  0.00     0.074 A 
ATOM     59  C   UNL A   1      46.288  25.266  29.172  1.00  0.00     0.031 C 
ATOM     60  C   UNL A   1      46.704  27.530  30.091  1.00  0.00     0.037 A 
BRANCH  47  61
ATOM     61  C   UNL A   1      44.002  32.963  31.266  1.00  0.00     0.058 A 
ATOM     62  C   UNL A   1      44.358  34.004  30.394  1.00  0.00     0.135 A 
ATOM     63  C   UNL A   1      43.749  33.293  32.608  1.00  0.00     0.135 A 
ATOM     64  F   UNL A   1      44.624  33.744  29.103  1.00  0.00    -0.206 F 
ATOM     65  C   UNL A   1      44.487  35.316  30.838  1.00  0.00     0.059 A 
ATOM     66  C   UNL A   1      43.844  34.604  33.069  1.00  0.00     0.059 A 
ATOM     67  F   UNL A   1      43.404  32.339  33.486  1.00  0.00    -0.206 F 
ATOM     68  C   UNL A   1      44.227  35.606  32.179  1.00  0.00     0.060 A 
BRANCH  68  69
ATOM     69  S   UNL A   1      44.392  37.315  32.737  1.00  0.00     0.124 S 
ATOM     70  O   UNL A   1      43.281  37.422  33.678  1.00  0.00    -0.237 OA
ATOM     71  O   UNL A   1      45.726  37.323  33.327  1.00  0.00    -0.237 OA
ATOM     72  O   UNL A   1      44.248  38.090  31.508  1.00  0.00    -0.744 OA
ENDBRANCH  68  69
ENDBRANCH  47  61
BRANCH  48  73
ATOM     73  C   UNL A   1      42.624  23.698  27.770  1.00  0.00     0.058 A 
ATOM     74  C   UNL A   1      42.657  23.471  26.385  1.00  0.00     0.135 A 
ATOM     75  C   UNL A   1      42.417  22.590  28.606  1.00  0.00     0.135 A 
ATOM     76  F   UNL A   1      42.842  24.499  25.543  1.00  0.00    -0.206 F 
ATOM     77  C   UNL A   1      42.475  22.201  25.849  1.00  0.00     0.059 A 
ATOM     78  C   UNL A   1      42.261  21.305  28.095  1.00  0.00     0.059 A 
ATOM     79  F   UNL A   1      42.390  22.749  29.939  1.00  0.00    -0.206 F 
ATOM     80  C   UNL A   1      42.281  21.122  26.714  1.00  0.00     0.060 A 
BRANCH  80  81
ATOM     81  S   UNL A   1      42.091  19.471  26.008  1.00  0.00     0.124 S 
ATOM     82  O   UNL A   1      40.653  19.414  25.774  1.00  0.00    -0.237 OA
ATOM     83  O   UNL A   1      42.930  19.548  24.816  1.00  0.00    -0.237 OA
ATOM     84  O   UNL A   1      42.594  18.595  27.062  1.00  0.00    -0.744 OA
ENDBRANCH  80  81
ENDBRANCH  48  73
BRANCH  60  85
ATOM     85  C   UNL A   1      48.144  27.148  30.294  1.00  0.00     0.058 A 
ATOM     86  C   UNL A   1      49.146  27.560  29.400  1.00  0.00     0.135 A 
ATOM     87  C   UNL A   1      48.537  26.432  31.436  1.00  0.00     0.135 A 
ATOM     88  F   UNL A   1      48.822  28.238  28.288  1.00  0.00    -0.206 F 
ATOM     89  C   UNL A   1      50.486  27.269  29.629  1.00  0.00     0.059 A 
ATOM     90  C   UNL A   1      49.874  26.153  31.698  1.00  0.00     0.059 A 
ATOM     91  F   UNL A   1      47.620  26.022  32.325  1.00  0.00    -0.206 F 
ATOM     92  C   UNL A   1      50.842  26.571  30.786  1.00  0.00     0.060 A 
BRANCH  92  93
ATOM     93  S   UNL A   1      52.592  26.257  31.102  1.00  0.00     0.124 S 
ATOM     94  O   UNL A   1      52.961  27.423  31.897  1.00  0.00    -0.237 OA
ATOM     95  O   UNL A   1      52.557  24.986  31.820  1.00  0.00    -0.237 OA
ATOM     96  O   UNL A   1      53.174  26.199  29.765  1.00  0.00    -0.744 OA
ENDBRANCH  92  93
ENDBRANCH  60  85
ENDBRANCH  34  35
ENDBRANCH  26  29
ENDBRANCH  24  25
ENDBRANCH  23  24
ENDBRANCH   1  23
TORSDOF 18
ENDMDL
MODEL 3
REMARK VINA RESULT:     -10.4      5.193     10.619
REMARK SMILES COc1cc(Br)c(OC)c(C(=O)NCCC(=O)NCCCNC(=O)c2ccc(-c3c4nc(c(-c5c(F)cc(S(=O)(=O)[O-])cc5F)c5ccc([nH]5)c(-c5c(F)cc(S(=O)(=O)[O-])cc5F)c5nc(c(-c6c(F)cc(S(=O)(=O)[O-])cc6F)c6ccc3[nH]6)C=C5)C=C4)cc2)c1
REMARK SMILES IDX 19 1 18 2 16 3 17 4 15 6 14 7 13 8 11 9 12 10 10 12 3 13
REMARK SMILES IDX 4 14 91 15 5 16 6 17 7 18 2 19 1 20 8 21 9 22 20 23 21 24
REMARK SMILES IDX 22 25 23 26 24 28 25 29 26 30 90 31 27 32 89 33 28 34 29 35
REMARK SMILES IDX 30 36 83 37 31 38 88 39 82 40 84 41 32 42 87 43 81 44 80 45
REMARK SMILES IDX 33 47 67 48 46 49 66 50 47 51 50 52 65 53 85 54 48 55 49 56
REMARK SMILES IDX 64 58 86 59 51 60 34 61 35 62 44 63 36 64 37 65 43 66 45 67
REMARK SMILES IDX 38 68 39 69 40 70 41 71 42 72 68 73 69 74 78 75 70 76 71 77
REMARK SMILES IDX 77 78 79 79 72 80 73 81 74 82 75 83 76 84 52 85 53 86 62 87
REMARK SMILES IDX 54 88 55 89 61 90 63 91 56 92 57 93 58 94 59 95 60 96
REMARK H PARENT 18 5 13 11 22 27 84 46 50 57
REMARK Flexibility Score: inf
ROOT
ATOM      1  C   UNL A   1      39.673  22.170  26.280  1.00  0.00     0.117 C 
ENDROOT
BRANCH   1   2
ATOM      2  N   UNL A   1      38.595  23.144  26.187  1.00  0.00    -0.356 N 
ATOM      3  C   UNL A   1      37.422  23.085  25.501  1.00  0.00     0.221 C 
ATOM      4  O   UNL A   1      36.666  24.058  25.551  1.00  0.00    -0.275 OA
ATOM      5  H   UNL A   1      38.737  23.972  26.700  1.00  0.00     0.163 HD
BRANCH   3   6
ATOM      6  C   UNL A   1      37.059  21.865  24.680  1.00  0.00     0.121 C 
BRANCH   6   7
ATOM      7  C   UNL A   1      36.254  20.874  25.507  1.00  0.00     0.126 C 
BRANCH   7   8
ATOM      8  N   UNL A   1      35.022  20.442  24.855  1.00  0.00    -0.351 N 
ATOM      9  C   UNL A   1      33.846  20.982  24.397  1.00  0.00     0.255 C 
ATOM     10  O   UNL A   1      32.986  20.136  24.142  1.00  0.00    -0.269 OA
ATOM     11  H   UNL A   1      35.040  19.471  24.695  1.00  0.00     0.163 HD
BRANCH   9  12
ATOM     12  C   UNL A   1      33.585  22.437  24.118  1.00  0.00     0.086 A 
ATOM     13  C   UNL A   1      33.070  24.201  22.528  1.00  0.00     0.121 A 
ATOM     14  C   UNL A   1      32.675  25.042  23.553  1.00  0.00     0.066 A 
ATOM     15  C   UNL A   1      33.474  22.901  22.804  1.00  0.00     0.064 A 
ATOM     16  C   UNL A   1      32.806  24.633  24.884  1.00  0.00     0.064 A 
ATOM     17  Br  UNL A   1      32.337  25.984  26.141  1.00  0.00    -0.047 Br
ATOM     18  C   UNL A   1      33.296  23.343  25.189  1.00  0.00     0.146 A 
BRANCH  13  19
ATOM     19  O   UNL A   1      33.018  24.573  21.213  1.00  0.00    -0.497 OA
ATOM     20  C   UNL A   1      32.793  25.977  21.079  1.00  0.00     0.278 C 
ENDBRANCH  13  19
BRANCH  18  21
ATOM     21  O   UNL A   1      33.680  22.932  26.441  1.00  0.00    -0.495 OA
ATOM     22  C   UNL A   1      32.697  22.594  27.411  1.00  0.00     0.278 C 
ENDBRANCH  18  21
ENDBRANCH   9  12
ENDBRANCH   7   8
ENDBRANCH   6   7
ENDBRANCH   3   6
ENDBRANCH   1   2
BRANCH   1  23
ATOM     23  C   UNL A   1      40.470  22.315  27.571  1.00  0.00     0.042 C 
BRANCH  23  24
ATOM     24  C   UNL A   1      41.813  23.013  27.410  1.00  0.00     0.118 C 
BRANCH  24  25
ATOM     25  N   UNL A   1      41.869  23.864  26.233  1.00  0.00    -0.352 N 
ATOM     26  C   UNL A   1      41.647  25.215  26.106  1.00  0.00     0.251 C 
ATOM     27  H   UNL A   1      42.101  23.400  25.396  1.00  0.00     0.163 HD
ATOM     28  O   UNL A   1      41.548  25.701  24.983  1.00  0.00    -0.269 OA
BRANCH  26  29
ATOM     29  C   UNL A   1      41.509  26.081  27.301  1.00  0.00     0.039 A 
ATOM     30  C   UNL A   1      42.518  27.008  27.584  1.00  0.00     0.014 A 
ATOM     31  C   UNL A   1      40.417  25.967  28.164  1.00  0.00     0.014 A 
ATOM     32  C   UNL A   1      42.394  27.862  28.685  1.00  0.00     0.010 A 
ATOM     33  C   UNL A   1      40.252  26.876  29.207  1.00  0.00     0.010 A 
ATOM     34  C   UNL A   1      41.240  27.832  29.483  1.00  0.00    -0.014 A 
BRANCH  34  35
ATOM     35  C   UNL A   1      41.044  28.783  30.611  1.00  0.00     0.031 A 
ATOM     36  C   UNL A   1      41.875  28.656  31.861  1.00  0.00     0.074 A 
ATOM     37  C   UNL A   1      40.069  29.713  30.542  1.00  0.00     0.049 A 
ATOM     38  N   UNL A   1      41.778  29.312  32.989  1.00  0.00    -0.248 NA
ATOM     39  C   UNL A   1      42.938  27.638  31.851  1.00  0.00     0.031 C 
ATOM     40  C   UNL A   1      39.169  29.913  29.404  1.00  0.00     0.029 A 
ATOM     41  N   UNL A   1      39.659  30.653  31.456  1.00  0.00    -0.354 N 
ATOM     42  C   UNL A   1      42.751  28.776  33.826  1.00  0.00     0.074 A 
ATOM     43  C   UNL A   1      43.394  27.708  33.093  1.00  0.00     0.031 C 
ATOM     44  C   UNL A   1      38.327  30.923  29.680  1.00  0.00     0.029 A 
ATOM     45  C   UNL A   1      38.592  31.411  31.029  1.00  0.00     0.049 A 
ATOM     46  H   UNL A   1      40.088  30.774  32.333  1.00  0.00     0.167 HD
ATOM     47  C   UNL A   1      43.091  29.154  35.081  1.00  0.00     0.037 A 
ATOM     48  C   UNL A   1      37.894  32.377  31.658  1.00  0.00     0.037 A 
ATOM     49  C   UNL A   1      42.467  30.238  35.794  1.00  0.00     0.049 A 
ATOM     50  C   UNL A   1      38.276  32.765  33.061  1.00  0.00     0.074 A 
ATOM     51  C   UNL A   1      42.784  30.740  37.044  1.00  0.00     0.029 A 
ATOM     52  N   UNL A   1      41.399  30.987  35.322  1.00  0.00    -0.354 N 
ATOM     53  N   UNL A   1      39.239  32.288  33.814  1.00  0.00    -0.248 NA
ATOM     54  C   UNL A   1      37.480  33.819  33.703  1.00  0.00     0.031 C 
ATOM     55  C   UNL A   1      41.878  31.761  37.348  1.00  0.00     0.029 A 
ATOM     56  C   UNL A   1      41.027  31.928  36.268  1.00  0.00     0.049 A 
ATOM     57  H   UNL A   1      40.968  30.867  34.444  1.00  0.00     0.167 HD
ATOM     58  C   UNL A   1      39.176  32.997  35.008  1.00  0.00     0.074 A 
ATOM     59  C   UNL A   1      38.090  33.946  34.873  1.00  0.00     0.031 C 
ATOM     60  C   UNL A   1      39.947  32.872  36.116  1.00  0.00     0.037 A 
BRANCH  47  61
ATOM     61  C   UNL A   1      44.194  28.394  35.768  1.00  0.00     0.058 A 
ATOM     62  C   UNL A   1      43.926  27.283  36.583  1.00  0.00     0.135 A 
ATOM     63  C   UNL A   1      45.538  28.755  35.575  1.00  0.00     0.135 A 
ATOM     64  F   UNL A   1      42.659  26.902  36.812  1.00  0.00    -0.206 F 
ATOM     65  C   UNL A   1      44.948  26.572  37.205  1.00  0.00     0.059 A 
ATOM     66  C   UNL A   1      46.578  28.041  36.164  1.00  0.00     0.059 A 
ATOM     67  F   UNL A   1      45.852  29.808  34.805  1.00  0.00    -0.206 F 
ATOM     68  C   UNL A   1      46.272  26.959  36.988  1.00  0.00     0.060 A 
BRANCH  68  69
ATOM     69  S   UNL A   1      47.585  26.022  37.798  1.00  0.00     0.124 S 
ATOM     70  O   UNL A   1      47.608  24.802  36.996  1.00  0.00    -0.237 OA
ATOM     71  O   UNL A   1      48.738  26.903  37.644  1.00  0.00    -0.237 OA
ATOM     72  O   UNL A   1      47.097  25.863  39.165  1.00  0.00    -0.744 OA
ENDBRANCH  68  69
ENDBRANCH  47  61
BRANCH  48  73
ATOM     73  C   UNL A   1      36.760  33.047  30.965  1.00  0.00     0.058 A 
ATOM     74  C   UNL A   1      36.991  34.040  30.001  1.00  0.00     0.135 A 
ATOM     75  C   UNL A   1      35.428  32.706  31.243  1.00  0.00     0.135 A 
ATOM     76  F   UNL A   1      38.247  34.409  29.707  1.00  0.00    -0.206 F 
ATOM     77  C   UNL A   1      35.943  34.682  29.349  1.00  0.00     0.059 A 
ATOM     78  C   UNL A   1      34.363  33.314  30.583  1.00  0.00     0.059 A 
ATOM     79  F   UNL A   1      35.152  31.754  32.147  1.00  0.00    -0.206 F 
ATOM     80  C   UNL A   1      34.631  34.309  29.645  1.00  0.00     0.060 A 
BRANCH  80  81
ATOM     81  S   UNL A   1      33.281  35.118  28.760  1.00  0.00     0.124 S 
ATOM     82  O   UNL A   1      32.468  35.622  29.860  1.00  0.00    -0.237 OA
ATOM     83  O   UNL A   1      33.988  36.124  27.974  1.00  0.00    -0.237 OA
ATOM     84  O   UNL A   1      32.689  34.031  27.985  1.00  0.00    -0.744 OA
ENDBRANCH  80  81
ENDBRANCH  48  73
BRANCH  60  85
ATOM     85  C   UNL A   1      39.667  33.796  37.269  1.00  0.00     0.058 A 
ATOM     86  C   UNL A   1      38.771  33.444  38.291  1.00  0.00     0.135 A 
ATOM     87  C   UNL A   1      40.362  35.009  37.395  1.00  0.00     0.135 A 
ATOM     88  F   UNL A   1      38.074  32.299  38.213  1.00  0.00    -0.206 F 
ATOM     89  C   UNL A   1      38.569  34.266  39.394  1.00  0.00     0.059 A 
ATOM     90  C   UNL A   1      40.195  35.835  38.502  1.00  0.00     0.059 A 
ATOM     91  F   UNL A   1      41.235  35.389  36.449  1.00  0.00    -0.206 F 
ATOM     92  C   UNL A   1      39.292  35.457  39.494  1.00  0.00     0.060 A 
BRANCH  92  93
ATOM     93  S   UNL A   1      39.067  36.482  40.963  1.00  0.00     0.124 S 
ATOM     94  O   UNL A   1      40.411  36.481  41.532  1.00  0.00    -0.237 OA
ATOM     95  O   UNL A   1      38.622  37.751  40.394  1.00  0.00    -0.237 OA
ATOM     96  O   UNL A   1      38.059  35.760  41.732  1.00  0.00    -0.744 OA
ENDBRANCH  92  93
ENDBRANCH  60  85
ENDBRANCH  34  35
ENDBRANCH  26  29
ENDBRANCH  24  25
ENDBRANCH  23  24
ENDBRANCH   1  23
TORSDOF 18
ENDMDL
