MODEL 1
REMARK VINA RESULT:      -9.4      0.000      0.000
REMARK SMILES CCc1ccc(C(=O)[C@@H](Br)CC(=O)NCCCNC(=O)c2ccc(-c3c4nc(c(-c5c(F)cc(S(=O)(=O)[O-])cc5F)c5ccc([nH]5)c(-c5c(F)cc(S(=O)(=O)[O-])cc5F)c5nc(c(-c6c(F)cc(S(=O)(=O)[O-])cc6F)c6ccc3[nH]6)C=C5)C=C4)cc2)cc1
REMARK SMILES IDX 15 1 14 2 12 3 13 4 11 6 9 7 10 8 7 9 8 10 6 11 3 12 4 13
REMARK SMILES IDX 88 14 5 15 87 16 2 17 1 18 16 19 17 20 18 21 19 22 20 24
REMARK SMILES IDX 21 25 22 26 86 27 23 28 85 29 24 30 25 31 26 32 79 33 27 34
REMARK SMILES IDX 84 35 78 36 80 37 28 38 83 39 77 40 76 41 29 43 63 44 42 45
REMARK SMILES IDX 62 46 43 47 46 48 61 49 81 50 44 51 45 52 60 54 82 55 47 56
REMARK SMILES IDX 30 57 31 58 40 59 32 60 33 61 39 62 41 63 34 64 35 65 36 66
REMARK SMILES IDX 37 67 38 68 64 69 65 70 74 71 66 72 67 73 73 74 75 75 68 76
REMARK SMILES IDX 69 77 70 78 71 79 72 80 48 81 49 82 58 83 50 84 51 85 57 86
REMARK SMILES IDX 59 87 52 88 53 89 54 90 55 91 56 92
REMARK H PARENT 14 5 18 23 80 42 46 53
REMARK Flexibility Score: inf
ROOT
ATOM      1  C   UNL A   1      35.256  32.692  30.412  1.00  0.00     0.117 C 
ENDROOT
BRANCH   1   2
ATOM      2  N   UNL A   1      34.488  32.605  31.640  1.00  0.00    -0.356 N 
ATOM      3  C   UNL A   1      34.451  33.455  32.703  1.00  0.00     0.221 C 
ATOM      4  O   UNL A   1      33.785  33.142  33.688  1.00  0.00    -0.275 OA
ATOM      5  H   UNL A   1      33.907  31.814  31.716  1.00  0.00     0.163 HD
BRANCH   3   6
ATOM      6  C   UNL A   1      35.194  34.773  32.651  1.00  0.00     0.123 C 
BRANCH   6   7
ATOM      7  C   UNL A   1      36.597  34.645  33.224  1.00  0.00     0.138 C 
ATOM      8  Br  UNL A   1      37.923  34.549  31.774  1.00  0.00    -0.080 Br
BRANCH   7   9
ATOM      9  C   UNL A   1      36.918  33.470  34.143  1.00  0.00     0.176 C 
ATOM     10  O   UNL A   1      36.327  33.365  35.222  1.00  0.00    -0.293 OA
BRANCH   9  11
ATOM     11  C   UNL A   1      37.889  32.385  33.782  1.00  0.00     0.019 A 
ATOM     12  C   UNL A   1      39.805  30.328  33.422  1.00  0.00    -0.048 A 
ATOM     13  C   UNL A   1      40.169  31.545  34.005  1.00  0.00     0.004 A 
ATOM     14  C   UNL A   1      38.477  30.169  32.996  1.00  0.00     0.004 A 
ATOM     15  C   UNL A   1      39.228  32.568  34.161  1.00  0.00     0.012 A 
ATOM     16  C   UNL A   1      37.531  31.189  33.158  1.00  0.00     0.012 A 
BRANCH  12  17
ATOM     17  C   UNL A   1      40.764  29.168  33.280  1.00  0.00     0.032 C 
ATOM     18  C   UNL A   1      40.146  27.831  32.888  1.00  0.00     0.009 C 
ENDBRANCH  12  17
ENDBRANCH   9  11
ENDBRANCH   7   9
ENDBRANCH   6   7
ENDBRANCH   3   6
ENDBRANCH   1   2
BRANCH   1  19
ATOM     19  C   UNL A   1      34.422  33.294  29.287  1.00  0.00     0.042 C 
BRANCH  19  20
ATOM     20  C   UNL A   1      34.598  32.575  27.959  1.00  0.00     0.118 C 
BRANCH  20  21
ATOM     21  N   UNL A   1      33.926  31.280  27.959  1.00  0.00    -0.352 N 
ATOM     22  C   UNL A   1      34.436  30.006  27.959  1.00  0.00     0.251 C 
ATOM     23  H   UNL A   1      32.943  31.329  27.958  1.00  0.00     0.163 HD
ATOM     24  O   UNL A   1      33.682  29.070  27.700  1.00  0.00    -0.269 OA
BRANCH  22  25
ATOM     25  C   UNL A   1      35.866  29.745  28.252  1.00  0.00     0.039 A 
ATOM     26  C   UNL A   1      36.222  29.299  29.529  1.00  0.00     0.014 A 
ATOM     27  C   UNL A   1      36.863  29.984  27.305  1.00  0.00     0.014 A 
ATOM     28  C   UNL A   1      37.563  29.040  29.830  1.00  0.00     0.010 A 
ATOM     29  C   UNL A   1      38.181  29.628  27.571  1.00  0.00     0.010 A 
ATOM     30  C   UNL A   1      38.551  29.168  28.842  1.00  0.00    -0.014 A 
BRANCH  30  31
ATOM     31  C   UNL A   1      39.977  28.845  29.117  1.00  0.00     0.031 A 
ATOM     32  C   UNL A   1      40.888  29.891  29.703  1.00  0.00     0.074 A 
ATOM     33  C   UNL A   1      40.466  27.639  28.768  1.00  0.00     0.049 A 
ATOM     34  N   UNL A   1      42.176  29.834  29.926  1.00  0.00    -0.248 NA
ATOM     35  C   UNL A   1      40.279  31.184  30.055  1.00  0.00     0.031 C 
ATOM     36  C   UNL A   1      39.697  26.562  28.139  1.00  0.00     0.029 A 
ATOM     37  N   UNL A   1      41.732  27.119  28.877  1.00  0.00    -0.354 N 
ATOM     38  C   UNL A   1      42.534  31.085  30.417  1.00  0.00     0.074 A 
ATOM     39  C   UNL A   1      41.338  31.898  30.409  1.00  0.00     0.031 C 
ATOM     40  C   UNL A   1      40.500  25.505  27.941  1.00  0.00     0.029 A 
ATOM     41  C   UNL A   1      41.848  25.840  28.386  1.00  0.00     0.049 A 
ATOM     42  H   UNL A   1      42.486  27.616  29.272  1.00  0.00     0.167 HD
ATOM     43  C   UNL A   1      43.742  31.511  30.857  1.00  0.00     0.037 A 
ATOM     44  C   UNL A   1      42.922  25.031  28.293  1.00  0.00     0.037 A 
ATOM     45  C   UNL A   1      44.920  30.683  30.895  1.00  0.00     0.049 A 
ATOM     46  C   UNL A   1      44.250  25.519  28.803  1.00  0.00     0.074 A 
ATOM     47  C   UNL A   1      46.174  30.994  31.388  1.00  0.00     0.029 A 
ATOM     48  N   UNL A   1      44.988  29.381  30.420  1.00  0.00    -0.354 N 
ATOM     49  N   UNL A   1      44.554  26.683  29.328  1.00  0.00    -0.248 NA
ATOM     50  C   UNL A   1      45.380  24.584  28.717  1.00  0.00     0.031 C 
ATOM     51  C   UNL A   1      47.013  29.897  31.170  1.00  0.00     0.029 A 
ATOM     52  C   UNL A   1      46.269  28.882  30.589  1.00  0.00     0.049 A 
ATOM     53  H   UNL A   1      44.237  28.885  30.022  1.00  0.00     0.167 HD
ATOM     54  C   UNL A   1      45.904  26.610  29.657  1.00  0.00     0.074 A 
ATOM     55  C   UNL A   1      46.353  25.285  29.284  1.00  0.00     0.031 C 
ATOM     56  C   UNL A   1      46.698  27.557  30.217  1.00  0.00     0.037 A 
BRANCH  43  57
ATOM     57  C   UNL A   1      43.850  32.935  31.335  1.00  0.00     0.058 A 
ATOM     58  C   UNL A   1      43.659  33.279  32.683  1.00  0.00     0.135 A 
ATOM     59  C   UNL A   1      44.175  33.967  30.440  1.00  0.00     0.135 A 
ATOM     60  F   UNL A   1      43.333  32.336  33.582  1.00  0.00    -0.206 F 
ATOM     61  C   UNL A   1      43.749  34.596  33.120  1.00  0.00     0.059 A 
ATOM     62  C   UNL A   1      44.301  35.288  30.859  1.00  0.00     0.059 A 
ATOM     63  F   UNL A   1      44.371  33.697  29.139  1.00  0.00    -0.206 F 
ATOM     64  C   UNL A   1      44.068  35.596  32.199  1.00  0.00     0.060 A 
BRANCH  64  65
ATOM     65  S   UNL A   1      44.177  37.300  32.782  1.00  0.00     0.124 S 
ATOM     66  O   UNL A   1      42.995  37.393  33.634  1.00  0.00    -0.237 OA
ATOM     67  O   UNL A   1      45.462  37.313  33.475  1.00  0.00    -0.237 OA
ATOM     68  O   UNL A   1      44.125  38.085  31.552  1.00  0.00    -0.744 OA
ENDBRANCH  64  65
ENDBRANCH  43  57
BRANCH  44  69
ATOM     69  C   UNL A   1      42.774  23.669  27.715  1.00  0.00     0.058 A 
ATOM     70  C   UNL A   1      42.527  22.560  28.537  1.00  0.00     0.135 A 
ATOM     71  C   UNL A   1      42.845  23.452  26.330  1.00  0.00     0.135 A 
ATOM     72  F   UNL A   1      42.456  22.715  29.868  1.00  0.00    -0.206 F 
ATOM     73  C   UNL A   1      42.368  21.282  28.011  1.00  0.00     0.059 A 
ATOM     74  C   UNL A   1      42.663  22.188  25.777  1.00  0.00     0.059 A 
ATOM     75  F   UNL A   1      43.062  24.483  25.498  1.00  0.00    -0.206 F 
ATOM     76  C   UNL A   1      42.433  21.107  26.627  1.00  0.00     0.060 A 
BRANCH  76  77
ATOM     77  S   UNL A   1      42.166  19.454  25.953  1.00  0.00     0.124 S 
ATOM     78  O   UNL A   1      40.721  19.450  25.749  1.00  0.00    -0.237 OA
ATOM     79  O   UNL A   1      42.981  19.479  24.743  1.00  0.00    -0.237 OA
ATOM     80  O   UNL A   1      42.656  18.575  27.011  1.00  0.00    -0.744 OA
ENDBRANCH  76  77
ENDBRANCH  44  69
BRANCH  56  81
ATOM     81  C   UNL A   1      48.128  27.183  30.495  1.00  0.00     0.058 A 
ATOM     82  C   UNL A   1      49.170  27.559  29.633  1.00  0.00     0.135 A 
ATOM     83  C   UNL A   1      48.465  26.489  31.668  1.00  0.00     0.135 A 
ATOM     84  F   UNL A   1      48.901  28.219  28.494  1.00  0.00    -0.206 F 
ATOM     85  C   UNL A   1      50.495  27.240  29.913  1.00  0.00     0.059 A 
ATOM     86  C   UNL A   1      49.785  26.184  31.983  1.00  0.00     0.059 A 
ATOM     87  F   UNL A   1      47.507  26.116  32.532  1.00  0.00    -0.206 F 
ATOM     88  C   UNL A   1      50.792  26.554  31.094  1.00  0.00     0.060 A 
BRANCH  88  89
ATOM     89  S   UNL A   1      52.518  26.179  31.464  1.00  0.00     0.124 S 
ATOM     90  O   UNL A   1      52.406  24.868  32.093  1.00  0.00    -0.237 OA
ATOM     91  O   UNL A   1      53.134  26.196  30.140  1.00  0.00    -0.237 OA
ATOM     92  O   UNL A   1      52.920  27.268  32.349  1.00  0.00    -0.744 OA
ENDBRANCH  88  89
ENDBRANCH  56  81
ENDBRANCH  30  31
ENDBRANCH  22  25
ENDBRANCH  20  21
ENDBRANCH  19  20
ENDBRANCH   1  19
TORSDOF 17
ENDMDL
MODEL 2
REMARK VINA RESULT:      -9.3      5.159     11.780
REMARK SMILES CCc1ccc(C(=O)[C@@H](Br)CC(=O)NCCCNC(=O)c2ccc(-c3c4nc(c(-c5c(F)cc(S(=O)(=O)[O-])cc5F)c5ccc([nH]5)c(-c5c(F)cc(S(=O)(=O)[O-])cc5F)c5nc(c(-c6c(F)cc(S(=O)(=O)[O-])cc6F)c6ccc3[nH]6)C=C5)C=C4)cc2)cc1
REMARK SMILES IDX 15 1 14 2 12 3 13 4 11 6 9 7 10 8 7 9 8 10 6 11 3 12 4 13
REMARK SMILES IDX 88 14 5 15 87 16 2 17 1 18 16 19 17 20 18 21 19 22 20 24
REMARK SMILES IDX 21 25 22 26 86 27 23 28 85 29 24 30 25 31 26 32 79 33 27 34
REMARK SMILES IDX 84 35 78 36 80 37 28 38 83 39 77 40 76 41 29 43 63 44 42 45
REMARK SMILES IDX 62 46 43 47 46 48 61 49 81 50 44 51 45 52 60 54 82 55 47 56
REMARK SMILES IDX 30 57 31 58 40 59 32 60 33 61 39 62 41 63 34 64 35 65 36 66
REMARK SMILES IDX 37 67 38 68 64 69 65 70 74 71 66 72 67 73 73 74 75 75 68 76
REMARK SMILES IDX 69 77 70 78 71 79 72 80 48 81 49 82 58 83 50 84 51 85 57 86
REMARK SMILES IDX 59 87 52 88 53 89 54 90 55 91 56 92
REMARK H PARENT 14 5 18 23 80 42 46 53
REMARK Flexibility Score: inf
ROOT
ATOM      1  C   UNL A   1      37.717  23.367  26.091  1.00  0.00     0.117 C 
ENDROOT
BRANCH   1   2
ATOM      2  N   UNL A   1      37.401  23.521  24.683  1.00  0.00    -0.356 N 
ATOM      3  C   UNL A   1      36.637  22.738  23.874  1.00  0.00     0.221 C 
ATOM      4  O   UNL A   1      36.572  23.011  22.676  1.00  0.00    -0.275 OA
ATOM      5  H   UNL A   1      37.799  24.310  24.249  1.00  0.00     0.163 HD
BRANCH   3   6
ATOM      6  C   UNL A   1      35.864  21.572  24.451  1.00  0.00     0.123 C 
BRANCH   6   7
ATOM      7  C   UNL A   1      34.554  22.027  25.077  1.00  0.00     0.138 C 
ATOM      8  Br  UNL A   1      33.380  20.483  25.405  1.00  0.00    -0.080 Br
BRANCH   7   9
ATOM      9  C   UNL A   1      33.690  23.041  24.334  1.00  0.00     0.176 C 
ATOM     10  O   UNL A   1      33.317  22.792  23.184  1.00  0.00    -0.293 OA
BRANCH   9  11
ATOM     11  C   UNL A   1      33.213  24.323  24.950  1.00  0.00     0.019 A 
ATOM     12  C   UNL A   1      32.237  26.565  26.381  1.00  0.00    -0.048 A 
ATOM     13  C   UNL A   1      31.425  25.447  26.172  1.00  0.00     0.004 A 
ATOM     14  C   UNL A   1      33.531  26.556  25.839  1.00  0.00     0.004 A 
ATOM     15  C   UNL A   1      31.901  24.350  25.446  1.00  0.00     0.012 A 
ATOM     16  C   UNL A   1      34.012  25.455  25.118  1.00  0.00     0.012 A 
BRANCH  12  17
ATOM     17  C   UNL A   1      31.797  27.754  27.206  1.00  0.00     0.032 C 
ATOM     18  C   UNL A   1      32.637  29.017  27.064  1.00  0.00     0.009 C 
ENDBRANCH  12  17
ENDBRANCH   9  11
ENDBRANCH   7   9
ENDBRANCH   6   7
ENDBRANCH   3   6
ENDBRANCH   1   2
BRANCH   1  19
ATOM     19  C   UNL A   1      38.929  22.463  26.284  1.00  0.00     0.042 C 
BRANCH  19  20
ATOM     20  C   UNL A   1      40.064  23.136  27.039  1.00  0.00     0.118 C 
BRANCH  20  21
ATOM     21  N   UNL A   1      41.049  23.706  26.126  1.00  0.00    -0.352 N 
ATOM     22  C   UNL A   1      41.566  24.976  26.045  1.00  0.00     0.251 C 
ATOM     23  H   UNL A   1      41.400  23.077  25.457  1.00  0.00     0.163 HD
ATOM     24  O   UNL A   1      42.191  25.293  25.036  1.00  0.00    -0.269 OA
BRANCH  22  25
ATOM     25  C   UNL A   1      41.375  25.959  27.137  1.00  0.00     0.039 A 
ATOM     26  C   UNL A   1      40.373  25.727  28.087  1.00  0.00     0.014 A 
ATOM     27  C   UNL A   1      42.131  27.130  27.209  1.00  0.00     0.014 A 
ATOM     28  C   UNL A   1      40.175  26.636  29.131  1.00  0.00     0.010 A 
ATOM     29  C   UNL A   1      42.004  27.980  28.304  1.00  0.00     0.010 A 
ATOM     30  C   UNL A   1      41.013  27.753  29.269  1.00  0.00    -0.014 A 
BRANCH  30  31
ATOM     31  C   UNL A   1      40.864  28.706  30.401  1.00  0.00     0.031 A 
ATOM     32  C   UNL A   1      41.739  28.573  31.620  1.00  0.00     0.074 A 
ATOM     33  C   UNL A   1      39.892  29.639  30.364  1.00  0.00     0.049 A 
ATOM     34  N   UNL A   1      41.699  29.242  32.744  1.00  0.00    -0.248 NA
ATOM     35  C   UNL A   1      42.776  27.528  31.585  1.00  0.00     0.031 C 
ATOM     36  C   UNL A   1      38.943  29.830  29.265  1.00  0.00     0.029 A 
ATOM     37  N   UNL A   1      39.530  30.593  31.282  1.00  0.00    -0.354 N 
ATOM     38  C   UNL A   1      42.681  28.684  33.555  1.00  0.00     0.074 A 
ATOM     39  C   UNL A   1      43.265  27.587  32.815  1.00  0.00     0.031 C 
ATOM     40  C   UNL A   1      38.124  30.851  29.562  1.00  0.00     0.029 A 
ATOM     41  C   UNL A   1      38.459  31.360  30.887  1.00  0.00     0.049 A 
ATOM     42  H   UNL A   1      39.994  30.717  32.142  1.00  0.00     0.167 HD
ATOM     43  C   UNL A   1      43.077  29.066  34.792  1.00  0.00     0.037 A 
ATOM     44  C   UNL A   1      37.810  32.354  31.525  1.00  0.00     0.037 A 
ATOM     45  C   UNL A   1      42.515  30.183  35.507  1.00  0.00     0.049 A 
ATOM     46  C   UNL A   1      38.279  32.773  32.892  1.00  0.00     0.074 A 
ATOM     47  C   UNL A   1      42.893  30.697  36.734  1.00  0.00     0.029 A 
ATOM     48  N   UNL A   1      41.454  30.957  35.058  1.00  0.00    -0.354 N 
ATOM     49  N   UNL A   1      39.255  32.277  33.616  1.00  0.00    -0.248 NA
ATOM     50  C   UNL A   1      37.565  33.888  33.527  1.00  0.00     0.031 C 
ATOM     51  C   UNL A   1      42.033  31.754  37.048  1.00  0.00     0.029 A 
ATOM     52  C   UNL A   1      41.151  31.932  35.993  1.00  0.00     0.049 A 
ATOM     53  H   UNL A   1      40.987  30.831  34.201  1.00  0.00     0.167 HD
ATOM     54  C   UNL A   1      39.288  33.037  34.781  1.00  0.00     0.074 A 
ATOM     55  C   UNL A   1      38.243  34.032  34.658  1.00  0.00     0.031 C 
ATOM     56  C   UNL A   1      40.110  32.920  35.853  1.00  0.00     0.037 A 
BRANCH  43  57
ATOM     57  C   UNL A   1      44.173  28.271  35.452  1.00  0.00     0.058 A 
ATOM     58  C   UNL A   1      45.531  28.556  35.229  1.00  0.00     0.135 A 
ATOM     59  C   UNL A   1      43.865  27.227  36.339  1.00  0.00     0.135 A 
ATOM     60  F   UNL A   1      45.886  29.534  34.380  1.00  0.00    -0.206 F 
ATOM     61  C   UNL A   1      46.541  27.813  35.831  1.00  0.00     0.059 A 
ATOM     62  C   UNL A   1      44.859  26.490  36.977  1.00  0.00     0.059 A 
ATOM     63  F   UNL A   1      42.585  26.910  36.592  1.00  0.00    -0.206 F 
ATOM     64  C   UNL A   1      46.195  26.779  36.702  1.00  0.00     0.060 A 
BRANCH  64  65
ATOM     65  S   UNL A   1      47.517  25.822  37.472  1.00  0.00     0.124 S 
ATOM     66  O   UNL A   1      46.798  24.628  37.905  1.00  0.00    -0.237 OA
ATOM     67  O   UNL A   1      48.452  25.634  36.367  1.00  0.00    -0.237 OA
ATOM     68  O   UNL A   1      47.987  26.693  38.546  1.00  0.00    -0.744 OA
ENDBRANCH  64  65
ENDBRANCH  43  57
BRANCH  44  69
ATOM     69  C   UNL A   1      36.666  33.034  30.863  1.00  0.00     0.058 A 
ATOM     70  C   UNL A   1      35.348  32.806  31.287  1.00  0.00     0.135 A 
ATOM     71  C   UNL A   1      36.865  33.948  29.817  1.00  0.00     0.135 A 
ATOM     72  F   UNL A   1      35.104  31.937  32.281  1.00  0.00    -0.206 F 
ATOM     73  C   UNL A   1      34.268  33.448  30.690  1.00  0.00     0.059 A 
ATOM     74  C   UNL A   1      35.804  34.623  29.222  1.00  0.00     0.059 A 
ATOM     75  F   UNL A   1      38.109  34.214  29.386  1.00  0.00    -0.206 F 
ATOM     76  C   UNL A   1      34.507  34.360  29.660  1.00  0.00     0.060 A 
BRANCH  76  77
ATOM     77  S   UNL A   1      33.102  35.231  28.935  1.00  0.00     0.124 S 
ATOM     78  O   UNL A   1      32.285  35.503  30.112  1.00  0.00    -0.237 OA
ATOM     79  O   UNL A   1      33.743  36.390  28.321  1.00  0.00    -0.237 OA
ATOM     80  O   UNL A   1      32.551  34.259  27.995  1.00  0.00    -0.744 OA
ENDBRANCH  76  77
ENDBRANCH  44  69
BRANCH  56  81
ATOM     81  C   UNL A   1      39.937  33.914  36.968  1.00  0.00     0.058 A 
ATOM     82  C   UNL A   1      40.574  35.165  36.947  1.00  0.00     0.135 A 
ATOM     83  C   UNL A   1      39.078  33.632  38.043  1.00  0.00     0.135 A 
ATOM     84  F   UNL A   1      41.411  35.481  35.946  1.00  0.00    -0.206 F 
ATOM     85  C   UNL A   1      40.383  36.093  37.966  1.00  0.00     0.059 A 
ATOM     86  C   UNL A   1      38.850  34.557  39.056  1.00  0.00     0.059 A 
ATOM     87  F   UNL A   1      38.436  32.455  38.104  1.00  0.00    -0.206 F 
ATOM     88  C   UNL A   1      39.516  35.781  39.015  1.00  0.00     0.060 A 
BRANCH  88  89
ATOM     89  S   UNL A   1      39.247  37.009  40.310  1.00  0.00     0.124 S 
ATOM     90  O   UNL A   1      38.461  38.014  39.603  1.00  0.00    -0.237 OA
ATOM     91  O   UNL A   1      38.532  36.243  41.325  1.00  0.00    -0.237 OA
ATOM     92  O   UNL A   1      40.601  37.414  40.679  1.00  0.00    -0.744 OA
ENDBRANCH  88  89
ENDBRANCH  56  81
ENDBRANCH  30  31
ENDBRANCH  22  25
ENDBRANCH  20  21
ENDBRANCH  19  20
ENDBRANCH   1  19
TORSDOF 17
ENDMDL
MODEL 3
REMARK VINA RESULT:      -9.3      5.731     11.750
REMARK SMILES CCc1ccc(C(=O)[C@@H](Br)CC(=O)NCCCNC(=O)c2ccc(-c3c4nc(c(-c5c(F)cc(S(=O)(=O)[O-])cc5F)c5ccc([nH]5)c(-c5c(F)cc(S(=O)(=O)[O-])cc5F)c5nc(c(-c6c(F)cc(S(=O)(=O)[O-])cc6F)c6ccc3[nH]6)C=C5)C=C4)cc2)cc1
REMARK SMILES IDX 15 1 14 2 12 3 13 4 11 6 9 7 10 8 7 9 8 10 6 11 3 12 4 13
REMARK SMILES IDX 88 14 5 15 87 16 2 17 1 18 16 19 17 20 18 21 19 22 20 24
REMARK SMILES IDX 21 25 22 26 86 27 23 28 85 29 24 30 25 31 26 32 79 33 27 34
REMARK SMILES IDX 84 35 78 36 80 37 28 38 83 39 77 40 76 41 29 43 63 44 42 45
REMARK SMILES IDX 62 46 43 47 46 48 61 49 81 50 44 51 45 52 60 54 82 55 47 56
REMARK SMILES IDX 30 57 31 58 40 59 32 60 33 61 39 62 41 63 34 64 35 65 36 66
REMARK SMILES IDX 37 67 38 68 64 69 65 70 74 71 66 72 67 73 73 74 75 75 68 76
REMARK SMILES IDX 69 77 70 78 71 79 72 80 48 81 49 82 58 83 50 84 51 85 57 86
REMARK SMILES IDX 59 87 52 88 53 89 54 90 55 91 56 92
REMARK H PARENT 14 5 18 23 80 42 46 53
REMARK Flexibility Score: inf
ROOT
ATOM      1  C   UNL A   1      38.039  23.252  26.045  1.00  0.00     0.117 C 
ENDROOT
BRANCH   1   2
ATOM      2  N   UNL A   1      37.786  23.038  24.632  1.00  0.00    -0.356 N 
ATOM      3  C   UNL A   1      36.624  23.147  23.932  1.00  0.00     0.221 C 
ATOM      4  O   UNL A   1      36.618  22.834  22.743  1.00  0.00    -0.275 OA
ATOM      5  H   UNL A   1      38.573  22.774  24.101  1.00  0.00     0.163 HD
BRANCH   3   6
ATOM      6  C   UNL A   1      35.376  23.674  24.606  1.00  0.00     0.123 C 
BRANCH   6   7
ATOM      7  C   UNL A   1      34.146  23.478  23.733  1.00  0.00     0.138 C 
ATOM      8  Br  UNL A   1      33.223  25.194  23.455  1.00  0.00    -0.080 Br
BRANCH   7   9
ATOM      9  C   UNL A   1      33.061  22.507  24.188  1.00  0.00     0.176 C 
ATOM     10  O   UNL A   1      31.949  22.943  24.501  1.00  0.00    -0.293 OA
BRANCH   9  11
ATOM     11  C   UNL A   1      33.253  21.020  24.229  1.00  0.00     0.019 A 
ATOM     12  C   UNL A   1      33.607  18.220  23.974  1.00  0.00    -0.048 A 
ATOM     13  C   UNL A   1      32.502  18.853  23.398  1.00  0.00     0.004 A 
ATOM     14  C   UNL A   1      34.514  19.005  24.703  1.00  0.00     0.004 A 
ATOM     15  C   UNL A   1      32.317  20.231  23.544  1.00  0.00     0.012 A 
ATOM     16  C   UNL A   1      34.334  20.387  24.844  1.00  0.00     0.012 A 
BRANCH  12  17
ATOM     17  C   UNL A   1      33.889  16.745  23.801  1.00  0.00     0.032 C 
ATOM     18  C   UNL A   1      33.799  15.892  25.061  1.00  0.00     0.009 C 
ENDBRANCH  12  17
ENDBRANCH   9  11
ENDBRANCH   7   9
ENDBRANCH   6   7
ENDBRANCH   3   6
ENDBRANCH   1   2
BRANCH   1  19
ATOM     19  C   UNL A   1      39.269  22.477  26.504  1.00  0.00     0.042 C 
BRANCH  19  20
ATOM     20  C   UNL A   1      40.336  23.361  27.131  1.00  0.00     0.118 C 
BRANCH  20  21
ATOM     21  N   UNL A   1      41.022  24.165  26.126  1.00  0.00    -0.352 N 
ATOM     22  C   UNL A   1      41.258  25.517  26.067  1.00  0.00     0.251 C 
ATOM     23  H   UNL A   1      41.375  23.654  25.363  1.00  0.00     0.163 HD
ATOM     24  O   UNL A   1      41.631  26.003  25.003  1.00  0.00    -0.269 OA
BRANCH  22  25
ATOM     25  C   UNL A   1      41.061  26.387  27.250  1.00  0.00     0.039 A 
ATOM     26  C   UNL A   1      40.087  26.035  28.193  1.00  0.00     0.014 A 
ATOM     27  C   UNL A   1      41.782  27.571  27.418  1.00  0.00     0.014 A 
ATOM     28  C   UNL A   1      39.884  26.836  29.321  1.00  0.00     0.010 A 
ATOM     29  C   UNL A   1      41.653  28.309  28.590  1.00  0.00     0.010 A 
ATOM     30  C   UNL A   1      40.691  27.962  29.548  1.00  0.00    -0.014 A 
BRANCH  30  31
ATOM     31  C   UNL A   1      40.537  28.800  30.767  1.00  0.00     0.031 A 
ATOM     32  C   UNL A   1      39.490  29.882  30.812  1.00  0.00     0.074 A 
ATOM     33  C   UNL A   1      41.388  28.637  31.800  1.00  0.00     0.049 A 
ATOM     34  N   UNL A   1      39.263  30.775  31.741  1.00  0.00    -0.248 NA
ATOM     35  C   UNL A   1      38.601  29.997  29.644  1.00  0.00     0.031 C 
ATOM     36  C   UNL A   1      42.480  27.663  31.851  1.00  0.00     0.029 A 
ATOM     37  N   UNL A   1      41.478  29.299  32.999  1.00  0.00    -0.354 N 
ATOM     38  C   UNL A   1      38.229  31.570  31.261  1.00  0.00     0.074 A 
ATOM     39  C   UNL A   1      37.908  31.088  29.936  1.00  0.00     0.031 C 
ATOM     40  C   UNL A   1      43.115  27.774  33.029  1.00  0.00     0.029 A 
ATOM     41  C   UNL A   1      42.506  28.854  33.798  1.00  0.00     0.049 A 
ATOM     42  H   UNL A   1      40.865  30.022  33.263  1.00  0.00     0.167 HD
ATOM     43  C   UNL A   1      37.588  32.592  31.876  1.00  0.00     0.037 A 
ATOM     44  C   UNL A   1      42.919  29.276  35.009  1.00  0.00     0.037 A 
ATOM     45  C   UNL A   1      37.890  33.041  33.211  1.00  0.00     0.049 A 
ATOM     46  C   UNL A   1      42.182  30.401  35.682  1.00  0.00     0.074 A 
ATOM     47  C   UNL A   1      37.254  34.020  33.953  1.00  0.00     0.029 A 
ATOM     48  N   UNL A   1      38.916  32.542  34.002  1.00  0.00    -0.354 N 
ATOM     49  N   UNL A   1      41.160  31.098  35.240  1.00  0.00    -0.248 NA
ATOM     50  C   UNL A   1      42.646  30.796  37.018  1.00  0.00     0.031 C 
ATOM     51  C   UNL A   1      37.922  34.144  35.176  1.00  0.00     0.029 A 
ATOM     52  C   UNL A   1      38.943  33.207  35.216  1.00  0.00     0.049 A 
ATOM     53  H   UNL A   1      39.532  31.822  33.738  1.00  0.00     0.167 HD
ATOM     54  C   UNL A   1      40.845  31.995  36.254  1.00  0.00     0.074 A 
ATOM     55  C   UNL A   1      41.775  31.744  37.336  1.00  0.00     0.031 C 
ATOM     56  C   UNL A   1      39.873  32.941  36.286  1.00  0.00     0.037 A 
BRANCH  43  57
ATOM     57  C   UNL A   1      36.495  33.293  31.114  1.00  0.00     0.058 A 
ATOM     58  C   UNL A   1      35.139  33.111  31.430  1.00  0.00     0.135 A 
ATOM     59  C   UNL A   1      36.807  34.179  30.070  1.00  0.00     0.135 A 
ATOM     60  F   UNL A   1      34.780  32.266  32.410  1.00  0.00    -0.206 F 
ATOM     61  C   UNL A   1      34.131  33.752  30.717  1.00  0.00     0.059 A 
ATOM     62  C   UNL A   1      35.817  34.855  29.362  1.00  0.00     0.059 A 
ATOM     63  F   UNL A   1      38.086  34.394  29.724  1.00  0.00    -0.206 F 
ATOM     64  C   UNL A   1      34.480  34.620  29.682  1.00  0.00     0.060 A 
BRANCH  64  65
ATOM     65  S   UNL A   1      33.160  35.440  28.764  1.00  0.00     0.124 S 
ATOM     66  O   UNL A   1      32.552  34.315  28.060  1.00  0.00    -0.237 OA
ATOM     67  O   UNL A   1      32.356  36.030  29.830  1.00  0.00    -0.237 OA
ATOM     68  O   UNL A   1      33.873  36.395  27.920  1.00  0.00    -0.744 OA
ENDBRANCH  64  65
ENDBRANCH  43  57
BRANCH  44  69
ATOM     69  C   UNL A   1      44.073  28.610  35.670  1.00  0.00     0.058 A 
ATOM     70  C   UNL A   1      45.388  29.027  35.416  1.00  0.00     0.135 A 
ATOM     71  C   UNL A   1      43.886  27.567  36.589  1.00  0.00     0.135 A 
ATOM     72  F   UNL A   1      45.620  30.018  34.540  1.00  0.00    -0.206 F 
ATOM     73  C   UNL A   1      46.477  28.427  36.039  1.00  0.00     0.059 A 
ATOM     74  C   UNL A   1      44.957  26.968  37.245  1.00  0.00     0.059 A 
ATOM     75  F   UNL A   1      42.646  27.142  36.880  1.00  0.00    -0.206 F 
ATOM     76  C   UNL A   1      46.251  27.400  36.957  1.00  0.00     0.060 A 
BRANCH  76  77
ATOM     77  S   UNL A   1      47.669  26.670  37.804  1.00  0.00     0.124 S 
ATOM     78  O   UNL A   1      47.329  25.252  37.778  1.00  0.00    -0.237 OA
ATOM     79  O   UNL A   1      48.780  27.075  36.948  1.00  0.00    -0.237 OA
ATOM     80  O   UNL A   1      47.638  27.303  39.119  1.00  0.00    -0.744 OA
ENDBRANCH  76  77
ENDBRANCH  44  69
BRANCH  56  81
ATOM     81  C   UNL A   1      39.740  33.754  37.544  1.00  0.00     0.058 A 
ATOM     82  C   UNL A   1      40.418  34.971  37.712  1.00  0.00     0.135 A 
ATOM     83  C   UNL A   1      38.876  33.336  38.570  1.00  0.00     0.135 A 
ATOM     84  F   UNL A   1      41.260  35.411  36.764  1.00  0.00    -0.206 F 
ATOM     85  C   UNL A   1      40.264  35.734  38.865  1.00  0.00     0.059 A 
ATOM     86  C   UNL A   1      38.685  34.097  39.718  1.00  0.00     0.059 A 
ATOM     87  F   UNL A   1      38.195  32.185  38.454  1.00  0.00    -0.206 F 
ATOM     88  C   UNL A   1      39.392  35.290  39.862  1.00  0.00     0.060 A 
BRANCH  88  89
ATOM     89  S   UNL A   1      39.172  36.309  41.335  1.00  0.00     0.124 S 
ATOM     90  O   UNL A   1      40.449  36.122  42.015  1.00  0.00    -0.237 OA
ATOM     91  O   UNL A   1      38.943  37.634  40.768  1.00  0.00    -0.237 OA
ATOM     92  O   UNL A   1      38.016  35.708  41.994  1.00  0.00    -0.744 OA
ENDBRANCH  88  89
ENDBRANCH  56  81
ENDBRANCH  30  31
ENDBRANCH  22  25
ENDBRANCH  20  21
ENDBRANCH  19  20
ENDBRANCH   1  19
TORSDOF 17
ENDMDL
