MODEL 1
REMARK VINA RESULT:     -10.8      0.000      0.000
REMARK SMILES C[C@@H](CSc1nc(C(F)(F)F)ccc1C#N)C(=O)NCCCNC(=O)c1ccc(-c2c3nc(c(-c4c(F)cc(S(=O)(=O)[O-])cc4F)c4ccc([nH]4)c(-c4c(F)cc(S(=O)(=O)[O-])cc4F)c4nc(c(-c5c(F)cc(S(=O)(=O)[O-])cc5F)c5ccc2[nH]5)C=C4)C=C3)cc1
REMARK SMILES IDX 20 1 19 2 17 3 18 4 2 6 1 7 3 8 4 9 5 10 6 11 14 12 7 13
REMARK SMILES IDX 13 14 12 15 15 16 16 17 8 18 9 19 10 20 11 21 21 22 22 23
REMARK SMILES IDX 23 24 24 25 25 27 26 28 27 29 91 30 28 31 90 32 29 33 30 34
REMARK SMILES IDX 31 35 84 36 32 37 89 38 83 39 85 40 33 41 88 42 82 43 81 44
REMARK SMILES IDX 34 46 68 47 47 48 67 49 48 50 51 51 66 52 86 53 49 54 50 55
REMARK SMILES IDX 65 57 87 58 52 59 35 60 36 61 45 62 37 63 38 64 44 65 46 66
REMARK SMILES IDX 39 67 40 68 41 69 42 70 43 71 69 72 70 73 79 74 71 75 72 76
REMARK SMILES IDX 78 77 80 78 73 79 74 80 75 81 76 82 77 83 53 84 54 85 63 86
REMARK SMILES IDX 55 87 56 88 62 89 64 90 57 91 58 92 59 93 60 94 61 95
REMARK H PARENT 19 5 23 26 85 45 51 56
REMARK Flexibility Score: inf
ROOT
ATOM      1  C   UNL A   1      31.900  27.314  25.282  1.00  0.00     0.117 C 
ENDROOT
BRANCH   1   2
ATOM      2  N   UNL A   1      31.262  27.766  24.059  1.00  0.00    -0.356 N 
ATOM      3  C   UNL A   1      31.031  27.208  22.845  1.00  0.00     0.223 C 
ATOM      4  O   UNL A   1      30.411  27.924  22.044  1.00  0.00    -0.275 OA
ATOM      5  H   UNL A   1      30.918  28.686  24.126  1.00  0.00     0.163 HD
BRANCH   3   6
ATOM      6  C   UNL A   1      31.406  25.781  22.415  1.00  0.00     0.085 C 
ATOM      7  C   UNL A   1      32.866  25.615  21.972  1.00  0.00     0.019 C 
BRANCH   6   8
ATOM      8  C   UNL A   1      30.813  24.587  23.160  1.00  0.00     0.089 C 
BRANCH   8   9
ATOM      9  S   UNL A   1      31.678  22.951  23.214  1.00  0.00    -0.104 SA
BRANCH   9  10
ATOM     10  C   UNL A   1      32.967  22.858  24.467  1.00  0.00     0.115 A 
ATOM     11  N   UNL A   1      34.190  22.665  23.889  1.00  0.00    -0.236 NA
ATOM     12  C   UNL A   1      32.889  23.347  25.772  1.00  0.00     0.084 A 
ATOM     13  C   UNL A   1      35.332  23.077  24.535  1.00  0.00     0.145 A 
ATOM     14  C   UNL A   1      34.051  23.828  26.391  1.00  0.00     0.024 A 
ATOM     15  C   UNL A   1      35.277  23.725  25.760  1.00  0.00     0.035 A 
BRANCH  12  16
ATOM     16  C   UNL A   1      31.746  23.311  26.619  1.00  0.00     0.102 C 
ATOM     17  N   UNL A   1      30.841  23.449  27.330  1.00  0.00    -0.192 NA
ENDBRANCH  12  16
BRANCH  13  18
ATOM     18  C   UNL A   1      36.704  22.780  23.935  1.00  0.00     0.433 C 
ATOM     19  F   UNL A   1      36.651  22.642  22.579  1.00  0.00    -0.165 F 
ATOM     20  F   UNL A   1      37.634  23.743  24.183  1.00  0.00    -0.165 F 
ATOM     21  F   UNL A   1      37.248  21.616  24.396  1.00  0.00    -0.165 F 
ENDBRANCH  13  18
ENDBRANCH   9  10
ENDBRANCH   8   9
ENDBRANCH   6   8
ENDBRANCH   3   6
ENDBRANCH   1   2
BRANCH   1  22
ATOM     22  C   UNL A   1      33.418  27.385  25.211  1.00  0.00     0.042 C 
BRANCH  22  23
ATOM     23  C   UNL A   1      34.069  27.828  26.508  1.00  0.00     0.118 C 
BRANCH  23  24
ATOM     24  N   UNL A   1      33.694  29.188  26.875  1.00  0.00    -0.352 N 
ATOM     25  C   UNL A   1      34.366  30.127  27.625  1.00  0.00     0.251 C 
ATOM     26  H   UNL A   1      32.819  29.483  26.531  1.00  0.00     0.163 HD
ATOM     27  O   UNL A   1      33.773  31.140  27.988  1.00  0.00    -0.269 OA
BRANCH  25  28
ATOM     28  C   UNL A   1      35.777  29.912  28.019  1.00  0.00     0.039 A 
ATOM     29  C   UNL A   1      36.071  29.508  29.326  1.00  0.00     0.014 A 
ATOM     30  C   UNL A   1      36.817  30.117  27.111  1.00  0.00     0.014 A 
ATOM     31  C   UNL A   1      37.394  29.233  29.689  1.00  0.00     0.010 A 
ATOM     32  C   UNL A   1      38.111  29.728  27.436  1.00  0.00     0.010 A 
ATOM     33  C   UNL A   1      38.421  29.292  28.733  1.00  0.00    -0.014 A 
BRANCH  33  34
ATOM     34  C   UNL A   1      39.826  28.929  29.056  1.00  0.00     0.031 A 
ATOM     35  C   UNL A   1      40.751  29.968  29.639  1.00  0.00     0.074 A 
ATOM     36  C   UNL A   1      40.295  27.703  28.748  1.00  0.00     0.049 A 
ATOM     37  N   UNL A   1      42.037  29.893  29.870  1.00  0.00    -0.248 NA
ATOM     38  C   UNL A   1      40.158  31.272  29.977  1.00  0.00     0.031 C 
ATOM     39  C   UNL A   1      39.511  26.621  28.149  1.00  0.00     0.029 A 
ATOM     40  N   UNL A   1      41.551  27.163  28.880  1.00  0.00    -0.354 N 
ATOM     41  C   UNL A   1      42.406  31.142  30.359  1.00  0.00     0.074 A 
ATOM     42  C   UNL A   1      41.225  31.973  30.331  1.00  0.00     0.031 C 
ATOM     43  C   UNL A   1      40.296  25.544  27.987  1.00  0.00     0.029 A 
ATOM     44  C   UNL A   1      41.652  25.872  28.414  1.00  0.00     0.049 A 
ATOM     45  H   UNL A   1      42.310  27.653  29.272  1.00  0.00     0.167 HD
ATOM     46  C   UNL A   1      43.615  31.551  30.812  1.00  0.00     0.037 A 
ATOM     47  C   UNL A   1      42.718  25.052  28.320  1.00  0.00     0.037 A 
ATOM     48  C   UNL A   1      44.781  30.709  30.854  1.00  0.00     0.049 A 
ATOM     49  C   UNL A   1      44.061  25.540  28.799  1.00  0.00     0.074 A 
ATOM     50  C   UNL A   1      46.040  31.010  31.344  1.00  0.00     0.029 A 
ATOM     51  N   UNL A   1      44.836  29.405  30.384  1.00  0.00    -0.354 N 
ATOM     52  N   UNL A   1      44.379  26.705  29.312  1.00  0.00    -0.248 NA
ATOM     53  C   UNL A   1      45.189  24.604  28.689  1.00  0.00     0.031 C 
ATOM     54  C   UNL A   1      46.872  29.913  31.108  1.00  0.00     0.029 A 
ATOM     55  C   UNL A   1      46.115  28.898  30.544  1.00  0.00     0.049 A 
ATOM     56  H   UNL A   1      44.077  28.911  29.995  1.00  0.00     0.167 HD
ATOM     57  C   UNL A   1      45.732  26.627  29.623  1.00  0.00     0.074 A 
ATOM     58  C   UNL A   1      46.173  25.302  29.243  1.00  0.00     0.031 C 
ATOM     59  C   UNL A   1      46.535  27.568  30.178  1.00  0.00     0.037 A 
BRANCH  46  60
ATOM     60  C   UNL A   1      43.742  32.972  31.294  1.00  0.00     0.058 A 
ATOM     61  C   UNL A   1      44.091  34.022  30.428  1.00  0.00     0.135 A 
ATOM     62  C   UNL A   1      43.467  33.297  32.633  1.00  0.00     0.135 A 
ATOM     63  F   UNL A   1      44.380  33.771  29.140  1.00  0.00    -0.206 F 
ATOM     64  C   UNL A   1      44.193  35.335  30.878  1.00  0.00     0.059 A 
ATOM     65  C   UNL A   1      43.527  34.608  33.096  1.00  0.00     0.059 A 
ATOM     66  F   UNL A   1      43.128  32.335  33.506  1.00  0.00    -0.206 F 
ATOM     67  C   UNL A   1      43.905  35.618  32.214  1.00  0.00     0.060 A 
BRANCH  67  68
ATOM     68  S   UNL A   1      44.033  37.328  32.775  1.00  0.00     0.124 S 
ATOM     69  O   UNL A   1      45.378  37.350  33.341  1.00  0.00    -0.237 OA
ATOM     70  O   UNL A   1      43.855  38.075  31.535  1.00  0.00    -0.237 OA
ATOM     71  O   UNL A   1      42.945  37.452  33.741  1.00  0.00    -0.744 OA
ENDBRANCH  67  68
ENDBRANCH  46  60
BRANCH  47  72
ATOM     72  C   UNL A   1      42.559  23.683  27.755  1.00  0.00     0.058 A 
ATOM     73  C   UNL A   1      42.571  23.466  26.369  1.00  0.00     0.135 A 
ATOM     74  C   UNL A   1      42.399  22.564  28.588  1.00  0.00     0.135 A 
ATOM     75  F   UNL A   1      42.713  24.502  25.528  1.00  0.00    -0.206 F 
ATOM     76  C   UNL A   1      42.413  22.194  25.828  1.00  0.00     0.059 A 
ATOM     77  C   UNL A   1      42.271  21.279  28.071  1.00  0.00     0.059 A 
ATOM     78  F   UNL A   1      42.399  22.711  29.922  1.00  0.00    -0.206 F 
ATOM     79  C   UNL A   1      42.269  21.104  26.689  1.00  0.00     0.060 A 
BRANCH  79  80
ATOM     80  S   UNL A   1      42.115  19.452  25.978  1.00  0.00     0.124 S 
ATOM     81  O   UNL A   1      42.942  19.567  24.783  1.00  0.00    -0.237 OA
ATOM     82  O   UNL A   1      42.646  18.611  27.047  1.00  0.00    -0.237 OA
ATOM     83  O   UNL A   1      40.680  19.321  25.743  1.00  0.00    -0.744 OA
ENDBRANCH  79  80
ENDBRANCH  47  72
BRANCH  59  84
ATOM     84  C   UNL A   1      47.963  27.194  30.471  1.00  0.00     0.058 A 
ATOM     85  C   UNL A   1      48.994  27.404  29.543  1.00  0.00     0.135 A 
ATOM     86  C   UNL A   1      48.315  26.709  31.742  1.00  0.00     0.135 A 
ATOM     87  F   UNL A   1      48.711  27.857  28.311  1.00  0.00    -0.206 F 
ATOM     88  C   UNL A   1      50.322  27.140  29.862  1.00  0.00     0.059 A 
ATOM     89  C   UNL A   1      49.638  26.469  32.094  1.00  0.00     0.059 A 
ATOM     90  F   UNL A   1      47.368  26.496  32.671  1.00  0.00    -0.206 F 
ATOM     91  C   UNL A   1      50.636  26.685  31.144  1.00  0.00     0.060 A 
BRANCH  91  92
ATOM     92  S   UNL A   1      52.371  26.418  31.566  1.00  0.00     0.124 S 
ATOM     93  O   UNL A   1      52.499  27.200  32.792  1.00  0.00    -0.237 OA
ATOM     94  O   UNL A   1      52.429  24.969  31.730  1.00  0.00    -0.237 OA
ATOM     95  O   UNL A   1      53.089  26.943  30.409  1.00  0.00    -0.744 OA
ENDBRANCH  91  92
ENDBRANCH  59  84
ENDBRANCH  33  34
ENDBRANCH  25  28
ENDBRANCH  23  24
ENDBRANCH  22  23
ENDBRANCH   1  22
TORSDOF 18
ENDMDL
MODEL 2
REMARK VINA RESULT:     -10.3      3.708      8.158
REMARK SMILES C[C@@H](CSc1nc(C(F)(F)F)ccc1C#N)C(=O)NCCCNC(=O)c1ccc(-c2c3nc(c(-c4c(F)cc(S(=O)(=O)[O-])cc4F)c4ccc([nH]4)c(-c4c(F)cc(S(=O)(=O)[O-])cc4F)c4nc(c(-c5c(F)cc(S(=O)(=O)[O-])cc5F)c5ccc2[nH]5)C=C4)C=C3)cc1
REMARK SMILES IDX 20 1 19 2 17 3 18 4 2 6 1 7 3 8 4 9 5 10 6 11 14 12 7 13
REMARK SMILES IDX 13 14 12 15 15 16 16 17 8 18 9 19 10 20 11 21 21 22 22 23
REMARK SMILES IDX 23 24 24 25 25 27 26 28 27 29 91 30 28 31 90 32 29 33 30 34
REMARK SMILES IDX 31 35 84 36 32 37 89 38 83 39 85 40 33 41 88 42 82 43 81 44
REMARK SMILES IDX 34 46 68 47 47 48 67 49 48 50 51 51 66 52 86 53 49 54 50 55
REMARK SMILES IDX 65 57 87 58 52 59 35 60 36 61 45 62 37 63 38 64 44 65 46 66
REMARK SMILES IDX 39 67 40 68 41 69 42 70 43 71 69 72 70 73 79 74 71 75 72 76
REMARK SMILES IDX 78 77 80 78 73 79 74 80 75 81 76 82 77 83 53 84 54 85 63 86
REMARK SMILES IDX 55 87 56 88 62 89 64 90 57 91 58 92 59 93 60 94 61 95
REMARK H PARENT 19 5 23 26 85 45 51 56
REMARK Flexibility Score: inf
ROOT
ATOM      1  C   UNL A   1      37.028  20.832  25.320  1.00  0.00     0.117 C 
ENDROOT
BRANCH   1   2
ATOM      2  N   UNL A   1      36.622  21.705  24.234  1.00  0.00    -0.356 N 
ATOM      3  C   UNL A   1      35.896  22.848  24.154  1.00  0.00     0.223 C 
ATOM      4  O   UNL A   1      35.790  23.327  23.015  1.00  0.00    -0.275 OA
ATOM      5  H   UNL A   1      36.948  21.399  23.357  1.00  0.00     0.163 HD
BRANCH   3   6
ATOM      6  C   UNL A   1      35.271  23.611  25.332  1.00  0.00     0.085 C 
ATOM      7  C   UNL A   1      34.505  24.880  24.930  1.00  0.00     0.019 C 
BRANCH   6   8
ATOM      8  C   UNL A   1      34.673  22.834  26.503  1.00  0.00     0.089 C 
BRANCH   8   9
ATOM      9  S   UNL A   1      33.233  21.693  26.274  1.00  0.00    -0.104 SA
BRANCH   9  10
ATOM     10  C   UNL A   1      33.288  20.762  24.735  1.00  0.00     0.115 A 
ATOM     11  N   UNL A   1      33.776  19.503  24.949  1.00  0.00    -0.236 NA
ATOM     12  C   UNL A   1      32.555  21.032  23.578  1.00  0.00     0.084 A 
ATOM     13  C   UNL A   1      33.433  18.477  24.101  1.00  0.00     0.145 A 
ATOM     14  C   UNL A   1      32.153  19.965  22.762  1.00  0.00     0.024 A 
ATOM     15  C   UNL A   1      32.565  18.674  23.038  1.00  0.00     0.035 A 
BRANCH  12  16
ATOM     16  C   UNL A   1      32.250  22.319  23.053  1.00  0.00     0.102 C 
ATOM     17  N   UNL A   1      32.100  23.427  22.752  1.00  0.00    -0.192 NA
ENDBRANCH  12  16
BRANCH  13  18
ATOM     18  C   UNL A   1      34.051  17.092  24.282  1.00  0.00     0.433 C 
ATOM     19  F   UNL A   1      33.439  16.385  25.276  1.00  0.00    -0.165 F 
ATOM     20  F   UNL A   1      33.991  16.312  23.168  1.00  0.00    -0.165 F 
ATOM     21  F   UNL A   1      35.370  17.136  24.629  1.00  0.00    -0.165 F 
ENDBRANCH  13  18
ENDBRANCH   9  10
ENDBRANCH   8   9
ENDBRANCH   6   8
ENDBRANCH   3   6
ENDBRANCH   1   2
BRANCH   1  22
ATOM     22  C   UNL A   1      38.330  20.101  25.027  1.00  0.00     0.042 C 
BRANCH  22  23
ATOM     23  C   UNL A   1      39.423  20.371  26.044  1.00  0.00     0.118 C 
BRANCH  23  24
ATOM     24  N   UNL A   1      40.427  19.316  26.068  1.00  0.00    -0.352 N 
ATOM     25  C   UNL A   1      41.800  19.391  26.129  1.00  0.00     0.251 C 
ATOM     26  H   UNL A   1      40.065  18.400  26.035  1.00  0.00     0.163 HD
ATOM     27  O   UNL A   1      42.466  18.379  25.927  1.00  0.00    -0.269 OA
BRANCH  25  28
ATOM     28  C   UNL A   1      42.476  20.679  26.407  1.00  0.00     0.039 A 
ATOM     29  C   UNL A   1      42.989  21.428  25.343  1.00  0.00     0.014 A 
ATOM     30  C   UNL A   1      42.616  21.152  27.713  1.00  0.00     0.014 A 
ATOM     31  C   UNL A   1      43.565  22.680  25.586  1.00  0.00     0.010 A 
ATOM     32  C   UNL A   1      43.076  22.444  27.940  1.00  0.00     0.010 A 
ATOM     33  C   UNL A   1      43.568  23.222  26.882  1.00  0.00    -0.014 A 
BRANCH  33  34
ATOM     34  C   UNL A   1      44.096  24.581  27.171  1.00  0.00     0.031 A 
ATOM     35  C   UNL A   1      43.149  25.676  27.594  1.00  0.00     0.074 A 
ATOM     36  C   UNL A   1      45.401  24.857  26.972  1.00  0.00     0.049 A 
ATOM     37  N   UNL A   1      43.384  26.952  27.767  1.00  0.00    -0.248 NA
ATOM     38  C   UNL A   1      41.746  25.291  27.822  1.00  0.00     0.031 C 
ATOM     39  C   UNL A   1      46.412  23.894  26.530  1.00  0.00     0.029 A 
ATOM     40  N   UNL A   1      46.100  26.032  27.096  1.00  0.00    -0.354 N 
ATOM     41  C   UNL A   1      42.159  27.520  28.102  1.00  0.00     0.074 A 
ATOM     42  C   UNL A   1      41.174  26.465  28.046  1.00  0.00     0.031 C 
ATOM     43  C   UNL A   1      47.601  24.511  26.443  1.00  0.00     0.029 A 
ATOM     44  C   UNL A   1      47.431  25.924  26.765  1.00  0.00     0.049 A 
ATOM     45  H   UNL A   1      45.687  26.875  27.396  1.00  0.00     0.167 HD
ATOM     46  C   UNL A   1      41.886  28.801  28.447  1.00  0.00     0.037 A 
ATOM     47  C   UNL A   1      48.401  26.860  26.704  1.00  0.00     0.037 A 
ATOM     48  C   UNL A   1      42.878  29.839  28.520  1.00  0.00     0.049 A 
ATOM     49  C   UNL A   1      48.066  28.285  27.060  1.00  0.00     0.074 A 
ATOM     50  C   UNL A   1      42.715  31.157  28.911  1.00  0.00     0.029 A 
ATOM     51  N   UNL A   1      44.216  29.684  28.188  1.00  0.00    -0.354 N 
ATOM     52  N   UNL A   1      46.914  28.792  27.431  1.00  0.00    -0.248 NA
ATOM     53  C   UNL A   1      49.160  29.264  26.994  1.00  0.00     0.031 C 
ATOM     54  C   UNL A   1      43.937  31.814  28.751  1.00  0.00     0.029 A 
ATOM     55  C   UNL A   1      44.883  30.889  28.336  1.00  0.00     0.049 A 
ATOM     56  H   UNL A   1      44.631  28.842  27.891  1.00  0.00     0.167 HD
ATOM     57  C   UNL A   1      47.154  30.139  27.680  1.00  0.00     0.074 A 
ATOM     58  C   UNL A   1      48.560  30.368  27.420  1.00  0.00     0.031 C 
ATOM     59  C   UNL A   1      46.289  31.098  28.092  1.00  0.00     0.037 A 
BRANCH  46  60
ATOM     60  C   UNL A   1      40.457  29.152  28.770  1.00  0.00     0.058 A 
ATOM     61  C   UNL A   1      40.002  29.269  30.094  1.00  0.00     0.135 A 
ATOM     62  C   UNL A   1      39.540  29.421  27.740  1.00  0.00     0.135 A 
ATOM     63  F   UNL A   1      40.829  29.010  31.120  1.00  0.00    -0.206 F 
ATOM     64  C   UNL A   1      38.684  29.607  30.384  1.00  0.00     0.059 A 
ATOM     65  C   UNL A   1      38.227  29.796  28.008  1.00  0.00     0.059 A 
ATOM     66  F   UNL A   1      39.918  29.326  26.456  1.00  0.00    -0.206 F 
ATOM     67  C   UNL A   1      37.805  29.873  29.333  1.00  0.00     0.060 A 
BRANCH  67  68
ATOM     68  S   UNL A   1      36.103  30.320  29.731  1.00  0.00     0.124 S 
ATOM     69  O   UNL A   1      35.373  29.704  28.628  1.00  0.00    -0.237 OA
ATOM     70  O   UNL A   1      35.916  29.699  31.039  1.00  0.00    -0.237 OA
ATOM     71  O   UNL A   1      36.124  31.780  29.729  1.00  0.00    -0.744 OA
ENDBRANCH  67  68
ENDBRANCH  46  60
BRANCH  47  72
ATOM     72  C   UNL A   1      49.781  26.477  26.295  1.00  0.00     0.058 A 
ATOM     73  C   UNL A   1      50.226  26.670  24.979  1.00  0.00     0.135 A 
ATOM     74  C   UNL A   1      50.685  25.919  27.213  1.00  0.00     0.135 A 
ATOM     75  F   UNL A   1      49.399  27.192  24.060  1.00  0.00    -0.206 F 
ATOM     76  C   UNL A   1      51.509  26.308  24.582  1.00  0.00     0.059 A 
ATOM     77  C   UNL A   1      51.984  25.579  26.847  1.00  0.00     0.059 A 
ATOM     78  F   UNL A   1      50.320  25.731  28.491  1.00  0.00    -0.206 F 
ATOM     79  C   UNL A   1      52.384  25.767  25.526  1.00  0.00     0.060 A 
BRANCH  79  80
ATOM     80  S   UNL A   1      54.063  25.347  25.013  1.00  0.00     0.124 S 
ATOM     81  O   UNL A   1      54.130  25.963  23.693  1.00  0.00    -0.237 OA
ATOM     82  O   UNL A   1      54.866  25.978  26.056  1.00  0.00    -0.237 OA
ATOM     83  O   UNL A   1      54.063  23.888  25.030  1.00  0.00    -0.744 OA
ENDBRANCH  79  80
ENDBRANCH  47  72
BRANCH  59  84
ATOM     84  C   UNL A   1      46.834  32.477  28.351  1.00  0.00     0.058 A 
ATOM     85  C   UNL A   1      46.814  33.481  27.371  1.00  0.00     0.135 A 
ATOM     86  C   UNL A   1      47.291  32.822  29.634  1.00  0.00     0.135 A 
ATOM     87  F   UNL A   1      46.396  33.203  26.126  1.00  0.00    -0.206 F 
ATOM     88  C   UNL A   1      47.235  34.777  27.653  1.00  0.00     0.059 A 
ATOM     89  C   UNL A   1      47.684  34.118  29.947  1.00  0.00     0.059 A 
ATOM     90  F   UNL A   1      47.324  31.900  30.611  1.00  0.00    -0.206 F 
ATOM     91  C   UNL A   1      47.657  35.089  28.948  1.00  0.00     0.060 A 
BRANCH  91  92
ATOM     92  S   UNL A   1      48.129  36.792  29.316  1.00  0.00     0.124 S 
ATOM     93  O   UNL A   1      48.441  36.710  30.739  1.00  0.00    -0.237 OA
ATOM     94  O   UNL A   1      49.269  36.995  28.428  1.00  0.00    -0.237 OA
ATOM     95  O   UNL A   1      46.933  37.559  28.979  1.00  0.00    -0.744 OA
ENDBRANCH  91  92
ENDBRANCH  59  84
ENDBRANCH  33  34
ENDBRANCH  25  28
ENDBRANCH  23  24
ENDBRANCH  22  23
ENDBRANCH   1  22
TORSDOF 18
ENDMDL
MODEL 3
REMARK VINA RESULT:     -10.3      1.589      2.307
REMARK SMILES C[C@@H](CSc1nc(C(F)(F)F)ccc1C#N)C(=O)NCCCNC(=O)c1ccc(-c2c3nc(c(-c4c(F)cc(S(=O)(=O)[O-])cc4F)c4ccc([nH]4)c(-c4c(F)cc(S(=O)(=O)[O-])cc4F)c4nc(c(-c5c(F)cc(S(=O)(=O)[O-])cc5F)c5ccc2[nH]5)C=C4)C=C3)cc1
REMARK SMILES IDX 20 1 19 2 17 3 18 4 2 6 1 7 3 8 4 9 5 10 6 11 14 12 7 13
REMARK SMILES IDX 13 14 12 15 15 16 16 17 8 18 9 19 10 20 11 21 21 22 22 23
REMARK SMILES IDX 23 24 24 25 25 27 26 28 27 29 91 30 28 31 90 32 29 33 30 34
REMARK SMILES IDX 31 35 84 36 32 37 89 38 83 39 85 40 33 41 88 42 82 43 81 44
REMARK SMILES IDX 34 46 68 47 47 48 67 49 48 50 51 51 66 52 86 53 49 54 50 55
REMARK SMILES IDX 65 57 87 58 52 59 35 60 36 61 45 62 37 63 38 64 44 65 46 66
REMARK SMILES IDX 39 67 40 68 41 69 42 70 43 71 69 72 70 73 79 74 71 75 72 76
REMARK SMILES IDX 78 77 80 78 73 79 74 80 75 81 76 82 77 83 53 84 54 85 63 86
REMARK SMILES IDX 55 87 56 88 62 89 64 90 57 91 58 92 59 93 60 94 61 95
REMARK H PARENT 19 5 23 26 85 45 51 56
REMARK Flexibility Score: inf
ROOT
ATOM      1  C   UNL A   1      33.014  26.969  24.896  1.00  0.00     0.117 C 
ENDROOT
BRANCH   1   2
ATOM      2  N   UNL A   1      32.653  25.903  25.814  1.00  0.00    -0.356 N 
ATOM      3  C   UNL A   1      31.688  24.952  25.834  1.00  0.00     0.223 C 
ATOM      4  O   UNL A   1      31.726  24.181  26.805  1.00  0.00    -0.275 OA
ATOM      5  H   UNL A   1      33.246  25.861  26.599  1.00  0.00     0.163 HD
BRANCH   3   6
ATOM      6  C   UNL A   1      30.622  24.716  24.752  1.00  0.00     0.085 C 
ATOM      7  C   UNL A   1      29.883  25.983  24.303  1.00  0.00     0.019 C 
BRANCH   6   8
ATOM      8  C   UNL A   1      30.879  23.688  23.650  1.00  0.00     0.089 C 
BRANCH   8   9
ATOM      9  S   UNL A   1      32.597  23.249  23.118  1.00  0.00    -0.104 SA
BRANCH   9  10
ATOM     10  C   UNL A   1      33.433  22.117  24.240  1.00  0.00     0.115 A 
ATOM     11  N   UNL A   1      32.970  20.842  24.074  1.00  0.00    -0.236 NA
ATOM     12  C   UNL A   1      34.664  22.331  24.864  1.00  0.00     0.084 A 
ATOM     13  C   UNL A   1      33.769  19.771  24.396  1.00  0.00     0.145 A 
ATOM     14  C   UNL A   1      35.497  21.233  25.121  1.00  0.00     0.024 A 
ATOM     15  C   UNL A   1      35.065  19.946  24.858  1.00  0.00     0.035 A 
BRANCH  12  16
ATOM     16  C   UNL A   1      35.141  23.564  25.389  1.00  0.00     0.102 C 
ATOM     17  N   UNL A   1      35.685  24.496  25.811  1.00  0.00    -0.192 NA
ENDBRANCH  12  16
BRANCH  13  18
ATOM     18  C   UNL A   1      33.222  18.349  24.301  1.00  0.00     0.433 C 
ATOM     19  F   UNL A   1      33.524  17.762  23.107  1.00  0.00    -0.165 F 
ATOM     20  F   UNL A   1      33.693  17.511  25.266  1.00  0.00    -0.165 F 
ATOM     21  F   UNL A   1      31.861  18.292  24.398  1.00  0.00    -0.165 F 
ENDBRANCH  13  18
ENDBRANCH   9  10
ENDBRANCH   8   9
ENDBRANCH   6   8
ENDBRANCH   3   6
ENDBRANCH   1   2
BRANCH   1  22
ATOM     22  C   UNL A   1      33.911  28.016  25.539  1.00  0.00     0.042 C 
BRANCH  22  23
ATOM     23  C   UNL A   1      33.643  28.222  27.018  1.00  0.00     0.118 C 
BRANCH  23  24
ATOM     24  N   UNL A   1      33.599  29.634  27.378  1.00  0.00    -0.352 N 
ATOM     25  C   UNL A   1      34.535  30.425  28.005  1.00  0.00     0.251 C 
ATOM     26  H   UNL A   1      32.764  30.097  27.134  1.00  0.00     0.163 HD
ATOM     27  O   UNL A   1      34.209  31.542  28.400  1.00  0.00    -0.269 OA
BRANCH  25  28
ATOM     28  C   UNL A   1      35.913  29.933  28.230  1.00  0.00     0.039 A 
ATOM     29  C   UNL A   1      36.846  30.005  27.190  1.00  0.00     0.014 A 
ATOM     30  C   UNL A   1      36.292  29.390  29.459  1.00  0.00     0.014 A 
ATOM     31  C   UNL A   1      38.170  29.610  27.413  1.00  0.00     0.010 A 
ATOM     32  C   UNL A   1      37.630  29.113  29.714  1.00  0.00     0.010 A 
ATOM     33  C   UNL A   1      38.586  29.206  28.692  1.00  0.00    -0.014 A 
BRANCH  33  34
ATOM     34  C   UNL A   1      39.999  28.857  28.992  1.00  0.00     0.031 A 
ATOM     35  C   UNL A   1      40.925  29.904  29.556  1.00  0.00     0.074 A 
ATOM     36  C   UNL A   1      40.474  27.634  28.679  1.00  0.00     0.049 A 
ATOM     37  N   UNL A   1      42.216  29.842  29.765  1.00  0.00    -0.248 NA
ATOM     38  C   UNL A   1      40.327  31.205  29.902  1.00  0.00     0.031 C 
ATOM     39  C   UNL A   1      39.689  26.544  28.095  1.00  0.00     0.029 A 
ATOM     40  N   UNL A   1      41.737  27.105  28.789  1.00  0.00    -0.354 N 
ATOM     41  C   UNL A   1      42.582  31.095  30.245  1.00  0.00     0.074 A 
ATOM     42  C   UNL A   1      41.393  31.916  30.236  1.00  0.00     0.031 C 
ATOM     43  C   UNL A   1      40.481  25.473  27.922  1.00  0.00     0.029 A 
ATOM     44  C   UNL A   1      41.841  25.815  28.324  1.00  0.00     0.049 A 
ATOM     45  H   UNL A   1      42.498  27.603  29.167  1.00  0.00     0.167 HD
ATOM     46  C   UNL A   1      43.796  31.516  30.675  1.00  0.00     0.037 A 
ATOM     47  C   UNL A   1      42.913  25.004  28.214  1.00  0.00     0.037 A 
ATOM     48  C   UNL A   1      44.969  30.684  30.699  1.00  0.00     0.049 A 
ATOM     49  C   UNL A   1      44.259  25.504  28.667  1.00  0.00     0.074 A 
ATOM     50  C   UNL A   1      46.233  30.997  31.166  1.00  0.00     0.029 A 
ATOM     51  N   UNL A   1      45.027  29.379  30.231  1.00  0.00    -0.354 N 
ATOM     52  N   UNL A   1      44.576  26.673  29.172  1.00  0.00    -0.248 NA
ATOM     53  C   UNL A   1      45.394  24.579  28.540  1.00  0.00     0.031 C 
ATOM     54  C   UNL A   1      47.071  29.907  30.918  1.00  0.00     0.029 A 
ATOM     55  C   UNL A   1      46.313  28.885  30.369  1.00  0.00     0.049 A 
ATOM     56  H   UNL A   1      44.267  28.879  29.856  1.00  0.00     0.167 HD
ATOM     57  C   UNL A   1      45.934  26.608  29.460  1.00  0.00     0.074 A 
ATOM     58  C   UNL A   1      46.380  25.286  29.075  1.00  0.00     0.031 C 
ATOM     59  C   UNL A   1      46.738  27.557  30.000  1.00  0.00     0.037 A 
BRANCH  46  60
ATOM     60  C   UNL A   1      43.918  32.939  31.152  1.00  0.00     0.058 A 
ATOM     61  C   UNL A   1      44.290  33.983  30.289  1.00  0.00     0.135 A 
ATOM     62  C   UNL A   1      43.615  33.272  32.484  1.00  0.00     0.135 A 
ATOM     63  F   UNL A   1      44.606  33.723  29.009  1.00  0.00    -0.206 F 
ATOM     64  C   UNL A   1      44.389  35.297  30.734  1.00  0.00     0.059 A 
ATOM     65  C   UNL A   1      43.671  34.586  32.941  1.00  0.00     0.059 A 
ATOM     66  F   UNL A   1      43.253  32.317  33.354  1.00  0.00    -0.206 F 
ATOM     67  C   UNL A   1      44.073  35.589  32.062  1.00  0.00     0.060 A 
BRANCH  67  68
ATOM     68  S   UNL A   1      44.195  37.302  32.616  1.00  0.00     0.124 S 
ATOM     69  O   UNL A   1      43.879  38.029  31.390  1.00  0.00    -0.237 OA
ATOM     70  O   UNL A   1      43.183  37.361  33.666  1.00  0.00    -0.237 OA
ATOM     71  O   UNL A   1      45.577  37.415  33.072  1.00  0.00    -0.744 OA
ENDBRANCH  67  68
ENDBRANCH  46  60
BRANCH  47  72
ATOM     72  C   UNL A   1      42.755  23.632  27.654  1.00  0.00     0.058 A 
ATOM     73  C   UNL A   1      42.397  22.552  28.474  1.00  0.00     0.135 A 
ATOM     74  C   UNL A   1      42.952  23.375  26.288  1.00  0.00     0.135 A 
ATOM     75  F   UNL A   1      42.205  22.742  29.788  1.00  0.00    -0.206 F 
ATOM     76  C   UNL A   1      42.256  21.264  27.965  1.00  0.00     0.059 A 
ATOM     77  C   UNL A   1      42.786  22.102  25.750  1.00  0.00     0.059 A 
ATOM     78  F   UNL A   1      43.277  24.375  25.453  1.00  0.00    -0.206 F 
ATOM     79  C   UNL A   1      42.448  21.051  26.599  1.00  0.00     0.060 A 
BRANCH  79  80
ATOM     80  S   UNL A   1      42.214  19.386  25.940  1.00  0.00     0.124 S 
ATOM     81  O   UNL A   1      42.748  18.564  27.020  1.00  0.00    -0.237 OA
ATOM     82  O   UNL A   1      40.768  19.335  25.752  1.00  0.00    -0.237 OA
ATOM     83  O   UNL A   1      42.998  19.401  24.710  1.00  0.00    -0.744 OA
ENDBRANCH  79  80
ENDBRANCH  47  72
BRANCH  59  84
ATOM     84  C   UNL A   1      48.175  27.196  30.268  1.00  0.00     0.058 A 
ATOM     85  C   UNL A   1      49.190  27.430  29.328  1.00  0.00     0.135 A 
ATOM     86  C   UNL A   1      48.550  26.700  31.528  1.00  0.00     0.135 A 
ATOM     87  F   UNL A   1      48.886  27.895  28.106  1.00  0.00    -0.206 F 
ATOM     88  C   UNL A   1      50.526  27.178  29.626  1.00  0.00     0.059 A 
ATOM     89  C   UNL A   1      49.881  26.472  31.859  1.00  0.00     0.059 A 
ATOM     90  F   UNL A   1      47.619  26.464  32.467  1.00  0.00    -0.206 F 
ATOM     91  C   UNL A   1      50.863  26.711  30.898  1.00  0.00     0.060 A 
BRANCH  91  92
ATOM     92  S   UNL A   1      52.606  26.460  31.293  1.00  0.00     0.124 S 
ATOM     93  O   UNL A   1      52.542  25.316  32.197  1.00  0.00    -0.237 OA
ATOM     94  O   UNL A   1      53.185  26.197  29.979  1.00  0.00    -0.237 OA
ATOM     95  O   UNL A   1      53.003  27.723  31.907  1.00  0.00    -0.744 OA
ENDBRANCH  91  92
ENDBRANCH  59  84
ENDBRANCH  33  34
ENDBRANCH  25  28
ENDBRANCH  23  24
ENDBRANCH  22  23
ENDBRANCH   1  22
TORSDOF 18
ENDMDL
