MODEL 1
REMARK VINA RESULT:     -11.9      0.000      0.000
REMARK SMILES O=C(NCCCNC(=O)c1ccc(S(=O)(=O)NCc2ccn[nH]2)c(F)c1)c1ccc(-c2c3nc(c(-c4c(F)cc(S(=O)(=O)[O-])cc4F)c4ccc([nH]4)c(-c4c(F)cc(S(=O)(=O)[O-])cc4F)c4nc(c(-c5c(F)cc(S(=O)(=O)[O-])cc5F)c5ccc2[nH]5)C=C4)C=C3)cc1
REMARK SMILES IDX 5 1 4 2 3 3 1 4 2 5 27 7 28 8 92 9 29 10 91 11 30 12 31 13
REMARK SMILES IDX 32 14 85 15 33 16 90 17 84 18 86 19 34 20 89 21 83 22 82 23
REMARK SMILES IDX 35 25 69 26 48 27 68 28 49 29 52 30 67 31 87 32 50 33 51 34
REMARK SMILES IDX 66 36 88 37 53 38 36 39 37 40 46 41 38 42 39 43 45 44 47 45
REMARK SMILES IDX 40 46 41 47 42 48 43 49 44 50 70 51 71 52 80 53 72 54 73 55
REMARK SMILES IDX 79 56 81 57 74 58 75 59 76 60 77 61 78 62 54 63 55 64 64 65
REMARK SMILES IDX 56 66 57 67 63 68 65 69 58 70 59 71 60 72 61 73 62 74 6 75
REMARK SMILES IDX 7 76 8 77 9 79 10 80 11 81 26 82 12 83 24 84 13 85 25 86
REMARK SMILES IDX 14 87 15 88 16 89 17 90 18 92 19 93 20 94 23 95 21 96 22 97
REMARK H PARENT 3 6 86 24 52 35 7 78 17 91 23 98
REMARK Flexibility Score: inf
ROOT
ATOM      1  C   UNL A   1      33.840  28.137  25.391  1.00  0.00     0.042 C 
ENDROOT
BRANCH   1   2
ATOM      2  C   UNL A   1      33.780  28.297  26.905  1.00  0.00     0.118 C 
BRANCH   2   3
ATOM      3  N   UNL A   1      33.614  29.681  27.321  1.00  0.00    -0.352 N 
ATOM      4  O   UNL A   1      34.026  31.589  28.427  1.00  0.00    -0.269 OA
ATOM      5  C   UNL A   1      34.455  30.511  28.023  1.00  0.00     0.251 C 
ATOM      6  H   UNL A   1      32.759  30.090  27.058  1.00  0.00     0.163 HD
BRANCH   5   7
ATOM      7  C   UNL A   1      35.852  30.116  28.315  1.00  0.00     0.039 A 
ATOM      8  C   UNL A   1      36.225  29.620  29.567  1.00  0.00     0.014 A 
ATOM      9  C   UNL A   1      36.799  30.191  27.288  1.00  0.00     0.014 A 
ATOM     10  C   UNL A   1      37.561  29.327  29.832  1.00  0.00     0.010 A 
ATOM     11  C   UNL A   1      38.124  29.825  27.533  1.00  0.00     0.010 A 
ATOM     12  C   UNL A   1      38.524  29.416  28.815  1.00  0.00    -0.014 A 
BRANCH  12  13
ATOM     13  C   UNL A   1      39.933  29.033  29.078  1.00  0.00     0.031 A 
ATOM     14  C   UNL A   1      40.897  30.018  29.675  1.00  0.00     0.074 A 
ATOM     15  C   UNL A   1      40.349  27.793  28.756  1.00  0.00     0.049 A 
ATOM     16  N   UNL A   1      42.179  29.884  29.899  1.00  0.00    -0.248 NA
ATOM     17  C   UNL A   1      40.352  31.327  30.068  1.00  0.00     0.031 C 
ATOM     18  C   UNL A   1      39.503  26.747  28.177  1.00  0.00     0.029 A 
ATOM     19  N   UNL A   1      41.582  27.203  28.861  1.00  0.00    -0.354 N 
ATOM     20  C   UNL A   1      42.602  31.095  30.430  1.00  0.00     0.074 A 
ATOM     21  C   UNL A   1      41.442  31.960  30.484  1.00  0.00     0.031 C 
ATOM     22  C   UNL A   1      40.236  25.639  27.998  1.00  0.00     0.029 A 
ATOM     23  C   UNL A   1      41.615  25.913  28.389  1.00  0.00     0.049 A 
ATOM     24  H   UNL A   1      42.369  27.659  29.239  1.00  0.00     0.167 HD
ATOM     25  C   UNL A   1      43.845  31.450  30.837  1.00  0.00     0.037 A 
ATOM     26  C   UNL A   1      42.643  25.051  28.254  1.00  0.00     0.037 A 
ATOM     27  C   UNL A   1      44.988  30.577  30.797  1.00  0.00     0.049 A 
ATOM     28  C   UNL A   1      44.019  25.477  28.672  1.00  0.00     0.074 A 
ATOM     29  C   UNL A   1      46.277  30.830  31.230  1.00  0.00     0.029 A 
ATOM     30  N   UNL A   1      44.983  29.287  30.285  1.00  0.00    -0.354 N 
ATOM     31  N   UNL A   1      44.398  26.619  29.193  1.00  0.00    -0.248 NA
ATOM     32  C   UNL A   1      45.107  24.511  28.477  1.00  0.00     0.031 C 
ATOM     33  C   UNL A   1      47.063  29.709  30.943  1.00  0.00     0.029 A 
ATOM     34  C   UNL A   1      46.253  28.740  30.368  1.00  0.00     0.049 A 
ATOM     35  H   UNL A   1      44.195  28.827  29.918  1.00  0.00     0.167 HD
ATOM     36  C   UNL A   1      45.767  26.506  29.399  1.00  0.00     0.074 A 
ATOM     37  C   UNL A   1      46.150  25.183  28.949  1.00  0.00     0.031 C 
ATOM     38  C   UNL A   1      46.623  27.420  29.918  1.00  0.00     0.037 A 
BRANCH  25  39
ATOM     39  C   UNL A   1      44.040  32.853  31.339  1.00  0.00     0.058 A 
ATOM     40  C   UNL A   1      44.384  33.883  30.449  1.00  0.00     0.135 A 
ATOM     41  C   UNL A   1      43.918  33.177  32.698  1.00  0.00     0.135 A 
ATOM     42  F   UNL A   1      44.510  33.628  29.137  1.00  0.00    -0.206 F 
ATOM     43  C   UNL A   1      44.597  35.185  30.888  1.00  0.00     0.059 A 
ATOM     44  C   UNL A   1      44.106  34.477  33.158  1.00  0.00     0.059 A 
ATOM     45  F   UNL A   1      43.573  32.233  33.590  1.00  0.00    -0.206 F 
ATOM     46  C   UNL A   1      44.452  35.475  32.245  1.00  0.00     0.060 A 
BRANCH  46  47
ATOM     47  S   UNL A   1      44.652  37.184  32.793  1.00  0.00     0.124 S 
ATOM     48  O   UNL A   1      43.466  37.375  33.618  1.00  0.00    -0.237 OA
ATOM     49  O   UNL A   1      45.924  37.133  33.507  1.00  0.00    -0.237 OA
ATOM     50  O   UNL A   1      44.678  37.935  31.541  1.00  0.00    -0.744 OA
ENDBRANCH  46  47
ENDBRANCH  25  39
BRANCH  26  51
ATOM     51  C   UNL A   1      42.372  23.703  27.694  1.00  0.00     0.058 A 
ATOM     52  C   UNL A   1      42.262  22.581  28.530  1.00  0.00     0.135 A 
ATOM     53  C   UNL A   1      42.346  23.496  26.308  1.00  0.00     0.135 A 
ATOM     54  F   UNL A   1      42.292  22.730  29.863  1.00  0.00    -0.206 F 
ATOM     55  C   UNL A   1      42.192  21.293  28.012  1.00  0.00     0.059 A 
ATOM     56  C   UNL A   1      42.256  22.217  25.765  1.00  0.00     0.059 A 
ATOM     57  F   UNL A   1      42.438  24.541  25.472  1.00  0.00    -0.206 F 
ATOM     58  C   UNL A   1      42.209  21.121  26.627  1.00  0.00     0.060 A 
BRANCH  58  59
ATOM     59  S   UNL A   1      42.211  19.439  25.973  1.00  0.00     0.124 S 
ATOM     60  O   UNL A   1      43.126  19.566  24.843  1.00  0.00    -0.237 OA
ATOM     61  O   UNL A   1      42.708  18.669  27.109  1.00  0.00    -0.237 OA
ATOM     62  O   UNL A   1      40.813  19.209  25.625  1.00  0.00    -0.744 OA
ENDBRANCH  58  59
ENDBRANCH  26  51
BRANCH  38  63
ATOM     63  C   UNL A   1      48.069  27.037  30.049  1.00  0.00     0.058 A 
ATOM     64  C   UNL A   1      48.561  26.533  31.262  1.00  0.00     0.135 A 
ATOM     65  C   UNL A   1      48.987  27.296  29.020  1.00  0.00     0.135 A 
ATOM     66  F   UNL A   1      47.720  26.269  32.276  1.00  0.00    -0.206 F 
ATOM     67  C   UNL A   1      49.921  26.337  31.468  1.00  0.00     0.059 A 
ATOM     68  C   UNL A   1      50.353  27.090  29.198  1.00  0.00     0.059 A 
ATOM     69  F   UNL A   1      48.561  27.764  27.836  1.00  0.00    -0.206 F 
ATOM     70  C   UNL A   1      50.812  26.635  30.435  1.00  0.00     0.060 A 
BRANCH  70  71
ATOM     71  S   UNL A   1      52.579  26.427  30.738  1.00  0.00     0.124 S 
ATOM     72  O   UNL A   1      52.603  25.206  31.534  1.00  0.00    -0.237 OA
ATOM     73  O   UNL A   1      53.113  26.313  29.384  1.00  0.00    -0.237 OA
ATOM     74  O   UNL A   1      52.947  27.649  31.448  1.00  0.00    -0.744 OA
ENDBRANCH  70  71
ENDBRANCH  38  63
ENDBRANCH  12  13
ENDBRANCH   5   7
ENDBRANCH   2   3
ENDBRANCH   1   2
BRANCH   1  75
ATOM     75  C   UNL A   1      33.496  26.744  24.877  1.00  0.00     0.118 C 
BRANCH  75  76
ATOM     76  N   UNL A   1      33.476  26.661  23.422  1.00  0.00    -0.352 N 
ATOM     77  C   UNL A   1      33.541  25.583  22.579  1.00  0.00     0.251 C 
ATOM     78  H   UNL A   1      33.403  27.531  22.965  1.00  0.00     0.163 HD
ATOM     79  O   UNL A   1      33.660  25.762  21.369  1.00  0.00    -0.269 OA
BRANCH  77  80
ATOM     80  C   UNL A   1      33.490  24.197  23.092  1.00  0.00     0.042 A 
ATOM     81  C   UNL A   1      32.302  23.458  23.114  1.00  0.00     0.015 A 
ATOM     82  C   UNL A   1      34.686  23.598  23.504  1.00  0.00     0.054 A 
ATOM     83  C   UNL A   1      32.288  22.179  23.669  1.00  0.00     0.026 A 
ATOM     84  C   UNL A   1      34.676  22.300  24.009  1.00  0.00     0.144 A 
ATOM     85  C   UNL A   1      33.480  21.610  24.137  1.00  0.00     0.118 A 
ATOM     86  F   UNL A   1      35.839  21.760  24.396  1.00  0.00    -0.205 F 
BRANCH  85  87
ATOM     87  S   UNL A   1      33.387  20.046  24.940  1.00  0.00     0.243 S 
ATOM     88  O   UNL A   1      32.074  19.504  24.636  1.00  0.00    -0.207 OA
ATOM     89  O   UNL A   1      34.590  19.324  24.608  1.00  0.00    -0.207 OA
BRANCH  87  90
ATOM     90  N   UNL A   1      33.408  20.288  26.587  1.00  0.00    -0.205 NA
ATOM     91  H   UNL A   1      33.993  19.548  26.974  1.00  0.00     0.141 HD
BRANCH  90  92
ATOM     92  C   UNL A   1      33.869  21.524  27.198  1.00  0.00     0.154 C 
BRANCH  92  93
ATOM     93  C   UNL A   1      32.848  22.588  27.156  1.00  0.00     0.050 A 
ATOM     94  C   UNL A   1      32.951  23.930  26.848  1.00  0.00     0.046 A 
ATOM     95  N   UNL A   1      31.506  22.354  27.315  1.00  0.00    -0.281 N 
ATOM     96  C   UNL A   1      31.625  24.397  26.811  1.00  0.00     0.135 A 
ATOM     97  N   UNL A   1      30.744  23.442  27.110  1.00  0.00    -0.184 NA
ATOM     98  H   UNL A   1      31.137  21.474  27.557  1.00  0.00     0.190 HD
ENDBRANCH  92  93
ENDBRANCH  90  92
ENDBRANCH  87  90
ENDBRANCH  85  87
ENDBRANCH  77  80
ENDBRANCH  75  76
ENDBRANCH   1  75
TORSDOF 17
ENDMDL
MODEL 2
REMARK VINA RESULT:     -11.9      5.178     10.568
REMARK SMILES O=C(NCCCNC(=O)c1ccc(S(=O)(=O)NCc2ccn[nH]2)c(F)c1)c1ccc(-c2c3nc(c(-c4c(F)cc(S(=O)(=O)[O-])cc4F)c4ccc([nH]4)c(-c4c(F)cc(S(=O)(=O)[O-])cc4F)c4nc(c(-c5c(F)cc(S(=O)(=O)[O-])cc5F)c5ccc2[nH]5)C=C4)C=C3)cc1
REMARK SMILES IDX 5 1 4 2 3 3 1 4 2 5 27 7 28 8 92 9 29 10 91 11 30 12 31 13
REMARK SMILES IDX 32 14 85 15 33 16 90 17 84 18 86 19 34 20 89 21 83 22 82 23
REMARK SMILES IDX 35 25 69 26 48 27 68 28 49 29 52 30 67 31 87 32 50 33 51 34
REMARK SMILES IDX 66 36 88 37 53 38 36 39 37 40 46 41 38 42 39 43 45 44 47 45
REMARK SMILES IDX 40 46 41 47 42 48 43 49 44 50 70 51 71 52 80 53 72 54 73 55
REMARK SMILES IDX 79 56 81 57 74 58 75 59 76 60 77 61 78 62 54 63 55 64 64 65
REMARK SMILES IDX 56 66 57 67 63 68 65 69 58 70 59 71 60 72 61 73 62 74 6 75
REMARK SMILES IDX 7 76 8 77 9 79 10 80 11 81 26 82 12 83 24 84 13 85 25 86
REMARK SMILES IDX 14 87 15 88 16 89 17 90 18 92 19 93 20 94 23 95 21 96 22 97
REMARK H PARENT 3 6 86 24 52 35 7 78 17 91 23 98
REMARK Flexibility Score: inf
ROOT
ATOM      1  C   UNL A   1      38.809  22.293  26.135  1.00  0.00     0.042 C 
ENDROOT
BRANCH   1   2
ATOM      2  C   UNL A   1      39.635  23.334  26.879  1.00  0.00     0.118 C 
BRANCH   2   3
ATOM      3  N   UNL A   1      40.807  23.766  26.135  1.00  0.00    -0.352 N 
ATOM      4  O   UNL A   1      42.399  25.149  25.371  1.00  0.00    -0.269 OA
ATOM      5  C   UNL A   1      41.560  24.911  26.236  1.00  0.00     0.251 C 
ATOM      6  H   UNL A   1      41.111  23.135  25.444  1.00  0.00     0.163 HD
BRANCH   5   7
ATOM      7  C   UNL A   1      41.359  25.862  27.353  1.00  0.00     0.039 A 
ATOM      8  C   UNL A   1      40.372  25.657  28.320  1.00  0.00     0.014 A 
ATOM      9  C   UNL A   1      42.222  26.958  27.463  1.00  0.00     0.014 A 
ATOM     10  C   UNL A   1      40.161  26.609  29.315  1.00  0.00     0.010 A 
ATOM     11  C   UNL A   1      42.058  27.873  28.506  1.00  0.00     0.010 A 
ATOM     12  C   UNL A   1      41.008  27.722  29.426  1.00  0.00    -0.014 A 
BRANCH  12  13
ATOM     13  C   UNL A   1      40.829  28.697  30.530  1.00  0.00     0.031 A 
ATOM     14  C   UNL A   1      41.688  28.627  31.760  1.00  0.00     0.074 A 
ATOM     15  C   UNL A   1      39.870  29.637  30.429  1.00  0.00     0.049 A 
ATOM     16  N   UNL A   1      41.620  29.342  32.854  1.00  0.00    -0.248 NA
ATOM     17  C   UNL A   1      42.761  27.621  31.767  1.00  0.00     0.031 C 
ATOM     18  C   UNL A   1      38.979  29.808  29.279  1.00  0.00     0.029 A 
ATOM     19  N   UNL A   1      39.479  30.620  31.302  1.00  0.00    -0.354 N 
ATOM     20  C   UNL A   1      42.616  28.857  33.690  1.00  0.00     0.074 A 
ATOM     21  C   UNL A   1      43.270  27.776  32.983  1.00  0.00     0.031 C 
ATOM     22  C   UNL A   1      38.162  30.845  29.509  1.00  0.00     0.029 A 
ATOM     23  C   UNL A   1      38.425  31.373  30.844  1.00  0.00     0.049 A 
ATOM     24  H   UNL A   1      39.913  30.772  32.173  1.00  0.00     0.167 HD
ATOM     25  C   UNL A   1      42.955  29.278  34.933  1.00  0.00     0.037 A 
ATOM     26  C   UNL A   1      37.725  32.359  31.439  1.00  0.00     0.037 A 
ATOM     27  C   UNL A   1      42.312  30.367  35.620  1.00  0.00     0.049 A 
ATOM     28  C   UNL A   1      38.088  32.783  32.830  1.00  0.00     0.074 A 
ATOM     29  C   UNL A   1      42.616  30.897  36.861  1.00  0.00     0.029 A 
ATOM     30  N   UNL A   1      41.230  31.085  35.131  1.00  0.00    -0.354 N 
ATOM     31  N   UNL A   1      39.048  32.329  33.599  1.00  0.00    -0.248 NA
ATOM     32  C   UNL A   1      37.274  33.841  33.442  1.00  0.00     0.031 C 
ATOM     33  C   UNL A   1      41.691  31.909  37.141  1.00  0.00     0.029 A 
ATOM     34  C   UNL A   1      40.837  32.037  36.057  1.00  0.00     0.049 A 
ATOM     35  H   UNL A   1      40.804  30.940  34.255  1.00  0.00     0.167 HD
ATOM     36  C   UNL A   1      38.963  33.052  34.782  1.00  0.00     0.074 A 
ATOM     37  C   UNL A   1      37.858  33.977  34.627  1.00  0.00     0.031 C 
ATOM     38  C   UNL A   1      39.735  32.955  35.891  1.00  0.00     0.037 A 
BRANCH  25  39
ATOM     39  C   UNL A   1      44.058  28.542  35.641  1.00  0.00     0.058 A 
ATOM     40  C   UNL A   1      43.756  27.496  36.528  1.00  0.00     0.135 A 
ATOM     41  C   UNL A   1      45.407  28.888  35.472  1.00  0.00     0.135 A 
ATOM     42  F   UNL A   1      42.482  27.123  36.725  1.00  0.00    -0.206 F 
ATOM     43  C   UNL A   1      44.753  26.816  37.218  1.00  0.00     0.059 A 
ATOM     44  C   UNL A   1      46.423  28.207  36.135  1.00  0.00     0.059 A 
ATOM     45  F   UNL A   1      45.752  29.869  34.622  1.00  0.00    -0.206 F 
ATOM     46  C   UNL A   1      46.086  27.175  37.013  1.00  0.00     0.060 A 
BRANCH  46  47
ATOM     47  S   UNL A   1      47.377  26.233  37.853  1.00  0.00     0.124 S 
ATOM     48  O   UNL A   1      48.574  26.990  37.508  1.00  0.00    -0.237 OA
ATOM     49  O   UNL A   1      46.955  26.306  39.248  1.00  0.00    -0.237 OA
ATOM     50  O   UNL A   1      47.271  24.908  37.247  1.00  0.00    -0.744 OA
ENDBRANCH  46  47
ENDBRANCH  25  39
BRANCH  26  51
ATOM     51  C   UNL A   1      36.611  32.993  30.688  1.00  0.00     0.058 A 
ATOM     52  C   UNL A   1      36.860  33.982  29.724  1.00  0.00     0.135 A 
ATOM     53  C   UNL A   1      35.277  32.711  31.013  1.00  0.00     0.135 A 
ATOM     54  F   UNL A   1      38.122  34.293  29.389  1.00  0.00    -0.206 F 
ATOM     55  C   UNL A   1      35.826  34.711  29.148  1.00  0.00     0.059 A 
ATOM     56  C   UNL A   1      34.224  33.413  30.433  1.00  0.00     0.059 A 
ATOM     57  F   UNL A   1      34.994  31.765  31.921  1.00  0.00    -0.206 F 
ATOM     58  C   UNL A   1      34.512  34.431  29.524  1.00  0.00     0.060 A 
BRANCH  58  59
ATOM     59  S   UNL A   1      33.189  35.448  28.836  1.00  0.00     0.124 S 
ATOM     60  O   UNL A   1      33.948  36.496  28.161  1.00  0.00    -0.237 OA
ATOM     61  O   UNL A   1      32.497  34.504  27.965  1.00  0.00    -0.237 OA
ATOM     62  O   UNL A   1      32.441  35.875  30.015  1.00  0.00    -0.744 OA
ENDBRANCH  58  59
ENDBRANCH  26  51
BRANCH  38  63
ATOM     63  C   UNL A   1      39.439  33.875  37.040  1.00  0.00     0.058 A 
ATOM     64  C   UNL A   1      40.008  35.156  37.086  1.00  0.00     0.135 A 
ATOM     65  C   UNL A   1      38.703  33.438  38.152  1.00  0.00     0.135 A 
ATOM     66  F   UNL A   1      40.720  35.618  36.045  1.00  0.00    -0.206 F 
ATOM     67  C   UNL A   1      39.896  35.960  38.215  1.00  0.00     0.059 A 
ATOM     68  C   UNL A   1      38.562  34.233  39.286  1.00  0.00     0.059 A 
ATOM     69  F   UNL A   1      38.127  32.226  38.147  1.00  0.00    -0.206 F 
ATOM     70  C   UNL A   1      39.184  35.482  39.317  1.00  0.00     0.060 A 
BRANCH  70  71
ATOM     71  S   UNL A   1      39.094  36.516  40.794  1.00  0.00     0.124 S 
ATOM     72  O   UNL A   1      38.192  35.745  41.642  1.00  0.00    -0.237 OA
ATOM     73  O   UNL A   1      40.488  36.559  41.226  1.00  0.00    -0.237 OA
ATOM     74  O   UNL A   1      38.561  37.779  40.292  1.00  0.00    -0.744 OA
ENDBRANCH  70  71
ENDBRANCH  38  63
ENDBRANCH  12  13
ENDBRANCH   5   7
ENDBRANCH   2   3
ENDBRANCH   1   2
BRANCH   1  75
ATOM     75  C   UNL A   1      37.488  22.802  25.570  1.00  0.00     0.118 C 
BRANCH  75  76
ATOM     76  N   UNL A   1      36.326  22.284  26.281  1.00  0.00    -0.352 N 
ATOM     77  C   UNL A   1      34.995  22.594  26.180  1.00  0.00     0.251 C 
ATOM     78  H   UNL A   1      36.533  21.591  26.950  1.00  0.00     0.163 HD
ATOM     79  O   UNL A   1      34.199  22.133  26.995  1.00  0.00    -0.269 OA
BRANCH  77  80
ATOM     80  C   UNL A   1      34.489  23.492  25.119  1.00  0.00     0.042 A 
ATOM     81  C   UNL A   1      34.023  23.002  23.895  1.00  0.00     0.015 A 
ATOM     82  C   UNL A   1      34.420  24.864  25.389  1.00  0.00     0.054 A 
ATOM     83  C   UNL A   1      33.618  23.890  22.898  1.00  0.00     0.026 A 
ATOM     84  C   UNL A   1      33.966  25.743  24.408  1.00  0.00     0.144 A 
ATOM     85  C   UNL A   1      33.612  25.268  23.155  1.00  0.00     0.118 A 
ATOM     86  F   UNL A   1      33.916  27.049  24.701  1.00  0.00    -0.205 F 
BRANCH  85  87
ATOM     87  S   UNL A   1      33.211  26.352  21.826  1.00  0.00     0.243 S 
ATOM     88  O   UNL A   1      34.159  27.450  21.891  1.00  0.00    -0.207 OA
ATOM     89  O   UNL A   1      33.079  25.543  20.641  1.00  0.00    -0.207 OA
BRANCH  87  90
ATOM     90  N   UNL A   1      31.717  27.027  22.119  1.00  0.00    -0.205 NA
ATOM     91  H   UNL A   1      31.218  26.362  22.711  1.00  0.00     0.141 HD
BRANCH  90  92
ATOM     92  C   UNL A   1      31.546  28.327  22.745  1.00  0.00     0.154 C 
BRANCH  92  93
ATOM     93  C   UNL A   1      30.312  29.007  22.306  1.00  0.00     0.050 A 
ATOM     94  C   UNL A   1      28.996  28.822  22.677  1.00  0.00     0.046 A 
ATOM     95  N   UNL A   1      30.306  30.100  21.479  1.00  0.00    -0.281 N 
ATOM     96  C   UNL A   1      28.292  29.868  22.056  1.00  0.00     0.135 A 
ATOM     97  N   UNL A   1      29.086  30.640  21.313  1.00  0.00    -0.184 NA
ATOM     98  H   UNL A   1      31.117  30.456  21.048  1.00  0.00     0.190 HD
ENDBRANCH  92  93
ENDBRANCH  90  92
ENDBRANCH  87  90
ENDBRANCH  85  87
ENDBRANCH  77  80
ENDBRANCH  75  76
ENDBRANCH   1  75
TORSDOF 17
ENDMDL
MODEL 3
REMARK VINA RESULT:     -11.8      2.895      3.817
REMARK SMILES O=C(NCCCNC(=O)c1ccc(S(=O)(=O)NCc2ccn[nH]2)c(F)c1)c1ccc(-c2c3nc(c(-c4c(F)cc(S(=O)(=O)[O-])cc4F)c4ccc([nH]4)c(-c4c(F)cc(S(=O)(=O)[O-])cc4F)c4nc(c(-c5c(F)cc(S(=O)(=O)[O-])cc5F)c5ccc2[nH]5)C=C4)C=C3)cc1
REMARK SMILES IDX 5 1 4 2 3 3 1 4 2 5 27 7 28 8 92 9 29 10 91 11 30 12 31 13
REMARK SMILES IDX 32 14 85 15 33 16 90 17 84 18 86 19 34 20 89 21 83 22 82 23
REMARK SMILES IDX 35 25 69 26 48 27 68 28 49 29 52 30 67 31 87 32 50 33 51 34
REMARK SMILES IDX 66 36 88 37 53 38 36 39 37 40 46 41 38 42 39 43 45 44 47 45
REMARK SMILES IDX 40 46 41 47 42 48 43 49 44 50 70 51 71 52 80 53 72 54 73 55
REMARK SMILES IDX 79 56 81 57 74 58 75 59 76 60 77 61 78 62 54 63 55 64 64 65
REMARK SMILES IDX 56 66 57 67 63 68 65 69 58 70 59 71 60 72 61 73 62 74 6 75
REMARK SMILES IDX 7 76 8 77 9 79 10 80 11 81 26 82 12 83 24 84 13 85 25 86
REMARK SMILES IDX 14 87 15 88 16 89 17 90 18 92 19 93 20 94 23 95 21 96 22 97
REMARK H PARENT 3 6 86 24 52 35 7 78 17 91 23 98
REMARK Flexibility Score: inf
ROOT
ATOM      1  C   UNL A   1      34.682  29.414  27.129  1.00  0.00     0.042 C 
ENDROOT
BRANCH   1   2
ATOM      2  C   UNL A   1      35.508  30.595  27.621  1.00  0.00     0.118 C 
BRANCH   2   3
ATOM      3  N   UNL A   1      35.438  30.773  29.062  1.00  0.00    -0.352 N 
ATOM      4  O   UNL A   1      35.989  30.525  31.223  1.00  0.00    -0.269 OA
ATOM      5  C   UNL A   1      36.342  30.454  30.048  1.00  0.00     0.251 C 
ATOM      6  H   UNL A   1      34.608  31.190  29.386  1.00  0.00     0.163 HD
BRANCH   5   7
ATOM      7  C   UNL A   1      37.714  30.010  29.714  1.00  0.00     0.039 A 
ATOM      8  C   UNL A   1      38.579  29.511  30.691  1.00  0.00     0.014 A 
ATOM      9  C   UNL A   1      38.122  30.041  28.377  1.00  0.00     0.014 A 
ATOM     10  C   UNL A   1      39.888  29.170  30.357  1.00  0.00     0.010 A 
ATOM     11  C   UNL A   1      39.410  29.627  28.030  1.00  0.00     0.010 A 
ATOM     12  C   UNL A   1      40.315  29.214  29.021  1.00  0.00    -0.014 A 
BRANCH  12  13
ATOM     13  C   UNL A   1      41.686  28.781  28.655  1.00  0.00     0.031 A 
ATOM     14  C   UNL A   1      42.822  29.763  28.639  1.00  0.00     0.074 A 
ATOM     15  C   UNL A   1      41.901  27.495  28.315  1.00  0.00     0.049 A 
ATOM     16  N   UNL A   1      44.064  29.581  28.269  1.00  0.00    -0.248 NA
ATOM     17  C   UNL A   1      42.526  31.131  29.091  1.00  0.00     0.031 C 
ATOM     18  C   UNL A   1      40.878  26.448  28.301  1.00  0.00     0.029 A 
ATOM     19  N   UNL A   1      43.043  26.851  27.912  1.00  0.00    -0.354 N 
ATOM     20  C   UNL A   1      44.690  30.811  28.414  1.00  0.00     0.074 A 
ATOM     21  C   UNL A   1      43.689  31.739  28.896  1.00  0.00     0.031 C 
ATOM     22  C   UNL A   1      41.441  25.290  27.931  1.00  0.00     0.029 A 
ATOM     23  C   UNL A   1      42.848  25.522  27.620  1.00  0.00     0.049 A 
ATOM     24  H   UNL A   1      43.918  27.297  27.840  1.00  0.00     0.167 HD
ATOM     25  C   UNL A   1      45.984  31.134  28.172  1.00  0.00     0.037 A 
ATOM     26  C   UNL A   1      43.695  24.597  27.128  1.00  0.00     0.037 A 
ATOM     27  C   UNL A   1      46.977  30.199  27.712  1.00  0.00     0.049 A 
ATOM     28  C   UNL A   1      45.112  24.984  26.826  1.00  0.00     0.074 A 
ATOM     29  C   UNL A   1      48.323  30.421  27.482  1.00  0.00     0.029 A 
ATOM     30  N   UNL A   1      46.731  28.869  27.401  1.00  0.00    -0.354 N 
ATOM     31  N   UNL A   1      45.695  26.147  26.991  1.00  0.00    -0.248 NA
ATOM     32  C   UNL A   1      45.985  23.945  26.264  1.00  0.00     0.031 C 
ATOM     33  C   UNL A   1      48.883  29.236  26.993  1.00  0.00     0.029 A 
ATOM     34  C   UNL A   1      47.895  28.264  26.957  1.00  0.00     0.049 A 
ATOM     35  H   UNL A   1      45.859  28.421  27.485  1.00  0.00     0.167 HD
ATOM     36  C   UNL A   1      47.006  25.979  26.563  1.00  0.00     0.074 A 
ATOM     37  C   UNL A   1      47.133  24.600  26.135  1.00  0.00     0.031 C 
ATOM     38  C   UNL A   1      48.010  26.889  26.534  1.00  0.00     0.037 A 
BRANCH  25  39
ATOM     39  C   UNL A   1      46.395  32.565  28.375  1.00  0.00     0.058 A 
ATOM     40  C   UNL A   1      46.321  33.481  27.314  1.00  0.00     0.135 A 
ATOM     41  C   UNL A   1      46.890  33.026  29.604  1.00  0.00     0.135 A 
ATOM     42  F   UNL A   1      45.852  33.094  26.117  1.00  0.00    -0.206 F 
ATOM     43  C   UNL A   1      46.720  34.805  27.465  1.00  0.00     0.059 A 
ATOM     44  C   UNL A   1      47.275  34.351  29.785  1.00  0.00     0.059 A 
ATOM     45  F   UNL A   1      46.964  32.196  30.657  1.00  0.00    -0.206 F 
ATOM     46  C   UNL A   1      47.193  35.233  28.706  1.00  0.00     0.060 A 
BRANCH  46  47
ATOM     47  S   UNL A   1      47.632  36.972  28.913  1.00  0.00     0.124 S 
ATOM     48  O   UNL A   1      49.087  36.925  28.839  1.00  0.00    -0.237 OA
ATOM     49  O   UNL A   1      46.956  37.599  27.781  1.00  0.00    -0.237 OA
ATOM     50  O   UNL A   1      47.076  37.304  30.222  1.00  0.00    -0.744 OA
ENDBRANCH  46  47
ENDBRANCH  25  39
BRANCH  26  51
ATOM     51  C   UNL A   1      43.190  23.219  26.901  1.00  0.00     0.058 A 
ATOM     52  C   UNL A   1      43.030  22.323  27.969  1.00  0.00     0.135 A 
ATOM     53  C   UNL A   1      42.982  22.738  25.602  1.00  0.00     0.135 A 
ATOM     54  F   UNL A   1      43.230  22.736  29.230  1.00  0.00    -0.206 F 
ATOM     55  C   UNL A   1      42.736  20.982  27.754  1.00  0.00     0.059 A 
ATOM     56  C   UNL A   1      42.665  21.403  25.362  1.00  0.00     0.059 A 
ATOM     57  F   UNL A   1      43.114  23.563  24.552  1.00  0.00    -0.206 F 
ATOM     58  C   UNL A   1      42.574  20.528  26.444  1.00  0.00     0.060 A 
BRANCH  58  59
ATOM     59  S   UNL A   1      42.283  18.766  26.178  1.00  0.00     0.124 S 
ATOM     60  O   UNL A   1      40.891  18.764  25.739  1.00  0.00    -0.237 OA
ATOM     61  O   UNL A   1      43.273  18.443  25.156  1.00  0.00    -0.237 OA
ATOM     62  O   UNL A   1      42.528  18.180  27.492  1.00  0.00    -0.744 OA
ENDBRANCH  58  59
ENDBRANCH  26  51
BRANCH  38  63
ATOM     63  C   UNL A   1      49.353  26.442  26.035  1.00  0.00     0.058 A 
ATOM     64  C   UNL A   1      50.271  25.843  26.911  1.00  0.00     0.135 A 
ATOM     65  C   UNL A   1      49.777  26.728  24.729  1.00  0.00     0.135 A 
ATOM     66  F   UNL A   1      49.910  25.549  28.172  1.00  0.00    -0.206 F 
ATOM     67  C   UNL A   1      51.580  25.581  26.523  1.00  0.00     0.059 A 
ATOM     68  C   UNL A   1      51.078  26.457  24.312  1.00  0.00     0.059 A 
ATOM     69  F   UNL A   1      48.929  27.286  23.850  1.00  0.00    -0.206 F 
ATOM     70  C   UNL A   1      51.979  25.907  25.226  1.00  0.00     0.060 A 
BRANCH  70  71
ATOM     71  S   UNL A   1      53.696  25.611  24.755  1.00  0.00     0.124 S 
ATOM     72  O   UNL A   1      53.751  26.217  23.430  1.00  0.00    -0.237 OA
ATOM     73  O   UNL A   1      54.429  26.312  25.805  1.00  0.00    -0.237 OA
ATOM     74  O   UNL A   1      53.809  24.155  24.787  1.00  0.00    -0.744 OA
ENDBRANCH  70  71
ENDBRANCH  38  63
ENDBRANCH  12  13
ENDBRANCH   5   7
ENDBRANCH   2   3
ENDBRANCH   1   2
BRANCH   1  75
ATOM     75  C   UNL A   1      33.445  29.786  26.320  1.00  0.00     0.118 C 
BRANCH  75  76
ATOM     76  N   UNL A   1      33.549  29.416  24.914  1.00  0.00    -0.352 N 
ATOM     77  C   UNL A   1      33.422  28.204  24.288  1.00  0.00     0.251 C 
ATOM     78  H   UNL A   1      33.745  30.168  24.309  1.00  0.00     0.163 HD
ATOM     79  O   UNL A   1      33.703  28.101  23.097  1.00  0.00    -0.269 OA
BRANCH  77  80
ATOM     80  C   UNL A   1      32.971  27.000  25.020  1.00  0.00     0.042 A 
ATOM     81  C   UNL A   1      33.870  26.145  25.665  1.00  0.00     0.015 A 
ATOM     82  C   UNL A   1      31.595  26.761  25.118  1.00  0.00     0.054 A 
ATOM     83  C   UNL A   1      33.405  24.986  26.285  1.00  0.00     0.026 A 
ATOM     84  C   UNL A   1      31.132  25.629  25.784  1.00  0.00     0.144 A 
ATOM     85  C   UNL A   1      32.029  24.721  26.324  1.00  0.00     0.118 A 
ATOM     86  F   UNL A   1      29.809  25.431  25.856  1.00  0.00    -0.205 F 
BRANCH  85  87
ATOM     87  S   UNL A   1      31.504  23.187  27.010  1.00  0.00     0.243 S 
ATOM     88  O   UNL A   1      32.498  22.817  28.002  1.00  0.00    -0.207 OA
ATOM     89  O   UNL A   1      30.113  23.329  27.359  1.00  0.00    -0.207 OA
BRANCH  87  90
ATOM     90  N   UNL A   1      31.587  22.016  25.828  1.00  0.00    -0.205 NA
ATOM     91  H   UNL A   1      31.268  22.461  24.967  1.00  0.00     0.141 HD
BRANCH  90  92
ATOM     92  C   UNL A   1      32.819  21.324  25.488  1.00  0.00     0.154 C 
BRANCH  92  93
ATOM     93  C   UNL A   1      32.606  19.885  25.236  1.00  0.00     0.050 A 
ATOM     94  C   UNL A   1      32.361  19.198  24.065  1.00  0.00     0.046 A 
ATOM     95  N   UNL A   1      32.751  18.921  26.200  1.00  0.00    -0.281 N 
ATOM     96  C   UNL A   1      32.416  17.839  24.422  1.00  0.00     0.135 A 
ATOM     97  N   UNL A   1      32.639  17.669  25.725  1.00  0.00    -0.184 NA
ATOM     98  H   UNL A   1      32.921  19.126  27.147  1.00  0.00     0.190 HD
ENDBRANCH  92  93
ENDBRANCH  90  92
ENDBRANCH  87  90
ENDBRANCH  85  87
ENDBRANCH  77  80
ENDBRANCH  75  76
ENDBRANCH   1  75
TORSDOF 17
ENDMDL
