MODEL 1
REMARK VINA RESULT:     -13.2      0.000      0.000
REMARK SMILES Cc1cc(C(=O)NCCCNC(=O)c2ccc(-c3c4nc(c(-c5c(F)cc(S(=O)(=O)[O-])cc5F)c5ccc([nH]5)c(-c5c(F)cc(S(=O)(=O)[O-])cc5F)c5nc(c(-c6c(F)cc(S(=O)(=O)[O-])cc6F)c6ccc3[nH]6)C=C5)C=C4)cc2)ccc1NC(=O)c1ccc(=O)n(CCOc2ccccc2)n1
REMARK SMILES IDX 5 1 6 2 7 3 4 5 1 6 2 7 3 8 82 9 81 10 80 11 83 12 84 13
REMARK SMILES IDX 85 15 86 16 87 17 101 18 88 19 91 20 89 21 90 22 92 23 93 24
REMARK SMILES IDX 94 25 95 26 96 27 100 28 97 29 99 30 98 31 8 32 9 33 10 34
REMARK SMILES IDX 11 35 12 36 13 38 14 39 15 40 79 41 16 42 78 43 17 44 18 45
REMARK SMILES IDX 19 46 72 47 20 48 77 49 71 50 73 51 21 52 76 53 70 54 69 55
REMARK SMILES IDX 22 57 56 58 35 59 55 60 36 61 39 62 54 63 74 64 37 65 38 66
REMARK SMILES IDX 53 68 75 69 40 70 23 71 24 72 33 73 25 74 26 75 32 76 34 77
REMARK SMILES IDX 27 78 28 79 29 80 30 81 31 82 57 83 58 84 67 85 59 86 60 87
REMARK SMILES IDX 66 88 68 89 61 90 62 91 63 92 64 93 65 94 41 95 42 96 51 97
REMARK SMILES IDX 43 98 44 99 50 100 52 101 45 102 46 103 47 104 48 105 49 106
REMARK H PARENT 7 4 83 14 11 37 73 56 39 67
REMARK Flexibility Score: inf
ROOT
ATOM      1  C   UNL A   1      36.677  22.897  23.884  1.00  0.00     0.251 C 
ATOM      2  O   UNL A   1      36.671  22.944  22.656  1.00  0.00    -0.269 OA
ATOM      3  N   UNL A   1      37.751  23.346  24.647  1.00  0.00    -0.352 N 
ATOM      4  H   UNL A   1      38.590  23.414  24.137  1.00  0.00     0.163 HD
ENDROOT
BRANCH   1   5
ATOM      5  C   UNL A   1      35.477  22.349  24.556  1.00  0.00     0.040 A 
ATOM      6  C   UNL A   1      31.926  21.173  23.851  1.00  0.00     0.046 C 
ATOM      7  C   UNL A   1      33.111  21.726  24.595  1.00  0.00    -0.027 A 
ATOM      8  C   UNL A   1      34.297  22.011  23.875  1.00  0.00     0.019 A 
ATOM      9  C   UNL A   1      33.134  21.891  25.987  1.00  0.00     0.044 A 
ATOM     10  C   UNL A   1      34.377  21.852  26.608  1.00  0.00     0.027 A 
ATOM     11  C   UNL A   1      35.550  22.082  25.907  1.00  0.00     0.016 A 
BRANCH   9  12
ATOM     12  N   UNL A   1      31.940  22.149  26.703  1.00  0.00    -0.320 N 
ATOM     13  C   UNL A   1      31.137  23.284  26.719  1.00  0.00     0.276 C 
ATOM     14  H   UNL A   1      31.629  21.412  27.277  1.00  0.00     0.170 HD
ATOM     15  O   UNL A   1      30.100  23.335  27.374  1.00  0.00    -0.267 OA
BRANCH  13  16
ATOM     16  C   UNL A   1      31.549  24.517  25.943  1.00  0.00     0.149 A 
ATOM     17  C   UNL A   1      32.785  25.144  26.451  1.00  0.00     0.042 A 
ATOM     18  N   UNL A   1      30.874  24.923  24.904  1.00  0.00    -0.164 NA
ATOM     19  C   UNL A   1      33.497  25.770  25.523  1.00  0.00     0.076 A 
ATOM     20  N   UNL A   1      31.546  25.845  24.090  1.00  0.00    -0.226 N 
ATOM     21  C   UNL A   1      32.948  25.917  24.155  1.00  0.00     0.266 A 
ATOM     22  O   UNL A   1      33.729  26.172  23.274  1.00  0.00    -0.268 OA
BRANCH  20  23
ATOM     23  C   UNL A   1      30.796  26.430  22.957  1.00  0.00     0.190 C 
BRANCH  23  24
ATOM     24  C   UNL A   1      30.421  27.918  23.091  1.00  0.00     0.253 C 
BRANCH  24  25
ATOM     25  O   UNL A   1      29.616  28.440  21.999  1.00  0.00    -0.492 OA
BRANCH  25  26
ATOM     26  C   UNL A   1      29.000  29.617  22.307  1.00  0.00     0.119 A 
ATOM     27  C   UNL A   1      27.948  29.664  23.208  1.00  0.00     0.046 A 
ATOM     28  C   UNL A   1      29.332  30.770  21.620  1.00  0.00     0.046 A 
ATOM     29  C   UNL A   1      27.378  30.901  23.540  1.00  0.00     0.004 A 
ATOM     30  C   UNL A   1      28.854  32.017  22.013  1.00  0.00     0.004 A 
ATOM     31  C   UNL A   1      27.882  32.085  22.997  1.00  0.00     0.000 A 
ENDBRANCH  25  26
ENDBRANCH  24  25
ENDBRANCH  23  24
ENDBRANCH  20  23
ENDBRANCH  13  16
ENDBRANCH   9  12
ENDBRANCH   1   5
BRANCH   3  32
ATOM     32  C   UNL A   1      37.893  23.744  26.075  1.00  0.00     0.118 C 
BRANCH  32  33
ATOM     33  C   UNL A   1      39.359  24.046  26.714  1.00  0.00     0.042 C 
BRANCH  33  34
ATOM     34  C   UNL A   1      39.372  24.738  28.137  1.00  0.00     0.118 C 
BRANCH  34  35
ATOM     35  N   UNL A   1      39.209  26.276  28.612  1.00  0.00    -0.352 N 
ATOM     36  C   UNL A   1      39.394  27.688  28.155  1.00  0.00     0.251 C 
ATOM     37  H   UNL A   1      38.865  26.286  29.534  1.00  0.00     0.163 HD
ATOM     38  O   UNL A   1      38.321  28.324  28.189  1.00  0.00    -0.269 OA
BRANCH  36  39
ATOM     39  C   UNL A   1      40.634  28.638  27.661  1.00  0.00     0.039 A 
ATOM     40  C   UNL A   1      41.358  28.393  26.438  1.00  0.00     0.014 A 
ATOM     41  C   UNL A   1      41.216  29.679  28.369  1.00  0.00     0.014 A 
ATOM     42  C   UNL A   1      42.803  28.647  26.349  1.00  0.00     0.010 A 
ATOM     43  C   UNL A   1      42.633  29.900  28.308  1.00  0.00     0.010 A 
ATOM     44  C   UNL A   1      43.476  29.150  27.477  1.00  0.00    -0.014 A 
BRANCH  44  45
ATOM     45  C   UNL A   1      44.851  28.659  28.016  1.00  0.00     0.031 A 
ATOM     46  C   UNL A   1      45.906  29.646  28.181  1.00  0.00     0.074 A 
ATOM     47  C   UNL A   1      45.260  27.455  28.552  1.00  0.00     0.049 A 
ATOM     48  N   UNL A   1      47.076  29.610  27.635  1.00  0.00    -0.248 NA
ATOM     49  C   UNL A   1      45.668  30.783  29.051  1.00  0.00     0.031 C 
ATOM     50  C   UNL A   1      46.512  26.969  29.175  1.00  0.00     0.029 A 
ATOM     51  N   UNL A   1      44.542  26.287  28.705  1.00  0.00    -0.354 N 
ATOM     52  C   UNL A   1      47.816  30.529  28.351  1.00  0.00     0.074 A 
ATOM     53  C   UNL A   1      46.838  31.409  28.952  1.00  0.00     0.031 C 
ATOM     54  C   UNL A   1      46.531  25.608  29.168  1.00  0.00     0.029 A 
ATOM     55  C   UNL A   1      45.320  25.152  28.518  1.00  0.00     0.049 A 
ATOM     56  H   UNL A   1      43.582  26.261  28.923  1.00  0.00     0.167 HD
ATOM     57  C   UNL A   1      49.112  30.276  28.720  1.00  0.00     0.037 A 
ATOM     58  C   UNL A   1      45.135  24.419  27.367  1.00  0.00     0.037 A 
ATOM     59  C   UNL A   1      49.490  28.872  28.446  1.00  0.00     0.049 A 
ATOM     60  C   UNL A   1      46.282  24.671  26.418  1.00  0.00     0.074 A 
ATOM     61  C   UNL A   1      49.815  27.777  29.239  1.00  0.00     0.029 A 
ATOM     62  N   UNL A   1      49.271  28.337  27.187  1.00  0.00    -0.354 N 
ATOM     63  N   UNL A   1      47.354  25.311  26.781  1.00  0.00    -0.248 NA
ATOM     64  C   UNL A   1      46.317  24.312  25.002  1.00  0.00     0.031 C 
ATOM     65  C   UNL A   1      49.790  26.597  28.430  1.00  0.00     0.029 A 
ATOM     66  C   UNL A   1      49.480  26.972  27.137  1.00  0.00     0.049 A 
ATOM     67  H   UNL A   1      48.995  28.875  26.408  1.00  0.00     0.167 HD
ATOM     68  C   UNL A   1      48.155  25.553  25.714  1.00  0.00     0.074 A 
ATOM     69  C   UNL A   1      47.474  24.884  24.615  1.00  0.00     0.031 C 
ATOM     70  C   UNL A   1      49.293  26.296  25.855  1.00  0.00     0.037 A 
BRANCH  57  71
ATOM     71  C   UNL A   1      49.926  31.216  29.609  1.00  0.00     0.058 A 
ATOM     72  C   UNL A   1      50.688  32.272  29.067  1.00  0.00     0.135 A 
ATOM     73  C   UNL A   1      49.941  31.173  31.024  1.00  0.00     0.135 A 
ATOM     74  F   UNL A   1      50.669  32.548  27.757  1.00  0.00    -0.206 F 
ATOM     75  C   UNL A   1      51.462  33.140  29.849  1.00  0.00     0.059 A 
ATOM     76  C   UNL A   1      50.769  31.968  31.820  1.00  0.00     0.059 A 
ATOM     77  F   UNL A   1      49.065  30.437  31.719  1.00  0.00    -0.206 F 
ATOM     78  C   UNL A   1      51.518  32.965  31.225  1.00  0.00     0.060 A 
BRANCH  78  79
ATOM     79  S   UNL A   1      52.467  34.119  32.231  1.00  0.00     0.124 S 
ATOM     80  O   UNL A   1      52.571  35.282  31.356  1.00  0.00    -0.237 OA
ATOM     81  O   UNL A   1      51.609  34.277  33.401  1.00  0.00    -0.237 OA
ATOM     82  O   UNL A   1      53.722  33.411  32.474  1.00  0.00    -0.744 OA
ENDBRANCH  78  79
ENDBRANCH  57  71
BRANCH  58  83
ATOM     83  C   UNL A   1      43.660  24.229  26.913  1.00  0.00     0.058 A 
ATOM     84  C   UNL A   1      43.488  24.208  25.519  1.00  0.00     0.135 A 
ATOM     85  C   UNL A   1      43.068  23.149  27.532  1.00  0.00     0.135 A 
ATOM     86  F   UNL A   1      43.389  25.361  24.847  1.00  0.00    -0.206 F 
ATOM     87  C   UNL A   1      43.497  23.012  24.790  1.00  0.00     0.059 A 
ATOM     88  C   UNL A   1      43.144  21.947  26.822  1.00  0.00     0.059 A 
ATOM     89  F   UNL A   1      42.981  23.112  28.872  1.00  0.00    -0.206 F 
ATOM     90  C   UNL A   1      43.517  21.826  25.509  1.00  0.00     0.060 A 
BRANCH  90  91
ATOM     91  S   UNL A   1      44.517  20.115  24.875  1.00  0.00     0.124 S 
ATOM     92  O   UNL A   1      45.835  20.385  25.417  1.00  0.00    -0.237 OA
ATOM     93  O   UNL A   1      43.860  19.000  25.536  1.00  0.00    -0.237 OA
ATOM     94  O   UNL A   1      44.446  20.073  23.426  1.00  0.00    -0.744 OA
ENDBRANCH  90  91
ENDBRANCH  58  83
BRANCH  70  95
ATOM     95  C   UNL A   1      50.313  26.495  24.770  1.00  0.00     0.058 A 
ATOM     96  C   UNL A   1      51.663  26.144  24.920  1.00  0.00     0.135 A 
ATOM     97  C   UNL A   1      49.990  27.167  23.565  1.00  0.00     0.135 A 
ATOM     98  F   UNL A   1      52.135  25.671  26.084  1.00  0.00    -0.206 F 
ATOM     99  C   UNL A   1      52.590  26.310  23.895  1.00  0.00     0.059 A 
ATOM    100  C   UNL A   1      50.905  27.384  22.550  1.00  0.00     0.059 A 
ATOM    101  F   UNL A   1      48.769  27.650  23.309  1.00  0.00    -0.206 F 
ATOM    102  C   UNL A   1      52.194  26.914  22.705  1.00  0.00     0.060 A 
BRANCH 102 103
ATOM    103  S   UNL A   1      53.381  27.115  21.376  1.00  0.00     0.124 S 
ATOM    104  O   UNL A   1      53.385  28.562  21.181  1.00  0.00    -0.237 OA
ATOM    105  O   UNL A   1      54.586  26.553  21.978  1.00  0.00    -0.237 OA
ATOM    106  O   UNL A   1      52.807  26.341  20.280  1.00  0.00    -0.744 OA
ENDBRANCH 102 103
ENDBRANCH  70  95
ENDBRANCH  44  45
ENDBRANCH  36  39
ENDBRANCH  34  35
ENDBRANCH  33  34
ENDBRANCH  32  33
ENDBRANCH   3  32
TORSDOF 19
ENDMDL
MODEL 2
REMARK VINA RESULT:     -12.9      2.196      4.860
REMARK SMILES Cc1cc(C(=O)NCCCNC(=O)c2ccc(-c3c4nc(c(-c5c(F)cc(S(=O)(=O)[O-])cc5F)c5ccc([nH]5)c(-c5c(F)cc(S(=O)(=O)[O-])cc5F)c5nc(c(-c6c(F)cc(S(=O)(=O)[O-])cc6F)c6ccc3[nH]6)C=C5)C=C4)cc2)ccc1NC(=O)c1ccc(=O)n(CCOc2ccccc2)n1
REMARK SMILES IDX 5 1 6 2 7 3 4 5 1 6 2 7 3 8 82 9 81 10 80 11 83 12 84 13
REMARK SMILES IDX 85 15 86 16 87 17 101 18 88 19 91 20 89 21 90 22 92 23 93 24
REMARK SMILES IDX 94 25 95 26 96 27 100 28 97 29 99 30 98 31 8 32 9 33 10 34
REMARK SMILES IDX 11 35 12 36 13 38 14 39 15 40 79 41 16 42 78 43 17 44 18 45
REMARK SMILES IDX 19 46 72 47 20 48 77 49 71 50 73 51 21 52 76 53 70 54 69 55
REMARK SMILES IDX 22 57 56 58 35 59 55 60 36 61 39 62 54 63 74 64 37 65 38 66
REMARK SMILES IDX 53 68 75 69 40 70 23 71 24 72 33 73 25 74 26 75 32 76 34 77
REMARK SMILES IDX 27 78 28 79 29 80 30 81 31 82 57 83 58 84 67 85 59 86 60 87
REMARK SMILES IDX 66 88 68 89 61 90 62 91 63 92 64 93 65 94 41 95 42 96 51 97
REMARK SMILES IDX 43 98 44 99 50 100 52 101 45 102 46 103 47 104 48 105 49 106
REMARK H PARENT 7 4 83 14 11 37 73 56 39 67
REMARK Flexibility Score: inf
ROOT
ATOM      1  C   UNL A   1      33.297  29.216  24.359  1.00  0.00     0.251 C 
ATOM      2  O   UNL A   1      33.478  29.520  23.182  1.00  0.00    -0.269 OA
ATOM      3  N   UNL A   1      33.675  30.040  25.413  1.00  0.00    -0.352 N 
ATOM      4  H   UNL A   1      34.346  30.715  25.160  1.00  0.00     0.163 HD
ENDROOT
BRANCH   1   5
ATOM      5  C   UNL A   1      32.636  27.921  24.639  1.00  0.00     0.040 A 
ATOM      6  C   UNL A   1      29.235  26.213  24.549  1.00  0.00     0.046 C 
ATOM      7  C   UNL A   1      30.651  26.524  24.952  1.00  0.00    -0.027 A 
ATOM      8  C   UNL A   1      31.265  27.693  24.439  1.00  0.00     0.019 A 
ATOM      9  C   UNL A   1      31.431  25.666  25.740  1.00  0.00     0.044 A 
ATOM     10  C   UNL A   1      32.809  25.743  25.584  1.00  0.00     0.027 A 
ATOM     11  C   UNL A   1      33.422  26.860  25.041  1.00  0.00     0.016 A 
BRANCH   9  12
ATOM     12  N   UNL A   1      30.824  24.813  26.694  1.00  0.00    -0.320 N 
ATOM     13  C   UNL A   1      30.787  23.424  26.753  1.00  0.00     0.276 C 
ATOM     14  H   UNL A   1      30.358  25.272  27.429  1.00  0.00     0.170 HD
ATOM     15  O   UNL A   1      30.244  22.829  27.678  1.00  0.00    -0.267 OA
BRANCH  13  16
ATOM     16  C   UNL A   1      31.397  22.600  25.639  1.00  0.00     0.149 A 
ATOM     17  C   UNL A   1      30.814  22.884  24.313  1.00  0.00     0.042 A 
ATOM     18  N   UNL A   1      32.374  21.766  25.866  1.00  0.00    -0.164 NA
ATOM     19  C   UNL A   1      31.654  22.706  23.301  1.00  0.00     0.076 A 
ATOM     20  N   UNL A   1      33.062  21.340  24.722  1.00  0.00    -0.226 N 
ATOM     21  C   UNL A   1      32.990  22.119  23.554  1.00  0.00     0.266 A 
ATOM     22  O   UNL A   1      33.831  22.284  22.708  1.00  0.00    -0.268 OA
BRANCH  20  23
ATOM     23  C   UNL A   1      34.107  20.309  24.898  1.00  0.00     0.190 C 
BRANCH  23  24
ATOM     24  C   UNL A   1      35.546  20.830  25.081  1.00  0.00     0.253 C 
BRANCH  24  25
ATOM     25  O   UNL A   1      35.685  21.894  26.060  1.00  0.00    -0.492 OA
BRANCH  25  26
ATOM     26  C   UNL A   1      36.949  22.404  26.117  1.00  0.00     0.119 A 
ATOM     27  C   UNL A   1      37.170  23.761  26.289  1.00  0.00     0.046 A 
ATOM     28  C   UNL A   1      38.035  21.585  25.870  1.00  0.00     0.046 A 
ATOM     29  C   UNL A   1      38.483  24.238  26.400  1.00  0.00     0.004 A 
ATOM     30  C   UNL A   1      39.340  22.019  26.083  1.00  0.00     0.004 A 
ATOM     31  C   UNL A   1      39.565  23.355  26.370  1.00  0.00     0.000 A 
ENDBRANCH  25  26
ENDBRANCH  24  25
ENDBRANCH  23  24
ENDBRANCH  20  23
ENDBRANCH  13  16
ENDBRANCH   9  12
ENDBRANCH   1   5
BRANCH   3  32
ATOM     32  C   UNL A   1      33.274  30.114  26.846  1.00  0.00     0.118 C 
BRANCH  32  33
ATOM     33  C   UNL A   1      34.143  30.985  27.911  1.00  0.00     0.042 C 
BRANCH  33  34
ATOM     34  C   UNL A   1      35.713  30.965  27.714  1.00  0.00     0.118 C 
BRANCH  34  35
ATOM     35  N   UNL A   1      36.924  30.367  28.603  1.00  0.00    -0.352 N 
ATOM     36  C   UNL A   1      38.378  30.017  28.552  1.00  0.00     0.251 C 
ATOM     37  H   UNL A   1      36.581  30.156  29.501  1.00  0.00     0.163 HD
ATOM     38  O   UNL A   1      39.031  30.653  29.405  1.00  0.00    -0.269 OA
BRANCH  36  39
ATOM     39  C   UNL A   1      39.338  28.995  27.707  1.00  0.00     0.039 A 
ATOM     40  C   UNL A   1      39.349  27.572  27.939  1.00  0.00     0.014 A 
ATOM     41  C   UNL A   1      40.316  29.343  26.786  1.00  0.00     0.014 A 
ATOM     42  C   UNL A   1      40.593  26.796  27.835  1.00  0.00     0.010 A 
ATOM     43  C   UNL A   1      41.545  28.606  26.714  1.00  0.00     0.010 A 
ATOM     44  C   UNL A   1      41.783  27.462  27.488  1.00  0.00    -0.014 A 
BRANCH  44  45
ATOM     45  C   UNL A   1      43.173  27.262  28.161  1.00  0.00     0.031 A 
ATOM     46  C   UNL A   1      43.967  28.448  28.441  1.00  0.00     0.074 A 
ATOM     47  C   UNL A   1      43.779  26.159  28.725  1.00  0.00     0.049 A 
ATOM     48  N   UNL A   1      45.165  28.681  28.016  1.00  0.00    -0.248 NA
ATOM     49  C   UNL A   1      43.404  29.480  29.291  1.00  0.00     0.031 C 
ATOM     50  C   UNL A   1      45.040  25.935  29.469  1.00  0.00     0.029 A 
ATOM     51  N   UNL A   1      43.320  24.860  28.795  1.00  0.00    -0.354 N 
ATOM     52  C   UNL A   1      45.614  29.715  28.812  1.00  0.00     0.074 A 
ATOM     53  C   UNL A   1      44.413  30.346  29.318  1.00  0.00     0.031 C 
ATOM     54  C   UNL A   1      45.355  24.611  29.452  1.00  0.00     0.029 A 
ATOM     55  C   UNL A   1      44.340  23.925  28.678  1.00  0.00     0.049 A 
ATOM     56  H   UNL A   1      42.372  24.621  28.913  1.00  0.00     0.167 HD
ATOM     57  C   UNL A   1      46.891  29.736  29.309  1.00  0.00     0.037 A 
ATOM     58  C   UNL A   1      44.433  23.204  27.508  1.00  0.00     0.037 A 
ATOM     59  C   UNL A   1      47.590  28.455  29.064  1.00  0.00     0.049 A 
ATOM     60  C   UNL A   1      45.585  23.726  26.683  1.00  0.00     0.074 A 
ATOM     61  C   UNL A   1      48.066  27.433  29.876  1.00  0.00     0.029 A 
ATOM     62  N   UNL A   1      47.617  27.925  27.784  1.00  0.00    -0.354 N 
ATOM     63  N   UNL A   1      46.451  24.571  27.159  1.00  0.00    -0.248 NA
ATOM     64  C   UNL A   1      45.835  23.427  25.275  1.00  0.00     0.031 C 
ATOM     65  C   UNL A   1      48.377  26.300  29.058  1.00  0.00     0.029 A 
ATOM     66  C   UNL A   1      48.121  26.639  27.744  1.00  0.00     0.049 A 
ATOM     67  H   UNL A   1      47.308  28.414  26.986  1.00  0.00     0.167 HD
ATOM     68  C   UNL A   1      47.281  25.012  26.181  1.00  0.00     0.074 A 
ATOM     69  C   UNL A   1      46.873  24.246  25.013  1.00  0.00     0.031 C 
ATOM     70  C   UNL A   1      48.211  25.977  26.443  1.00  0.00     0.037 A 
BRANCH  57  71
ATOM     71  C   UNL A   1      47.391  30.802  30.284  1.00  0.00     0.058 A 
ATOM     72  C   UNL A   1      47.630  32.129  29.871  1.00  0.00     0.135 A 
ATOM     73  C   UNL A   1      47.587  30.595  31.671  1.00  0.00     0.135 A 
ATOM     74  F   UNL A   1      47.355  32.535  28.625  1.00  0.00    -0.206 F 
ATOM     75  C   UNL A   1      48.108  33.126  30.732  1.00  0.00     0.059 A 
ATOM     76  C   UNL A   1      48.144  31.545  32.531  1.00  0.00     0.059 A 
ATOM     77  F   UNL A   1      47.140  29.497  32.293  1.00  0.00    -0.206 F 
ATOM     78  C   UNL A   1      48.388  32.820  32.057  1.00  0.00     0.060 A 
BRANCH  78  79
ATOM     79  S   UNL A   1      48.945  34.118  33.173  1.00  0.00     0.124 S 
ATOM     80  O   UNL A   1      48.592  35.330  32.442  1.00  0.00    -0.237 OA
ATOM     81  O   UNL A   1      48.157  33.847  34.372  1.00  0.00    -0.237 OA
ATOM     82  O   UNL A   1      50.378  33.868  33.304  1.00  0.00    -0.744 OA
ENDBRANCH  78  79
ENDBRANCH  57  71
BRANCH  58  83
ATOM     83  C   UNL A   1      43.086  22.716  26.905  1.00  0.00     0.058 A 
ATOM     84  C   UNL A   1      43.043  22.745  25.500  1.00  0.00     0.135 A 
ATOM     85  C   UNL A   1      42.708  21.493  27.416  1.00  0.00     0.135 A 
ATOM     86  F   UNL A   1      42.738  23.886  24.871  1.00  0.00    -0.206 F 
ATOM     87  C   UNL A   1      43.390  21.631  24.726  1.00  0.00     0.059 A 
ATOM     88  C   UNL A   1      43.120  20.386  26.667  1.00  0.00     0.059 A 
ATOM     89  F   UNL A   1      42.518  21.352  28.738  1.00  0.00    -0.206 F 
ATOM     90  C   UNL A   1      43.622  20.436  25.392  1.00  0.00     0.060 A 
BRANCH  90  91
ATOM     91  S   UNL A   1      45.040  19.040  24.788  1.00  0.00     0.124 S 
ATOM     92  O   UNL A   1      46.253  19.748  25.150  1.00  0.00    -0.237 OA
ATOM     93  O   UNL A   1      44.816  17.861  25.609  1.00  0.00    -0.237 OA
ATOM     94  O   UNL A   1      44.862  18.816  23.366  1.00  0.00    -0.744 OA
ENDBRANCH  90  91
ENDBRANCH  58  83
BRANCH  70  95
ATOM     95  C   UNL A   1      49.265  26.425  25.470  1.00  0.00     0.058 A 
ATOM     96  C   UNL A   1      48.971  27.174  24.321  1.00  0.00     0.135 A 
ATOM     97  C   UNL A   1      50.612  26.007  25.595  1.00  0.00     0.135 A 
ATOM     98  F   UNL A   1      47.705  27.474  23.989  1.00  0.00    -0.206 F 
ATOM     99  C   UNL A   1      49.963  27.604  23.444  1.00  0.00     0.059 A 
ATOM    100  C   UNL A   1      51.608  26.384  24.711  1.00  0.00     0.059 A 
ATOM    101  F   UNL A   1      51.036  25.209  26.582  1.00  0.00    -0.206 F 
ATOM    102  C   UNL A   1      51.283  27.219  23.661  1.00  0.00     0.060 A 
BRANCH 102 103
ATOM    103  S   UNL A   1      52.565  27.784  22.542  1.00  0.00     0.124 S 
ATOM    104  O   UNL A   1      53.704  26.959  22.933  1.00  0.00    -0.237 OA
ATOM    105  O   UNL A   1      51.973  27.474  21.244  1.00  0.00    -0.237 OA
ATOM    106  O   UNL A   1      52.691  29.205  22.851  1.00  0.00    -0.744 OA
ENDBRANCH 102 103
ENDBRANCH  70  95
ENDBRANCH  44  45
ENDBRANCH  36  39
ENDBRANCH  34  35
ENDBRANCH  33  34
ENDBRANCH  32  33
ENDBRANCH   3  32
TORSDOF 19
ENDMDL
MODEL 3
REMARK VINA RESULT:     -12.8      4.735      8.339
REMARK SMILES Cc1cc(C(=O)NCCCNC(=O)c2ccc(-c3c4nc(c(-c5c(F)cc(S(=O)(=O)[O-])cc5F)c5ccc([nH]5)c(-c5c(F)cc(S(=O)(=O)[O-])cc5F)c5nc(c(-c6c(F)cc(S(=O)(=O)[O-])cc6F)c6ccc3[nH]6)C=C5)C=C4)cc2)ccc1NC(=O)c1ccc(=O)n(CCOc2ccccc2)n1
REMARK SMILES IDX 5 1 6 2 7 3 4 5 1 6 2 7 3 8 82 9 81 10 80 11 83 12 84 13
REMARK SMILES IDX 85 15 86 16 87 17 101 18 88 19 91 20 89 21 90 22 92 23 93 24
REMARK SMILES IDX 94 25 95 26 96 27 100 28 97 29 99 30 98 31 8 32 9 33 10 34
REMARK SMILES IDX 11 35 12 36 13 38 14 39 15 40 79 41 16 42 78 43 17 44 18 45
REMARK SMILES IDX 19 46 72 47 20 48 77 49 71 50 73 51 21 52 76 53 70 54 69 55
REMARK SMILES IDX 22 57 56 58 35 59 55 60 36 61 39 62 54 63 74 64 37 65 38 66
REMARK SMILES IDX 53 68 75 69 40 70 23 71 24 72 33 73 25 74 26 75 32 76 34 77
REMARK SMILES IDX 27 78 28 79 29 80 30 81 31 82 57 83 58 84 67 85 59 86 60 87
REMARK SMILES IDX 66 88 68 89 61 90 62 91 63 92 64 93 65 94 41 95 42 96 51 97
REMARK SMILES IDX 43 98 44 99 50 100 52 101 45 102 46 103 47 104 48 105 49 106
REMARK H PARENT 7 4 83 14 11 37 73 56 39 67
REMARK Flexibility Score: inf
ROOT
ATOM      1  C   UNL A   1      33.850  21.661  26.732  1.00  0.00     0.251 C 
ATOM      2  O   UNL A   1      33.215  21.477  27.768  1.00  0.00    -0.269 OA
ATOM      3  N   UNL A   1      34.792  20.754  26.258  1.00  0.00    -0.352 N 
ATOM      4  H   UNL A   1      35.115  20.130  26.947  1.00  0.00     0.163 HD
ENDROOT
BRANCH   1   5
ATOM      5  C   UNL A   1      33.574  22.900  25.969  1.00  0.00     0.040 A 
ATOM      6  C   UNL A   1      31.059  24.434  23.558  1.00  0.00     0.046 C 
ATOM      7  C   UNL A   1      32.361  24.170  24.265  1.00  0.00    -0.027 A 
ATOM      8  C   UNL A   1      32.444  23.069  25.153  1.00  0.00     0.019 A 
ATOM      9  C   UNL A   1      33.476  25.014  24.160  1.00  0.00     0.044 A 
ATOM     10  C   UNL A   1      34.367  25.017  25.226  1.00  0.00     0.027 A 
ATOM     11  C   UNL A   1      34.429  23.971  26.131  1.00  0.00     0.016 A 
BRANCH   9  12
ATOM     12  N   UNL A   1      33.699  25.771  22.985  1.00  0.00    -0.320 N 
ATOM     13  C   UNL A   1      33.602  27.142  22.774  1.00  0.00     0.276 C 
ATOM     14  H   UNL A   1      33.965  25.247  22.195  1.00  0.00     0.170 HD
ATOM     15  O   UNL A   1      33.869  27.651  21.691  1.00  0.00    -0.267 OA
BRANCH  13  16
ATOM     16  C   UNL A   1      33.122  28.049  23.888  1.00  0.00     0.149 A 
ATOM     17  C   UNL A   1      31.664  28.275  23.873  1.00  0.00     0.042 A 
ATOM     18  N   UNL A   1      33.946  28.524  24.780  1.00  0.00    -0.164 NA
ATOM     19  C   UNL A   1      31.136  28.495  25.071  1.00  0.00     0.076 A 
ATOM     20  N   UNL A   1      33.333  29.048  25.927  1.00  0.00    -0.226 N 
ATOM     21  C   UNL A   1      32.025  28.643  26.245  1.00  0.00     0.266 A 
ATOM     22  O   UNL A   1      31.527  28.500  27.333  1.00  0.00    -0.268 OA
BRANCH  20  23
ATOM     23  C   UNL A   1      34.203  29.703  26.927  1.00  0.00     0.190 C 
BRANCH  23  24
ATOM     24  C   UNL A   1      33.661  31.007  27.544  1.00  0.00     0.253 C 
BRANCH  24  25
ATOM     25  O   UNL A   1      34.581  32.130  27.490  1.00  0.00    -0.492 OA
BRANCH  25  26
ATOM     26  C   UNL A   1      35.378  32.221  28.593  1.00  0.00     0.119 A 
ATOM     27  C   UNL A   1      34.877  32.662  29.808  1.00  0.00     0.046 A 
ATOM     28  C   UNL A   1      36.738  31.999  28.481  1.00  0.00     0.046 A 
ATOM     29  C   UNL A   1      35.715  32.687  30.931  1.00  0.00     0.004 A 
ATOM     30  C   UNL A   1      37.558  31.914  29.603  1.00  0.00     0.004 A 
ATOM     31  C   UNL A   1      37.036  32.243  30.843  1.00  0.00     0.000 A 
ENDBRANCH  25  26
ENDBRANCH  24  25
ENDBRANCH  23  24
ENDBRANCH  20  23
ENDBRANCH  13  16
ENDBRANCH   9  12
ENDBRANCH   1   5
BRANCH   3  32
ATOM     32  C   UNL A   1      35.412  20.530  24.921  1.00  0.00     0.118 C 
BRANCH  32  33
ATOM     33  C   UNL A   1      36.805  21.267  24.516  1.00  0.00     0.042 C 
BRANCH  33  34
ATOM     34  C   UNL A   1      38.116  20.715  25.211  1.00  0.00     0.118 C 
BRANCH  34  35
ATOM     35  N   UNL A   1      39.421  21.442  25.828  1.00  0.00    -0.352 N 
ATOM     36  C   UNL A   1      39.849  22.585  26.693  1.00  0.00     0.251 C 
ATOM     37  H   UNL A   1      40.224  20.960  25.525  1.00  0.00     0.163 HD
ATOM     38  O   UNL A   1      40.494  22.190  27.686  1.00  0.00    -0.269 OA
BRANCH  36  39
ATOM     39  C   UNL A   1      39.734  24.219  26.668  1.00  0.00     0.039 A 
ATOM     40  C   UNL A   1      40.653  25.049  25.929  1.00  0.00     0.014 A 
ATOM     41  C   UNL A   1      38.866  25.003  27.414  1.00  0.00     0.014 A 
ATOM     42  C   UNL A   1      41.077  26.357  26.446  1.00  0.00     0.010 A 
ATOM     43  C   UNL A   1      39.297  26.262  27.949  1.00  0.00     0.010 A 
ATOM     44  C   UNL A   1      40.561  26.802  27.677  1.00  0.00    -0.014 A 
BRANCH  44  45
ATOM     45  C   UNL A   1      41.376  27.471  28.823  1.00  0.00     0.031 A 
ATOM     46  C   UNL A   1      40.685  28.422  29.679  1.00  0.00     0.074 A 
ATOM     47  C   UNL A   1      42.635  27.225  29.331  1.00  0.00     0.049 A 
ATOM     48  N   UNL A   1      41.026  29.652  29.882  1.00  0.00    -0.248 NA
ATOM     49  C   UNL A   1      39.511  27.981  30.408  1.00  0.00     0.031 C 
ATOM     50  C   UNL A   1      43.412  27.749  30.477  1.00  0.00     0.029 A 
ATOM     51  N   UNL A   1      43.580  26.317  28.900  1.00  0.00    -0.354 N 
ATOM     52  C   UNL A   1      40.313  30.023  31.004  1.00  0.00     0.074 A 
ATOM     53  C   UNL A   1      39.203  29.096  31.064  1.00  0.00     0.031 C 
ATOM     54  C   UNL A   1      44.733  27.474  30.302  1.00  0.00     0.029 A 
ATOM     55  C   UNL A   1      44.878  26.793  29.031  1.00  0.00     0.049 A 
ATOM     56  H   UNL A   1      43.358  25.428  28.537  1.00  0.00     0.167 HD
ATOM     57  C   UNL A   1      40.880  30.779  31.997  1.00  0.00     0.037 A 
ATOM     58  C   UNL A   1      45.560  27.149  27.889  1.00  0.00     0.037 A 
ATOM     59  C   UNL A   1      42.338  30.930  31.799  1.00  0.00     0.049 A 
ATOM     60  C   UNL A   1      45.622  28.655  27.788  1.00  0.00     0.074 A 
ATOM     61  C   UNL A   1      43.466  30.494  32.484  1.00  0.00     0.029 A 
ATOM     62  N   UNL A   1      42.820  31.366  30.575  1.00  0.00    -0.354 N 
ATOM     63  N   UNL A   1      45.268  29.430  28.770  1.00  0.00    -0.248 NA
ATOM     64  C   UNL A   1      46.001  29.418  26.601  1.00  0.00     0.031 C 
ATOM     65  C   UNL A   1      44.615  30.684  31.652  1.00  0.00     0.029 A 
ATOM     66  C   UNL A   1      44.195  31.264  30.470  1.00  0.00     0.049 A 
ATOM     67  H   UNL A   1      42.244  31.712  29.855  1.00  0.00     0.167 HD
ATOM     68  C   UNL A   1      45.255  30.728  28.377  1.00  0.00     0.074 A 
ATOM     69  C   UNL A   1      45.748  30.678  27.008  1.00  0.00     0.031 C 
ATOM     70  C   UNL A   1      44.823  31.706  29.227  1.00  0.00     0.037 A 
BRANCH  57  71
ATOM     71  C   UNL A   1      40.162  31.114  33.304  1.00  0.00     0.058 A 
ATOM     72  C   UNL A   1      40.097  30.194  34.371  1.00  0.00     0.135 A 
ATOM     73  C   UNL A   1      39.573  32.368  33.600  1.00  0.00     0.135 A 
ATOM     74  F   UNL A   1      40.728  29.014  34.317  1.00  0.00    -0.206 F 
ATOM     75  C   UNL A   1      39.430  30.460  35.574  1.00  0.00     0.059 A 
ATOM     76  C   UNL A   1      38.830  32.628  34.754  1.00  0.00     0.059 A 
ATOM     77  F   UNL A   1      39.786  33.447  32.837  1.00  0.00    -0.206 F 
ATOM     78  C   UNL A   1      38.776  31.671  35.749  1.00  0.00     0.060 A 
BRANCH  78  79
ATOM     79  S   UNL A   1      37.971  32.031  37.319  1.00  0.00     0.124 S 
ATOM     80  O   UNL A   1      37.475  30.720  37.723  1.00  0.00    -0.237 OA
ATOM     81  O   UNL A   1      39.076  32.565  38.111  1.00  0.00    -0.237 OA
ATOM     82  O   UNL A   1      36.939  33.001  36.962  1.00  0.00    -0.744 OA
ENDBRANCH  78  79
ENDBRANCH  57  71
BRANCH  58  83
ATOM     83  C   UNL A   1      45.377  26.205  26.668  1.00  0.00     0.058 A 
ATOM     84  C   UNL A   1      45.274  26.875  25.436  1.00  0.00     0.135 A 
ATOM     85  C   UNL A   1      46.326  25.206  26.644  1.00  0.00     0.135 A 
ATOM     86  F   UNL A   1      44.091  27.363  25.045  1.00  0.00    -0.206 F 
ATOM     87  C   UNL A   1      46.394  27.122  24.633  1.00  0.00     0.059 A 
ATOM     88  C   UNL A   1      47.470  25.495  25.892  1.00  0.00     0.059 A 
ATOM     89  F   UNL A   1      46.423  24.353  27.678  1.00  0.00    -0.206 F 
ATOM     90  C   UNL A   1      47.594  26.537  25.011  1.00  0.00     0.060 A 
BRANCH  90  91
ATOM     91  S   UNL A   1      49.448  27.442  24.742  1.00  0.00     0.124 S 
ATOM     92  O   UNL A   1      50.316  26.310  25.005  1.00  0.00    -0.237 OA
ATOM     93  O   UNL A   1      49.488  27.865  23.351  1.00  0.00    -0.237 OA
ATOM     94  O   UNL A   1      49.552  28.530  25.697  1.00  0.00    -0.744 OA
ENDBRANCH  90  91
ENDBRANCH  58  83
BRANCH  70  95
ATOM     95  C   UNL A   1      44.906  33.178  28.936  1.00  0.00     0.058 A 
ATOM     96  C   UNL A   1      44.216  33.786  27.877  1.00  0.00     0.135 A 
ATOM     97  C   UNL A   1      45.791  34.024  29.649  1.00  0.00     0.135 A 
ATOM     98  F   UNL A   1      43.490  33.061  27.012  1.00  0.00    -0.206 F 
ATOM     99  C   UNL A   1      44.282  35.156  27.639  1.00  0.00     0.059 A 
ATOM    100  C   UNL A   1      45.909  35.380  29.401  1.00  0.00     0.059 A 
ATOM    101  F   UNL A   1      46.591  33.578  30.625  1.00  0.00    -0.206 F 
ATOM    102  C   UNL A   1      45.118  35.947  28.422  1.00  0.00     0.060 A 
BRANCH 102 103
ATOM    103  S   UNL A   1      45.194  37.714  28.127  1.00  0.00     0.124 S 
ATOM    104  O   UNL A   1      46.051  37.796  26.948  1.00  0.00    -0.237 OA
ATOM    105  O   UNL A   1      43.787  38.032  27.912  1.00  0.00    -0.237 OA
ATOM    106  O   UNL A   1      45.777  38.244  29.357  1.00  0.00    -0.744 OA
ENDBRANCH 102 103
ENDBRANCH  70  95
ENDBRANCH  44  45
ENDBRANCH  36  39
ENDBRANCH  34  35
ENDBRANCH  33  34
ENDBRANCH  32  33
ENDBRANCH   3  32
TORSDOF 19
ENDMDL
