MODEL 1
REMARK VINA RESULT:     -10.3      0.000      0.000
REMARK SMILES [NH3+][C@@H](CC(=O)NCCCNC(=O)c1ccc(-c2c3nc(c(-c4c(F)cc(S(=O)(=O)[O-])cc4F)c4ccc([nH]4)c(-c4c(F)cc(S(=O)(=O)[O-])cc4F)c4nc(c(-c5c(F)cc(S(=O)(=O)[O-])cc5F)c5ccc2[nH]5)C=C4)C=C3)cc1)Cc1ccc(F)cc1
REMARK SMILES IDX 8 1 7 2 6 3 4 4 5 5 3 7 2 8 1 9 79 13 80 14 81 15 86 16
REMARK SMILES IDX 82 17 85 18 83 19 84 20 9 21 10 22 11 23 12 25 13 26 14 27
REMARK SMILES IDX 78 28 15 29 77 30 16 31 17 32 18 33 71 34 19 35 76 36 70 37
REMARK SMILES IDX 72 38 20 39 75 40 69 41 68 42 21 44 55 45 34 46 54 47 35 48
REMARK SMILES IDX 38 49 53 50 73 51 36 52 37 53 52 55 74 56 39 57 22 58 23 59
REMARK SMILES IDX 32 60 24 61 25 62 31 63 33 64 26 65 27 66 28 67 29 68 30 69
REMARK SMILES IDX 56 70 57 71 66 72 58 73 59 74 65 75 67 76 60 77 61 78 62 79
REMARK SMILES IDX 63 80 64 81 40 82 41 83 50 84 42 85 43 86 49 87 51 88 44 89
REMARK SMILES IDX 45 90 46 91 47 92 48 93
REMARK H PARENT 6 6 1 10 1 11 1 12 10 24 72 43 38 54
REMARK Flexibility Score: inf
ROOT
ATOM      1  C   UNL A   1      33.522  33.866  28.401  1.00  0.00     0.042 C 
ENDROOT
BRANCH   1   2
ATOM      2  C   UNL A   1      34.010  35.075  29.192  1.00  0.00     0.117 C 
BRANCH   2   3
ATOM      3  N   UNL A   1      32.938  35.660  29.974  1.00  0.00    -0.356 N 
ATOM      4  C   UNL A   1      32.876  35.929  31.306  1.00  0.00     0.225 C 
ATOM      5  O   UNL A   1      31.814  36.356  31.764  1.00  0.00    -0.275 OA
ATOM      6  H   UNL A   1      32.131  35.898  29.462  1.00  0.00     0.163 HD
BRANCH   4   7
ATOM      7  C   UNL A   1      34.086  35.740  32.198  1.00  0.00     0.165 C 
BRANCH   7   8
ATOM      8  C   UNL A   1      34.370  34.315  32.711  1.00  0.00     0.194 C 
BRANCH   8   9
ATOM      9  N   UNL A   1      33.160  33.636  33.190  1.00  0.00    -0.354 N 
ATOM     10  H   UNL A   1      33.182  32.658  32.902  1.00  0.00     0.344 HD
ATOM     11  H   UNL A   1      32.338  34.089  32.793  1.00  0.00     0.344 HD
ATOM     12  H   UNL A   1      33.121  33.690  34.208  1.00  0.00     0.344 HD
ENDBRANCH   8   9
BRANCH   8  13
ATOM     13  C   UNL A   1      35.569  34.229  33.698  1.00  0.00     0.101 C 
BRANCH  13  14
ATOM     14  C   UNL A   1      36.591  33.132  33.446  1.00  0.00    -0.042 A 
ATOM     15  C   UNL A   1      37.956  33.416  33.627  1.00  0.00     0.007 A 
ATOM     16  C   UNL A   1      36.223  31.837  33.046  1.00  0.00     0.007 A 
ATOM     17  C   UNL A   1      38.918  32.415  33.479  1.00  0.00     0.039 A 
ATOM     18  C   UNL A   1      37.183  30.834  32.913  1.00  0.00     0.039 A 
ATOM     19  C   UNL A   1      38.520  31.129  33.138  1.00  0.00     0.123 A 
ATOM     20  F   UNL A   1      39.437  30.161  33.021  1.00  0.00    -0.207 F 
ENDBRANCH  13  14
ENDBRANCH   8  13
ENDBRANCH   7   8
ENDBRANCH   4   7
ENDBRANCH   2   3
ENDBRANCH   1   2
BRANCH   1  21
ATOM     21  C   UNL A   1      34.466  32.671  28.475  1.00  0.00     0.118 C 
BRANCH  21  22
ATOM     22  N   UNL A   1      33.804  31.418  28.136  1.00  0.00    -0.352 N 
ATOM     23  C   UNL A   1      34.345  30.176  27.909  1.00  0.00     0.251 C 
ATOM     24  H   UNL A   1      32.824  31.470  28.059  1.00  0.00     0.163 HD
ATOM     25  O   UNL A   1      33.639  29.288  27.435  1.00  0.00    -0.269 OA
BRANCH  23  26
ATOM     26  C   UNL A   1      35.768  29.914  28.213  1.00  0.00     0.039 A 
ATOM     27  C   UNL A   1      36.126  29.501  29.499  1.00  0.00     0.014 A 
ATOM     28  C   UNL A   1      36.751  30.088  27.236  1.00  0.00     0.014 A 
ATOM     29  C   UNL A   1      37.461  29.198  29.785  1.00  0.00     0.010 A 
ATOM     30  C   UNL A   1      38.063  29.704  27.497  1.00  0.00     0.010 A 
ATOM     31  C   UNL A   1      38.435  29.263  28.775  1.00  0.00    -0.014 A 
BRANCH  31  32
ATOM     32  C   UNL A   1      39.855  28.907  29.031  1.00  0.00     0.031 A 
ATOM     33  C   UNL A   1      40.794  29.946  29.584  1.00  0.00     0.074 A 
ATOM     34  C   UNL A   1      40.314  27.683  28.700  1.00  0.00     0.049 A 
ATOM     35  N   UNL A   1      42.090  29.885  29.750  1.00  0.00    -0.248 NA
ATOM     36  C   UNL A   1      40.200  31.235  29.977  1.00  0.00     0.031 C 
ATOM     37  C   UNL A   1      39.510  26.598  28.133  1.00  0.00     0.029 A 
ATOM     38  N   UNL A   1      41.578  27.149  28.778  1.00  0.00    -0.354 N 
ATOM     39  C   UNL A   1      42.465  31.125  30.257  1.00  0.00     0.074 A 
ATOM     40  C   UNL A   1      41.271  31.939  30.308  1.00  0.00     0.031 C 
ATOM     41  C   UNL A   1      40.293  25.527  27.930  1.00  0.00     0.029 A 
ATOM     42  C   UNL A   1      41.664  25.860  28.304  1.00  0.00     0.049 A 
ATOM     43  H   UNL A   1      42.349  27.643  29.138  1.00  0.00     0.167 HD
ATOM     44  C   UNL A   1      43.687  31.538  30.669  1.00  0.00     0.037 A 
ATOM     45  C   UNL A   1      42.731  25.047  28.170  1.00  0.00     0.037 A 
ATOM     46  C   UNL A   1      44.867  30.716  30.632  1.00  0.00     0.049 A 
ATOM     47  C   UNL A   1      44.089  25.548  28.592  1.00  0.00     0.074 A 
ATOM     48  C   UNL A   1      46.150  31.032  31.044  1.00  0.00     0.029 A 
ATOM     49  N   UNL A   1      44.909  29.412  30.160  1.00  0.00    -0.354 N 
ATOM     50  N   UNL A   1      44.418  26.711  29.101  1.00  0.00    -0.248 NA
ATOM     51  C   UNL A   1      45.220  24.624  28.427  1.00  0.00     0.031 C 
ATOM     52  C   UNL A   1      46.975  29.935  30.783  1.00  0.00     0.029 A 
ATOM     53  C   UNL A   1      46.198  28.914  30.262  1.00  0.00     0.049 A 
ATOM     54  H   UNL A   1      44.138  28.914  29.806  1.00  0.00     0.167 HD
ATOM     55  C   UNL A   1      45.784  26.641  29.356  1.00  0.00     0.074 A 
ATOM     56  C   UNL A   1      46.219  25.322  28.950  1.00  0.00     0.031 C 
ATOM     57  C   UNL A   1      46.605  27.584  29.882  1.00  0.00     0.037 A 
BRANCH  44  58
ATOM     58  C   UNL A   1      43.805  32.936  31.214  1.00  0.00     0.058 A 
ATOM     59  C   UNL A   1      44.033  34.034  30.369  1.00  0.00     0.135 A 
ATOM     60  C   UNL A   1      43.646  33.190  32.586  1.00  0.00     0.135 A 
ATOM     61  F   UNL A   1      44.209  33.849  29.050  1.00  0.00    -0.206 F 
ATOM     62  C   UNL A   1      44.126  35.330  30.866  1.00  0.00     0.059 A 
ATOM     63  C   UNL A   1      43.704  34.482  33.102  1.00  0.00     0.059 A 
ATOM     64  F   UNL A   1      43.428  32.178  33.441  1.00  0.00    -0.206 F 
ATOM     65  C   UNL A   1      43.958  35.544  32.234  1.00  0.00     0.060 A 
BRANCH  65  66
ATOM     66  S   UNL A   1      44.069  37.233  32.859  1.00  0.00     0.124 S 
ATOM     67  O   UNL A   1      43.855  38.008  31.640  1.00  0.00    -0.237 OA
ATOM     68  O   UNL A   1      42.985  37.277  33.835  1.00  0.00    -0.237 OA
ATOM     69  O   UNL A   1      45.416  37.304  33.418  1.00  0.00    -0.744 OA
ENDBRANCH  65  66
ENDBRANCH  44  58
BRANCH  45  70
ATOM     70  C   UNL A   1      42.569  23.672  27.620  1.00  0.00     0.058 A 
ATOM     71  C   UNL A   1      42.422  22.568  28.473  1.00  0.00     0.135 A 
ATOM     72  C   UNL A   1      42.586  23.429  26.237  1.00  0.00     0.135 A 
ATOM     73  F   UNL A   1      42.403  22.747  29.803  1.00  0.00    -0.206 F 
ATOM     74  C   UNL A   1      42.333  21.271  27.981  1.00  0.00     0.059 A 
ATOM     75  C   UNL A   1      42.468  22.143  25.719  1.00  0.00     0.059 A 
ATOM     76  F   UNL A   1      42.706  24.451  25.375  1.00  0.00    -0.206 F 
ATOM     77  C   UNL A   1      42.361  21.068  26.600  1.00  0.00     0.060 A 
BRANCH  77  78
ATOM     78  S   UNL A   1      42.240  19.379  25.973  1.00  0.00     0.124 S 
ATOM     79  O   UNL A   1      40.806  19.258  25.733  1.00  0.00    -0.237 OA
ATOM     80  O   UNL A   1      43.083  19.433  24.782  1.00  0.00    -0.237 OA
ATOM     81  O   UNL A   1      42.767  18.574  27.069  1.00  0.00    -0.744 OA
ENDBRANCH  77  78
ENDBRANCH  45  70
BRANCH  57  82
ATOM     82  C   UNL A   1      48.044  27.210  30.116  1.00  0.00     0.058 A 
ATOM     83  C   UNL A   1      49.047  27.496  29.179  1.00  0.00     0.135 A 
ATOM     84  C   UNL A   1      48.429  26.626  31.334  1.00  0.00     0.135 A 
ATOM     85  F   UNL A   1      48.732  28.047  27.997  1.00  0.00    -0.206 F 
ATOM     86  C   UNL A   1      50.384  27.206  29.437  1.00  0.00     0.059 A 
ATOM     87  C   UNL A   1      49.761  26.355  31.625  1.00  0.00     0.059 A 
ATOM     88  F   UNL A   1      47.508  26.340  32.268  1.00  0.00    -0.206 F 
ATOM     89  C   UNL A   1      50.731  26.642  30.667  1.00  0.00     0.060 A 
BRANCH  89  90
ATOM     90  S   UNL A   1      52.475  26.329  31.010  1.00  0.00     0.124 S 
ATOM     91  O   UNL A   1      52.845  27.518  31.772  1.00  0.00    -0.237 OA
ATOM     92  O   UNL A   1      52.425  25.082  31.766  1.00  0.00    -0.237 OA
ATOM     93  O   UNL A   1      53.071  26.225  29.680  1.00  0.00    -0.744 OA
ENDBRANCH  89  90
ENDBRANCH  57  82
ENDBRANCH  31  32
ENDBRANCH  23  26
ENDBRANCH  21  22
ENDBRANCH   1  21
TORSDOF 17
ENDMDL
MODEL 2
REMARK VINA RESULT:     -10.2      2.758      5.556
REMARK SMILES [NH3+][C@@H](CC(=O)NCCCNC(=O)c1ccc(-c2c3nc(c(-c4c(F)cc(S(=O)(=O)[O-])cc4F)c4ccc([nH]4)c(-c4c(F)cc(S(=O)(=O)[O-])cc4F)c4nc(c(-c5c(F)cc(S(=O)(=O)[O-])cc5F)c5ccc2[nH]5)C=C4)C=C3)cc1)Cc1ccc(F)cc1
REMARK SMILES IDX 8 1 7 2 6 3 4 4 5 5 3 7 2 8 1 9 79 13 80 14 81 15 86 16
REMARK SMILES IDX 82 17 85 18 83 19 84 20 9 21 10 22 11 23 12 25 13 26 14 27
REMARK SMILES IDX 78 28 15 29 77 30 16 31 17 32 18 33 71 34 19 35 76 36 70 37
REMARK SMILES IDX 72 38 20 39 75 40 69 41 68 42 21 44 55 45 34 46 54 47 35 48
REMARK SMILES IDX 38 49 53 50 73 51 36 52 37 53 52 55 74 56 39 57 22 58 23 59
REMARK SMILES IDX 32 60 24 61 25 62 31 63 33 64 26 65 27 66 28 67 29 68 30 69
REMARK SMILES IDX 56 70 57 71 66 72 58 73 59 74 65 75 67 76 60 77 61 78 62 79
REMARK SMILES IDX 63 80 64 81 40 82 41 83 50 84 42 85 43 86 49 87 51 88 44 89
REMARK SMILES IDX 45 90 46 91 47 92 48 93
REMARK H PARENT 6 6 1 10 1 11 1 12 10 24 72 43 38 54
REMARK Flexibility Score: inf
ROOT
ATOM      1  C   UNL A   1      32.255  27.583  26.894  1.00  0.00     0.042 C 
ENDROOT
BRANCH   1   2
ATOM      2  C   UNL A   1      32.303  26.247  26.160  1.00  0.00     0.117 C 
BRANCH   2   3
ATOM      3  N   UNL A   1      31.334  25.314  26.703  1.00  0.00    -0.356 N 
ATOM      4  C   UNL A   1      31.392  23.960  26.810  1.00  0.00     0.225 C 
ATOM      5  O   UNL A   1      30.399  23.367  27.237  1.00  0.00    -0.275 OA
ATOM      6  H   UNL A   1      30.507  25.725  27.048  1.00  0.00     0.163 HD
BRANCH   4   7
ATOM      7  C   UNL A   1      32.652  23.200  26.446  1.00  0.00     0.165 C 
BRANCH   7   8
ATOM      8  C   UNL A   1      32.939  22.986  24.947  1.00  0.00     0.194 C 
BRANCH   8   9
ATOM      9  N   UNL A   1      31.714  22.917  24.142  1.00  0.00    -0.354 N 
ATOM     10  H   UNL A   1      31.956  22.735  23.168  1.00  0.00     0.344 HD
ATOM     11  H   UNL A   1      31.214  23.803  24.208  1.00  0.00     0.344 HD
ATOM     12  H   UNL A   1      31.120  22.165  24.492  1.00  0.00     0.344 HD
ENDBRANCH   8   9
BRANCH   8  13
ATOM     13  C   UNL A   1      33.944  21.834  24.658  1.00  0.00     0.101 C 
BRANCH  13  14
ATOM     14  C   UNL A   1      35.404  22.094  24.993  1.00  0.00    -0.042 A 
ATOM     15  C   UNL A   1      35.807  23.401  25.320  1.00  0.00     0.007 A 
ATOM     16  C   UNL A   1      36.368  21.074  24.999  1.00  0.00     0.007 A 
ATOM     17  C   UNL A   1      37.122  23.665  25.709  1.00  0.00     0.039 A 
ATOM     18  C   UNL A   1      37.679  21.335  25.401  1.00  0.00     0.039 A 
ATOM     19  C   UNL A   1      38.042  22.626  25.759  1.00  0.00     0.123 A 
ATOM     20  F   UNL A   1      39.297  22.871  26.156  1.00  0.00    -0.207 F 
ENDBRANCH  13  14
ENDBRANCH   8  13
ENDBRANCH   7   8
ENDBRANCH   4   7
ENDBRANCH   2   3
ENDBRANCH   1   2
BRANCH   1  21
ATOM     21  C   UNL A   1      33.604  28.290  26.956  1.00  0.00     0.118 C 
BRANCH  21  22
ATOM     22  N   UNL A   1      33.483  29.683  27.364  1.00  0.00    -0.352 N 
ATOM     23  C   UNL A   1      34.375  30.476  28.044  1.00  0.00     0.251 C 
ATOM     24  H   UNL A   1      32.637  30.120  27.115  1.00  0.00     0.163 HD
ATOM     25  O   UNL A   1      34.006  31.568  28.474  1.00  0.00    -0.269 OA
BRANCH  23  26
ATOM     26  C   UNL A   1      35.760  30.015  28.274  1.00  0.00     0.039 A 
ATOM     27  C   UNL A   1      36.687  30.088  27.231  1.00  0.00     0.014 A 
ATOM     28  C   UNL A   1      36.144  29.497  29.514  1.00  0.00     0.014 A 
ATOM     29  C   UNL A   1      38.013  29.705  27.452  1.00  0.00     0.010 A 
ATOM     30  C   UNL A   1      37.481  29.199  29.757  1.00  0.00     0.010 A 
ATOM     31  C   UNL A   1      38.430  29.291  28.728  1.00  0.00    -0.014 A 
BRANCH  31  32
ATOM     32  C   UNL A   1      39.840  28.918  29.011  1.00  0.00     0.031 A 
ATOM     33  C   UNL A   1      40.778  29.944  29.590  1.00  0.00     0.074 A 
ATOM     34  C   UNL A   1      40.293  27.691  28.684  1.00  0.00     0.049 A 
ATOM     35  N   UNL A   1      42.070  29.869  29.782  1.00  0.00    -0.248 NA
ATOM     36  C   UNL A   1      40.190  31.237  29.977  1.00  0.00     0.031 C 
ATOM     37  C   UNL A   1      39.489  26.618  28.095  1.00  0.00     0.029 A 
ATOM     38  N   UNL A   1      41.549  27.143  28.786  1.00  0.00    -0.354 N 
ATOM     39  C   UNL A   1      42.447  31.101  30.303  1.00  0.00     0.074 A 
ATOM     40  C   UNL A   1      41.261  31.929  30.334  1.00  0.00     0.031 C 
ATOM     41  C   UNL A   1      40.265  25.539  27.903  1.00  0.00     0.029 A 
ATOM     42  C   UNL A   1      41.631  25.855  28.308  1.00  0.00     0.049 A 
ATOM     43  H   UNL A   1      42.317  27.627  29.165  1.00  0.00     0.167 HD
ATOM     44  C   UNL A   1      43.665  31.499  30.744  1.00  0.00     0.037 A 
ATOM     45  C   UNL A   1      42.692  25.032  28.192  1.00  0.00     0.037 A 
ATOM     46  C   UNL A   1      44.836  30.665  30.727  1.00  0.00     0.049 A 
ATOM     47  C   UNL A   1      44.046  25.515  28.646  1.00  0.00     0.074 A 
ATOM     48  C   UNL A   1      46.113  30.965  31.168  1.00  0.00     0.029 A 
ATOM     49  N   UNL A   1      44.874  29.362  30.250  1.00  0.00    -0.354 N 
ATOM     50  N   UNL A   1      44.376  26.673  29.167  1.00  0.00    -0.248 NA
ATOM     51  C   UNL A   1      45.170  24.580  28.499  1.00  0.00     0.031 C 
ATOM     52  C   UNL A   1      46.932  29.860  30.919  1.00  0.00     0.029 A 
ATOM     53  C   UNL A   1      46.155  28.850  30.376  1.00  0.00     0.049 A 
ATOM     54  H   UNL A   1      44.105  28.875  29.877  1.00  0.00     0.167 HD
ATOM     55  C   UNL A   1      45.736  26.586  29.451  1.00  0.00     0.074 A 
ATOM     56  C   UNL A   1      46.165  25.265  29.047  1.00  0.00     0.031 C 
ATOM     57  C   UNL A   1      46.555  27.517  29.999  1.00  0.00     0.037 A 
BRANCH  44  58
ATOM     58  C   UNL A   1      43.786  32.894  31.298  1.00  0.00     0.058 A 
ATOM     59  C   UNL A   1      43.663  33.148  32.674  1.00  0.00     0.135 A 
ATOM     60  C   UNL A   1      44.071  33.980  30.456  1.00  0.00     0.135 A 
ATOM     61  F   UNL A   1      43.374  32.149  33.524  1.00  0.00    -0.206 F 
ATOM     62  C   UNL A   1      43.791  34.432  33.192  1.00  0.00     0.059 A 
ATOM     63  C   UNL A   1      44.234  35.270  30.955  1.00  0.00     0.059 A 
ATOM     64  F   UNL A   1      44.198  33.796  29.132  1.00  0.00    -0.206 F 
ATOM     65  C   UNL A   1      44.078  35.487  32.324  1.00  0.00     0.060 A 
BRANCH  65  66
ATOM     66  S   UNL A   1      44.253  37.144  33.017  1.00  0.00     0.124 S 
ATOM     67  O   UNL A   1      44.353  37.955  31.807  1.00  0.00    -0.237 OA
ATOM     68  O   UNL A   1      43.018  37.295  33.780  1.00  0.00    -0.237 OA
ATOM     69  O   UNL A   1      45.473  37.055  33.814  1.00  0.00    -0.744 OA
ENDBRANCH  65  66
ENDBRANCH  44  58
BRANCH  45  70
ATOM     70  C   UNL A   1      42.526  23.661  27.632  1.00  0.00     0.058 A 
ATOM     71  C   UNL A   1      42.334  22.557  28.475  1.00  0.00     0.135 A 
ATOM     72  C   UNL A   1      42.585  23.422  26.250  1.00  0.00     0.135 A 
ATOM     73  F   UNL A   1      42.274  22.731  29.805  1.00  0.00    -0.206 F 
ATOM     74  C   UNL A   1      42.241  21.263  27.976  1.00  0.00     0.059 A 
ATOM     75  C   UNL A   1      42.464  22.139  25.723  1.00  0.00     0.059 A 
ATOM     76  F   UNL A   1      42.750  24.444  25.396  1.00  0.00    -0.206 F 
ATOM     77  C   UNL A   1      42.312  21.063  26.596  1.00  0.00     0.060 A 
BRANCH  77  78
ATOM     78  S   UNL A   1      42.185  19.379  25.959  1.00  0.00     0.124 S 
ATOM     79  O   UNL A   1      42.668  18.599  27.093  1.00  0.00    -0.237 OA
ATOM     80  O   UNL A   1      40.758  19.268  25.670  1.00  0.00    -0.237 OA
ATOM     81  O   UNL A   1      43.054  19.395  24.787  1.00  0.00    -0.744 OA
ENDBRANCH  77  78
ENDBRANCH  45  70
BRANCH  57  82
ATOM     82  C   UNL A   1      47.985  27.126  30.261  1.00  0.00     0.058 A 
ATOM     83  C   UNL A   1      49.025  27.487  29.392  1.00  0.00     0.135 A 
ATOM     84  C   UNL A   1      48.322  26.447  31.443  1.00  0.00     0.135 A 
ATOM     85  F   UNL A   1      48.756  28.131  28.246  1.00  0.00    -0.206 F 
ATOM     86  C   UNL A   1      50.351  27.178  29.681  1.00  0.00     0.059 A 
ATOM     87  C   UNL A   1      49.642  26.154  31.766  1.00  0.00     0.059 A 
ATOM     88  F   UNL A   1      47.365  26.087  32.313  1.00  0.00    -0.206 F 
ATOM     89  C   UNL A   1      50.650  26.517  30.875  1.00  0.00     0.060 A 
BRANCH  89  90
ATOM     90  S   UNL A   1      52.379  26.179  31.264  1.00  0.00     0.124 S 
ATOM     91  O   UNL A   1      53.003  26.282  29.948  1.00  0.00    -0.237 OA
ATOM     92  O   UNL A   1      52.702  27.246  32.204  1.00  0.00    -0.237 OA
ATOM     93  O   UNL A   1      52.343  24.835  31.837  1.00  0.00    -0.744 OA
ENDBRANCH  89  90
ENDBRANCH  57  82
ENDBRANCH  31  32
ENDBRANCH  23  26
ENDBRANCH  21  22
ENDBRANCH   1  21
TORSDOF 17
ENDMDL
MODEL 3
REMARK VINA RESULT:     -10.1      3.413      5.782
REMARK SMILES [NH3+][C@@H](CC(=O)NCCCNC(=O)c1ccc(-c2c3nc(c(-c4c(F)cc(S(=O)(=O)[O-])cc4F)c4ccc([nH]4)c(-c4c(F)cc(S(=O)(=O)[O-])cc4F)c4nc(c(-c5c(F)cc(S(=O)(=O)[O-])cc5F)c5ccc2[nH]5)C=C4)C=C3)cc1)Cc1ccc(F)cc1
REMARK SMILES IDX 8 1 7 2 6 3 4 4 5 5 3 7 2 8 1 9 79 13 80 14 81 15 86 16
REMARK SMILES IDX 82 17 85 18 83 19 84 20 9 21 10 22 11 23 12 25 13 26 14 27
REMARK SMILES IDX 78 28 15 29 77 30 16 31 17 32 18 33 71 34 19 35 76 36 70 37
REMARK SMILES IDX 72 38 20 39 75 40 69 41 68 42 21 44 55 45 34 46 54 47 35 48
REMARK SMILES IDX 38 49 53 50 73 51 36 52 37 53 52 55 74 56 39 57 22 58 23 59
REMARK SMILES IDX 32 60 24 61 25 62 31 63 33 64 26 65 27 66 28 67 29 68 30 69
REMARK SMILES IDX 56 70 57 71 66 72 58 73 59 74 65 75 67 76 60 77 61 78 62 79
REMARK SMILES IDX 63 80 64 81 40 82 41 83 50 84 42 85 43 86 49 87 51 88 44 89
REMARK SMILES IDX 45 90 46 91 47 92 48 93
REMARK H PARENT 6 6 1 10 1 11 1 12 10 24 72 43 38 54
REMARK Flexibility Score: inf
ROOT
ATOM      1  C   UNL A   1      33.736  27.525  25.408  1.00  0.00     0.042 C 
ENDROOT
BRANCH   1   2
ATOM      2  C   UNL A   1      33.790  26.017  25.189  1.00  0.00     0.117 C 
BRANCH   2   3
ATOM      3  N   UNL A   1      34.091  25.697  23.807  1.00  0.00    -0.356 N 
ATOM      4  C   UNL A   1      33.265  25.292  22.805  1.00  0.00     0.225 C 
ATOM      5  O   UNL A   1      33.768  24.996  21.720  1.00  0.00    -0.275 OA
ATOM      6  H   UNL A   1      35.039  25.787  23.554  1.00  0.00     0.163 HD
BRANCH   4   7
ATOM      7  C   UNL A   1      31.764  25.235  23.005  1.00  0.00     0.165 C 
BRANCH   7   8
ATOM      8  C   UNL A   1      30.954  26.496  22.644  1.00  0.00     0.194 C 
BRANCH   8   9
ATOM      9  N   UNL A   1      31.723  27.446  21.830  1.00  0.00    -0.354 N 
ATOM     10  H   UNL A   1      32.718  27.330  22.021  1.00  0.00     0.344 HD
ATOM     11  H   UNL A   1      31.440  28.397  22.062  1.00  0.00     0.344 HD
ATOM     12  H   UNL A   1      31.543  27.269  20.842  1.00  0.00     0.344 HD
ENDBRANCH   8   9
BRANCH   8  13
ATOM     13  C   UNL A   1      30.235  27.151  23.859  1.00  0.00     0.101 C 
BRANCH  13  14
ATOM     14  C   UNL A   1      29.474  28.440  23.594  1.00  0.00    -0.042 A 
ATOM     15  C   UNL A   1      28.147  28.367  23.137  1.00  0.00     0.007 A 
ATOM     16  C   UNL A   1      30.045  29.707  23.798  1.00  0.00     0.007 A 
ATOM     17  C   UNL A   1      27.391  29.528  22.956  1.00  0.00     0.039 A 
ATOM     18  C   UNL A   1      29.285  30.865  23.631  1.00  0.00     0.039 A 
ATOM     19  C   UNL A   1      27.963  30.765  23.220  1.00  0.00     0.123 A 
ATOM     20  F   UNL A   1      27.233  31.878  23.072  1.00  0.00    -0.207 F 
ENDBRANCH  13  14
ENDBRANCH   8  13
ENDBRANCH   7   8
ENDBRANCH   4   7
ENDBRANCH   2   3
ENDBRANCH   1   2
BRANCH   1  21
ATOM     21  C   UNL A   1      33.836  27.929  26.875  1.00  0.00     0.118 C 
BRANCH  21  22
ATOM     22  N   UNL A   1      33.564  29.346  27.081  1.00  0.00    -0.352 N 
ATOM     23  C   UNL A   1      34.336  30.306  27.687  1.00  0.00     0.251 C 
ATOM     24  H   UNL A   1      32.698  29.660  26.734  1.00  0.00     0.163 HD
ATOM     25  O   UNL A   1      33.843  31.402  27.944  1.00  0.00    -0.269 OA
BRANCH  23  26
ATOM     26  C   UNL A   1      35.741  30.018  28.046  1.00  0.00     0.039 A 
ATOM     27  C   UNL A   1      36.041  29.591  29.343  1.00  0.00     0.014 A 
ATOM     28  C   UNL A   1      36.765  30.180  27.110  1.00  0.00     0.014 A 
ATOM     29  C   UNL A   1      37.358  29.264  29.678  1.00  0.00     0.010 A 
ATOM     30  C   UNL A   1      38.059  29.773  27.419  1.00  0.00     0.010 A 
ATOM     31  C   UNL A   1      38.373  29.318  28.709  1.00  0.00    -0.014 A 
BRANCH  31  32
ATOM     32  C   UNL A   1      39.775  28.936  29.018  1.00  0.00     0.031 A 
ATOM     33  C   UNL A   1      40.708  29.955  29.619  1.00  0.00     0.074 A 
ATOM     34  C   UNL A   1      40.228  27.708  28.695  1.00  0.00     0.049 A 
ATOM     35  N   UNL A   1      41.995  29.872  29.836  1.00  0.00    -0.248 NA
ATOM     36  C   UNL A   1      40.119  31.250  30.000  1.00  0.00     0.031 C 
ATOM     37  C   UNL A   1      39.430  26.642  28.085  1.00  0.00     0.029 A 
ATOM     38  N   UNL A   1      41.478  27.153  28.818  1.00  0.00    -0.354 N 
ATOM     39  C   UNL A   1      42.368  31.100  30.370  1.00  0.00     0.074 A 
ATOM     40  C   UNL A   1      41.186  31.934  30.381  1.00  0.00     0.031 C 
ATOM     41  C   UNL A   1      40.203  25.560  27.904  1.00  0.00     0.029 A 
ATOM     42  C   UNL A   1      41.563  25.867  28.337  1.00  0.00     0.049 A 
ATOM     43  H   UNL A   1      42.242  27.631  29.214  1.00  0.00     0.167 HD
ATOM     44  C   UNL A   1      43.579  31.490  30.836  1.00  0.00     0.037 A 
ATOM     45  C   UNL A   1      42.621  25.038  28.238  1.00  0.00     0.037 A 
ATOM     46  C   UNL A   1      44.747  30.649  30.838  1.00  0.00     0.049 A 
ATOM     47  C   UNL A   1      43.969  25.512  28.719  1.00  0.00     0.074 A 
ATOM     48  C   UNL A   1      46.016  30.940  31.304  1.00  0.00     0.029 A 
ATOM     49  N   UNL A   1      44.787  29.348  30.356  1.00  0.00    -0.354 N 
ATOM     50  N   UNL A   1      44.296  26.666  29.252  1.00  0.00    -0.248 NA
ATOM     51  C   UNL A   1      45.091  24.572  28.591  1.00  0.00     0.031 C 
ATOM     52  C   UNL A   1      46.834  29.831  31.067  1.00  0.00     0.029 A 
ATOM     53  C   UNL A   1      46.062  28.829  30.505  1.00  0.00     0.049 A 
ATOM     54  H   UNL A   1      44.022  28.867  29.966  1.00  0.00     0.167 HD
ATOM     55  C   UNL A   1      45.649  26.571  29.562  1.00  0.00     0.074 A 
ATOM     56  C   UNL A   1      46.079  25.249  29.161  1.00  0.00     0.031 C 
ATOM     57  C   UNL A   1      46.462  27.495  30.129  1.00  0.00     0.037 A 
BRANCH  44  58
ATOM     58  C   UNL A   1      43.697  32.881  31.398  1.00  0.00     0.058 A 
ATOM     59  C   UNL A   1      44.101  33.962  30.598  1.00  0.00     0.135 A 
ATOM     60  C   UNL A   1      43.363  33.148  32.735  1.00  0.00     0.135 A 
ATOM     61  F   UNL A   1      44.449  33.763  29.316  1.00  0.00    -0.206 F 
ATOM     62  C   UNL A   1      44.196  35.252  31.109  1.00  0.00     0.059 A 
ATOM     63  C   UNL A   1      43.420  34.436  33.261  1.00  0.00     0.059 A 
ATOM     64  F   UNL A   1      42.972  32.152  33.546  1.00  0.00    -0.206 F 
ATOM     65  C   UNL A   1      43.851  35.479  32.442  1.00  0.00     0.060 A 
BRANCH  65  66
ATOM     66  S   UNL A   1      43.967  37.161  33.083  1.00  0.00     0.124 S 
ATOM     67  O   UNL A   1      45.276  37.135  33.730  1.00  0.00    -0.237 OA
ATOM     68  O   UNL A   1      43.878  37.965  31.868  1.00  0.00    -0.237 OA
ATOM     69  O   UNL A   1      42.825  37.264  33.986  1.00  0.00    -0.744 OA
ENDBRANCH  65  66
ENDBRANCH  44  58
BRANCH  45  70
ATOM     70  C   UNL A   1      42.460  23.671  27.669  1.00  0.00     0.058 A 
ATOM     71  C   UNL A   1      42.319  22.554  28.506  1.00  0.00     0.135 A 
ATOM     72  C   UNL A   1      42.470  23.447  26.282  1.00  0.00     0.135 A 
ATOM     73  F   UNL A   1      42.306  22.713  29.838  1.00  0.00    -0.206 F 
ATOM     74  C   UNL A   1      42.231  21.264  27.995  1.00  0.00     0.059 A 
ATOM     75  C   UNL A   1      42.352  22.169  25.746  1.00  0.00     0.059 A 
ATOM     76  F   UNL A   1      42.584  24.482  25.435  1.00  0.00    -0.206 F 
ATOM     77  C   UNL A   1      42.253  21.081  26.612  1.00  0.00     0.060 A 
BRANCH  77  78
ATOM     78  S   UNL A   1      42.132  19.401  25.961  1.00  0.00     0.124 S 
ATOM     79  O   UNL A   1      40.697  19.280  25.727  1.00  0.00    -0.237 OA
ATOM     80  O   UNL A   1      42.969  19.475  24.767  1.00  0.00    -0.237 OA
ATOM     81  O   UNL A   1      42.667  18.581  27.042  1.00  0.00    -0.744 OA
ENDBRANCH  77  78
ENDBRANCH  45  70
BRANCH  57  82
ATOM     82  C   UNL A   1      47.885  27.096  30.417  1.00  0.00     0.058 A 
ATOM     83  C   UNL A   1      48.936  27.408  29.544  1.00  0.00     0.135 A 
ATOM     84  C   UNL A   1      48.204  26.458  31.628  1.00  0.00     0.135 A 
ATOM     85  F   UNL A   1      48.684  28.010  28.371  1.00  0.00    -0.206 F 
ATOM     86  C   UNL A   1      50.255  27.092  29.854  1.00  0.00     0.059 A 
ATOM     87  C   UNL A   1      49.518  26.160  31.972  1.00  0.00     0.059 A 
ATOM     88  F   UNL A   1      47.236  26.146  32.504  1.00  0.00    -0.206 F 
ATOM     89  C   UNL A   1      50.536  26.475  31.075  1.00  0.00     0.060 A 
BRANCH  89  90
ATOM     90  S   UNL A   1      52.259  26.128  31.490  1.00  0.00     0.124 S 
ATOM     91  O   UNL A   1      52.573  27.232  32.391  1.00  0.00    -0.237 OA
ATOM     92  O   UNL A   1      52.171  24.810  32.109  1.00  0.00    -0.237 OA
ATOM     93  O   UNL A   1      52.934  26.163  30.195  1.00  0.00    -0.744 OA
ENDBRANCH  89  90
ENDBRANCH  57  82
ENDBRANCH  31  32
ENDBRANCH  23  26
ENDBRANCH  21  22
ENDBRANCH   1  21
TORSDOF 17
ENDMDL
