MODEL 1
REMARK VINA RESULT:     -11.6      0.000      0.000
REMARK SMILES C[C@@H](C(=O)NCCCNC(=O)c1ccc(-c2c3nc(c(-c4c(F)cc(S(=O)(=O)[O-])cc4F)c4ccc([nH]4)c(-c4c(F)cc(S(=O)(=O)[O-])cc4F)c4nc(c(-c5c(F)cc(S(=O)(=O)[O-])cc5F)c5ccc2[nH]5)C=C4)C=C3)cc1)c1ccc(NC2CCCC2)cc1F
REMARK SMILES IDX 7 1 6 2 5 3 3 4 4 5 2 7 1 8 78 9 79 10 89 11 80 12 88 13
REMARK SMILES IDX 90 14 81 15 82 16 83 18 84 19 87 20 85 21 86 22 8 23 9 24
REMARK SMILES IDX 10 25 11 27 12 28 13 29 77 30 14 31 76 32 15 33 16 34 17 35
REMARK SMILES IDX 70 36 18 37 75 38 69 39 71 40 19 41 74 42 68 43 67 44 20 46
REMARK SMILES IDX 54 47 33 48 53 49 34 50 37 51 52 52 72 53 35 54 36 55 51 57
REMARK SMILES IDX 73 58 38 59 21 60 22 61 31 62 23 63 24 64 30 65 32 66 25 67
REMARK SMILES IDX 26 68 27 69 28 70 29 71 55 72 56 73 65 74 57 75 58 76 64 77
REMARK SMILES IDX 66 78 59 79 60 80 61 81 62 82 63 83 39 84 40 85 49 86 41 87
REMARK SMILES IDX 42 88 48 89 50 90 43 91 44 92 45 93 46 94 47 95
REMARK H PARENT 5 6 82 17 9 26 71 45 37 56
REMARK Flexibility Score: inf
ROOT
ATOM      1  C   UNL A   1      37.795  23.769  25.780  1.00  0.00     0.042 C 
ENDROOT
BRANCH   1   2
ATOM      2  C   UNL A   1      37.276  22.513  25.083  1.00  0.00     0.117 C 
BRANCH   2   3
ATOM      3  N   UNL A   1      36.643  22.830  23.816  1.00  0.00    -0.356 N 
ATOM      4  C   UNL A   1      35.322  22.967  23.498  1.00  0.00     0.227 C 
ATOM      5  O   UNL A   1      35.058  23.135  22.305  1.00  0.00    -0.274 OA
ATOM      6  H   UNL A   1      37.265  22.967  23.066  1.00  0.00     0.163 HD
BRANCH   4   7
ATOM      7  C   UNL A   1      34.254  22.973  24.605  1.00  0.00     0.108 C 
ATOM      8  C   UNL A   1      33.097  22.033  24.259  1.00  0.00     0.023 C 
BRANCH   7   9
ATOM      9  C   UNL A   1      33.829  24.397  24.951  1.00  0.00     0.000 A 
ATOM     10  C   UNL A   1      34.198  25.438  24.088  1.00  0.00     0.009 A 
ATOM     11  C   UNL A   1      33.057  24.739  26.062  1.00  0.00     0.129 A 
ATOM     12  C   UNL A   1      33.815  26.762  24.346  1.00  0.00     0.026 A 
ATOM     13  C   UNL A   1      32.704  26.063  26.330  1.00  0.00     0.065 A 
ATOM     14  F   UNL A   1      32.623  23.804  26.918  1.00  0.00    -0.207 F 
ATOM     15  C   UNL A   1      33.077  27.110  25.479  1.00  0.00     0.037 A 
BRANCH  15  16
ATOM     16  N   UNL A   1      32.677  28.390  25.798  1.00  0.00    -0.382 N 
ATOM     17  H   UNL A   1      31.706  28.549  25.754  1.00  0.00     0.160 HD
BRANCH  16  18
ATOM     18  C   UNL A   1      33.474  29.538  26.188  1.00  0.00     0.079 C 
ATOM     19  C   UNL A   1      32.746  30.554  27.056  1.00  0.00     0.025 C 
ATOM     20  C   UNL A   1      34.762  29.182  26.924  1.00  0.00     0.025 C 
ATOM     21  C   UNL A   1      33.875  31.329  27.720  1.00  0.00     0.002 C 
ATOM     22  C   UNL A   1      35.024  30.338  27.886  1.00  0.00     0.002 C 
ENDBRANCH  16  18
ENDBRANCH  15  16
ENDBRANCH   7   9
ENDBRANCH   4   7
ENDBRANCH   2   3
ENDBRANCH   1   2
BRANCH   1  23
ATOM     23  C   UNL A   1      38.853  23.499  26.848  1.00  0.00     0.118 C 
BRANCH  23  24
ATOM     24  N   UNL A   1      40.209  23.585  26.324  1.00  0.00    -0.352 N 
ATOM     25  C   UNL A   1      41.156  24.563  26.483  1.00  0.00     0.251 C 
ATOM     26  H   UNL A   1      40.489  22.821  25.769  1.00  0.00     0.163 HD
ATOM     27  O   UNL A   1      42.171  24.533  25.784  1.00  0.00    -0.269 OA
BRANCH  25  28
ATOM     28  C   UNL A   1      40.967  25.658  27.460  1.00  0.00     0.039 A 
ATOM     29  C   UNL A   1      39.924  25.560  28.386  1.00  0.00     0.014 A 
ATOM     30  C   UNL A   1      41.788  26.789  27.457  1.00  0.00     0.014 A 
ATOM     31  C   UNL A   1      39.753  26.556  29.351  1.00  0.00     0.010 A 
ATOM     32  C   UNL A   1      41.660  27.748  28.462  1.00  0.00     0.010 A 
ATOM     33  C   UNL A   1      40.647  27.637  29.426  1.00  0.00    -0.014 A 
BRANCH  33  34
ATOM     34  C   UNL A   1      40.560  28.629  30.530  1.00  0.00     0.031 A 
ATOM     35  C   UNL A   1      41.430  28.497  31.751  1.00  0.00     0.074 A 
ATOM     36  C   UNL A   1      39.645  29.616  30.456  1.00  0.00     0.049 A 
ATOM     37  N   UNL A   1      41.443  29.231  32.835  1.00  0.00    -0.248 NA
ATOM     38  C   UNL A   1      42.397  27.387  31.768  1.00  0.00     0.031 C 
ATOM     39  C   UNL A   1      38.709  29.820  29.346  1.00  0.00     0.029 A 
ATOM     40  N   UNL A   1      39.336  30.627  31.334  1.00  0.00    -0.354 N 
ATOM     41  C   UNL A   1      42.406  28.668  33.665  1.00  0.00     0.074 A 
ATOM     42  C   UNL A   1      42.929  27.508  32.977  1.00  0.00     0.031 C 
ATOM     43  C   UNL A   1      37.946  30.894  29.602  1.00  0.00     0.029 A 
ATOM     44  C   UNL A   1      38.305  31.432  30.910  1.00  0.00     0.049 A 
ATOM     45  H   UNL A   1      39.810  30.761  32.186  1.00  0.00     0.167 HD
ATOM     46  C   UNL A   1      42.825  29.092  34.882  1.00  0.00     0.037 A 
ATOM     47  C   UNL A   1      37.703  32.477  31.512  1.00  0.00     0.037 A 
ATOM     48  C   UNL A   1      42.319  30.265  35.550  1.00  0.00     0.049 A 
ATOM     49  C   UNL A   1      38.186  32.919  32.867  1.00  0.00     0.074 A 
ATOM     50  C   UNL A   1      42.735  30.814  36.750  1.00  0.00     0.029 A 
ATOM     51  N   UNL A   1      41.287  31.062  35.082  1.00  0.00    -0.354 N 
ATOM     52  N   UNL A   1      39.152  32.420  33.601  1.00  0.00    -0.248 NA
ATOM     53  C   UNL A   1      37.500  34.067  33.477  1.00  0.00     0.031 C 
ATOM     54  C   UNL A   1      41.921  31.914  37.033  1.00  0.00     0.029 A 
ATOM     55  C   UNL A   1      41.032  32.082  35.984  1.00  0.00     0.049 A 
ATOM     56  H   UNL A   1      40.806  30.925  34.235  1.00  0.00     0.167 HD
ATOM     57  C   UNL A   1      39.204  33.208  34.746  1.00  0.00     0.074 A 
ATOM     58  C   UNL A   1      38.186  34.228  34.599  1.00  0.00     0.031 C 
ATOM     59  C   UNL A   1      40.020  33.096  35.823  1.00  0.00     0.037 A 
BRANCH  46  60
ATOM     60  C   UNL A   1      43.893  28.295  35.581  1.00  0.00     0.058 A 
ATOM     61  C   UNL A   1      45.258  28.552  35.373  1.00  0.00     0.135 A 
ATOM     62  C   UNL A   1      43.549  27.325  36.537  1.00  0.00     0.135 A 
ATOM     63  F   UNL A   1      45.644  29.459  34.463  1.00  0.00    -0.206 F 
ATOM     64  C   UNL A   1      46.242  27.871  36.082  1.00  0.00     0.059 A 
ATOM     65  C   UNL A   1      44.516  26.650  37.275  1.00  0.00     0.059 A 
ATOM     66  F   UNL A   1      42.259  27.039  36.773  1.00  0.00    -0.206 F 
ATOM     67  C   UNL A   1      45.861  26.927  37.037  1.00  0.00     0.060 A 
BRANCH  67  68
ATOM     68  S   UNL A   1      47.152  26.086  37.979  1.00  0.00     0.124 S 
ATOM     69  O   UNL A   1      47.631  25.107  37.008  1.00  0.00    -0.237 OA
ATOM     70  O   UNL A   1      48.073  27.175  38.286  1.00  0.00    -0.237 OA
ATOM     71  O   UNL A   1      46.434  25.534  39.124  1.00  0.00    -0.744 OA
ENDBRANCH  67  68
ENDBRANCH  46  60
BRANCH  47  72
ATOM     72  C   UNL A   1      36.573  33.179  30.846  1.00  0.00     0.058 A 
ATOM     73  C   UNL A   1      36.797  34.058  29.776  1.00  0.00     0.135 A 
ATOM     74  C   UNL A   1      35.249  33.000  31.277  1.00  0.00     0.135 A 
ATOM     75  F   UNL A   1      38.046  34.266  29.329  1.00  0.00    -0.206 F 
ATOM     76  C   UNL A   1      35.756  34.761  29.178  1.00  0.00     0.059 A 
ATOM     77  C   UNL A   1      34.188  33.668  30.676  1.00  0.00     0.059 A 
ATOM     78  F   UNL A   1      34.977  32.155  32.284  1.00  0.00    -0.206 F 
ATOM     79  C   UNL A   1      34.453  34.561  29.638  1.00  0.00     0.060 A 
BRANCH  79  80
ATOM     80  S   UNL A   1      33.106  35.464  28.846  1.00  0.00     0.124 S 
ATOM     81  O   UNL A   1      32.458  34.408  28.076  1.00  0.00    -0.237 OA
ATOM     82  O   UNL A   1      32.358  35.969  29.993  1.00  0.00    -0.237 OA
ATOM     83  O   UNL A   1      33.799  36.482  28.064  1.00  0.00    -0.744 OA
ENDBRANCH  79  80
ENDBRANCH  47  72
BRANCH  59  84
ATOM     84  C   UNL A   1      39.866  34.117  36.916  1.00  0.00     0.058 A 
ATOM     85  C   UNL A   1      40.523  35.356  36.866  1.00  0.00     0.135 A 
ATOM     86  C   UNL A   1      39.014  33.871  38.006  1.00  0.00     0.135 A 
ATOM     87  F   UNL A   1      41.353  35.639  35.850  1.00  0.00    -0.206 F 
ATOM     88  C   UNL A   1      40.362  36.305  37.870  1.00  0.00     0.059 A 
ATOM     89  C   UNL A   1      38.816  34.817  39.006  1.00  0.00     0.059 A 
ATOM     90  F   UNL A   1      38.354  32.705  38.098  1.00  0.00    -0.206 F 
ATOM     91  C   UNL A   1      39.504  36.027  38.935  1.00  0.00     0.060 A 
BRANCH  91  92
ATOM     92  S   UNL A   1      39.281  37.280  40.216  1.00  0.00     0.124 S 
ATOM     93  O   UNL A   1      40.662  37.641  40.518  1.00  0.00    -0.237 OA
ATOM     94  O   UNL A   1      38.495  38.298  39.524  1.00  0.00    -0.237 OA
ATOM     95  O   UNL A   1      38.574  36.563  41.273  1.00  0.00    -0.744 OA
ENDBRANCH  91  92
ENDBRANCH  59  84
ENDBRANCH  33  34
ENDBRANCH  25  28
ENDBRANCH  23  24
ENDBRANCH   1  23
TORSDOF 16
ENDMDL
MODEL 2
REMARK VINA RESULT:     -11.6      1.865      2.434
REMARK SMILES C[C@@H](C(=O)NCCCNC(=O)c1ccc(-c2c3nc(c(-c4c(F)cc(S(=O)(=O)[O-])cc4F)c4ccc([nH]4)c(-c4c(F)cc(S(=O)(=O)[O-])cc4F)c4nc(c(-c5c(F)cc(S(=O)(=O)[O-])cc5F)c5ccc2[nH]5)C=C4)C=C3)cc1)c1ccc(NC2CCCC2)cc1F
REMARK SMILES IDX 7 1 6 2 5 3 3 4 4 5 2 7 1 8 78 9 79 10 89 11 80 12 88 13
REMARK SMILES IDX 90 14 81 15 82 16 83 18 84 19 87 20 85 21 86 22 8 23 9 24
REMARK SMILES IDX 10 25 11 27 12 28 13 29 77 30 14 31 76 32 15 33 16 34 17 35
REMARK SMILES IDX 70 36 18 37 75 38 69 39 71 40 19 41 74 42 68 43 67 44 20 46
REMARK SMILES IDX 54 47 33 48 53 49 34 50 37 51 52 52 72 53 35 54 36 55 51 57
REMARK SMILES IDX 73 58 38 59 21 60 22 61 31 62 23 63 24 64 30 65 32 66 25 67
REMARK SMILES IDX 26 68 27 69 28 70 29 71 55 72 56 73 65 74 57 75 58 76 64 77
REMARK SMILES IDX 66 78 59 79 60 80 61 81 62 82 63 83 39 84 40 85 49 86 41 87
REMARK SMILES IDX 42 88 48 89 50 90 43 91 44 92 45 93 46 94 47 95
REMARK H PARENT 5 6 82 17 9 26 71 45 37 56
REMARK Flexibility Score: inf
ROOT
ATOM      1  C   UNL A   1      37.278  23.630  25.110  1.00  0.00     0.042 C 
ENDROOT
BRANCH   1   2
ATOM      2  C   UNL A   1      35.812  24.060  25.123  1.00  0.00     0.117 C 
BRANCH   2   3
ATOM      3  N   UNL A   1      35.218  23.972  23.802  1.00  0.00    -0.356 N 
ATOM      4  C   UNL A   1      33.968  24.309  23.371  1.00  0.00     0.227 C 
ATOM      5  O   UNL A   1      33.693  24.024  22.203  1.00  0.00    -0.274 OA
ATOM      6  H   UNL A   1      35.813  23.611  23.105  1.00  0.00     0.163 HD
BRANCH   4   7
ATOM      7  C   UNL A   1      33.002  25.062  24.303  1.00  0.00     0.108 C 
ATOM      8  C   UNL A   1      31.910  24.130  24.834  1.00  0.00     0.023 C 
BRANCH   7   9
ATOM      9  C   UNL A   1      32.481  26.333  23.641  1.00  0.00     0.000 A 
ATOM     10  C   UNL A   1      31.239  26.295  22.993  1.00  0.00     0.009 A 
ATOM     11  C   UNL A   1      33.144  27.561  23.665  1.00  0.00     0.129 A 
ATOM     12  C   UNL A   1      30.702  27.441  22.389  1.00  0.00     0.026 A 
ATOM     13  C   UNL A   1      32.620  28.691  23.035  1.00  0.00     0.065 A 
ATOM     14  F   UNL A   1      34.318  27.702  24.297  1.00  0.00    -0.207 F 
ATOM     15  C   UNL A   1      31.384  28.658  22.378  1.00  0.00     0.037 A 
BRANCH  15  16
ATOM     16  N   UNL A   1      30.920  29.818  21.794  1.00  0.00    -0.382 N 
ATOM     17  H   UNL A   1      31.423  30.119  21.003  1.00  0.00     0.160 HD
BRANCH  16  18
ATOM     18  C   UNL A   1      29.801  30.661  22.173  1.00  0.00     0.079 C 
ATOM     19  C   UNL A   1      28.574  30.527  21.283  1.00  0.00     0.025 C 
ATOM     20  C   UNL A   1      29.323  30.455  23.606  1.00  0.00     0.025 C 
ATOM     21  C   UNL A   1      27.447  31.073  22.147  1.00  0.00     0.002 C 
ATOM     22  C   UNL A   1      27.823  30.739  23.588  1.00  0.00     0.002 C 
ENDBRANCH  16  18
ENDBRANCH  15  16
ENDBRANCH   7   9
ENDBRANCH   4   7
ENDBRANCH   2   3
ENDBRANCH   1   2
BRANCH   1  23
ATOM     23  C   UNL A   1      38.094  24.153  26.290  1.00  0.00     0.118 C 
BRANCH  23  24
ATOM     24  N   UNL A   1      39.507  23.816  26.183  1.00  0.00    -0.352 N 
ATOM     25  C   UNL A   1      40.608  24.466  26.678  1.00  0.00     0.251 C 
ATOM     26  H   UNL A   1      39.701  22.995  25.677  1.00  0.00     0.163 HD
ATOM     27  O   UNL A   1      41.729  24.119  26.298  1.00  0.00    -0.269 OA
BRANCH  25  28
ATOM     28  C   UNL A   1      40.469  25.583  27.638  1.00  0.00     0.039 A 
ATOM     29  C   UNL A   1      39.481  25.503  28.624  1.00  0.00     0.014 A 
ATOM     30  C   UNL A   1      41.283  26.717  27.561  1.00  0.00     0.014 A 
ATOM     31  C   UNL A   1      39.360  26.521  29.573  1.00  0.00     0.010 A 
ATOM     32  C   UNL A   1      41.207  27.699  28.549  1.00  0.00     0.010 A 
ATOM     33  C   UNL A   1      40.251  27.607  29.571  1.00  0.00    -0.014 A 
BRANCH  33  34
ATOM     34  C   UNL A   1      40.222  28.625  30.654  1.00  0.00     0.031 A 
ATOM     35  C   UNL A   1      41.111  28.489  31.861  1.00  0.00     0.074 A 
ATOM     36  C   UNL A   1      39.340  29.642  30.577  1.00  0.00     0.049 A 
ATOM     37  N   UNL A   1      41.173  29.244  32.927  1.00  0.00    -0.248 NA
ATOM     38  C   UNL A   1      42.039  27.346  31.882  1.00  0.00     0.031 C 
ATOM     39  C   UNL A   1      38.389  29.855  29.482  1.00  0.00     0.029 A 
ATOM     40  N   UNL A   1      39.085  30.681  31.438  1.00  0.00    -0.354 N 
ATOM     41  C   UNL A   1      42.132  28.666  33.751  1.00  0.00     0.074 A 
ATOM     42  C   UNL A   1      42.600  27.473  33.078  1.00  0.00     0.031 C 
ATOM     43  C   UNL A   1      37.669  30.961  29.730  1.00  0.00     0.029 A 
ATOM     44  C   UNL A   1      38.074  31.514  31.018  1.00  0.00     0.049 A 
ATOM     45  H   UNL A   1      39.581  30.817  32.278  1.00  0.00     0.167 HD
ATOM     46  C   UNL A   1      42.592  29.100  34.949  1.00  0.00     0.037 A 
ATOM     47  C   UNL A   1      37.521  32.591  31.608  1.00  0.00     0.037 A 
ATOM     48  C   UNL A   1      42.141  30.304  35.601  1.00  0.00     0.049 A 
ATOM     49  C   UNL A   1      38.047  33.045  32.944  1.00  0.00     0.074 A 
ATOM     50  C   UNL A   1      42.600  30.864  36.780  1.00  0.00     0.029 A 
ATOM     51  N   UNL A   1      41.127  31.128  35.137  1.00  0.00    -0.354 N 
ATOM     52  N   UNL A   1      39.010  32.528  33.668  1.00  0.00    -0.248 NA
ATOM     53  C   UNL A   1      37.414  34.229  33.541  1.00  0.00     0.031 C 
ATOM     54  C   UNL A   1      41.830  31.998  37.055  1.00  0.00     0.029 A 
ATOM     55  C   UNL A   1      40.926  32.175  36.021  1.00  0.00     0.049 A 
ATOM     56  H   UNL A   1      40.624  30.989  34.302  1.00  0.00     0.167 HD
ATOM     57  C   UNL A   1      39.114  33.338  34.795  1.00  0.00     0.074 A 
ATOM     58  C   UNL A   1      38.129  34.390  34.646  1.00  0.00     0.031 C 
ATOM     59  C   UNL A   1      39.947  33.220  35.858  1.00  0.00     0.037 A 
BRANCH  46  60
ATOM     60  C   UNL A   1      43.645  28.282  35.644  1.00  0.00     0.058 A 
ATOM     61  C   UNL A   1      43.309  27.288  36.577  1.00  0.00     0.135 A 
ATOM     62  C   UNL A   1      45.001  28.432  35.309  1.00  0.00     0.135 A 
ATOM     63  F   UNL A   1      42.030  27.110  36.945  1.00  0.00    -0.206 F 
ATOM     64  C   UNL A   1      44.279  26.477  37.157  1.00  0.00     0.059 A 
ATOM     65  C   UNL A   1      45.985  27.614  35.857  1.00  0.00     0.059 A 
ATOM     66  F   UNL A   1      45.378  29.369  34.424  1.00  0.00    -0.206 F 
ATOM     67  C   UNL A   1      45.614  26.642  36.784  1.00  0.00     0.060 A 
BRANCH  67  68
ATOM     68  S   UNL A   1      46.853  25.549  37.514  1.00  0.00     0.124 S 
ATOM     69  O   UNL A   1      46.051  24.801  38.477  1.00  0.00    -0.237 OA
ATOM     70  O   UNL A   1      47.321  24.793  36.357  1.00  0.00    -0.237 OA
ATOM     71  O   UNL A   1      47.824  26.473  38.091  1.00  0.00    -0.744 OA
ENDBRANCH  67  68
ENDBRANCH  46  60
BRANCH  47  72
ATOM     72  C   UNL A   1      36.403  33.318  30.950  1.00  0.00     0.058 A 
ATOM     73  C   UNL A   1      36.624  34.113  29.815  1.00  0.00     0.135 A 
ATOM     74  C   UNL A   1      35.093  33.249  31.452  1.00  0.00     0.135 A 
ATOM     75  F   UNL A   1      37.860  34.214  29.299  1.00  0.00    -0.206 F 
ATOM     76  C   UNL A   1      35.598  34.839  29.220  1.00  0.00     0.059 A 
ATOM     77  C   UNL A   1      34.045  33.943  30.857  1.00  0.00     0.059 A 
ATOM     78  F   UNL A   1      34.822  32.488  32.523  1.00  0.00    -0.206 F 
ATOM     79  C   UNL A   1      34.311  34.750  29.751  1.00  0.00     0.060 A 
BRANCH  79  80
ATOM     80  S   UNL A   1      32.980  35.682  28.964  1.00  0.00     0.124 S 
ATOM     81  O   UNL A   1      33.726  36.722  28.265  1.00  0.00    -0.237 OA
ATOM     82  O   UNL A   1      32.352  34.670  28.121  1.00  0.00    -0.237 OA
ATOM     83  O   UNL A   1      32.174  36.133  30.094  1.00  0.00    -0.744 OA
ENDBRANCH  79  80
ENDBRANCH  47  72
BRANCH  59  84
ATOM     84  C   UNL A   1      39.852  34.269  36.931  1.00  0.00     0.058 A 
ATOM     85  C   UNL A   1      40.462  35.525  36.791  1.00  0.00     0.135 A 
ATOM     86  C   UNL A   1      39.102  34.031  38.094  1.00  0.00     0.135 A 
ATOM     87  F   UNL A   1      41.195  35.802  35.701  1.00  0.00    -0.206 F 
ATOM     88  C   UNL A   1      40.354  36.499  37.778  1.00  0.00     0.059 A 
ATOM     89  C   UNL A   1      38.956  35.001  39.081  1.00  0.00     0.059 A 
ATOM     90  F   UNL A   1      38.490  32.850  38.275  1.00  0.00    -0.206 F 
ATOM     91  C   UNL A   1      39.597  36.228  38.919  1.00  0.00     0.060 A 
BRANCH  91  92
ATOM     92  S   UNL A   1      39.441  37.513  40.178  1.00  0.00     0.124 S 
ATOM     93  O   UNL A   1      40.829  37.927  40.349  1.00  0.00    -0.237 OA
ATOM     94  O   UNL A   1      38.564  38.483  39.528  1.00  0.00    -0.237 OA
ATOM     95  O   UNL A   1      38.853  36.807  41.312  1.00  0.00    -0.744 OA
ENDBRANCH  91  92
ENDBRANCH  59  84
ENDBRANCH  33  34
ENDBRANCH  25  28
ENDBRANCH  23  24
ENDBRANCH   1  23
TORSDOF 16
ENDMDL
MODEL 3
REMARK VINA RESULT:     -11.6      1.308      2.364
REMARK SMILES C[C@@H](C(=O)NCCCNC(=O)c1ccc(-c2c3nc(c(-c4c(F)cc(S(=O)(=O)[O-])cc4F)c4ccc([nH]4)c(-c4c(F)cc(S(=O)(=O)[O-])cc4F)c4nc(c(-c5c(F)cc(S(=O)(=O)[O-])cc5F)c5ccc2[nH]5)C=C4)C=C3)cc1)c1ccc(NC2CCCC2)cc1F
REMARK SMILES IDX 7 1 6 2 5 3 3 4 4 5 2 7 1 8 78 9 79 10 89 11 80 12 88 13
REMARK SMILES IDX 90 14 81 15 82 16 83 18 84 19 87 20 85 21 86 22 8 23 9 24
REMARK SMILES IDX 10 25 11 27 12 28 13 29 77 30 14 31 76 32 15 33 16 34 17 35
REMARK SMILES IDX 70 36 18 37 75 38 69 39 71 40 19 41 74 42 68 43 67 44 20 46
REMARK SMILES IDX 54 47 33 48 53 49 34 50 37 51 52 52 72 53 35 54 36 55 51 57
REMARK SMILES IDX 73 58 38 59 21 60 22 61 31 62 23 63 24 64 30 65 32 66 25 67
REMARK SMILES IDX 26 68 27 69 28 70 29 71 55 72 56 73 65 74 57 75 58 76 64 77
REMARK SMILES IDX 66 78 59 79 60 80 61 81 62 82 63 83 39 84 40 85 49 86 41 87
REMARK SMILES IDX 42 88 48 89 50 90 43 91 44 92 45 93 46 94 47 95
REMARK H PARENT 5 6 82 17 9 26 71 45 37 56
REMARK Flexibility Score: inf
ROOT
ATOM      1  C   UNL A   1      38.991  22.526  26.538  1.00  0.00     0.042 C 
ENDROOT
BRANCH   1   2
ATOM      2  C   UNL A   1      37.912  23.491  26.054  1.00  0.00     0.117 C 
BRANCH   2   3
ATOM      3  N   UNL A   1      37.684  23.364  24.626  1.00  0.00    -0.356 N 
ATOM      4  C   UNL A   1      36.534  23.120  23.932  1.00  0.00     0.227 C 
ATOM      5  O   UNL A   1      36.650  22.953  22.716  1.00  0.00    -0.274 OA
ATOM      6  H   UNL A   1      38.489  23.471  24.068  1.00  0.00     0.163 HD
BRANCH   4   7
ATOM      7  C   UNL A   1      35.176  23.125  24.655  1.00  0.00     0.108 C 
ATOM      8  C   UNL A   1      34.404  21.831  24.386  1.00  0.00     0.023 C 
BRANCH   7   9
ATOM      9  C   UNL A   1      34.397  24.401  24.350  1.00  0.00     0.000 A 
ATOM     10  C   UNL A   1      34.350  25.410  25.322  1.00  0.00     0.009 A 
ATOM     11  C   UNL A   1      33.747  24.656  23.142  1.00  0.00     0.129 A 
ATOM     12  C   UNL A   1      33.669  26.612  25.086  1.00  0.00     0.026 A 
ATOM     13  C   UNL A   1      33.043  25.841  22.924  1.00  0.00     0.065 A 
ATOM     14  F   UNL A   1      33.772  23.766  22.141  1.00  0.00    -0.207 F 
ATOM     15  C   UNL A   1      32.984  26.850  23.892  1.00  0.00     0.037 A 
BRANCH  15  16
ATOM     16  N   UNL A   1      32.285  28.002  23.599  1.00  0.00    -0.382 N 
ATOM     17  H   UNL A   1      32.824  28.735  23.222  1.00  0.00     0.160 HD
BRANCH  16  18
ATOM     18  C   UNL A   1      30.874  28.295  23.765  1.00  0.00     0.079 C 
ATOM     19  C   UNL A   1      30.213  28.948  22.559  1.00  0.00     0.025 C 
ATOM     20  C   UNL A   1      30.023  27.080  24.122  1.00  0.00     0.025 C 
ATOM     21  C   UNL A   1      28.731  28.678  22.775  1.00  0.00     0.002 C 
ATOM     22  C   UNL A   1      28.650  27.339  23.505  1.00  0.00     0.002 C 
ENDBRANCH  16  18
ENDBRANCH  15  16
ENDBRANCH   7   9
ENDBRANCH   4   7
ENDBRANCH   2   3
ENDBRANCH   1   2
BRANCH   1  23
ATOM     23  C   UNL A   1      40.250  23.209  27.068  1.00  0.00     0.118 C 
BRANCH  23  24
ATOM     24  N   UNL A   1      40.924  24.002  26.050  1.00  0.00    -0.352 N 
ATOM     25  C   UNL A   1      41.276  25.327  26.052  1.00  0.00     0.251 C 
ATOM     26  H   UNL A   1      41.165  23.509  25.232  1.00  0.00     0.163 HD
ATOM     27  O   UNL A   1      41.659  25.847  25.002  1.00  0.00    -0.269 OA
BRANCH  25  28
ATOM     28  C   UNL A   1      41.181  26.139  27.285  1.00  0.00     0.039 A 
ATOM     29  C   UNL A   1      42.230  27.008  27.600  1.00  0.00     0.014 A 
ATOM     30  C   UNL A   1      40.084  26.036  28.145  1.00  0.00     0.014 A 
ATOM     31  C   UNL A   1      42.145  27.822  28.732  1.00  0.00     0.010 A 
ATOM     32  C   UNL A   1      39.968  26.897  29.236  1.00  0.00     0.010 A 
ATOM     33  C   UNL A   1      40.994  27.807  29.536  1.00  0.00    -0.014 A 
BRANCH  33  34
ATOM     34  C   UNL A   1      40.831  28.764  30.662  1.00  0.00     0.031 A 
ATOM     35  C   UNL A   1      41.644  28.616  31.920  1.00  0.00     0.074 A 
ATOM     36  C   UNL A   1      39.898  29.734  30.570  1.00  0.00     0.049 A 
ATOM     37  N   UNL A   1      41.588  29.318  33.023  1.00  0.00    -0.248 NA
ATOM     38  C   UNL A   1      42.634  27.527  31.953  1.00  0.00     0.031 C 
ATOM     39  C   UNL A   1      39.013  29.949  29.422  1.00  0.00     0.029 A 
ATOM     40  N   UNL A   1      39.525  30.711  31.460  1.00  0.00    -0.354 N 
ATOM     41  C   UNL A   1      42.522  28.752  33.884  1.00  0.00     0.074 A 
ATOM     42  C   UNL A   1      43.104  27.624  33.190  1.00  0.00     0.031 C 
ATOM     43  C   UNL A   1      38.214  30.999  29.670  1.00  0.00     0.029 A 
ATOM     44  C   UNL A   1      38.497  31.507  31.009  1.00  0.00     0.049 A 
ATOM     45  H   UNL A   1      39.953  30.831  32.338  1.00  0.00     0.167 HD
ATOM     46  C   UNL A   1      42.872  29.150  35.131  1.00  0.00     0.037 A 
ATOM     47  C   UNL A   1      37.843  32.520  31.609  1.00  0.00     0.037 A 
ATOM     48  C   UNL A   1      42.308  30.292  35.805  1.00  0.00     0.049 A 
ATOM     49  C   UNL A   1      38.249  32.933  32.998  1.00  0.00     0.074 A 
ATOM     50  C   UNL A   1      42.652  30.815  37.039  1.00  0.00     0.029 A 
ATOM     51  N   UNL A   1      41.281  31.081  35.310  1.00  0.00    -0.354 N 
ATOM     52  N   UNL A   1      39.190  32.434  33.764  1.00  0.00    -0.248 NA
ATOM     53  C   UNL A   1      37.509  34.048  33.605  1.00  0.00     0.031 C 
ATOM     54  C   UNL A   1      41.800  31.889  37.313  1.00  0.00     0.029 A 
ATOM     55  C   UNL A   1      40.959  32.068  36.227  1.00  0.00     0.049 A 
ATOM     56  H   UNL A   1      40.845  30.957  34.437  1.00  0.00     0.167 HD
ATOM     57  C   UNL A   1      39.169  33.190  34.932  1.00  0.00     0.074 A 
ATOM     58  C   UNL A   1      38.137  34.192  34.763  1.00  0.00     0.031 C 
ATOM     59  C   UNL A   1      39.934  33.064  36.044  1.00  0.00     0.037 A 
BRANCH  46  60
ATOM     60  C   UNL A   1      43.923  28.357  35.860  1.00  0.00     0.058 A 
ATOM     61  C   UNL A   1      45.287  28.668  35.750  1.00  0.00     0.135 A 
ATOM     62  C   UNL A   1      43.555  27.331  36.746  1.00  0.00     0.135 A 
ATOM     63  F   UNL A   1      45.697  29.630  34.908  1.00  0.00    -0.206 F 
ATOM     64  C   UNL A   1      46.250  27.987  36.488  1.00  0.00     0.059 A 
ATOM     65  C   UNL A   1      44.498  26.654  37.513  1.00  0.00     0.059 A 
ATOM     66  F   UNL A   1      42.264  26.992  36.887  1.00  0.00    -0.206 F 
ATOM     67  C   UNL A   1      45.845  26.986  37.373  1.00  0.00     0.060 A 
BRANCH  67  68
ATOM     68  S   UNL A   1      47.104  26.144  38.355  1.00  0.00     0.124 S 
ATOM     69  O   UNL A   1      48.133  27.175  38.457  1.00  0.00    -0.237 OA
ATOM     70  O   UNL A   1      46.387  25.843  39.590  1.00  0.00    -0.237 OA
ATOM     71  O   UNL A   1      47.456  24.987  37.539  1.00  0.00    -0.744 OA
ENDBRANCH  67  68
ENDBRANCH  46  60
BRANCH  47  72
ATOM     72  C   UNL A   1      36.731  33.217  30.908  1.00  0.00     0.058 A 
ATOM     73  C   UNL A   1      35.392  32.960  31.239  1.00  0.00     0.135 A 
ATOM     74  C   UNL A   1      36.983  34.140  29.880  1.00  0.00     0.135 A 
ATOM     75  F   UNL A   1      35.100  32.083  32.213  1.00  0.00    -0.206 F 
ATOM     76  C   UNL A   1      34.342  33.566  30.558  1.00  0.00     0.059 A 
ATOM     77  C   UNL A   1      35.951  34.780  29.203  1.00  0.00     0.059 A 
ATOM     78  F   UNL A   1      38.246  34.436  29.536  1.00  0.00    -0.206 F 
ATOM     79  C   UNL A   1      34.632  34.473  29.537  1.00  0.00     0.060 A 
BRANCH  79  80
ATOM     80  S   UNL A   1      33.264  35.267  28.668  1.00  0.00     0.124 S 
ATOM     81  O   UNL A   1      32.528  35.873  29.771  1.00  0.00    -0.237 OA
ATOM     82  O   UNL A   1      33.960  36.192  27.779  1.00  0.00    -0.237 OA
ATOM     83  O   UNL A   1      32.599  34.152  28.001  1.00  0.00    -0.744 OA
ENDBRANCH  79  80
ENDBRANCH  47  72
BRANCH  59  84
ATOM     84  C   UNL A   1      39.704  34.050  37.156  1.00  0.00     0.058 A 
ATOM     85  C   UNL A   1      38.894  33.741  38.260  1.00  0.00     0.135 A 
ATOM     86  C   UNL A   1      40.338  35.303  37.139  1.00  0.00     0.135 A 
ATOM     87  F   UNL A   1      38.259  32.560  38.323  1.00  0.00    -0.206 F 
ATOM     88  C   UNL A   1      38.701  34.649  39.295  1.00  0.00     0.059 A 
ATOM     89  C   UNL A   1      40.183  36.215  38.178  1.00  0.00     0.059 A 
ATOM     90  F   UNL A   1      41.131  35.646  36.111  1.00  0.00    -0.206 F 
ATOM     91  C   UNL A   1      39.352  35.884  39.246  1.00  0.00     0.060 A 
BRANCH  91  92
ATOM     92  S   UNL A   1      39.115  37.040  40.612  1.00  0.00     0.124 S 
ATOM     93  O   UNL A   1      38.218  38.024  40.014  1.00  0.00    -0.237 OA
ATOM     94  O   UNL A   1      38.528  36.190  41.644  1.00  0.00    -0.237 OA
ATOM     95  O   UNL A   1      40.467  37.514  40.894  1.00  0.00    -0.744 OA
ENDBRANCH  91  92
ENDBRANCH  59  84
ENDBRANCH  33  34
ENDBRANCH  25  28
ENDBRANCH  23  24
ENDBRANCH   1  23
TORSDOF 16
ENDMDL
