MODEL 1
REMARK VINA RESULT:     -13.7      0.000      0.000
REMARK SMILES Cc1ccc(NC(=O)C[C@@H](C(=O)NCCCNC(=O)c2ccc(-c3c4nc(c(-c5c(F)cc(S(=O)(=O)[O-])cc5F)c5ccc([nH]5)c(-c5c(F)cc(S(=O)(=O)[O-])cc5F)c5nc(c(-c6c(F)cc(S(=O)(=O)[O-])cc6F)c6ccc3[nH]6)C=C5)C=C4)cc2)[NH+]2CCOCC2)cc1
REMARK SMILES IDX 15 1 14 2 13 3 11 4 12 5 10 7 9 8 7 9 6 10 8 12 5 13 1 14
REMARK SMILES IDX 2 15 3 16 93 17 4 18 92 19 86 20 87 21 91 22 88 24 90 25
REMARK SMILES IDX 89 26 16 27 17 28 18 29 19 31 20 32 21 33 85 34 22 35 84 36
REMARK SMILES IDX 23 37 24 38 25 39 78 40 26 41 83 42 77 43 79 44 27 45 82 46
REMARK SMILES IDX 76 47 75 48 28 50 62 51 41 52 61 53 42 54 45 55 60 56 80 57
REMARK SMILES IDX 43 58 44 59 59 61 81 62 46 63 29 64 30 65 39 66 31 67 32 68
REMARK SMILES IDX 38 69 40 70 33 71 34 72 35 73 36 74 37 75 63 76 64 77 73 78
REMARK SMILES IDX 65 79 66 80 72 81 74 82 67 83 68 84 69 85 70 86 71 87 47 88
REMARK SMILES IDX 48 89 57 90 49 91 50 92 56 93 58 94 51 95 52 96 53 97 54 98
REMARK SMILES IDX 55 99
REMARK H PARENT 13 6 6 11 86 23 17 30 79 49 45 60
REMARK Flexibility Score: inf
ROOT
ATOM      1  C   UNL A   1      34.358  29.096  26.426  1.00  0.00     0.042 C 
ENDROOT
BRANCH   1   2
ATOM      2  C   UNL A   1      34.042  27.680  25.944  1.00  0.00     0.118 C 
BRANCH   2   3
ATOM      3  N   UNL A   1      32.707  27.213  26.251  1.00  0.00    -0.351 N 
ATOM      4  C   UNL A   1      32.062  26.051  25.948  1.00  0.00     0.278 C 
ATOM      5  O   UNL A   1      31.105  25.777  26.681  1.00  0.00    -0.268 OA
ATOM      6  H   UNL A   1      32.168  27.849  26.774  1.00  0.00     0.163 HD
BRANCH   4   7
ATOM      7  C   UNL A   1      32.525  25.100  24.786  1.00  0.00     0.283 C 
BRANCH   7   8
ATOM      8  C   UNL A   1      31.987  25.496  23.392  1.00  0.00     0.175 C 
BRANCH   8   9
ATOM      9  C   UNL A   1      32.749  26.466  22.523  1.00  0.00     0.230 C 
ATOM     10  N   UNL A   1      32.371  27.763  22.346  1.00  0.00    -0.326 N 
ATOM     11  H   UNL A   1      32.964  28.279  21.753  1.00  0.00     0.169 HD
ATOM     12  O   UNL A   1      33.764  26.068  21.938  1.00  0.00    -0.274 OA
BRANCH  10  13
ATOM     13  C   UNL A   1      31.286  28.499  22.857  1.00  0.00     0.041 A 
ATOM     14  C   UNL A   1      28.059  31.236  23.636  1.00  0.00     0.044 C 
ATOM     15  C   UNL A   1      29.124  30.197  23.443  1.00  0.00    -0.051 A 
ATOM     16  C   UNL A   1      30.294  30.250  24.203  1.00  0.00     0.005 A 
ATOM     17  C   UNL A   1      29.003  29.214  22.459  1.00  0.00     0.005 A 
ATOM     18  C   UNL A   1      31.363  29.395  23.920  1.00  0.00     0.026 A 
ATOM     19  C   UNL A   1      30.071  28.359  22.183  1.00  0.00     0.026 A 
ENDBRANCH  10  13
ENDBRANCH   8   9
ENDBRANCH   7   8
BRANCH   7  20
ATOM     20  N   UNL A   1      32.146  23.686  25.129  1.00  0.00    -0.320 N 
ATOM     21  C   UNL A   1      32.964  23.078  26.202  1.00  0.00     0.291 C 
ATOM     22  C   UNL A   1      31.938  22.701  24.058  1.00  0.00     0.291 C 
ATOM     23  H   UNL A   1      31.202  23.885  25.461  1.00  0.00     0.348 HD
ATOM     24  C   UNL A   1      34.203  22.322  25.695  1.00  0.00     0.221 C 
ATOM     25  C   UNL A   1      33.199  21.953  23.609  1.00  0.00     0.221 C 
ATOM     26  O   UNL A   1      33.862  21.336  24.716  1.00  0.00    -0.370 OA
ENDBRANCH   7  20
ENDBRANCH   4   7
ENDBRANCH   2   3
ENDBRANCH   1   2
BRANCH   1  27
ATOM     27  C   UNL A   1      34.114  29.371  27.912  1.00  0.00     0.118 C 
BRANCH  27  28
ATOM     28  N   UNL A   1      34.738  30.638  28.300  1.00  0.00    -0.352 N 
ATOM     29  C   UNL A   1      36.014  30.909  28.730  1.00  0.00     0.251 C 
ATOM     30  H   UNL A   1      34.147  31.423  28.245  1.00  0.00     0.163 HD
ATOM     31  O   UNL A   1      36.355  32.028  29.104  1.00  0.00    -0.269 OA
BRANCH  29  32
ATOM     32  C   UNL A   1      37.000  29.825  28.660  1.00  0.00     0.039 A 
ATOM     33  C   UNL A   1      37.200  29.053  29.809  1.00  0.00     0.014 A 
ATOM     34  C   UNL A   1      37.839  29.725  27.555  1.00  0.00     0.014 A 
ATOM     35  C   UNL A   1      38.359  28.293  29.921  1.00  0.00     0.010 A 
ATOM     36  C   UNL A   1      39.010  29.004  27.688  1.00  0.00     0.010 A 
ATOM     37  C   UNL A   1      39.299  28.343  28.893  1.00  0.00    -0.014 A 
BRANCH  37  38
ATOM     38  C   UNL A   1      40.653  27.813  29.026  1.00  0.00     0.031 A 
ATOM     39  C   UNL A   1      40.962  26.430  28.603  1.00  0.00     0.074 A 
ATOM     40  C   UNL A   1      41.643  28.624  29.454  1.00  0.00     0.049 A 
ATOM     41  N   UNL A   1      42.027  25.780  28.931  1.00  0.00    -0.248 NA
ATOM     42  C   UNL A   1      40.042  25.649  27.789  1.00  0.00     0.031 C 
ATOM     43  C   UNL A   1      43.081  28.388  29.363  1.00  0.00     0.029 A 
ATOM     44  N   UNL A   1      41.529  29.765  30.257  1.00  0.00    -0.354 N 
ATOM     45  C   UNL A   1      42.069  24.621  28.189  1.00  0.00     0.074 A 
ATOM     46  C   UNL A   1      40.780  24.564  27.535  1.00  0.00     0.031 C 
ATOM     47  C   UNL A   1      43.703  29.153  30.271  1.00  0.00     0.029 A 
ATOM     48  C   UNL A   1      42.678  29.789  31.080  1.00  0.00     0.049 A 
ATOM     49  H   UNL A   1      40.794  30.420  30.250  1.00  0.00     0.167 HD
ATOM     50  C   UNL A   1      43.234  23.908  28.129  1.00  0.00     0.037 A 
ATOM     51  C   UNL A   1      42.557  29.653  32.434  1.00  0.00     0.037 A 
ATOM     52  C   UNL A   1      44.225  24.440  29.070  1.00  0.00     0.049 A 
ATOM     53  C   UNL A   1      43.170  28.386  32.999  1.00  0.00     0.074 A 
ATOM     54  C   UNL A   1      45.305  25.302  28.959  1.00  0.00     0.029 A 
ATOM     55  N   UNL A   1      43.986  24.303  30.426  1.00  0.00    -0.354 N 
ATOM     56  N   UNL A   1      43.767  27.470  32.285  1.00  0.00    -0.248 NA
ATOM     57  C   UNL A   1      43.094  28.020  34.416  1.00  0.00     0.031 C 
ATOM     58  C   UNL A   1      45.660  25.738  30.268  1.00  0.00     0.029 A 
ATOM     59  C   UNL A   1      44.804  25.133  31.171  1.00  0.00     0.049 A 
ATOM     60  H   UNL A   1      43.318  23.692  30.812  1.00  0.00     0.167 HD
ATOM     61  C   UNL A   1      44.068  26.400  33.082  1.00  0.00     0.074 A 
ATOM     62  C   UNL A   1      43.657  26.799  34.414  1.00  0.00     0.031 C 
ATOM     63  C   UNL A   1      44.589  25.235  32.604  1.00  0.00     0.037 A 
BRANCH  50  64
ATOM     64  C   UNL A   1      43.565  22.881  27.059  1.00  0.00     0.058 A 
ATOM     65  C   UNL A   1      42.848  21.664  26.989  1.00  0.00     0.135 A 
ATOM     66  C   UNL A   1      44.610  22.989  26.120  1.00  0.00     0.135 A 
ATOM     67  F   UNL A   1      41.760  21.448  27.741  1.00  0.00    -0.206 F 
ATOM     68  C   UNL A   1      43.217  20.606  26.153  1.00  0.00     0.059 A 
ATOM     69  C   UNL A   1      45.036  21.926  25.316  1.00  0.00     0.059 A 
ATOM     70  F   UNL A   1      45.228  24.152  25.888  1.00  0.00    -0.206 F 
ATOM     71  C   UNL A   1      44.341  20.729  25.349  1.00  0.00     0.060 A 
BRANCH  71  72
ATOM     72  S   UNL A   1      44.863  19.325  24.349  1.00  0.00     0.124 S 
ATOM     73  O   UNL A   1      44.390  19.702  23.020  1.00  0.00    -0.237 OA
ATOM     74  O   UNL A   1      46.309  19.337  24.537  1.00  0.00    -0.237 OA
ATOM     75  O   UNL A   1      44.163  18.196  24.955  1.00  0.00    -0.744 OA
ENDBRANCH  71  72
ENDBRANCH  50  64
BRANCH  51  76
ATOM     76  C   UNL A   1      41.358  30.353  32.971  1.00  0.00     0.058 A 
ATOM     77  C   UNL A   1      40.216  29.575  33.244  1.00  0.00     0.135 A 
ATOM     78  C   UNL A   1      41.455  31.604  33.593  1.00  0.00     0.135 A 
ATOM     79  F   UNL A   1      40.064  28.375  32.661  1.00  0.00    -0.206 F 
ATOM     80  C   UNL A   1      39.294  29.945  34.216  1.00  0.00     0.059 A 
ATOM     81  C   UNL A   1      40.534  32.001  34.565  1.00  0.00     0.059 A 
ATOM     82  F   UNL A   1      42.518  32.391  33.369  1.00  0.00    -0.206 F 
ATOM     83  C   UNL A   1      39.497  31.134  34.914  1.00  0.00     0.060 A 
BRANCH  83  84
ATOM     84  S   UNL A   1      38.499  31.423  36.395  1.00  0.00     0.124 S 
ATOM     85  O   UNL A   1      39.438  32.129  37.259  1.00  0.00    -0.237 OA
ATOM     86  O   UNL A   1      37.399  32.230  35.871  1.00  0.00    -0.237 OA
ATOM     87  O   UNL A   1      38.135  30.077  36.822  1.00  0.00    -0.744 OA
ENDBRANCH  83  84
ENDBRANCH  51  76
BRANCH  63  88
ATOM     88  C   UNL A   1      44.938  24.090  33.500  1.00  0.00     0.058 A 
ATOM     89  C   UNL A   1      46.233  23.936  34.017  1.00  0.00     0.135 A 
ATOM     90  C   UNL A   1      44.023  23.051  33.755  1.00  0.00     0.135 A 
ATOM     91  F   UNL A   1      47.170  24.874  33.801  1.00  0.00    -0.206 F 
ATOM     92  C   UNL A   1      46.602  22.814  34.757  1.00  0.00     0.059 A 
ATOM     93  C   UNL A   1      44.379  21.904  34.459  1.00  0.00     0.059 A 
ATOM     94  F   UNL A   1      42.749  23.136  33.337  1.00  0.00    -0.206 F 
ATOM     95  C   UNL A   1      45.668  21.801  34.969  1.00  0.00     0.060 A 
BRANCH  95  96
ATOM     96  S   UNL A   1      46.153  20.322  35.881  1.00  0.00     0.124 S 
ATOM     97  O   UNL A   1      45.373  19.271  35.235  1.00  0.00    -0.237 OA
ATOM     98  O   UNL A   1      47.590  20.285  35.630  1.00  0.00    -0.237 OA
ATOM     99  O   UNL A   1      45.759  20.632  37.252  1.00  0.00    -0.744 OA
ENDBRANCH  95  96
ENDBRANCH  63  88
ENDBRANCH  37  38
ENDBRANCH  29  32
ENDBRANCH  27  28
ENDBRANCH   1  27
TORSDOF 17
ENDMDL
MODEL 2
REMARK VINA RESULT:     -13.6      1.647      3.627
REMARK SMILES Cc1ccc(NC(=O)C[C@@H](C(=O)NCCCNC(=O)c2ccc(-c3c4nc(c(-c5c(F)cc(S(=O)(=O)[O-])cc5F)c5ccc([nH]5)c(-c5c(F)cc(S(=O)(=O)[O-])cc5F)c5nc(c(-c6c(F)cc(S(=O)(=O)[O-])cc6F)c6ccc3[nH]6)C=C5)C=C4)cc2)[NH+]2CCOCC2)cc1
REMARK SMILES IDX 15 1 14 2 13 3 11 4 12 5 10 7 9 8 7 9 6 10 8 12 5 13 1 14
REMARK SMILES IDX 2 15 3 16 93 17 4 18 92 19 86 20 87 21 91 22 88 24 90 25
REMARK SMILES IDX 89 26 16 27 17 28 18 29 19 31 20 32 21 33 85 34 22 35 84 36
REMARK SMILES IDX 23 37 24 38 25 39 78 40 26 41 83 42 77 43 79 44 27 45 82 46
REMARK SMILES IDX 76 47 75 48 28 50 62 51 41 52 61 53 42 54 45 55 60 56 80 57
REMARK SMILES IDX 43 58 44 59 59 61 81 62 46 63 29 64 30 65 39 66 31 67 32 68
REMARK SMILES IDX 38 69 40 70 33 71 34 72 35 73 36 74 37 75 63 76 64 77 73 78
REMARK SMILES IDX 65 79 66 80 72 81 74 82 67 83 68 84 69 85 70 86 71 87 47 88
REMARK SMILES IDX 48 89 57 90 49 91 50 92 56 93 58 94 51 95 52 96 53 97 54 98
REMARK SMILES IDX 55 99
REMARK H PARENT 13 6 6 11 86 23 17 30 79 49 45 60
REMARK Flexibility Score: inf
ROOT
ATOM      1  C   UNL A   1      33.044  29.554  27.612  1.00  0.00     0.042 C 
ENDROOT
BRANCH   1   2
ATOM      2  C   UNL A   1      32.099  29.720  26.420  1.00  0.00     0.118 C 
BRANCH   2   3
ATOM      3  N   UNL A   1      32.565  29.130  25.183  1.00  0.00    -0.351 N 
ATOM      4  C   UNL A   1      31.969  28.993  23.965  1.00  0.00     0.278 C 
ATOM      5  O   UNL A   1      32.746  28.828  23.018  1.00  0.00    -0.268 OA
ATOM      6  H   UNL A   1      33.478  28.764  25.230  1.00  0.00     0.163 HD
BRANCH   4   7
ATOM      7  C   UNL A   1      30.413  29.083  23.765  1.00  0.00     0.283 C 
BRANCH   7   8
ATOM      8  C   UNL A   1      29.794  27.862  23.049  1.00  0.00     0.175 C 
BRANCH   8   9
ATOM      9  C   UNL A   1      28.881  26.918  23.792  1.00  0.00     0.230 C 
ATOM     10  N   UNL A   1      29.336  25.859  24.519  1.00  0.00    -0.326 N 
ATOM     11  H   UNL A   1      28.626  25.332  24.950  1.00  0.00     0.169 HD
ATOM     12  O   UNL A   1      27.660  27.109  23.739  1.00  0.00    -0.274 OA
BRANCH  10  13
ATOM     13  C   UNL A   1      30.637  25.383  24.763  1.00  0.00     0.041 A 
ATOM     14  C   UNL A   1      34.860  24.805  25.343  1.00  0.00     0.044 C 
ATOM     15  C   UNL A   1      33.369  24.903  25.218  1.00  0.00    -0.051 A 
ATOM     16  C   UNL A   1      32.724  24.344  24.113  1.00  0.00     0.005 A 
ATOM     17  C   UNL A   1      32.613  25.614  26.151  1.00  0.00     0.005 A 
ATOM     18  C   UNL A   1      31.363  24.570  23.896  1.00  0.00     0.026 A 
ATOM     19  C   UNL A   1      31.251  25.835  25.933  1.00  0.00     0.026 A 
ENDBRANCH  10  13
ENDBRANCH   8   9
ENDBRANCH   7   8
BRANCH   7  20
ATOM     20  N   UNL A   1      30.086  30.359  23.038  1.00  0.00    -0.320 N 
ATOM     21  C   UNL A   1      29.257  31.308  23.813  1.00  0.00     0.291 C 
ATOM     22  C   UNL A   1      29.603  30.309  21.651  1.00  0.00     0.291 C 
ATOM     23  H   UNL A   1      31.043  30.702  22.949  1.00  0.00     0.348 HD
ATOM     24  C   UNL A   1      27.744  31.135  23.605  1.00  0.00     0.221 C 
ATOM     25  C   UNL A   1      28.084  30.167  21.497  1.00  0.00     0.221 C 
ATOM     26  O   UNL A   1      27.388  31.186  22.220  1.00  0.00    -0.370 OA
ENDBRANCH   7  20
ENDBRANCH   4   7
ENDBRANCH   2   3
ENDBRANCH   1   2
BRANCH   1  27
ATOM     27  C   UNL A   1      34.540  29.619  27.298  1.00  0.00     0.118 C 
BRANCH  27  28
ATOM     28  N   UNL A   1      35.128  30.821  27.895  1.00  0.00    -0.352 N 
ATOM     29  C   UNL A   1      36.327  31.001  28.541  1.00  0.00     0.251 C 
ATOM     30  H   UNL A   1      34.573  31.631  27.822  1.00  0.00     0.163 HD
ATOM     31  O   UNL A   1      36.633  32.068  29.066  1.00  0.00    -0.269 OA
BRANCH  29  32
ATOM     32  C   UNL A   1      37.282  29.889  28.523  1.00  0.00     0.039 A 
ATOM     33  C   UNL A   1      37.470  29.174  29.710  1.00  0.00     0.014 A 
ATOM     34  C   UNL A   1      38.110  29.708  27.420  1.00  0.00     0.014 A 
ATOM     35  C   UNL A   1      38.609  28.389  29.856  1.00  0.00     0.010 A 
ATOM     36  C   UNL A   1      39.263  28.963  27.584  1.00  0.00     0.010 A 
ATOM     37  C   UNL A   1      39.543  28.359  28.821  1.00  0.00    -0.014 A 
BRANCH  37  38
ATOM     38  C   UNL A   1      40.883  27.801  28.975  1.00  0.00     0.031 A 
ATOM     39  C   UNL A   1      41.172  26.415  28.546  1.00  0.00     0.074 A 
ATOM     40  C   UNL A   1      41.882  28.588  29.428  1.00  0.00     0.049 A 
ATOM     41  N   UNL A   1      42.217  25.741  28.888  1.00  0.00    -0.248 NA
ATOM     42  C   UNL A   1      40.251  25.659  27.709  1.00  0.00     0.031 C 
ATOM     43  C   UNL A   1      43.316  28.323  29.361  1.00  0.00     0.029 A 
ATOM     44  N   UNL A   1      41.776  29.724  30.237  1.00  0.00    -0.354 N 
ATOM     45  C   UNL A   1      42.249  24.586  28.137  1.00  0.00     0.074 A 
ATOM     46  C   UNL A   1      40.971  24.562  27.459  1.00  0.00     0.031 C 
ATOM     47  C   UNL A   1      43.937  29.068  30.286  1.00  0.00     0.029 A 
ATOM     48  C   UNL A   1      42.910  29.719  31.081  1.00  0.00     0.049 A 
ATOM     49  H   UNL A   1      41.055  30.394  30.222  1.00  0.00     0.167 HD
ATOM     50  C   UNL A   1      43.401  23.851  28.093  1.00  0.00     0.037 A 
ATOM     51  C   UNL A   1      42.761  29.574  32.432  1.00  0.00     0.037 A 
ATOM     52  C   UNL A   1      44.384  24.355  29.056  1.00  0.00     0.049 A 
ATOM     53  C   UNL A   1      43.338  28.291  32.997  1.00  0.00     0.074 A 
ATOM     54  C   UNL A   1      45.483  25.195  28.972  1.00  0.00     0.029 A 
ATOM     55  N   UNL A   1      44.118  24.212  30.406  1.00  0.00    -0.354 N 
ATOM     56  N   UNL A   1      43.929  27.368  32.287  1.00  0.00    -0.248 NA
ATOM     57  C   UNL A   1      43.228  27.915  34.409  1.00  0.00     0.031 C 
ATOM     58  C   UNL A   1      45.823  25.614  30.290  1.00  0.00     0.029 A 
ATOM     59  C   UNL A   1      44.939  25.019  31.173  1.00  0.00     0.049 A 
ATOM     60  H   UNL A   1      43.430  23.612  30.775  1.00  0.00     0.167 HD
ATOM     61  C   UNL A   1      44.194  26.286  33.081  1.00  0.00     0.074 A 
ATOM     62  C   UNL A   1      43.766  26.683  34.408  1.00  0.00     0.031 C 
ATOM     63  C   UNL A   1      44.699  25.115  32.602  1.00  0.00     0.037 A 
BRANCH  50  64
ATOM     64  C   UNL A   1      43.729  22.826  27.020  1.00  0.00     0.058 A 
ATOM     65  C   UNL A   1      42.977  21.634  26.915  1.00  0.00     0.135 A 
ATOM     66  C   UNL A   1      44.804  22.910  26.114  1.00  0.00     0.135 A 
ATOM     67  F   UNL A   1      41.861  21.443  27.632  1.00  0.00    -0.206 F 
ATOM     68  C   UNL A   1      43.336  20.574  26.077  1.00  0.00     0.059 A 
ATOM     69  C   UNL A   1      45.221  21.843  25.310  1.00  0.00     0.059 A 
ATOM     70  F   UNL A   1      45.466  24.056  25.914  1.00  0.00    -0.206 F 
ATOM     71  C   UNL A   1      44.487  20.669  25.308  1.00  0.00     0.060 A 
BRANCH  71  72
ATOM     72  S   UNL A   1      44.993  19.260  24.306  1.00  0.00     0.124 S 
ATOM     73  O   UNL A   1      44.271  18.160  24.937  1.00  0.00    -0.237 OA
ATOM     74  O   UNL A   1      44.530  19.647  22.979  1.00  0.00    -0.237 OA
ATOM     75  O   UNL A   1      46.443  19.225  24.477  1.00  0.00    -0.744 OA
ENDBRANCH  71  72
ENDBRANCH  50  64
BRANCH  51  76
ATOM     76  C   UNL A   1      41.567  30.294  32.952  1.00  0.00     0.058 A 
ATOM     77  C   UNL A   1      41.662  31.692  33.100  1.00  0.00     0.135 A 
ATOM     78  C   UNL A   1      40.285  29.735  32.889  1.00  0.00     0.135 A 
ATOM     79  F   UNL A   1      42.867  32.280  33.184  1.00  0.00    -0.206 F 
ATOM     80  C   UNL A   1      40.543  32.514  33.021  1.00  0.00     0.059 A 
ATOM     81  C   UNL A   1      39.147  30.541  32.819  1.00  0.00     0.059 A 
ATOM     82  F   UNL A   1      40.131  28.409  32.752  1.00  0.00    -0.206 F 
ATOM     83  C   UNL A   1      39.295  31.929  32.820  1.00  0.00     0.060 A 
BRANCH  83  84
ATOM     84  S   UNL A   1      37.918  33.014  32.373  1.00  0.00     0.124 S 
ATOM     85  O   UNL A   1      36.835  32.059  32.169  1.00  0.00    -0.237 OA
ATOM     86  O   UNL A   1      37.796  33.859  33.560  1.00  0.00    -0.237 OA
ATOM     87  O   UNL A   1      38.400  33.691  31.174  1.00  0.00    -0.744 OA
ENDBRANCH  83  84
ENDBRANCH  51  76
BRANCH  63  88
ATOM     88  C   UNL A   1      45.009  23.956  33.495  1.00  0.00     0.058 A 
ATOM     89  C   UNL A   1      46.312  23.717  33.957  1.00  0.00     0.135 A 
ATOM     90  C   UNL A   1      44.037  22.984  33.801  1.00  0.00     0.135 A 
ATOM     91  F   UNL A   1      47.300  24.587  33.690  1.00  0.00    -0.206 F 
ATOM     92  C   UNL A   1      46.635  22.578  34.693  1.00  0.00     0.059 A 
ATOM     93  C   UNL A   1      44.345  21.821  34.501  1.00  0.00     0.059 A 
ATOM     94  F   UNL A   1      42.755  23.153  33.438  1.00  0.00    -0.206 F 
ATOM     95  C   UNL A   1      45.645  21.633  34.956  1.00  0.00     0.060 A 
BRANCH  95  96
ATOM     96  S   UNL A   1      46.067  20.133  35.863  1.00  0.00     0.124 S 
ATOM     97  O   UNL A   1      45.198  19.130  35.255  1.00  0.00    -0.237 OA
ATOM     98  O   UNL A   1      47.488  20.002  35.561  1.00  0.00    -0.237 OA
ATOM     99  O   UNL A   1      45.745  20.475  37.245  1.00  0.00    -0.744 OA
ENDBRANCH  95  96
ENDBRANCH  63  88
ENDBRANCH  37  38
ENDBRANCH  29  32
ENDBRANCH  27  28
ENDBRANCH   1  27
TORSDOF 17
ENDMDL
MODEL 3
REMARK VINA RESULT:     -13.6      1.128      2.912
REMARK SMILES Cc1ccc(NC(=O)C[C@@H](C(=O)NCCCNC(=O)c2ccc(-c3c4nc(c(-c5c(F)cc(S(=O)(=O)[O-])cc5F)c5ccc([nH]5)c(-c5c(F)cc(S(=O)(=O)[O-])cc5F)c5nc(c(-c6c(F)cc(S(=O)(=O)[O-])cc6F)c6ccc3[nH]6)C=C5)C=C4)cc2)[NH+]2CCOCC2)cc1
REMARK SMILES IDX 15 1 14 2 13 3 11 4 12 5 10 7 9 8 7 9 6 10 8 12 5 13 1 14
REMARK SMILES IDX 2 15 3 16 93 17 4 18 92 19 86 20 87 21 91 22 88 24 90 25
REMARK SMILES IDX 89 26 16 27 17 28 18 29 19 31 20 32 21 33 85 34 22 35 84 36
REMARK SMILES IDX 23 37 24 38 25 39 78 40 26 41 83 42 77 43 79 44 27 45 82 46
REMARK SMILES IDX 76 47 75 48 28 50 62 51 41 52 61 53 42 54 45 55 60 56 80 57
REMARK SMILES IDX 43 58 44 59 59 61 81 62 46 63 29 64 30 65 39 66 31 67 32 68
REMARK SMILES IDX 38 69 40 70 33 71 34 72 35 73 36 74 37 75 63 76 64 77 73 78
REMARK SMILES IDX 65 79 66 80 72 81 74 82 67 83 68 84 69 85 70 86 71 87 47 88
REMARK SMILES IDX 48 89 57 90 49 91 50 92 56 93 58 94 51 95 52 96 53 97 54 98
REMARK SMILES IDX 55 99
REMARK H PARENT 13 6 6 11 86 23 17 30 79 49 45 60
REMARK Flexibility Score: inf
ROOT
ATOM      1  C   UNL A   1      33.225  29.930  26.514  1.00  0.00     0.042 C 
ENDROOT
BRANCH   1   2
ATOM      2  C   UNL A   1      33.409  29.439  25.077  1.00  0.00     0.118 C 
BRANCH   2   3
ATOM      3  N   UNL A   1      32.206  29.438  24.272  1.00  0.00    -0.351 N 
ATOM      4  C   UNL A   1      31.299  28.457  24.000  1.00  0.00     0.278 C 
ATOM      5  O   UNL A   1      30.189  28.859  23.633  1.00  0.00    -0.268 OA
ATOM      6  H   UNL A   1      32.006  30.302  23.846  1.00  0.00     0.163 HD
BRANCH   4   7
ATOM      7  C   UNL A   1      31.619  26.930  24.183  1.00  0.00     0.283 C 
BRANCH   7   8
ATOM      8  C   UNL A   1      30.975  26.015  23.117  1.00  0.00     0.175 C 
BRANCH   8   9
ATOM      9  C   UNL A   1      31.708  25.696  21.837  1.00  0.00     0.230 C 
ATOM     10  N   UNL A   1      32.637  24.704  21.739  1.00  0.00    -0.326 N 
ATOM     11  H   UNL A   1      33.033  24.609  20.843  1.00  0.00     0.169 HD
ATOM     12  O   UNL A   1      31.460  26.366  20.828  1.00  0.00    -0.274 OA
BRANCH  10  13
ATOM     13  C   UNL A   1      33.134  23.791  22.687  1.00  0.00     0.041 A 
ATOM     14  C   UNL A   1      35.269  20.797  24.921  1.00  0.00     0.044 C 
ATOM     15  C   UNL A   1      34.489  21.892  24.257  1.00  0.00    -0.051 A 
ATOM     16  C   UNL A   1      33.185  21.651  23.819  1.00  0.00     0.005 A 
ATOM     17  C   UNL A   1      35.068  23.134  23.994  1.00  0.00     0.005 A 
ATOM     18  C   UNL A   1      32.507  22.602  23.051  1.00  0.00     0.026 A 
ATOM     19  C   UNL A   1      34.386  24.084  23.231  1.00  0.00     0.026 A 
ENDBRANCH  10  13
ENDBRANCH   8   9
ENDBRANCH   7   8
BRANCH   7  20
ATOM     20  N   UNL A   1      31.216  26.508  25.570  1.00  0.00    -0.320 N 
ATOM     21  C   UNL A   1      32.351  26.199  26.468  1.00  0.00     0.291 C 
ATOM     22  C   UNL A   1      30.161  25.501  25.753  1.00  0.00     0.291 C 
ATOM     23  H   UNL A   1      30.767  27.383  25.842  1.00  0.00     0.348 HD
ATOM     24  C   UNL A   1      32.781  24.723  26.450  1.00  0.00     0.221 C 
ATOM     25  C   UNL A   1      30.644  24.046  25.759  1.00  0.00     0.221 C 
ATOM     26  O   UNL A   1      31.683  23.845  26.722  1.00  0.00    -0.370 OA
ENDBRANCH   7  20
ENDBRANCH   4   7
ENDBRANCH   2   3
ENDBRANCH   1   2
BRANCH   1  27
ATOM     27  C   UNL A   1      34.292  29.488  27.518  1.00  0.00     0.118 C 
BRANCH  27  28
ATOM     28  N   UNL A   1      34.867  30.656  28.189  1.00  0.00    -0.352 N 
ATOM     29  C   UNL A   1      36.073  30.814  28.827  1.00  0.00     0.251 C 
ATOM     30  H   UNL A   1      34.296  31.458  28.184  1.00  0.00     0.163 HD
ATOM     31  O   UNL A   1      36.368  31.847  29.422  1.00  0.00    -0.269 OA
BRANCH  29  32
ATOM     32  C   UNL A   1      37.050  29.726  28.714  1.00  0.00     0.039 A 
ATOM     33  C   UNL A   1      37.279  28.937  29.846  1.00  0.00     0.014 A 
ATOM     34  C   UNL A   1      37.856  29.636  27.583  1.00  0.00     0.014 A 
ATOM     35  C   UNL A   1      38.436  28.169  29.914  1.00  0.00     0.010 A 
ATOM     36  C   UNL A   1      39.026  28.907  27.673  1.00  0.00     0.010 A 
ATOM     37  C   UNL A   1      39.346  28.227  28.860  1.00  0.00    -0.014 A 
BRANCH  37  38
ATOM     38  C   UNL A   1      40.700  27.689  28.947  1.00  0.00     0.031 A 
ATOM     39  C   UNL A   1      40.978  26.293  28.547  1.00  0.00     0.074 A 
ATOM     40  C   UNL A   1      41.716  28.501  29.310  1.00  0.00     0.049 A 
ATOM     41  N   UNL A   1      42.052  25.641  28.844  1.00  0.00    -0.248 NA
ATOM     42  C   UNL A   1      40.017  25.499  27.794  1.00  0.00     0.031 C 
ATOM     43  C   UNL A   1      43.146  28.249  29.161  1.00  0.00     0.029 A 
ATOM     44  N   UNL A   1      41.647  29.663  30.087  1.00  0.00    -0.354 N 
ATOM     45  C   UNL A   1      42.050  24.462  28.130  1.00  0.00     0.074 A 
ATOM     46  C   UNL A   1      40.733  24.402  27.536  1.00  0.00     0.031 C 
ATOM     47  C   UNL A   1      43.814  29.031  30.020  1.00  0.00     0.029 A 
ATOM     48  C   UNL A   1      42.831  29.697  30.857  1.00  0.00     0.049 A 
ATOM     49  H   UNL A   1      40.918  30.324  30.095  1.00  0.00     0.167 HD
ATOM     50  C   UNL A   1      43.206  23.738  28.037  1.00  0.00     0.037 A 
ATOM     51  C   UNL A   1      42.769  29.596  32.218  1.00  0.00     0.037 A 
ATOM     52  C   UNL A   1      44.242  24.284  28.920  1.00  0.00     0.049 A 
ATOM     53  C   UNL A   1      43.396  28.339  32.788  1.00  0.00     0.074 A 
ATOM     54  C   UNL A   1      45.323  25.132  28.738  1.00  0.00     0.029 A 
ATOM     55  N   UNL A   1      44.063  24.184  30.288  1.00  0.00    -0.354 N 
ATOM     56  N   UNL A   1      43.953  27.399  32.072  1.00  0.00    -0.248 NA
ATOM     57  C   UNL A   1      43.381  28.009  34.216  1.00  0.00     0.031 C 
ATOM     58  C   UNL A   1      45.740  25.598  30.019  1.00  0.00     0.029 A 
ATOM     59  C   UNL A   1      44.920  25.024  30.974  1.00  0.00     0.049 A 
ATOM     60  H   UNL A   1      43.408  23.589  30.719  1.00  0.00     0.167 HD
ATOM     61  C   UNL A   1      44.281  26.346  32.883  1.00  0.00     0.074 A 
ATOM     62  C   UNL A   1      43.932  26.784  34.221  1.00  0.00     0.031 C 
ATOM     63  C   UNL A   1      44.770  25.165  32.412  1.00  0.00     0.037 A 
BRANCH  50  64
ATOM     64  C   UNL A   1      43.480  22.681  26.981  1.00  0.00     0.058 A 
ATOM     65  C   UNL A   1      42.768  21.459  26.989  1.00  0.00     0.135 A 
ATOM     66  C   UNL A   1      44.467  22.765  25.980  1.00  0.00     0.135 A 
ATOM     67  F   UNL A   1      41.728  21.260  27.810  1.00  0.00    -0.206 F 
ATOM     68  C   UNL A   1      43.094  20.378  26.165  1.00  0.00     0.059 A 
ATOM     69  C   UNL A   1      44.853  21.680  25.184  1.00  0.00     0.059 A 
ATOM     70  F   UNL A   1      45.064  23.923  25.677  1.00  0.00    -0.206 F 
ATOM     71  C   UNL A   1      44.168  20.482  25.293  1.00  0.00     0.060 A 
BRANCH  71  72
ATOM     72  S   UNL A   1      44.640  19.051  24.306  1.00  0.00     0.124 S 
ATOM     73  O   UNL A   1      46.026  18.842  24.711  1.00  0.00    -0.237 OA
ATOM     74  O   UNL A   1      43.687  18.043  24.755  1.00  0.00    -0.237 OA
ATOM     75  O   UNL A   1      44.461  19.512  22.931  1.00  0.00    -0.744 OA
ENDBRANCH  71  72
ENDBRANCH  50  64
BRANCH  51  76
ATOM     76  C   UNL A   1      41.602  30.321  32.789  1.00  0.00     0.058 A 
ATOM     77  C   UNL A   1      40.460  29.564  33.117  1.00  0.00     0.135 A 
ATOM     78  C   UNL A   1      41.739  31.579  33.389  1.00  0.00     0.135 A 
ATOM     79  F   UNL A   1      40.270  28.358  32.558  1.00  0.00    -0.206 F 
ATOM     80  C   UNL A   1      39.580  29.961  34.118  1.00  0.00     0.059 A 
ATOM     81  C   UNL A   1      40.861  32.003  34.388  1.00  0.00     0.059 A 
ATOM     82  F   UNL A   1      42.804  32.348  33.113  1.00  0.00    -0.206 F 
ATOM     83  C   UNL A   1      39.826  31.157  34.789  1.00  0.00     0.060 A 
BRANCH  83  84
ATOM     84  S   UNL A   1      38.889  31.481  36.303  1.00  0.00     0.124 S 
ATOM     85  O   UNL A   1      39.920  32.013  37.188  1.00  0.00    -0.237 OA
ATOM     86  O   UNL A   1      37.894  32.450  35.845  1.00  0.00    -0.237 OA
ATOM     87  O   UNL A   1      38.363  30.169  36.659  1.00  0.00    -0.744 OA
ENDBRANCH  83  84
ENDBRANCH  51  76
BRANCH  63  88
ATOM     88  C   UNL A   1      45.149  24.040  33.321  1.00  0.00     0.058 A 
ATOM     89  C   UNL A   1      44.221  23.054  33.690  1.00  0.00     0.135 A 
ATOM     90  C   UNL A   1      46.408  23.996  33.949  1.00  0.00     0.135 A 
ATOM     91  F   UNL A   1      42.991  23.040  33.150  1.00  0.00    -0.206 F 
ATOM     92  C   UNL A   1      44.528  22.068  34.626  1.00  0.00     0.059 A 
ATOM     93  C   UNL A   1      46.723  23.044  34.915  1.00  0.00     0.059 A 
ATOM     94  F   UNL A   1      47.372  24.873  33.623  1.00  0.00    -0.206 F 
ATOM     95  C   UNL A   1      45.781  22.074  35.237  1.00  0.00     0.060 A 
BRANCH  95  96
ATOM     96  S   UNL A   1      46.167  20.832  36.486  1.00  0.00     0.124 S 
ATOM     97  O   UNL A   1      47.619  20.719  36.394  1.00  0.00    -0.237 OA
ATOM     98  O   UNL A   1      45.660  21.473  37.696  1.00  0.00    -0.237 OA
ATOM     99  O   UNL A   1      45.424  19.661  36.034  1.00  0.00    -0.744 OA
ENDBRANCH  95  96
ENDBRANCH  63  88
ENDBRANCH  37  38
ENDBRANCH  29  32
ENDBRANCH  27  28
ENDBRANCH   1  27
TORSDOF 17
ENDMDL
