MODEL 1
REMARK VINA RESULT:     -11.5      0.000      0.000
REMARK SMILES CC(C)(C)C[N@H+]1[C@@H](C(=O)NCCCNC(=O)c2ccc(-c3c4nc(c(-c5c(F)cc(S(=O)(=O)[O-])cc5F)c5ccc([nH]5)c(-c5c(F)cc(S(=O)(=O)[O-])cc5F)c5nc(c(-c6c(F)cc(S(=O)(=O)[O-])cc6F)c6ccc3[nH]6)C=C5)C=C4)cc2)CC[C@H]2CCCC[C@@H]21
REMARK SMILES IDX 12 1 11 2 10 3 8 4 9 5 7 7 6 8 90 9 83 11 85 12 89 13 84 14
REMARK SMILES IDX 86 15 88 16 87 17 5 18 2 19 1 20 3 21 4 22 13 23 14 24 15 25
REMARK SMILES IDX 16 27 17 28 18 29 82 30 19 31 81 32 20 33 21 34 22 35 75 36
REMARK SMILES IDX 23 37 80 38 74 39 76 40 24 41 79 42 73 43 72 44 25 46 59 47
REMARK SMILES IDX 38 48 58 49 39 50 42 51 57 52 77 53 40 54 41 55 56 57 78 58
REMARK SMILES IDX 43 59 26 60 27 61 36 62 28 63 29 64 35 65 37 66 30 67 31 68
REMARK SMILES IDX 32 69 33 70 34 71 60 72 61 73 70 74 62 75 63 76 69 77 71 78
REMARK SMILES IDX 64 79 65 80 66 81 67 82 68 83 44 84 45 85 54 86 46 87 47 88
REMARK SMILES IDX 53 89 55 90 48 91 49 92 50 93 51 94 52 95
REMARK H PARENT 10 6 6 10 14 26 76 45 42 56
REMARK Flexibility Score: inf
ROOT
ATOM      1  C   UNL A   1      34.018  27.933  26.003  1.00  0.00     0.042 C 
ENDROOT
BRANCH   1   2
ATOM      2  C   UNL A   1      33.252  28.503  24.829  1.00  0.00     0.118 C 
BRANCH   2   3
ATOM      3  N   UNL A   1      33.746  28.097  23.543  1.00  0.00    -0.351 N 
ATOM      4  C   UNL A   1      33.401  27.001  22.811  1.00  0.00     0.278 C 
ATOM      5  O   UNL A   1      33.789  26.996  21.634  1.00  0.00    -0.268 OA
ATOM      6  H   UNL A   1      34.422  28.688  23.137  1.00  0.00     0.163 HD
BRANCH   4   7
ATOM      7  C   UNL A   1      32.582  25.805  23.373  1.00  0.00     0.274 C 
ATOM      8  N   UNL A   1      33.382  24.750  24.029  1.00  0.00    -0.322 N 
ATOM      9  C   UNL A   1      32.593  23.969  24.986  1.00  0.00     0.187 C 
ATOM     10  H   UNL A   1      34.043  25.316  24.559  1.00  0.00     0.349 HD
ATOM     11  C   UNL A   1      31.395  25.265  22.563  1.00  0.00     0.076 C 
ATOM     12  C   UNL A   1      31.071  23.952  24.690  1.00  0.00     0.048 C 
ATOM     13  C   UNL A   1      32.709  24.458  26.445  1.00  0.00     0.065 C 
ATOM     14  C   UNL A   1      30.766  24.003  23.202  1.00  0.00     0.016 C 
ATOM     15  C   UNL A   1      30.489  22.747  25.428  1.00  0.00     0.010 C 
ATOM     16  C   UNL A   1      32.023  23.448  27.387  1.00  0.00     0.006 C 
ATOM     17  C   UNL A   1      30.628  22.976  26.937  1.00  0.00     0.001 C 
BRANCH   8  18
ATOM     18  C   UNL A   1      34.454  24.041  23.310  1.00  0.00     0.269 C 
BRANCH  18  19
ATOM     19  C   UNL A   1      35.624  23.119  23.895  1.00  0.00     0.011 C 
ATOM     20  C   UNL A   1      35.086  21.775  24.417  1.00  0.00     0.017 C 
ATOM     21  C   UNL A   1      36.207  23.883  25.116  1.00  0.00     0.017 C 
ATOM     22  C   UNL A   1      36.854  22.812  23.015  1.00  0.00     0.017 C 
ENDBRANCH  18  19
ENDBRANCH   8  18
ENDBRANCH   4   7
ENDBRANCH   2   3
ENDBRANCH   1   2
BRANCH   1  23
ATOM     23  C   UNL A   1      33.421  28.314  27.345  1.00  0.00     0.118 C 
BRANCH  23  24
ATOM     24  N   UNL A   1      33.409  29.756  27.568  1.00  0.00    -0.352 N 
ATOM     25  C   UNL A   1      34.392  30.587  28.054  1.00  0.00     0.251 C 
ATOM     26  H   UNL A   1      32.565  30.206  27.332  1.00  0.00     0.163 HD
ATOM     27  O   UNL A   1      34.122  31.754  28.313  1.00  0.00    -0.269 OA
BRANCH  25  28
ATOM     28  C   UNL A   1      35.758  30.068  28.288  1.00  0.00     0.039 A 
ATOM     29  C   UNL A   1      36.687  30.112  27.244  1.00  0.00     0.014 A 
ATOM     30  C   UNL A   1      36.129  29.547  29.529  1.00  0.00     0.014 A 
ATOM     31  C   UNL A   1      38.003  29.701  27.472  1.00  0.00     0.010 A 
ATOM     32  C   UNL A   1      37.460  29.241  29.784  1.00  0.00     0.010 A 
ATOM     33  C   UNL A   1      38.410  29.305  28.756  1.00  0.00    -0.014 A 
BRANCH  33  34
ATOM     34  C   UNL A   1      39.822  28.952  29.047  1.00  0.00     0.031 A 
ATOM     35  C   UNL A   1      40.757  29.985  29.615  1.00  0.00     0.074 A 
ATOM     36  C   UNL A   1      40.281  27.727  28.721  1.00  0.00     0.049 A 
ATOM     37  N   UNL A   1      42.037  29.892  29.867  1.00  0.00    -0.248 NA
ATOM     38  C   UNL A   1      40.186  31.311  29.909  1.00  0.00     0.031 C 
ATOM     39  C   UNL A   1      39.486  26.663  28.102  1.00  0.00     0.029 A 
ATOM     40  N   UNL A   1      41.529  27.172  28.851  1.00  0.00    -0.354 N 
ATOM     41  C   UNL A   1      42.426  31.146  30.325  1.00  0.00     0.074 A 
ATOM     42  C   UNL A   1      41.260  31.999  30.263  1.00  0.00     0.031 C 
ATOM     43  C   UNL A   1      40.258  25.580  27.929  1.00  0.00     0.029 A 
ATOM     44  C   UNL A   1      41.612  25.883  28.380  1.00  0.00     0.049 A 
ATOM     45  H   UNL A   1      42.293  27.652  29.244  1.00  0.00     0.167 HD
ATOM     46  C   UNL A   1      43.638  31.542  30.779  1.00  0.00     0.037 A 
ATOM     47  C   UNL A   1      42.662  25.042  28.309  1.00  0.00     0.037 A 
ATOM     48  C   UNL A   1      44.784  30.675  30.861  1.00  0.00     0.049 A 
ATOM     49  C   UNL A   1      43.996  25.497  28.833  1.00  0.00     0.074 A 
ATOM     50  C   UNL A   1      46.037  30.952  31.377  1.00  0.00     0.029 A 
ATOM     51  N   UNL A   1      44.821  29.363  30.405  1.00  0.00    -0.354 N 
ATOM     52  N   UNL A   1      44.326  26.660  29.343  1.00  0.00    -0.248 NA
ATOM     53  C   UNL A   1      45.097  24.527  28.783  1.00  0.00     0.031 C 
ATOM     54  C   UNL A   1      46.849  29.830  31.181  1.00  0.00     0.029 A 
ATOM     55  C   UNL A   1      46.084  28.829  30.601  1.00  0.00     0.049 A 
ATOM     56  H   UNL A   1      44.062  28.884  30.003  1.00  0.00     0.167 HD
ATOM     57  C   UNL A   1      45.667  26.554  29.697  1.00  0.00     0.074 A 
ATOM     58  C   UNL A   1      46.081  25.208  29.355  1.00  0.00     0.031 C 
ATOM     59  C   UNL A   1      46.480  27.486  30.254  1.00  0.00     0.037 A 
BRANCH  46  60
ATOM     60  C   UNL A   1      43.788  32.976  31.215  1.00  0.00     0.058 A 
ATOM     61  C   UNL A   1      43.595  33.372  32.550  1.00  0.00     0.135 A 
ATOM     62  C   UNL A   1      44.155  33.966  30.290  1.00  0.00     0.135 A 
ATOM     63  F   UNL A   1      43.230  32.472  33.476  1.00  0.00    -0.206 F 
ATOM     64  C   UNL A   1      43.721  34.700  32.941  1.00  0.00     0.059 A 
ATOM     65  C   UNL A   1      44.319  35.296  30.665  1.00  0.00     0.059 A 
ATOM     66  F   UNL A   1      44.353  33.647  29.000  1.00  0.00    -0.206 F 
ATOM     67  C   UNL A   1      44.082  35.657  31.991  1.00  0.00     0.060 A 
BRANCH  67  68
ATOM     68  S   UNL A   1      44.238  37.377  32.516  1.00  0.00     0.124 S 
ATOM     69  O   UNL A   1      43.146  37.487  33.478  1.00  0.00    -0.237 OA
ATOM     70  O   UNL A   1      45.583  37.410  33.080  1.00  0.00    -0.237 OA
ATOM     71  O   UNL A   1      44.060  38.129  31.278  1.00  0.00    -0.744 OA
ENDBRANCH  67  68
ENDBRANCH  46  60
BRANCH  47  72
ATOM     72  C   UNL A   1      42.479  23.681  27.735  1.00  0.00     0.058 A 
ATOM     73  C   UNL A   1      42.511  23.467  26.349  1.00  0.00     0.135 A 
ATOM     74  C   UNL A   1      42.309  22.560  28.564  1.00  0.00     0.135 A 
ATOM     75  F   UNL A   1      42.663  24.507  25.515  1.00  0.00    -0.206 F 
ATOM     76  C   UNL A   1      42.374  22.195  25.804  1.00  0.00     0.059 A 
ATOM     77  C   UNL A   1      42.199  21.275  28.044  1.00  0.00     0.059 A 
ATOM     78  F   UNL A   1      42.291  22.708  29.899  1.00  0.00    -0.206 F 
ATOM     79  C   UNL A   1      42.226  21.103  26.662  1.00  0.00     0.060 A 
BRANCH  79  80
ATOM     80  S   UNL A   1      42.121  19.448  25.945  1.00  0.00     0.124 S 
ATOM     81  O   UNL A   1      42.959  19.586  24.760  1.00  0.00    -0.237 OA
ATOM     82  O   UNL A   1      42.659  18.617  27.017  1.00  0.00    -0.237 OA
ATOM     83  O   UNL A   1      40.692  19.283  25.692  1.00  0.00    -0.744 OA
ENDBRANCH  79  80
ENDBRANCH  47  72
BRANCH  59  84
ATOM     84  C   UNL A   1      47.895  27.077  30.560  1.00  0.00     0.058 A 
ATOM     85  C   UNL A   1      48.943  27.294  29.652  1.00  0.00     0.135 A 
ATOM     86  C   UNL A   1      48.215  26.510  31.806  1.00  0.00     0.135 A 
ATOM     87  F   UNL A   1      48.693  27.827  28.446  1.00  0.00    -0.206 F 
ATOM     88  C   UNL A   1      50.254  26.943  29.958  1.00  0.00     0.059 A 
ATOM     89  C   UNL A   1      49.523  26.181  32.145  1.00  0.00     0.059 A 
ATOM     90  F   UNL A   1      47.252  26.290  32.716  1.00  0.00    -0.206 F 
ATOM     91  C   UNL A   1      50.535  26.389  31.208  1.00  0.00     0.060 A 
BRANCH  91  92
ATOM     92  S   UNL A   1      52.244  25.969  31.605  1.00  0.00     0.124 S 
ATOM     93  O   UNL A   1      52.564  26.965  32.622  1.00  0.00    -0.237 OA
ATOM     94  O   UNL A   1      52.124  24.594  32.080  1.00  0.00    -0.237 OA
ATOM     95  O   UNL A   1      52.938  26.127  30.331  1.00  0.00    -0.744 OA
ENDBRANCH  91  92
ENDBRANCH  59  84
ENDBRANCH  33  34
ENDBRANCH  25  28
ENDBRANCH  23  24
ENDBRANCH   1  23
TORSDOF 15
ENDMDL
MODEL 2
REMARK VINA RESULT:     -11.2      1.248      2.022
REMARK SMILES CC(C)(C)C[N@H+]1[C@@H](C(=O)NCCCNC(=O)c2ccc(-c3c4nc(c(-c5c(F)cc(S(=O)(=O)[O-])cc5F)c5ccc([nH]5)c(-c5c(F)cc(S(=O)(=O)[O-])cc5F)c5nc(c(-c6c(F)cc(S(=O)(=O)[O-])cc6F)c6ccc3[nH]6)C=C5)C=C4)cc2)CC[C@H]2CCCC[C@@H]21
REMARK SMILES IDX 12 1 11 2 10 3 8 4 9 5 7 7 6 8 90 9 83 11 85 12 89 13 84 14
REMARK SMILES IDX 86 15 88 16 87 17 5 18 2 19 1 20 3 21 4 22 13 23 14 24 15 25
REMARK SMILES IDX 16 27 17 28 18 29 82 30 19 31 81 32 20 33 21 34 22 35 75 36
REMARK SMILES IDX 23 37 80 38 74 39 76 40 24 41 79 42 73 43 72 44 25 46 59 47
REMARK SMILES IDX 38 48 58 49 39 50 42 51 57 52 77 53 40 54 41 55 56 57 78 58
REMARK SMILES IDX 43 59 26 60 27 61 36 62 28 63 29 64 35 65 37 66 30 67 31 68
REMARK SMILES IDX 32 69 33 70 34 71 60 72 61 73 70 74 62 75 63 76 69 77 71 78
REMARK SMILES IDX 64 79 65 80 66 81 67 82 68 83 44 84 45 85 54 86 46 87 47 88
REMARK SMILES IDX 53 89 55 90 48 91 49 92 50 93 51 94 52 95
REMARK H PARENT 10 6 6 10 14 26 76 45 42 56
REMARK Flexibility Score: inf
ROOT
ATOM      1  C   UNL A   1      33.404  27.990  25.717  1.00  0.00     0.042 C 
ENDROOT
BRANCH   1   2
ATOM      2  C   UNL A   1      33.108  26.537  25.411  1.00  0.00     0.118 C 
BRANCH   2   3
ATOM      3  N   UNL A   1      32.372  25.851  26.436  1.00  0.00    -0.351 N 
ATOM      4  C   UNL A   1      32.004  24.540  26.480  1.00  0.00     0.278 C 
ATOM      5  O   UNL A   1      31.583  24.136  27.574  1.00  0.00    -0.268 OA
ATOM      6  H   UNL A   1      32.097  26.399  27.206  1.00  0.00     0.163 HD
BRANCH   4   7
ATOM      7  C   UNL A   1      32.081  23.575  25.263  1.00  0.00     0.274 C 
ATOM      8  N   UNL A   1      33.339  22.811  25.147  1.00  0.00    -0.322 N 
ATOM      9  C   UNL A   1      33.172  21.578  24.373  1.00  0.00     0.187 C 
ATOM     10  H   UNL A   1      33.493  22.550  26.120  1.00  0.00     0.349 HD
ATOM     11  C   UNL A   1      31.507  24.029  23.912  1.00  0.00     0.076 C 
ATOM     12  C   UNL A   1      31.996  21.618  23.363  1.00  0.00     0.048 C 
ATOM     13  C   UNL A   1      32.914  20.324  25.234  1.00  0.00     0.065 C 
ATOM     14  C   UNL A   1      31.772  23.005  22.782  1.00  0.00     0.016 C 
ATOM     15  C   UNL A   1      32.259  20.521  22.332  1.00  0.00     0.010 C 
ATOM     16  C   UNL A   1      32.968  19.065  24.346  1.00  0.00     0.006 C 
ATOM     17  C   UNL A   1      32.178  19.157  23.028  1.00  0.00     0.001 C 
BRANCH   8  18
ATOM     18  C   UNL A   1      34.643  23.490  25.049  1.00  0.00     0.269 C 
BRANCH  18  19
ATOM     19  C   UNL A   1      36.098  22.857  24.844  1.00  0.00     0.011 C 
ATOM     20  C   UNL A   1      37.190  23.699  25.527  1.00  0.00     0.017 C 
ATOM     21  C   UNL A   1      36.377  22.899  23.316  1.00  0.00     0.017 C 
ATOM     22  C   UNL A   1      36.342  21.384  25.235  1.00  0.00     0.017 C 
ENDBRANCH  18  19
ENDBRANCH   8  18
ENDBRANCH   4   7
ENDBRANCH   2   3
ENDBRANCH   1   2
BRANCH   1  23
ATOM     23  C   UNL A   1      33.543  28.270  27.202  1.00  0.00     0.118 C 
BRANCH  23  24
ATOM     24  N   UNL A   1      33.507  29.695  27.512  1.00  0.00    -0.352 N 
ATOM     25  C   UNL A   1      34.471  30.508  28.062  1.00  0.00     0.251 C 
ATOM     26  H   UNL A   1      32.660  30.146  27.292  1.00  0.00     0.163 HD
ATOM     27  O   UNL A   1      34.179  31.653  28.388  1.00  0.00    -0.269 OA
BRANCH  25  28
ATOM     28  C   UNL A   1      35.842  29.995  28.283  1.00  0.00     0.039 A 
ATOM     29  C   UNL A   1      36.768  30.065  27.239  1.00  0.00     0.014 A 
ATOM     30  C   UNL A   1      36.218  29.454  29.514  1.00  0.00     0.014 A 
ATOM     31  C   UNL A   1      38.086  29.660  27.456  1.00  0.00     0.010 A 
ATOM     32  C   UNL A   1      37.553  29.154  29.760  1.00  0.00     0.010 A 
ATOM     33  C   UNL A   1      38.500  29.244  28.731  1.00  0.00    -0.014 A 
BRANCH  33  34
ATOM     34  C   UNL A   1      39.915  28.896  29.012  1.00  0.00     0.031 A 
ATOM     35  C   UNL A   1      40.851  29.934  29.572  1.00  0.00     0.074 A 
ATOM     36  C   UNL A   1      40.375  27.672  28.685  1.00  0.00     0.049 A 
ATOM     37  N   UNL A   1      42.133  29.845  29.815  1.00  0.00    -0.248 NA
ATOM     38  C   UNL A   1      40.277  31.257  29.867  1.00  0.00     0.031 C 
ATOM     39  C   UNL A   1      39.580  26.604  28.074  1.00  0.00     0.029 A 
ATOM     40  N   UNL A   1      41.626  27.121  28.807  1.00  0.00    -0.354 N 
ATOM     41  C   UNL A   1      42.521  31.101  30.267  1.00  0.00     0.074 A 
ATOM     42  C   UNL A   1      41.352  31.950  30.211  1.00  0.00     0.031 C 
ATOM     43  C   UNL A   1      40.354  25.523  27.898  1.00  0.00     0.029 A 
ATOM     44  C   UNL A   1      41.710  25.831  28.339  1.00  0.00     0.049 A 
ATOM     45  H   UNL A   1      42.392  27.605  29.193  1.00  0.00     0.167 HD
ATOM     46  C   UNL A   1      43.735  31.502  30.712  1.00  0.00     0.037 A 
ATOM     47  C   UNL A   1      42.763  24.994  28.261  1.00  0.00     0.037 A 
ATOM     48  C   UNL A   1      44.885  30.639  30.786  1.00  0.00     0.049 A 
ATOM     49  C   UNL A   1      44.100  25.455  28.774  1.00  0.00     0.074 A 
ATOM     50  C   UNL A   1      46.140  30.921  31.293  1.00  0.00     0.029 A 
ATOM     51  N   UNL A   1      44.923  29.327  30.333  1.00  0.00    -0.354 N 
ATOM     52  N   UNL A   1      44.429  26.620  29.280  1.00  0.00    -0.248 NA
ATOM     53  C   UNL A   1      45.203  24.488  28.718  1.00  0.00     0.031 C 
ATOM     54  C   UNL A   1      46.955  29.802  31.093  1.00  0.00     0.029 A 
ATOM     55  C   UNL A   1      46.188  28.797  30.521  1.00  0.00     0.049 A 
ATOM     56  H   UNL A   1      44.162  28.844  29.938  1.00  0.00     0.167 HD
ATOM     57  C   UNL A   1      45.773  26.519  29.624  1.00  0.00     0.074 A 
ATOM     58  C   UNL A   1      46.189  25.174  29.282  1.00  0.00     0.031 C 
ATOM     59  C   UNL A   1      46.587  27.455  30.173  1.00  0.00     0.037 A 
BRANCH  46  60
ATOM     60  C   UNL A   1      43.883  32.938  31.143  1.00  0.00     0.058 A 
ATOM     61  C   UNL A   1      44.349  33.933  30.267  1.00  0.00     0.135 A 
ATOM     62  C   UNL A   1      43.530  33.329  32.445  1.00  0.00     0.135 A 
ATOM     63  F   UNL A   1      44.714  33.616  29.015  1.00  0.00    -0.206 F 
ATOM     64  C   UNL A   1      44.496  35.254  30.678  1.00  0.00     0.059 A 
ATOM     65  C   UNL A   1      43.638  34.651  32.867  1.00  0.00     0.059 A 
ATOM     66  F   UNL A   1      43.079  32.421  33.325  1.00  0.00    -0.206 F 
ATOM     67  C   UNL A   1      44.139  35.604  31.981  1.00  0.00     0.060 A 
BRANCH  67  68
ATOM     68  S   UNL A   1      44.340  37.321  32.498  1.00  0.00     0.124 S 
ATOM     69  O   UNL A   1      43.645  38.030  31.427  1.00  0.00    -0.237 OA
ATOM     70  O   UNL A   1      43.678  37.335  33.798  1.00  0.00    -0.237 OA
ATOM     71  O   UNL A   1      45.788  37.501  32.531  1.00  0.00    -0.744 OA
ENDBRANCH  67  68
ENDBRANCH  46  60
BRANCH  47  72
ATOM     72  C   UNL A   1      42.581  23.631  27.692  1.00  0.00     0.058 A 
ATOM     73  C   UNL A   1      42.670  23.403  26.310  1.00  0.00     0.135 A 
ATOM     74  C   UNL A   1      42.352  22.522  28.522  1.00  0.00     0.135 A 
ATOM     75  F   UNL A   1      42.881  24.432  25.475  1.00  0.00    -0.206 F 
ATOM     76  C   UNL A   1      42.535  22.129  25.771  1.00  0.00     0.059 A 
ATOM     77  C   UNL A   1      42.241  21.234  28.008  1.00  0.00     0.059 A 
ATOM     78  F   UNL A   1      42.275  22.682  29.853  1.00  0.00    -0.206 F 
ATOM     79  C   UNL A   1      42.327  21.048  26.630  1.00  0.00     0.060 A 
BRANCH  79  80
ATOM     80  S   UNL A   1      42.223  19.389  25.924  1.00  0.00     0.124 S 
ATOM     81  O   UNL A   1      40.792  19.263  25.677  1.00  0.00    -0.237 OA
ATOM     82  O   UNL A   1      43.068  19.508  24.740  1.00  0.00    -0.237 OA
ATOM     83  O   UNL A   1      42.759  18.539  26.983  1.00  0.00    -0.744 OA
ENDBRANCH  79  80
ENDBRANCH  47  72
BRANCH  59  84
ATOM     84  C   UNL A   1      48.006  27.051  30.470  1.00  0.00     0.058 A 
ATOM     85  C   UNL A   1      49.056  27.324  29.580  1.00  0.00     0.135 A 
ATOM     86  C   UNL A   1      48.325  26.432  31.691  1.00  0.00     0.135 A 
ATOM     87  F   UNL A   1      48.805  27.908  28.397  1.00  0.00    -0.206 F 
ATOM     88  C   UNL A   1      50.370  26.976  29.878  1.00  0.00     0.059 A 
ATOM     89  C   UNL A   1      49.636  26.105  32.023  1.00  0.00     0.059 A 
ATOM     90  F   UNL A   1      47.361  26.158  32.583  1.00  0.00    -0.206 F 
ATOM     91  C   UNL A   1      50.650  26.370  31.104  1.00  0.00     0.060 A 
BRANCH  91  92
ATOM     92  S   UNL A   1      52.363  25.954  31.491  1.00  0.00     0.124 S 
ATOM     93  O   UNL A   1      52.980  25.986  30.169  1.00  0.00    -0.237 OA
ATOM     94  O   UNL A   1      52.747  27.034  32.396  1.00  0.00    -0.237 OA
ATOM     95  O   UNL A   1      52.263  24.635  32.106  1.00  0.00    -0.744 OA
ENDBRANCH  91  92
ENDBRANCH  59  84
ENDBRANCH  33  34
ENDBRANCH  25  28
ENDBRANCH  23  24
ENDBRANCH   1  23
TORSDOF 15
ENDMDL
MODEL 3
REMARK VINA RESULT:     -11.0      2.753      3.872
REMARK SMILES CC(C)(C)C[N@H+]1[C@@H](C(=O)NCCCNC(=O)c2ccc(-c3c4nc(c(-c5c(F)cc(S(=O)(=O)[O-])cc5F)c5ccc([nH]5)c(-c5c(F)cc(S(=O)(=O)[O-])cc5F)c5nc(c(-c6c(F)cc(S(=O)(=O)[O-])cc6F)c6ccc3[nH]6)C=C5)C=C4)cc2)CC[C@H]2CCCC[C@@H]21
REMARK SMILES IDX 12 1 11 2 10 3 8 4 9 5 7 7 6 8 90 9 83 11 85 12 89 13 84 14
REMARK SMILES IDX 86 15 88 16 87 17 5 18 2 19 1 20 3 21 4 22 13 23 14 24 15 25
REMARK SMILES IDX 16 27 17 28 18 29 82 30 19 31 81 32 20 33 21 34 22 35 75 36
REMARK SMILES IDX 23 37 80 38 74 39 76 40 24 41 79 42 73 43 72 44 25 46 59 47
REMARK SMILES IDX 38 48 58 49 39 50 42 51 57 52 77 53 40 54 41 55 56 57 78 58
REMARK SMILES IDX 43 59 26 60 27 61 36 62 28 63 29 64 35 65 37 66 30 67 31 68
REMARK SMILES IDX 32 69 33 70 34 71 60 72 61 73 70 74 62 75 63 76 69 77 71 78
REMARK SMILES IDX 64 79 65 80 66 81 67 82 68 83 44 84 45 85 54 86 46 87 47 88
REMARK SMILES IDX 53 89 55 90 48 91 49 92 50 93 51 94 52 95
REMARK H PARENT 10 6 6 10 14 26 76 45 42 56
REMARK Flexibility Score: inf
ROOT
ATOM      1  C   UNL A   1      33.642  29.299  27.242  1.00  0.00     0.042 C 
ENDROOT
BRANCH   1   2
ATOM      2  C   UNL A   1      33.460  28.071  26.377  1.00  0.00     0.118 C 
BRANCH   2   3
ATOM      3  N   UNL A   1      32.098  27.797  26.012  1.00  0.00    -0.351 N 
ATOM      4  C   UNL A   1      31.475  26.589  25.913  1.00  0.00     0.278 C 
ATOM      5  O   UNL A   1      30.241  26.627  25.813  1.00  0.00    -0.268 OA
ATOM      6  H   UNL A   1      31.543  28.583  25.807  1.00  0.00     0.163 HD
BRANCH   4   7
ATOM      7  C   UNL A   1      32.222  25.224  25.912  1.00  0.00     0.274 C 
ATOM      8  N   UNL A   1      33.015  24.944  24.698  1.00  0.00    -0.322 N 
ATOM      9  C   UNL A   1      34.089  23.979  24.946  1.00  0.00     0.187 C 
ATOM     10  H   UNL A   1      33.444  25.854  24.537  1.00  0.00     0.349 HD
ATOM     11  C   UNL A   1      31.520  23.987  26.490  1.00  0.00     0.076 C 
ATOM     12  C   UNL A   1      33.824  23.026  26.140  1.00  0.00     0.048 C 
ATOM     13  C   UNL A   1      35.458  24.624  25.250  1.00  0.00     0.065 C 
ATOM     14  C   UNL A   1      32.349  22.694  26.304  1.00  0.00     0.016 C 
ATOM     15  C   UNL A   1      34.741  21.818  25.957  1.00  0.00     0.010 C 
ATOM     16  C   UNL A   1      36.549  23.537  25.281  1.00  0.00     0.006 C 
ATOM     17  C   UNL A   1      36.198  22.277  26.094  1.00  0.00     0.001 C 
BRANCH   8  18
ATOM     18  C   UNL A   1      32.392  24.922  23.363  1.00  0.00     0.269 C 
BRANCH  18  19
ATOM     19  C   UNL A   1      32.446  26.026  22.206  1.00  0.00     0.011 C 
ATOM     20  C   UNL A   1      33.577  27.044  22.438  1.00  0.00     0.017 C 
ATOM     21  C   UNL A   1      31.105  26.806  22.291  1.00  0.00     0.017 C 
ATOM     22  C   UNL A   1      32.530  25.572  20.734  1.00  0.00     0.017 C 
ENDBRANCH  18  19
ENDBRANCH   8  18
ENDBRANCH   4   7
ENDBRANCH   2   3
ENDBRANCH   1   2
BRANCH   1  23
ATOM     23  C   UNL A   1      35.084  29.525  27.660  1.00  0.00     0.118 C 
BRANCH  23  24
ATOM     24  N   UNL A   1      35.201  30.366  28.846  1.00  0.00    -0.352 N 
ATOM     25  C   UNL A   1      36.268  30.562  29.693  1.00  0.00     0.251 C 
ATOM     26  H   UNL A   1      34.389  30.873  29.077  1.00  0.00     0.163 HD
ATOM     27  O   UNL A   1      36.105  31.193  30.730  1.00  0.00    -0.269 OA
BRANCH  25  28
ATOM     28  C   UNL A   1      37.593  29.992  29.366  1.00  0.00     0.039 A 
ATOM     29  C   UNL A   1      38.000  29.946  28.030  1.00  0.00     0.014 A 
ATOM     30  C   UNL A   1      38.437  29.510  30.369  1.00  0.00     0.014 A 
ATOM     31  C   UNL A   1      39.280  29.486  27.712  1.00  0.00     0.010 A 
ATOM     32  C   UNL A   1      39.745  29.154  30.063  1.00  0.00     0.010 A 
ATOM     33  C   UNL A   1      40.179  29.128  28.730  1.00  0.00    -0.014 A 
BRANCH  33  34
ATOM     34  C   UNL A   1      41.574  28.724  28.426  1.00  0.00     0.031 A 
ATOM     35  C   UNL A   1      42.666  29.758  28.376  1.00  0.00     0.074 A 
ATOM     36  C   UNL A   1      41.839  27.440  28.113  1.00  0.00     0.049 A 
ATOM     37  N   UNL A   1      43.926  29.614  28.057  1.00  0.00    -0.248 NA
ATOM     38  C   UNL A   1      42.285  31.145  28.694  1.00  0.00     0.031 C 
ATOM     39  C   UNL A   1      40.851  26.360  28.062  1.00  0.00     0.029 A 
ATOM     40  N   UNL A   1      43.016  26.825  27.767  1.00  0.00    -0.354 N 
ATOM     41  C   UNL A   1      44.480  30.888  28.115  1.00  0.00     0.074 A 
ATOM     42  C   UNL A   1      43.408  31.801  28.443  1.00  0.00     0.031 C 
ATOM     43  C   UNL A   1      41.465  25.215  27.729  1.00  0.00     0.029 A 
ATOM     44  C   UNL A   1      42.881  25.484  27.498  1.00  0.00     0.049 A 
ATOM     45  H   UNL A   1      43.877  27.301  27.714  1.00  0.00     0.167 HD
ATOM     46  C   UNL A   1      45.770  31.259  27.934  1.00  0.00     0.037 A 
ATOM     47  C   UNL A   1      43.791  24.574  27.099  1.00  0.00     0.037 A 
ATOM     48  C   UNL A   1      46.832  30.337  27.634  1.00  0.00     0.049 A 
ATOM     49  C   UNL A   1      45.221  25.004  26.920  1.00  0.00     0.074 A 
ATOM     50  C   UNL A   1      48.186  30.595  27.509  1.00  0.00     0.029 A 
ATOM     51  N   UNL A   1      46.663  28.978  27.402  1.00  0.00    -0.354 N 
ATOM     52  N   UNL A   1      45.745  26.199  27.063  1.00  0.00    -0.248 NA
ATOM     53  C   UNL A   1      46.186  23.966  26.536  1.00  0.00     0.031 C 
ATOM     54  C   UNL A   1      48.826  29.406  27.143  1.00  0.00     0.029 A 
ATOM     55  C   UNL A   1      47.881  28.392  27.104  1.00  0.00     0.049 A 
ATOM     56  H   UNL A   1      45.802  28.502  27.444  1.00  0.00     0.167 HD
ATOM     57  C   UNL A   1      47.104  26.052  26.809  1.00  0.00     0.074 A 
ATOM     58  C   UNL A   1      47.323  24.649  26.520  1.00  0.00     0.031 C 
ATOM     59  C   UNL A   1      48.082  26.992  26.817  1.00  0.00     0.037 A 
BRANCH  46  60
ATOM     60  C   UNL A   1      46.099  32.725  28.050  1.00  0.00     0.058 A 
ATOM     61  C   UNL A   1      45.992  33.599  26.955  1.00  0.00     0.135 A 
ATOM     62  C   UNL A   1      46.503  33.268  29.280  1.00  0.00     0.135 A 
ATOM     63  F   UNL A   1      45.624  33.134  25.751  1.00  0.00    -0.206 F 
ATOM     64  C   UNL A   1      46.312  34.948  27.067  1.00  0.00     0.059 A 
ATOM     65  C   UNL A   1      46.796  34.621  29.423  1.00  0.00     0.059 A 
ATOM     66  F   UNL A   1      46.622  32.481  30.361  1.00  0.00    -0.206 F 
ATOM     67  C   UNL A   1      46.715  35.451  28.305  1.00  0.00     0.060 A 
BRANCH  67  68
ATOM     68  S   UNL A   1      47.128  37.203  28.431  1.00  0.00     0.124 S 
ATOM     69  O   UNL A   1      45.808  37.820  28.337  1.00  0.00    -0.237 OA
ATOM     70  O   UNL A   1      47.771  37.279  29.739  1.00  0.00    -0.237 OA
ATOM     71  O   UNL A   1      48.007  37.429  27.288  1.00  0.00    -0.744 OA
ENDBRANCH  67  68
ENDBRANCH  46  60
BRANCH  47  72
ATOM     72  C   UNL A   1      43.371  23.165  26.865  1.00  0.00     0.058 A 
ATOM     73  C   UNL A   1      43.303  22.634  25.569  1.00  0.00     0.135 A 
ATOM     74  C   UNL A   1      43.069  22.310  27.937  1.00  0.00     0.135 A 
ATOM     75  F   UNL A   1      43.576  23.413  24.511  1.00  0.00    -0.206 F 
ATOM     76  C   UNL A   1      42.944  21.310  25.341  1.00  0.00     0.059 A 
ATOM     77  C   UNL A   1      42.735  20.975  27.736  1.00  0.00     0.059 A 
ATOM     78  F   UNL A   1      43.137  22.763  29.199  1.00  0.00    -0.206 F 
ATOM     79  C   UNL A   1      42.669  20.485  26.434  1.00  0.00     0.060 A 
BRANCH  79  80
ATOM     80  S   UNL A   1      42.273  18.749  26.129  1.00  0.00     0.124 S 
ATOM     81  O   UNL A   1      40.867  18.829  25.751  1.00  0.00    -0.237 OA
ATOM     82  O   UNL A   1      43.205  18.408  25.059  1.00  0.00    -0.237 OA
ATOM     83  O   UNL A   1      42.547  18.113  27.414  1.00  0.00    -0.744 OA
ENDBRANCH  79  80
ENDBRANCH  47  72
BRANCH  59  84
ATOM     84  C   UNL A   1      49.486  26.533  26.533  1.00  0.00     0.058 A 
ATOM     85  C   UNL A   1      50.328  26.051  27.548  1.00  0.00     0.135 A 
ATOM     86  C   UNL A   1      49.975  26.522  25.216  1.00  0.00     0.135 A 
ATOM     87  F   UNL A   1      49.913  26.046  28.825  1.00  0.00    -0.206 F 
ATOM     88  C   UNL A   1      51.613  25.597  27.271  1.00  0.00     0.059 A 
ATOM     89  C   UNL A   1      51.245  26.043  24.912  1.00  0.00     0.059 A 
ATOM     90  F   UNL A   1      49.208  26.961  24.206  1.00  0.00    -0.206 F 
ATOM     91  C   UNL A   1      52.062  25.594  25.949  1.00  0.00     0.060 A 
BRANCH  91  92
ATOM     92  S   UNL A   1      53.719  24.971  25.600  1.00  0.00     0.124 S 
ATOM     93  O   UNL A   1      54.147  25.860  24.524  1.00  0.00    -0.237 OA
ATOM     94  O   UNL A   1      54.397  25.155  26.880  1.00  0.00    -0.237 OA
ATOM     95  O   UNL A   1      53.488  23.584  25.212  1.00  0.00    -0.744 OA
ENDBRANCH  91  92
ENDBRANCH  59  84
ENDBRANCH  33  34
ENDBRANCH  25  28
ENDBRANCH  23  24
ENDBRANCH   1  23
TORSDOF 15
ENDMDL
