MODEL 1
REMARK VINA RESULT:     -12.6      0.000      0.000
REMARK SMILES Cc1cccc(-c2cccc(O)c2)c1C(=O)NCCCNC(=O)c1ccc(-c2c3nc(c(-c4c(F)cc(S(=O)(=O)[O-])cc4F)c4ccc([nH]4)c(-c4c(F)cc(S(=O)(=O)[O-])cc4F)c4nc(c(-c5c(F)cc(S(=O)(=O)[O-])cc5F)c5ccc2[nH]5)C=C4)C=C3)cc1
REMARK SMILES IDX 19 1 18 2 17 3 15 4 16 5 14 7 1 8 2 9 3 10 4 11 6 12 5 13
REMARK SMILES IDX 7 14 8 15 13 16 9 17 11 18 10 19 12 20 20 22 21 23 22 24
REMARK SMILES IDX 23 26 24 27 25 28 89 29 26 30 88 31 27 32 28 33 29 34 82 35
REMARK SMILES IDX 30 36 87 37 81 38 83 39 31 40 86 41 80 42 79 43 32 45 66 46
REMARK SMILES IDX 45 47 65 48 46 49 49 50 64 51 84 52 47 53 48 54 63 56 85 57
REMARK SMILES IDX 50 58 33 59 34 60 43 61 35 62 36 63 42 64 44 65 37 66 38 67
REMARK SMILES IDX 39 68 40 69 41 70 67 71 68 72 77 73 69 74 70 75 76 76 78 77
REMARK SMILES IDX 71 78 72 79 73 80 74 81 75 82 51 83 52 84 61 85 53 86 54 87
REMARK SMILES IDX 60 88 62 89 55 90 56 91 57 92 58 93 59 94
REMARK H PARENT 17 6 12 21 21 25 83 44 49 55
REMARK Flexibility Score: inf
ROOT
ATOM      1  C   UNL A   1      37.562  24.050  25.378  1.00  0.00     0.042 C 
ENDROOT
BRANCH   1   2
ATOM      2  C   UNL A   1      36.792  22.686  24.910  1.00  0.00     0.118 C 
BRANCH   2   3
ATOM      3  N   UNL A   1      35.862  22.758  23.752  1.00  0.00    -0.352 N 
ATOM      4  C   UNL A   1      34.520  22.913  23.435  1.00  0.00     0.252 C 
ATOM      5  O   UNL A   1      34.231  23.145  22.261  1.00  0.00    -0.269 OA
ATOM      6  H   UNL A   1      36.378  22.662  22.919  1.00  0.00     0.163 HD
BRANCH   4   7
ATOM      7  C   UNL A   1      33.388  22.790  24.409  1.00  0.00     0.050 A 
ATOM      8  C   UNL A   1      33.977  25.062  25.460  1.00  0.00     0.045 C 
ATOM      9  C   UNL A   1      33.054  23.896  25.225  1.00  0.00    -0.038 A 
ATOM     10  C   UNL A   1      31.864  23.887  25.972  1.00  0.00     0.004 A 
ATOM     11  C   UNL A   1      31.097  22.739  26.070  1.00  0.00     0.001 A 
ATOM     12  C   UNL A   1      32.691  21.550  24.623  1.00  0.00    -0.005 A 
ATOM     13  C   UNL A   1      31.543  21.575  25.458  1.00  0.00     0.009 A 
BRANCH  12  14
ATOM     14  C   UNL A   1      33.068  20.186  24.139  1.00  0.00    -0.014 A 
ATOM     15  C   UNL A   1      34.087  19.429  24.753  1.00  0.00     0.009 A 
ATOM     16  C   UNL A   1      32.287  19.523  23.171  1.00  0.00     0.055 A 
ATOM     17  C   UNL A   1      34.351  18.102  24.377  1.00  0.00     0.004 A 
ATOM     18  C   UNL A   1      32.536  18.194  22.819  1.00  0.00     0.116 A 
ATOM     19  C   UNL A   1      33.573  17.479  23.404  1.00  0.00     0.046 A 
BRANCH  18  20
ATOM     20  O   UNL A   1      31.714  17.611  21.895  1.00  0.00    -0.508 OA
ATOM     21  H   UNL A   1      31.949  16.789  21.512  1.00  0.00     0.293 HD
ENDBRANCH  18  20
ENDBRANCH  12  14
ENDBRANCH   4   7
ENDBRANCH   2   3
ENDBRANCH   1   2
BRANCH   1  22
ATOM     22  C   UNL A   1      38.486  23.959  26.684  1.00  0.00     0.118 C 
BRANCH  22  23
ATOM     23  N   UNL A   1      39.559  25.016  27.150  1.00  0.00    -0.352 N 
ATOM     24  C   UNL A   1      39.883  25.746  28.375  1.00  0.00     0.251 C 
ATOM     25  H   UNL A   1      40.178  25.246  26.420  1.00  0.00     0.163 HD
ATOM     26  O   UNL A   1      40.989  25.433  28.853  1.00  0.00    -0.269 OA
BRANCH  24  27
ATOM     27  C   UNL A   1      39.168  26.910  29.184  1.00  0.00     0.039 A 
ATOM     28  C   UNL A   1      38.725  28.104  28.523  1.00  0.00     0.014 A 
ATOM     29  C   UNL A   1      38.989  26.973  30.560  1.00  0.00     0.014 A 
ATOM     30  C   UNL A   1      38.704  29.386  29.212  1.00  0.00     0.010 A 
ATOM     31  C   UNL A   1      38.980  28.235  31.243  1.00  0.00     0.010 A 
ATOM     32  C   UNL A   1      39.087  29.458  30.562  1.00  0.00    -0.014 A 
BRANCH  32  33
ATOM     33  C   UNL A   1      39.849  30.627  31.194  1.00  0.00     0.031 A 
ATOM     34  C   UNL A   1      41.030  30.406  32.024  1.00  0.00     0.074 A 
ATOM     35  C   UNL A   1      39.697  31.972  30.981  1.00  0.00     0.049 A 
ATOM     36  N   UNL A   1      41.233  30.943  33.184  1.00  0.00    -0.248 NA
ATOM     37  C   UNL A   1      42.140  29.637  31.500  1.00  0.00     0.031 C 
ATOM     38  C   UNL A   1      40.456  33.169  31.391  1.00  0.00     0.029 A 
ATOM     39  N   UNL A   1      38.753  32.603  30.206  1.00  0.00    -0.354 N 
ATOM     40  C   UNL A   1      42.595  30.863  33.386  1.00  0.00     0.074 A 
ATOM     41  C   UNL A   1      43.062  29.868  32.436  1.00  0.00     0.031 C 
ATOM     42  C   UNL A   1      39.708  34.281  31.190  1.00  0.00     0.029 A 
ATOM     43  C   UNL A   1      38.416  33.864  30.687  1.00  0.00     0.049 A 
ATOM     44  H   UNL A   1      38.358  32.205  29.396  1.00  0.00     0.167 HD
ATOM     45  C   UNL A   1      43.283  31.823  34.081  1.00  0.00     0.037 A 
ATOM     46  C   UNL A   1      37.147  34.068  31.174  1.00  0.00     0.037 A 
ATOM     47  C   UNL A   1      42.467  33.031  34.326  1.00  0.00     0.049 A 
ATOM     48  C   UNL A   1      37.206  34.154  32.681  1.00  0.00     0.074 A 
ATOM     49  C   UNL A   1      42.523  34.341  33.864  1.00  0.00     0.029 A 
ATOM     50  N   UNL A   1      41.224  32.923  34.928  1.00  0.00    -0.354 N 
ATOM     51  N   UNL A   1      38.315  34.372  33.327  1.00  0.00    -0.248 NA
ATOM     52  C   UNL A   1      36.084  33.922  33.588  1.00  0.00     0.031 C 
ATOM     53  C   UNL A   1      41.312  35.010  34.219  1.00  0.00     0.029 A 
ATOM     54  C   UNL A   1      40.521  34.117  34.915  1.00  0.00     0.049 A 
ATOM     55  H   UNL A   1      40.878  32.090  35.323  1.00  0.00     0.167 HD
ATOM     56  C   UNL A   1      38.135  34.160  34.658  1.00  0.00     0.074 A 
ATOM     57  C   UNL A   1      36.702  33.938  34.786  1.00  0.00     0.031 C 
ATOM     58  C   UNL A   1      39.193  34.148  35.522  1.00  0.00     0.037 A 
BRANCH  45  59
ATOM     59  C   UNL A   1      44.797  31.778  34.262  1.00  0.00     0.058 A 
ATOM     60  C   UNL A   1      45.400  31.268  35.431  1.00  0.00     0.135 A 
ATOM     61  C   UNL A   1      45.721  32.177  33.270  1.00  0.00     0.135 A 
ATOM     62  F   UNL A   1      44.677  30.695  36.402  1.00  0.00    -0.206 F 
ATOM     63  C   UNL A   1      46.783  31.270  35.642  1.00  0.00     0.059 A 
ATOM     64  C   UNL A   1      47.099  32.269  33.484  1.00  0.00     0.059 A 
ATOM     65  F   UNL A   1      45.333  32.414  32.008  1.00  0.00    -0.206 F 
ATOM     66  C   UNL A   1      47.626  31.804  34.676  1.00  0.00     0.060 A 
BRANCH  66  67
ATOM     67  S   UNL A   1      49.407  31.775  34.945  1.00  0.00     0.124 S 
ATOM     68  O   UNL A   1      49.899  31.146  33.724  1.00  0.00    -0.237 OA
ATOM     69  O   UNL A   1      49.712  33.195  35.095  1.00  0.00    -0.237 OA
ATOM     70  O   UNL A   1      49.557  30.975  36.157  1.00  0.00    -0.744 OA
ENDBRANCH  66  67
ENDBRANCH  45  59
BRANCH  46  71
ATOM     71  C   UNL A   1      35.995  33.416  30.360  1.00  0.00     0.058 A 
ATOM     72  C   UNL A   1      34.928  32.963  31.164  1.00  0.00     0.135 A 
ATOM     73  C   UNL A   1      35.571  34.213  29.312  1.00  0.00     0.135 A 
ATOM     74  F   UNL A   1      35.021  31.774  31.775  1.00  0.00    -0.206 F 
ATOM     75  C   UNL A   1      33.816  33.768  31.434  1.00  0.00     0.059 A 
ATOM     76  C   UNL A   1      34.479  35.043  29.585  1.00  0.00     0.059 A 
ATOM     77  F   UNL A   1      36.440  34.579  28.352  1.00  0.00    -0.206 F 
ATOM     78  C   UNL A   1      33.729  34.959  30.744  1.00  0.00     0.060 A 
BRANCH  78  79
ATOM     79  S   UNL A   1      32.921  36.543  31.574  1.00  0.00     0.124 S 
ATOM     80  O   UNL A   1      33.889  36.754  32.637  1.00  0.00    -0.237 OA
ATOM     81  O   UNL A   1      32.950  37.584  30.580  1.00  0.00    -0.237 OA
ATOM     82  O   UNL A   1      31.600  36.167  32.047  1.00  0.00    -0.744 OA
ENDBRANCH  78  79
ENDBRANCH  46  71
BRANCH  58  83
ATOM     83  C   UNL A   1      39.064  34.114  37.021  1.00  0.00     0.058 A 
ATOM     84  C   UNL A   1      38.581  32.993  37.716  1.00  0.00     0.135 A 
ATOM     85  C   UNL A   1      39.291  35.266  37.812  1.00  0.00     0.135 A 
ATOM     86  F   UNL A   1      38.169  31.896  37.063  1.00  0.00    -0.206 F 
ATOM     87  C   UNL A   1      38.460  32.973  39.105  1.00  0.00     0.059 A 
ATOM     88  C   UNL A   1      39.135  35.283  39.190  1.00  0.00     0.059 A 
ATOM     89  F   UNL A   1      39.677  36.436  37.287  1.00  0.00    -0.206 F 
ATOM     90  C   UNL A   1      38.758  34.120  39.834  1.00  0.00     0.060 A 
BRANCH  90  91
ATOM     91  S   UNL A   1      38.619  34.090  41.624  1.00  0.00     0.124 S 
ATOM     92  O   UNL A   1      38.488  32.663  41.905  1.00  0.00    -0.237 OA
ATOM     93  O   UNL A   1      39.885  34.699  42.022  1.00  0.00    -0.237 OA
ATOM     94  O   UNL A   1      37.426  34.887  41.890  1.00  0.00    -0.744 OA
ENDBRANCH  90  91
ENDBRANCH  58  83
ENDBRANCH  32  33
ENDBRANCH  24  27
ENDBRANCH  22  23
ENDBRANCH   1  22
TORSDOF 15
ENDMDL
MODEL 2
REMARK VINA RESULT:     -12.4      4.796      9.666
REMARK SMILES Cc1cccc(-c2cccc(O)c2)c1C(=O)NCCCNC(=O)c1ccc(-c2c3nc(c(-c4c(F)cc(S(=O)(=O)[O-])cc4F)c4ccc([nH]4)c(-c4c(F)cc(S(=O)(=O)[O-])cc4F)c4nc(c(-c5c(F)cc(S(=O)(=O)[O-])cc5F)c5ccc2[nH]5)C=C4)C=C3)cc1
REMARK SMILES IDX 19 1 18 2 17 3 15 4 16 5 14 7 1 8 2 9 3 10 4 11 6 12 5 13
REMARK SMILES IDX 7 14 8 15 13 16 9 17 11 18 10 19 12 20 20 22 21 23 22 24
REMARK SMILES IDX 23 26 24 27 25 28 89 29 26 30 88 31 27 32 28 33 29 34 82 35
REMARK SMILES IDX 30 36 87 37 81 38 83 39 31 40 86 41 80 42 79 43 32 45 66 46
REMARK SMILES IDX 45 47 65 48 46 49 49 50 64 51 84 52 47 53 48 54 63 56 85 57
REMARK SMILES IDX 50 58 33 59 34 60 43 61 35 62 36 63 42 64 44 65 37 66 38 67
REMARK SMILES IDX 39 68 40 69 41 70 67 71 68 72 77 73 69 74 70 75 76 76 78 77
REMARK SMILES IDX 71 78 72 79 73 80 74 81 75 82 51 83 52 84 61 85 53 86 54 87
REMARK SMILES IDX 60 88 62 89 55 90 56 91 57 92 58 93 59 94
REMARK H PARENT 17 6 12 21 21 25 83 44 49 55
REMARK Flexibility Score: inf
ROOT
ATOM      1  C   UNL A   1      36.553  21.004  25.007  1.00  0.00     0.042 C 
ENDROOT
BRANCH   1   2
ATOM      2  C   UNL A   1      36.492  22.447  24.241  1.00  0.00     0.118 C 
BRANCH   2   3
ATOM      3  N   UNL A   1      35.443  22.658  23.208  1.00  0.00    -0.352 N 
ATOM      4  C   UNL A   1      34.108  23.009  23.060  1.00  0.00     0.252 C 
ATOM      5  O   UNL A   1      33.710  23.285  21.928  1.00  0.00    -0.269 OA
ATOM      6  H   UNL A   1      35.831  22.492  22.318  1.00  0.00     0.163 HD
BRANCH   4   7
ATOM      7  C   UNL A   1      33.103  23.047  24.170  1.00  0.00     0.050 A 
ATOM      8  C   UNL A   1      33.851  25.416  24.835  1.00  0.00     0.045 C 
ATOM      9  C   UNL A   1      32.888  24.259  24.868  1.00  0.00    -0.038 A 
ATOM     10  C   UNL A   1      31.799  24.383  25.746  1.00  0.00     0.004 A 
ATOM     11  C   UNL A   1      31.033  23.281  26.085  1.00  0.00     0.001 A 
ATOM     12  C   UNL A   1      32.418  21.867  24.627  1.00  0.00    -0.005 A 
ATOM     13  C   UNL A   1      31.382  22.035  25.582  1.00  0.00     0.009 A 
BRANCH  12  14
ATOM     14  C   UNL A   1      32.713  20.440  24.285  1.00  0.00    -0.014 A 
ATOM     15  C   UNL A   1      33.274  19.548  25.219  1.00  0.00     0.009 A 
ATOM     16  C   UNL A   1      32.259  19.882  23.073  1.00  0.00     0.055 A 
ATOM     17  C   UNL A   1      33.431  18.181  24.935  1.00  0.00     0.004 A 
ATOM     18  C   UNL A   1      32.391  18.517  22.805  1.00  0.00     0.116 A 
ATOM     19  C   UNL A   1      32.989  17.661  23.721  1.00  0.00     0.046 A 
BRANCH  18  20
ATOM     20  O   UNL A   1      31.897  18.046  21.621  1.00  0.00    -0.508 OA
ATOM     21  H   UNL A   1      31.317  17.310  21.616  1.00  0.00     0.293 HD
ENDBRANCH  18  20
ENDBRANCH  12  14
ENDBRANCH   4   7
ENDBRANCH   2   3
ENDBRANCH   1   2
BRANCH   1  22
ATOM     22  C   UNL A   1      37.968  20.253  25.044  1.00  0.00     0.118 C 
BRANCH  22  23
ATOM     23  N   UNL A   1      39.324  20.831  25.601  1.00  0.00    -0.352 N 
ATOM     24  C   UNL A   1      39.741  21.816  26.599  1.00  0.00     0.251 C 
ATOM     25  H   UNL A   1      40.100  20.417  25.158  1.00  0.00     0.163 HD
ATOM     26  O   UNL A   1      40.358  21.311  27.555  1.00  0.00    -0.269 OA
BRANCH  24  27
ATOM     27  C   UNL A   1      39.648  23.398  26.688  1.00  0.00     0.039 A 
ATOM     28  C   UNL A   1      40.598  24.233  26.011  1.00  0.00     0.014 A 
ATOM     29  C   UNL A   1      38.765  24.132  27.470  1.00  0.00     0.014 A 
ATOM     30  C   UNL A   1      40.984  25.530  26.548  1.00  0.00     0.010 A 
ATOM     31  C   UNL A   1      39.148  25.405  28.011  1.00  0.00     0.010 A 
ATOM     32  C   UNL A   1      40.390  25.997  27.733  1.00  0.00    -0.014 A 
BRANCH  32  33
ATOM     33  C   UNL A   1      41.110  26.817  28.808  1.00  0.00     0.031 A 
ATOM     34  C   UNL A   1      40.405  27.819  29.601  1.00  0.00     0.074 A 
ATOM     35  C   UNL A   1      42.378  26.661  29.307  1.00  0.00     0.049 A 
ATOM     36  N   UNL A   1      40.821  29.026  29.812  1.00  0.00    -0.248 NA
ATOM     37  C   UNL A   1      39.210  27.444  30.330  1.00  0.00     0.031 C 
ATOM     38  C   UNL A   1      43.119  27.263  30.431  1.00  0.00     0.029 A 
ATOM     39  N   UNL A   1      43.345  25.778  28.893  1.00  0.00    -0.354 N 
ATOM     40  C   UNL A   1      40.147  29.449  30.939  1.00  0.00     0.074 A 
ATOM     41  C   UNL A   1      39.027  28.534  31.077  1.00  0.00     0.031 C 
ATOM     42  C   UNL A   1      44.444  27.006  30.301  1.00  0.00     0.029 A 
ATOM     43  C   UNL A   1      44.634  26.269  29.069  1.00  0.00     0.049 A 
ATOM     44  H   UNL A   1      43.147  24.891  28.513  1.00  0.00     0.167 HD
ATOM     45  C   UNL A   1      40.714  30.306  31.845  1.00  0.00     0.037 A 
ATOM     46  C   UNL A   1      45.394  26.547  27.958  1.00  0.00     0.037 A 
ATOM     47  C   UNL A   1      42.165  30.481  31.619  1.00  0.00     0.049 A 
ATOM     48  C   UNL A   1      45.478  28.044  27.781  1.00  0.00     0.074 A 
ATOM     49  C   UNL A   1      43.302  30.113  32.330  1.00  0.00     0.029 A 
ATOM     50  N   UNL A   1      42.636  30.858  30.372  1.00  0.00    -0.354 N 
ATOM     51  N   UNL A   1      45.193  28.880  28.738  1.00  0.00    -0.248 NA
ATOM     52  C   UNL A   1      45.791  28.735  26.531  1.00  0.00     0.031 C 
ATOM     53  C   UNL A   1      44.448  30.299  31.498  1.00  0.00     0.029 A 
ATOM     54  C   UNL A   1      44.017  30.798  30.284  1.00  0.00     0.049 A 
ATOM     55  H   UNL A   1      42.054  31.140  29.629  1.00  0.00     0.167 HD
ATOM     56  C   UNL A   1      45.114  30.147  28.250  1.00  0.00     0.074 A 
ATOM     57  C   UNL A   1      45.556  30.018  26.870  1.00  0.00     0.031 C 
ATOM     58  C   UNL A   1      44.650  31.174  29.022  1.00  0.00     0.037 A 
BRANCH  45  59
ATOM     59  C   UNL A   1      40.004  30.736  33.125  1.00  0.00     0.058 A 
ATOM     60  C   UNL A   1      39.047  31.773  33.142  1.00  0.00     0.135 A 
ATOM     61  C   UNL A   1      40.187  30.106  34.377  1.00  0.00     0.135 A 
ATOM     62  F   UNL A   1      38.632  32.364  32.014  1.00  0.00    -0.206 F 
ATOM     63  C   UNL A   1      38.426  32.222  34.312  1.00  0.00     0.059 A 
ATOM     64  C   UNL A   1      39.646  30.586  35.573  1.00  0.00     0.059 A 
ATOM     65  F   UNL A   1      40.833  28.936  34.483  1.00  0.00    -0.206 F 
ATOM     66  C   UNL A   1      38.756  31.644  35.531  1.00  0.00     0.060 A 
BRANCH  66  67
ATOM     67  S   UNL A   1      37.929  32.211  37.029  1.00  0.00     0.124 S 
ATOM     68  O   UNL A   1      37.481  30.959  37.632  1.00  0.00    -0.237 OA
ATOM     69  O   UNL A   1      39.008  32.902  37.726  1.00  0.00    -0.237 OA
ATOM     70  O   UNL A   1      36.862  33.071  36.526  1.00  0.00    -0.744 OA
ENDBRANCH  66  67
ENDBRANCH  45  59
BRANCH  46  71
ATOM     71  C   UNL A   1      45.306  25.513  26.801  1.00  0.00     0.058 A 
ATOM     72  C   UNL A   1      45.201  26.108  25.525  1.00  0.00     0.135 A 
ATOM     73  C   UNL A   1      46.307  24.562  26.864  1.00  0.00     0.135 A 
ATOM     74  F   UNL A   1      44.007  26.532  25.091  1.00  0.00    -0.206 F 
ATOM     75  C   UNL A   1      46.330  26.371  24.741  1.00  0.00     0.059 A 
ATOM     76  C   UNL A   1      47.451  24.834  26.105  1.00  0.00     0.059 A 
ATOM     77  F   UNL A   1      46.421  23.777  27.951  1.00  0.00    -0.206 F 
ATOM     78  C   UNL A   1      47.532  25.871  25.194  1.00  0.00     0.060 A 
BRANCH  78  79
ATOM     79  S   UNL A   1      49.207  26.841  24.873  1.00  0.00     0.124 S 
ATOM     80  O   UNL A   1      49.244  26.747  23.423  1.00  0.00    -0.237 OA
ATOM     81  O   UNL A   1      48.995  28.187  25.339  1.00  0.00    -0.237 OA
ATOM     82  O   UNL A   1      50.273  26.112  25.538  1.00  0.00    -0.744 OA
ENDBRANCH  78  79
ENDBRANCH  46  71
BRANCH  58  83
ATOM     83  C   UNL A   1      44.711  32.625  28.629  1.00  0.00     0.058 A 
ATOM     84  C   UNL A   1      44.152  33.112  27.436  1.00  0.00     0.135 A 
ATOM     85  C   UNL A   1      45.461  33.566  29.375  1.00  0.00     0.135 A 
ATOM     86  F   UNL A   1      43.562  32.286  26.558  1.00  0.00    -0.206 F 
ATOM     87  C   UNL A   1      44.218  34.457  27.077  1.00  0.00     0.059 A 
ATOM     88  C   UNL A   1      45.578  34.901  29.015  1.00  0.00     0.059 A 
ATOM     89  F   UNL A   1      46.119  33.238  30.494  1.00  0.00    -0.206 F 
ATOM     90  C   UNL A   1      44.919  35.347  27.885  1.00  0.00     0.060 A 
BRANCH  90  91
ATOM     91  S   UNL A   1      44.990  37.084  27.433  1.00  0.00     0.124 S 
ATOM     92  O   UNL A   1      43.643  37.332  26.928  1.00  0.00    -0.237 OA
ATOM     93  O   UNL A   1      45.309  37.703  28.716  1.00  0.00    -0.237 OA
ATOM     94  O   UNL A   1      46.048  37.134  26.430  1.00  0.00    -0.744 OA
ENDBRANCH  90  91
ENDBRANCH  58  83
ENDBRANCH  32  33
ENDBRANCH  24  27
ENDBRANCH  22  23
ENDBRANCH   1  22
TORSDOF 15
ENDMDL
MODEL 3
REMARK VINA RESULT:     -12.4      4.355      9.761
REMARK SMILES Cc1cccc(-c2cccc(O)c2)c1C(=O)NCCCNC(=O)c1ccc(-c2c3nc(c(-c4c(F)cc(S(=O)(=O)[O-])cc4F)c4ccc([nH]4)c(-c4c(F)cc(S(=O)(=O)[O-])cc4F)c4nc(c(-c5c(F)cc(S(=O)(=O)[O-])cc5F)c5ccc2[nH]5)C=C4)C=C3)cc1
REMARK SMILES IDX 19 1 18 2 17 3 15 4 16 5 14 7 1 8 2 9 3 10 4 11 6 12 5 13
REMARK SMILES IDX 7 14 8 15 13 16 9 17 11 18 10 19 12 20 20 22 21 23 22 24
REMARK SMILES IDX 23 26 24 27 25 28 89 29 26 30 88 31 27 32 28 33 29 34 82 35
REMARK SMILES IDX 30 36 87 37 81 38 83 39 31 40 86 41 80 42 79 43 32 45 66 46
REMARK SMILES IDX 45 47 65 48 46 49 49 50 64 51 84 52 47 53 48 54 63 56 85 57
REMARK SMILES IDX 50 58 33 59 34 60 43 61 35 62 36 63 42 64 44 65 37 66 38 67
REMARK SMILES IDX 39 68 40 69 41 70 67 71 68 72 77 73 69 74 70 75 76 76 78 77
REMARK SMILES IDX 71 78 72 79 73 80 74 81 75 82 51 83 52 84 61 85 53 86 54 87
REMARK SMILES IDX 60 88 62 89 55 90 56 91 57 92 58 93 59 94
REMARK H PARENT 17 6 12 21 21 25 83 44 49 55
REMARK Flexibility Score: inf
ROOT
ATOM      1  C   UNL A   1      36.892  21.515  25.307  1.00  0.00     0.042 C 
ENDROOT
BRANCH   1   2
ATOM      2  C   UNL A   1      36.895  22.734  24.218  1.00  0.00     0.118 C 
BRANCH   2   3
ATOM      3  N   UNL A   1      35.784  22.807  23.232  1.00  0.00    -0.352 N 
ATOM      4  C   UNL A   1      34.408  22.969  23.143  1.00  0.00     0.252 C 
ATOM      5  O   UNL A   1      33.929  23.198  22.033  1.00  0.00    -0.269 OA
ATOM      6  H   UNL A   1      36.154  22.707  22.324  1.00  0.00     0.163 HD
BRANCH   4   7
ATOM      7  C   UNL A   1      33.455  22.854  24.293  1.00  0.00     0.050 A 
ATOM      8  C   UNL A   1      34.161  25.163  25.176  1.00  0.00     0.045 C 
ATOM      9  C   UNL A   1      33.237  23.976  25.126  1.00  0.00    -0.038 A 
ATOM     10  C   UNL A   1      32.187  23.968  26.059  1.00  0.00     0.004 A 
ATOM     11  C   UNL A   1      31.470  22.810  26.310  1.00  0.00     0.001 A 
ATOM     12  C   UNL A   1      32.828  21.609  24.650  1.00  0.00    -0.005 A 
ATOM     13  C   UNL A   1      31.833  21.638  25.661  1.00  0.00     0.009 A 
BRANCH  12  14
ATOM     14  C   UNL A   1      33.149  20.238  24.143  1.00  0.00    -0.014 A 
ATOM     15  C   UNL A   1      34.137  19.431  24.743  1.00  0.00     0.009 A 
ATOM     16  C   UNL A   1      32.340  19.623  23.167  1.00  0.00     0.055 A 
ATOM     17  C   UNL A   1      34.347  18.100  24.346  1.00  0.00     0.004 A 
ATOM     18  C   UNL A   1      32.534  18.290  22.794  1.00  0.00     0.116 A 
ATOM     19  C   UNL A   1      33.543  17.525  23.365  1.00  0.00     0.046 A 
BRANCH  18  20
ATOM     20  O   UNL A   1      31.687  17.755  21.863  1.00  0.00    -0.508 OA
ATOM     21  H   UNL A   1      31.764  18.003  20.963  1.00  0.00     0.293 HD
ENDBRANCH  18  20
ENDBRANCH  12  14
ENDBRANCH   4   7
ENDBRANCH   2   3
ENDBRANCH   1   2
BRANCH   1  22
ATOM     22  C   UNL A   1      38.267  20.719  25.520  1.00  0.00     0.118 C 
BRANCH  22  23
ATOM     23  N   UNL A   1      39.635  21.324  26.018  1.00  0.00    -0.352 N 
ATOM     24  C   UNL A   1      40.073  22.450  26.842  1.00  0.00     0.251 C 
ATOM     25  H   UNL A   1      40.400  20.802  25.684  1.00  0.00     0.163 HD
ATOM     26  O   UNL A   1      40.635  22.095  27.894  1.00  0.00    -0.269 OA
BRANCH  24  27
ATOM     27  C   UNL A   1      40.061  24.025  26.648  1.00  0.00     0.039 A 
ATOM     28  C   UNL A   1      41.243  24.728  26.238  1.00  0.00     0.014 A 
ATOM     29  C   UNL A   1      39.011  24.887  26.939  1.00  0.00     0.014 A 
ATOM     30  C   UNL A   1      41.500  26.093  26.672  1.00  0.00     0.010 A 
ATOM     31  C   UNL A   1      39.262  26.229  27.379  1.00  0.00     0.010 A 
ATOM     32  C   UNL A   1      40.560  26.757  27.478  1.00  0.00    -0.014 A 
BRANCH  32  33
ATOM     33  C   UNL A   1      40.908  27.739  28.600  1.00  0.00     0.031 A 
ATOM     34  C   UNL A   1      40.037  28.865  28.924  1.00  0.00     0.074 A 
ATOM     35  C   UNL A   1      41.905  27.659  29.538  1.00  0.00     0.049 A 
ATOM     36  N   UNL A   1      40.431  30.087  29.083  1.00  0.00    -0.248 NA
ATOM     37  C   UNL A   1      38.639  28.626  29.225  1.00  0.00     0.031 C 
ATOM     38  C   UNL A   1      42.240  28.435  30.747  1.00  0.00     0.029 A 
ATOM     39  N   UNL A   1      42.894  26.712  29.640  1.00  0.00    -0.354 N 
ATOM     40  C   UNL A   1      39.433  30.697  29.814  1.00  0.00     0.074 A 
ATOM     41  C   UNL A   1      38.278  29.827  29.680  1.00  0.00     0.031 C 
ATOM     42  C   UNL A   1      43.505  28.149  31.142  1.00  0.00     0.029 A 
ATOM     43  C   UNL A   1      44.068  27.216  30.189  1.00  0.00     0.049 A 
ATOM     44  H   UNL A   1      42.784  25.775  29.355  1.00  0.00     0.167 HD
ATOM     45  C   UNL A   1      39.701  31.690  30.720  1.00  0.00     0.037 A 
ATOM     46  C   UNL A   1      45.188  27.298  29.395  1.00  0.00     0.037 A 
ATOM     47  C   UNL A   1      41.146  31.813  31.005  1.00  0.00     0.049 A 
ATOM     48  C   UNL A   1      45.429  28.744  29.033  1.00  0.00     0.074 A 
ATOM     49  C   UNL A   1      41.933  31.561  32.124  1.00  0.00     0.029 A 
ATOM     50  N   UNL A   1      42.050  31.973  29.968  1.00  0.00    -0.354 N 
ATOM     51  N   UNL A   1      44.881  29.731  29.684  1.00  0.00    -0.248 NA
ATOM     52  C   UNL A   1      46.207  29.214  27.889  1.00  0.00     0.031 C 
ATOM     53  C   UNL A   1      43.308  31.596  31.740  1.00  0.00     0.029 A 
ATOM     54  C   UNL A   1      43.367  31.888  30.392  1.00  0.00     0.049 A 
ATOM     55  H   UNL A   1      41.788  32.131  29.032  1.00  0.00     0.167 HD
ATOM     56  C   UNL A   1      45.064  30.898  29.013  1.00  0.00     0.074 A 
ATOM     57  C   UNL A   1      45.954  30.538  27.920  1.00  0.00     0.031 C 
ATOM     58  C   UNL A   1      44.427  32.044  29.400  1.00  0.00     0.037 A 
BRANCH  45  59
ATOM     59  C   UNL A   1      38.615  32.333  31.577  1.00  0.00     0.058 A 
ATOM     60  C   UNL A   1      38.193  31.772  32.801  1.00  0.00     0.135 A 
ATOM     61  C   UNL A   1      37.987  33.560  31.263  1.00  0.00     0.135 A 
ATOM     62  F   UNL A   1      38.798  30.702  33.330  1.00  0.00    -0.206 F 
ATOM     63  C   UNL A   1      37.159  32.314  33.574  1.00  0.00     0.059 A 
ATOM     64  C   UNL A   1      36.898  34.077  31.970  1.00  0.00     0.059 A 
ATOM     65  F   UNL A   1      38.463  34.362  30.300  1.00  0.00    -0.206 F 
ATOM     66  C   UNL A   1      36.494  33.450  33.135  1.00  0.00     0.060 A 
BRANCH  66  67
ATOM     67  S   UNL A   1      35.184  34.154  34.152  1.00  0.00     0.124 S 
ATOM     68  O   UNL A   1      35.631  33.834  35.504  1.00  0.00    -0.237 OA
ATOM     69  O   UNL A   1      35.241  35.565  33.783  1.00  0.00    -0.237 OA
ATOM     70  O   UNL A   1      33.988  33.444  33.711  1.00  0.00    -0.744 OA
ENDBRANCH  66  67
ENDBRANCH  45  59
BRANCH  46  71
ATOM     71  C   UNL A   1      45.444  26.087  28.457  1.00  0.00     0.058 A 
ATOM     72  C   UNL A   1      45.786  26.461  27.140  1.00  0.00     0.135 A 
ATOM     73  C   UNL A   1      46.331  25.176  28.999  1.00  0.00     0.135 A 
ATOM     74  F   UNL A   1      44.818  26.787  26.274  1.00  0.00    -0.206 F 
ATOM     75  C   UNL A   1      47.119  26.610  26.741  1.00  0.00     0.059 A 
ATOM     76  C   UNL A   1      47.671  25.338  28.627  1.00  0.00     0.059 A 
ATOM     77  F   UNL A   1      46.052  24.583  30.175  1.00  0.00    -0.206 F 
ATOM     78  C   UNL A   1      48.086  26.212  27.639  1.00  0.00     0.060 A 
BRANCH  78  79
ATOM     79  S   UNL A   1      49.810  27.144  27.737  1.00  0.00     0.124 S 
ATOM     80  O   UNL A   1      49.704  27.934  26.521  1.00  0.00    -0.237 OA
ATOM     81  O   UNL A   1      49.771  27.950  28.929  1.00  0.00    -0.237 OA
ATOM     82  O   UNL A   1      50.858  26.139  27.697  1.00  0.00    -0.744 OA
ENDBRANCH  78  79
ENDBRANCH  46  71
BRANCH  58  83
ATOM     83  C   UNL A   1      44.720  33.408  28.837  1.00  0.00     0.058 A 
ATOM     84  C   UNL A   1      44.348  33.788  27.537  1.00  0.00     0.135 A 
ATOM     85  C   UNL A   1      45.514  34.347  29.539  1.00  0.00     0.135 A 
ATOM     86  F   UNL A   1      43.739  32.926  26.709  1.00  0.00    -0.206 F 
ATOM     87  C   UNL A   1      44.628  35.053  27.022  1.00  0.00     0.059 A 
ATOM     88  C   UNL A   1      45.844  35.594  29.030  1.00  0.00     0.059 A 
ATOM     89  F   UNL A   1      46.013  34.100  30.757  1.00  0.00    -0.206 F 
ATOM     90  C   UNL A   1      45.361  35.956  27.786  1.00  0.00     0.060 A 
BRANCH  90  91
ATOM     91  S   UNL A   1      45.708  37.592  27.130  1.00  0.00     0.124 S 
ATOM     92  O   UNL A   1      46.609  37.300  26.019  1.00  0.00    -0.237 OA
ATOM     93  O   UNL A   1      44.370  38.042  26.759  1.00  0.00    -0.237 OA
ATOM     94  O   UNL A   1      46.316  38.292  28.257  1.00  0.00    -0.744 OA
ENDBRANCH  90  91
ENDBRANCH  58  83
ENDBRANCH  32  33
ENDBRANCH  24  27
ENDBRANCH  22  23
ENDBRANCH   1  22
TORSDOF 15
ENDMDL
