MODEL 1
REMARK VINA RESULT:     -12.7      0.000      0.000
REMARK SMILES Cc1cc(C(=O)N[C@@H]2CC2(C)C)sc1/C=C/C(=O)NCCCNC(=O)c1ccc(-c2c3nc(c(-c4c(F)cc(S(=O)(=O)[O-])cc4F)c4ccc([nH]4)c(-c4c(F)cc(S(=O)(=O)[O-])cc4F)c4nc(c(-c5c(F)cc(S(=O)(=O)[O-])cc5F)c5ccc2[nH]5)C=C4)C=C3)cc1
REMARK SMILES IDX 21 1 20 2 19 3 17 4 18 5 16 7 15 8 14 9 1 10 2 11 3 12 4 13
REMARK SMILES IDX 13 14 5 15 6 16 7 17 8 19 9 20 10 21 11 22 12 23 22 24 23 25
REMARK SMILES IDX 24 26 25 28 26 29 27 30 91 31 28 32 90 33 29 34 30 35 31 36
REMARK SMILES IDX 84 37 32 38 89 39 83 40 85 41 33 42 88 43 82 44 81 45 34 47
REMARK SMILES IDX 68 48 47 49 67 50 48 51 51 52 66 53 86 54 49 55 50 56 65 58
REMARK SMILES IDX 87 59 52 60 35 61 36 62 45 63 37 64 38 65 44 66 46 67 39 68
REMARK SMILES IDX 40 69 41 70 42 71 43 72 69 73 70 74 79 75 71 76 72 77 78 78
REMARK SMILES IDX 80 79 73 80 74 81 75 82 76 83 77 84 53 85 54 86 63 87 55 88
REMARK SMILES IDX 56 89 62 90 64 91 57 92 58 93 59 94 60 95 61 96
REMARK H PARENT 19 6 7 18 23 27 85 46 51 57
REMARK Flexibility Score: inf
ROOT
ATOM      1  C   UNL A   1      37.545  23.197  25.659  1.00  0.00     0.042 C 
ENDROOT
BRANCH   1   2
ATOM      2  C   UNL A   1      36.119  23.726  25.538  1.00  0.00     0.118 C 
BRANCH   2   3
ATOM      3  N   UNL A   1      35.225  23.062  26.468  1.00  0.00    -0.352 N 
ATOM      4  C   UNL A   1      33.941  23.347  26.807  1.00  0.00     0.244 C 
ATOM      5  O   UNL A   1      33.320  22.574  27.533  1.00  0.00    -0.270 OA
ATOM      6  H   UNL A   1      35.610  22.280  26.926  1.00  0.00     0.163 HD
BRANCH   4   7
ATOM      7  C   UNL A   1      33.237  24.503  26.213  1.00  0.00     0.072 C 
ATOM      8  C   UNL A   1      31.980  24.904  26.466  1.00  0.00     0.025 C 
BRANCH   8   9
ATOM      9  C   UNL A   1      31.503  26.093  25.852  1.00  0.00     0.031 A 
ATOM     10  C   UNL A   1      32.424  27.934  27.396  1.00  0.00     0.046 C 
ATOM     11  C   UNL A   1      31.757  27.423  26.162  1.00  0.00    -0.032 A 
ATOM     12  C   UNL A   1      31.383  28.257  25.052  1.00  0.00     0.029 A 
ATOM     13  C   UNL A   1      30.855  27.539  23.990  1.00  0.00     0.093 A 
ATOM     14  S   UNL A   1      30.371  26.014  24.558  1.00  0.00    -0.130 S 
BRANCH  13  15
ATOM     15  C   UNL A   1      30.547  28.054  22.678  1.00  0.00     0.261 C 
ATOM     16  O   UNL A   1      30.851  27.415  21.662  1.00  0.00    -0.268 OA
ATOM     17  N   UNL A   1      29.822  29.202  22.421  1.00  0.00    -0.348 N 
ATOM     18  H   UNL A   1      29.742  29.323  21.448  1.00  0.00     0.164 HD
BRANCH  17  19
ATOM     19  C   UNL A   1      29.150  30.272  23.088  1.00  0.00     0.088 C 
ATOM     20  C   UNL A   1      27.702  30.518  23.353  1.00  0.00     0.034 C 
ATOM     21  C   UNL A   1      28.450  31.449  22.426  1.00  0.00    -0.013 C 
ATOM     22  C   UNL A   1      28.699  32.841  22.954  1.00  0.00     0.013 C 
ATOM     23  C   UNL A   1      28.127  31.426  20.956  1.00  0.00     0.013 C 
ENDBRANCH  17  19
ENDBRANCH  13  15
ENDBRANCH   8   9
ENDBRANCH   4   7
ENDBRANCH   2   3
ENDBRANCH   1   2
BRANCH   1  24
ATOM     24  C   UNL A   1      38.438  24.054  26.547  1.00  0.00     0.118 C 
BRANCH  24  25
ATOM     25  N   UNL A   1      39.843  23.916  26.198  1.00  0.00    -0.352 N 
ATOM     26  C   UNL A   1      40.919  24.702  26.531  1.00  0.00     0.251 C 
ATOM     27  H   UNL A   1      40.057  23.136  25.635  1.00  0.00     0.163 HD
ATOM     28  O   UNL A   1      41.977  24.548  25.929  1.00  0.00    -0.269 OA
BRANCH  26  29
ATOM     29  C   UNL A   1      40.812  25.731  27.591  1.00  0.00     0.039 A 
ATOM     30  C   UNL A   1      39.662  25.760  28.387  1.00  0.00     0.014 A 
ATOM     31  C   UNL A   1      41.804  26.700  27.771  1.00  0.00     0.014 A 
ATOM     32  C   UNL A   1      39.532  26.724  29.389  1.00  0.00     0.010 A 
ATOM     33  C   UNL A   1      41.709  27.610  28.823  1.00  0.00     0.010 A 
ATOM     34  C   UNL A   1      40.567  27.640  29.635  1.00  0.00    -0.014 A 
BRANCH  34  35
ATOM     35  C   UNL A   1      40.467  28.643  30.728  1.00  0.00     0.031 A 
ATOM     36  C   UNL A   1      41.340  28.523  31.949  1.00  0.00     0.074 A 
ATOM     37  C   UNL A   1      39.549  29.626  30.647  1.00  0.00     0.049 A 
ATOM     38  N   UNL A   1      41.349  29.254  33.034  1.00  0.00    -0.248 NA
ATOM     39  C   UNL A   1      42.314  27.419  31.963  1.00  0.00     0.031 C 
ATOM     40  C   UNL A   1      38.613  29.820  29.537  1.00  0.00     0.029 A 
ATOM     41  N   UNL A   1      39.244  30.641  31.518  1.00  0.00    -0.354 N 
ATOM     42  C   UNL A   1      42.312  28.692  33.863  1.00  0.00     0.074 A 
ATOM     43  C   UNL A   1      42.831  27.528  33.179  1.00  0.00     0.031 C 
ATOM     44  C   UNL A   1      37.853  30.897  29.785  1.00  0.00     0.029 A 
ATOM     45  C   UNL A   1      38.218  31.450  31.085  1.00  0.00     0.049 A 
ATOM     46  H   UNL A   1      39.713  30.779  32.372  1.00  0.00     0.167 HD
ATOM     47  C   UNL A   1      42.742  29.119  35.076  1.00  0.00     0.037 A 
ATOM     48  C   UNL A   1      37.633  32.511  31.673  1.00  0.00     0.037 A 
ATOM     49  C   UNL A   1      42.239  30.293  35.740  1.00  0.00     0.049 A 
ATOM     50  C   UNL A   1      38.133  32.975  33.014  1.00  0.00     0.074 A 
ATOM     51  C   UNL A   1      42.644  30.841  36.945  1.00  0.00     0.029 A 
ATOM     52  N   UNL A   1      41.220  31.103  35.256  1.00  0.00    -0.354 N 
ATOM     53  N   UNL A   1      39.084  32.463  33.760  1.00  0.00    -0.248 NA
ATOM     54  C   UNL A   1      37.490  34.163  33.590  1.00  0.00     0.031 C 
ATOM     55  C   UNL A   1      41.844  31.959  37.208  1.00  0.00     0.029 A 
ATOM     56  C   UNL A   1      40.973  32.136  36.144  1.00  0.00     0.049 A 
ATOM     57  H   UNL A   1      40.743  30.962  34.407  1.00  0.00     0.167 HD
ATOM     58  C   UNL A   1      39.168  33.280  34.881  1.00  0.00     0.074 A 
ATOM     59  C   UNL A   1      38.182  34.326  34.710  1.00  0.00     0.031 C 
ATOM     60  C   UNL A   1      39.989  33.174  35.955  1.00  0.00     0.037 A 
BRANCH  47  61
ATOM     61  C   UNL A   1      43.815  28.314  35.759  1.00  0.00     0.058 A 
ATOM     62  C   UNL A   1      45.178  28.585  35.558  1.00  0.00     0.135 A 
ATOM     63  C   UNL A   1      43.478  27.280  36.647  1.00  0.00     0.135 A 
ATOM     64  F   UNL A   1      45.557  29.553  34.709  1.00  0.00    -0.206 F 
ATOM     65  C   UNL A   1      46.169  27.840  36.188  1.00  0.00     0.059 A 
ATOM     66  C   UNL A   1      44.453  26.539  37.310  1.00  0.00     0.059 A 
ATOM     67  F   UNL A   1      42.191  26.977  36.878  1.00  0.00    -0.206 F 
ATOM     68  C   UNL A   1      45.797  26.817  37.060  1.00  0.00     0.060 A 
BRANCH  68  69
ATOM     69  S   UNL A   1      47.096  25.858  37.869  1.00  0.00     0.124 S 
ATOM     70  O   UNL A   1      47.458  26.737  38.978  1.00  0.00    -0.237 OA
ATOM     71  O   UNL A   1      46.398  24.631  38.236  1.00  0.00    -0.237 OA
ATOM     72  O   UNL A   1      48.109  25.712  36.828  1.00  0.00    -0.744 OA
ENDBRANCH  68  69
ENDBRANCH  47  61
BRANCH  48  73
ATOM     73  C   UNL A   1      36.526  33.223  30.981  1.00  0.00     0.058 A 
ATOM     74  C   UNL A   1      35.202  33.104  31.426  1.00  0.00     0.135 A 
ATOM     75  C   UNL A   1      36.773  34.055  29.878  1.00  0.00     0.135 A 
ATOM     76  F   UNL A   1      34.915  32.315  32.473  1.00  0.00    -0.206 F 
ATOM     77  C   UNL A   1      34.158  33.773  30.796  1.00  0.00     0.059 A 
ATOM     78  C   UNL A   1      35.749  34.755  29.246  1.00  0.00     0.059 A 
ATOM     79  F   UNL A   1      38.026  34.217  29.424  1.00  0.00    -0.206 F 
ATOM     80  C   UNL A   1      34.443  34.601  29.710  1.00  0.00     0.060 A 
BRANCH  80  81
ATOM     81  S   UNL A   1      33.088  35.511  28.936  1.00  0.00     0.124 S 
ATOM     82  O   UNL A   1      32.436  34.465  28.159  1.00  0.00    -0.237 OA
ATOM     83  O   UNL A   1      32.349  36.003  30.095  1.00  0.00    -0.237 OA
ATOM     84  O   UNL A   1      33.776  36.540  28.161  1.00  0.00    -0.744 OA
ENDBRANCH  80  81
ENDBRANCH  48  73
BRANCH  60  85
ATOM     85  C   UNL A   1      39.879  34.233  37.016  1.00  0.00     0.058 A 
ATOM     86  C   UNL A   1      40.402  35.522  36.829  1.00  0.00     0.135 A 
ATOM     87  C   UNL A   1      39.198  33.969  38.216  1.00  0.00     0.135 A 
ATOM     88  F   UNL A   1      41.067  35.824  35.702  1.00  0.00    -0.206 F 
ATOM     89  C   UNL A   1      40.275  36.505  37.804  1.00  0.00     0.059 A 
ATOM     90  C   UNL A   1      39.037  34.944  39.194  1.00  0.00     0.059 A 
ATOM     91  F   UNL A   1      38.670  32.754  38.440  1.00  0.00    -0.206 F 
ATOM     92  C   UNL A   1      39.591  36.207  38.984  1.00  0.00     0.060 A 
BRANCH  92  93
ATOM     93  S   UNL A   1      39.406  37.500  40.230  1.00  0.00     0.124 S 
ATOM     94  O   UNL A   1      40.795  37.875  40.471  1.00  0.00    -0.237 OA
ATOM     95  O   UNL A   1      38.593  38.493  39.533  1.00  0.00    -0.237 OA
ATOM     96  O   UNL A   1      38.739  36.816  41.333  1.00  0.00    -0.744 OA
ENDBRANCH  92  93
ENDBRANCH  60  85
ENDBRANCH  34  35
ENDBRANCH  26  29
ENDBRANCH  24  25
ENDBRANCH   1  24
TORSDOF 16
ENDMDL
MODEL 2
REMARK VINA RESULT:     -12.6      6.627     12.197
REMARK SMILES Cc1cc(C(=O)N[C@@H]2CC2(C)C)sc1/C=C/C(=O)NCCCNC(=O)c1ccc(-c2c3nc(c(-c4c(F)cc(S(=O)(=O)[O-])cc4F)c4ccc([nH]4)c(-c4c(F)cc(S(=O)(=O)[O-])cc4F)c4nc(c(-c5c(F)cc(S(=O)(=O)[O-])cc5F)c5ccc2[nH]5)C=C4)C=C3)cc1
REMARK SMILES IDX 21 1 20 2 19 3 17 4 18 5 16 7 15 8 14 9 1 10 2 11 3 12 4 13
REMARK SMILES IDX 13 14 5 15 6 16 7 17 8 19 9 20 10 21 11 22 12 23 22 24 23 25
REMARK SMILES IDX 24 26 25 28 26 29 27 30 91 31 28 32 90 33 29 34 30 35 31 36
REMARK SMILES IDX 84 37 32 38 89 39 83 40 85 41 33 42 88 43 82 44 81 45 34 47
REMARK SMILES IDX 68 48 47 49 67 50 48 51 51 52 66 53 86 54 49 55 50 56 65 58
REMARK SMILES IDX 87 59 52 60 35 61 36 62 45 63 37 64 38 65 44 66 46 67 39 68
REMARK SMILES IDX 40 69 41 70 42 71 43 72 69 73 70 74 79 75 71 76 72 77 78 78
REMARK SMILES IDX 80 79 73 80 74 81 75 82 76 83 77 84 53 85 54 86 63 87 55 88
REMARK SMILES IDX 56 89 62 90 64 91 57 92 58 93 59 94 60 95 61 96
REMARK H PARENT 19 6 7 18 23 27 85 46 51 57
REMARK Flexibility Score: inf
ROOT
ATOM      1  C   UNL A   1      34.852  29.942  27.513  1.00  0.00     0.042 C 
ENDROOT
BRANCH   1   2
ATOM      2  C   UNL A   1      33.473  30.272  26.952  1.00  0.00     0.118 C 
BRANCH   2   3
ATOM      3  N   UNL A   1      32.431  29.521  27.627  1.00  0.00    -0.352 N 
ATOM      4  C   UNL A   1      31.827  28.354  27.283  1.00  0.00     0.244 C 
ATOM      5  O   UNL A   1      31.046  27.821  28.068  1.00  0.00    -0.270 OA
ATOM      6  H   UNL A   1      32.111  29.921  28.468  1.00  0.00     0.163 HD
BRANCH   4   7
ATOM      7  C   UNL A   1      32.193  27.647  26.038  1.00  0.00     0.072 C 
ATOM      8  C   UNL A   1      31.632  27.794  24.826  1.00  0.00     0.025 C 
BRANCH   8   9
ATOM      9  C   UNL A   1      32.178  27.079  23.726  1.00  0.00     0.031 A 
ATOM     10  C   UNL A   1      33.896  28.740  22.770  1.00  0.00     0.046 C 
ATOM     11  C   UNL A   1      33.226  27.409  22.877  1.00  0.00    -0.032 A 
ATOM     12  C   UNL A   1      33.669  26.235  22.177  1.00  0.00     0.029 A 
ATOM     13  C   UNL A   1      32.938  25.103  22.504  1.00  0.00     0.093 A 
ATOM     14  S   UNL A   1      31.476  25.593  23.216  1.00  0.00    -0.130 S 
BRANCH  13  15
ATOM     15  C   UNL A   1      33.237  23.748  22.110  1.00  0.00     0.261 C 
ATOM     16  O   UNL A   1      33.324  23.444  20.912  1.00  0.00    -0.268 OA
ATOM     17  N   UNL A   1      33.547  22.715  22.973  1.00  0.00    -0.348 N 
ATOM     18  H   UNL A   1      33.722  21.898  22.452  1.00  0.00     0.164 HD
BRANCH  17  19
ATOM     19  C   UNL A   1      33.702  22.430  24.365  1.00  0.00     0.088 C 
ATOM     20  C   UNL A   1      33.527  23.284  25.575  1.00  0.00     0.034 C 
ATOM     21  C   UNL A   1      34.906  22.773  25.228  1.00  0.00    -0.013 C 
ATOM     22  C   UNL A   1      35.469  21.721  26.152  1.00  0.00     0.013 C 
ATOM     23  C   UNL A   1      35.945  23.751  24.748  1.00  0.00     0.013 C 
ENDBRANCH  17  19
ENDBRANCH  13  15
ENDBRANCH   8   9
ENDBRANCH   4   7
ENDBRANCH   2   3
ENDBRANCH   1   2
BRANCH   1  24
ATOM     24  C   UNL A   1      35.537  31.129  28.179  1.00  0.00     0.118 C 
BRANCH  24  25
ATOM     25  N   UNL A   1      35.481  31.045  29.630  1.00  0.00    -0.352 N 
ATOM     26  C   UNL A   1      36.375  30.502  30.520  1.00  0.00     0.251 C 
ATOM     27  H   UNL A   1      34.676  31.439  30.038  1.00  0.00     0.163 HD
ATOM     28  O   UNL A   1      36.020  30.314  31.679  1.00  0.00    -0.269 OA
BRANCH  26  29
ATOM     29  C   UNL A   1      37.746  30.134  30.095  1.00  0.00     0.039 A 
ATOM     30  C   UNL A   1      38.675  29.761  31.071  1.00  0.00     0.014 A 
ATOM     31  C   UNL A   1      38.139  30.207  28.755  1.00  0.00     0.014 A 
ATOM     32  C   UNL A   1      39.977  29.416  30.699  1.00  0.00     0.010 A 
ATOM     33  C   UNL A   1      39.413  29.787  28.377  1.00  0.00     0.010 A 
ATOM     34  C   UNL A   1      40.349  29.398  29.345  1.00  0.00    -0.014 A 
BRANCH  34  35
ATOM     35  C   UNL A   1      41.715  28.988  28.926  1.00  0.00     0.031 A 
ATOM     36  C   UNL A   1      42.829  30.000  28.877  1.00  0.00     0.074 A 
ATOM     37  C   UNL A   1      41.937  27.719  28.531  1.00  0.00     0.049 A 
ATOM     38  N   UNL A   1      44.064  29.851  28.471  1.00  0.00    -0.248 NA
ATOM     39  C   UNL A   1      42.505  31.366  29.320  1.00  0.00     0.031 C 
ATOM     40  C   UNL A   1      40.928  26.658  28.488  1.00  0.00     0.029 A 
ATOM     41  N   UNL A   1      43.079  27.107  28.081  1.00  0.00    -0.354 N 
ATOM     42  C   UNL A   1      44.657  31.102  28.593  1.00  0.00     0.074 A 
ATOM     43  C   UNL A   1      43.634  32.011  29.062  1.00  0.00     0.031 C 
ATOM     44  C   UNL A   1      41.499  25.524  28.054  1.00  0.00     0.029 A 
ATOM     45  C   UNL A   1      42.903  25.782  27.754  1.00  0.00     0.049 A 
ATOM     46  H   UNL A   1      43.943  27.571  27.999  1.00  0.00     0.167 HD
ATOM     47  C   UNL A   1      45.944  31.457  28.357  1.00  0.00     0.037 A 
ATOM     48  C   UNL A   1      43.773  24.880  27.260  1.00  0.00     0.037 A 
ATOM     49  C   UNL A   1      46.964  30.542  27.914  1.00  0.00     0.049 A 
ATOM     50  C   UNL A   1      45.199  25.293  27.016  1.00  0.00     0.074 A 
ATOM     51  C   UNL A   1      48.308  30.790  27.697  1.00  0.00     0.029 A 
ATOM     52  N   UNL A   1      46.753  29.201  27.622  1.00  0.00    -0.354 N 
ATOM     53  N   UNL A   1      45.756  26.468  27.189  1.00  0.00    -0.248 NA
ATOM     54  C   UNL A   1      46.115  24.259  26.518  1.00  0.00     0.031 C 
ATOM     55  C   UNL A   1      48.902  29.609  27.237  1.00  0.00     0.029 A 
ATOM     56  C   UNL A   1      47.938  28.613  27.213  1.00  0.00     0.049 A 
ATOM     57  H   UNL A   1      45.888  28.738  27.695  1.00  0.00     0.167 HD
ATOM     58  C   UNL A   1      47.093  26.308  26.845  1.00  0.00     0.074 A 
ATOM     59  C   UNL A   1      47.264  24.921  26.466  1.00  0.00     0.031 C 
ATOM     60  C   UNL A   1      48.091  27.228  26.843  1.00  0.00     0.037 A 
BRANCH  47  61
ATOM     61  C   UNL A   1      46.322  32.897  28.580  1.00  0.00     0.058 A 
ATOM     62  C   UNL A   1      46.237  33.848  27.550  1.00  0.00     0.135 A 
ATOM     63  C   UNL A   1      46.744  33.340  29.844  1.00  0.00     0.135 A 
ATOM     64  F   UNL A   1      45.853  33.478  26.318  1.00  0.00    -0.206 F 
ATOM     65  C   UNL A   1      46.588  35.178  27.756  1.00  0.00     0.059 A 
ATOM     66  C   UNL A   1      47.073  34.672  30.080  1.00  0.00     0.059 A 
ATOM     67  F   UNL A   1      46.843  32.475  30.866  1.00  0.00    -0.206 F 
ATOM     68  C   UNL A   1      47.008  35.580  29.024  1.00  0.00     0.060 A 
BRANCH  68  69
ATOM     69  S   UNL A   1      47.460  37.310  29.275  1.00  0.00     0.124 S 
ATOM     70  O   UNL A   1      47.300  37.446  30.719  1.00  0.00    -0.237 OA
ATOM     71  O   UNL A   1      48.833  37.350  28.783  1.00  0.00    -0.237 OA
ATOM     72  O   UNL A   1      46.486  38.037  28.465  1.00  0.00    -0.744 OA
ENDBRANCH  68  69
ENDBRANCH  47  61
BRANCH  48  73
ATOM     73  C   UNL A   1      43.322  23.489  26.990  1.00  0.00     0.058 A 
ATOM     74  C   UNL A   1      43.086  23.048  25.680  1.00  0.00     0.135 A 
ATOM     75  C   UNL A   1      43.142  22.567  28.032  1.00  0.00     0.135 A 
ATOM     76  F   UNL A   1      43.239  23.895  24.650  1.00  0.00    -0.206 F 
ATOM     77  C   UNL A   1      42.676  21.746  25.411  1.00  0.00     0.059 A 
ATOM     78  C   UNL A   1      42.757  21.252  27.787  1.00  0.00     0.059 A 
ATOM     79  F   UNL A   1      43.372  22.933  29.303  1.00  0.00    -0.206 F 
ATOM     80  C   UNL A   1      42.519  20.854  26.472  1.00  0.00     0.060 A 
BRANCH  80  81
ATOM     81  S   UNL A   1      42.043  19.150  26.107  1.00  0.00     0.124 S 
ATOM     82  O   UNL A   1      42.862  18.860  24.938  1.00  0.00    -0.237 OA
ATOM     83  O   UNL A   1      42.416  18.459  27.337  1.00  0.00    -0.237 OA
ATOM     84  O   UNL A   1      40.606  19.248  25.865  1.00  0.00    -0.744 OA
ENDBRANCH  80  81
ENDBRANCH  48  73
BRANCH  60  85
ATOM     85  C   UNL A   1      49.463  26.757  26.449  1.00  0.00     0.058 A 
ATOM     86  C   UNL A   1      50.336  26.169  27.377  1.00  0.00     0.135 A 
ATOM     87  C   UNL A   1      49.890  26.853  25.115  1.00  0.00     0.135 A 
ATOM     88  F   UNL A   1      49.977  26.060  28.666  1.00  0.00    -0.206 F 
ATOM     89  C   UNL A   1      51.595  25.714  27.001  1.00  0.00     0.059 A 
ATOM     90  C   UNL A   1      51.135  26.380  24.710  1.00  0.00     0.059 A 
ATOM     91  F   UNL A   1      49.089  27.398  24.185  1.00  0.00    -0.206 F 
ATOM     92  C   UNL A   1      51.986  25.823  25.665  1.00  0.00     0.060 A 
BRANCH  92  93
ATOM     93  S   UNL A   1      53.610  25.201  25.182  1.00  0.00     0.124 S 
ATOM     94  O   UNL A   1      53.417  23.760  25.294  1.00  0.00    -0.237 OA
ATOM     95  O   UNL A   1      53.752  25.718  23.824  1.00  0.00    -0.237 OA
ATOM     96  O   UNL A   1      54.508  25.794  26.169  1.00  0.00    -0.744 OA
ENDBRANCH  92  93
ENDBRANCH  60  85
ENDBRANCH  34  35
ENDBRANCH  26  29
ENDBRANCH  24  25
ENDBRANCH   1  24
TORSDOF 16
ENDMDL
MODEL 3
REMARK VINA RESULT:     -12.5      1.739      2.584
REMARK SMILES Cc1cc(C(=O)N[C@@H]2CC2(C)C)sc1/C=C/C(=O)NCCCNC(=O)c1ccc(-c2c3nc(c(-c4c(F)cc(S(=O)(=O)[O-])cc4F)c4ccc([nH]4)c(-c4c(F)cc(S(=O)(=O)[O-])cc4F)c4nc(c(-c5c(F)cc(S(=O)(=O)[O-])cc5F)c5ccc2[nH]5)C=C4)C=C3)cc1
REMARK SMILES IDX 21 1 20 2 19 3 17 4 18 5 16 7 15 8 14 9 1 10 2 11 3 12 4 13
REMARK SMILES IDX 13 14 5 15 6 16 7 17 8 19 9 20 10 21 11 22 12 23 22 24 23 25
REMARK SMILES IDX 24 26 25 28 26 29 27 30 91 31 28 32 90 33 29 34 30 35 31 36
REMARK SMILES IDX 84 37 32 38 89 39 83 40 85 41 33 42 88 43 82 44 81 45 34 47
REMARK SMILES IDX 68 48 47 49 67 50 48 51 51 52 66 53 86 54 49 55 50 56 65 58
REMARK SMILES IDX 87 59 52 60 35 61 36 62 45 63 37 64 38 65 44 66 46 67 39 68
REMARK SMILES IDX 40 69 41 70 42 71 43 72 69 73 70 74 79 75 71 76 72 77 78 78
REMARK SMILES IDX 80 79 73 80 74 81 75 82 76 83 77 84 53 85 54 86 63 87 55 88
REMARK SMILES IDX 56 89 62 90 64 91 57 92 58 93 59 94 60 95 61 96
REMARK H PARENT 19 6 7 18 23 27 85 46 51 57
REMARK Flexibility Score: inf
ROOT
ATOM      1  C   UNL A   1      39.373  22.068  26.374  1.00  0.00     0.042 C 
ENDROOT
BRANCH   1   2
ATOM      2  C   UNL A   1      37.972  22.577  26.052  1.00  0.00     0.118 C 
BRANCH   2   3
ATOM      3  N   UNL A   1      37.765  22.692  24.620  1.00  0.00    -0.352 N 
ATOM      4  C   UNL A   1      36.631  22.942  23.915  1.00  0.00     0.244 C 
ATOM      5  O   UNL A   1      36.700  23.122  22.701  1.00  0.00    -0.270 OA
ATOM      6  H   UNL A   1      38.575  22.570  24.073  1.00  0.00     0.163 HD
BRANCH   4   7
ATOM      7  C   UNL A   1      35.335  23.131  24.600  1.00  0.00     0.072 C 
ATOM      8  C   UNL A   1      34.232  22.373  24.473  1.00  0.00     0.025 C 
BRANCH   8   9
ATOM      9  C   UNL A   1      33.102  22.669  25.280  1.00  0.00     0.031 A 
ATOM     10  C   UNL A   1      33.737  21.627  27.546  1.00  0.00     0.046 C 
ATOM     11  C   UNL A   1      32.891  22.456  26.636  1.00  0.00    -0.032 A 
ATOM     12  C   UNL A   1      31.782  23.253  27.085  1.00  0.00     0.029 A 
ATOM     13  C   UNL A   1      31.206  23.998  26.067  1.00  0.00     0.093 A 
ATOM     14  S   UNL A   1      31.676  23.330  24.578  1.00  0.00    -0.130 S 
BRANCH  13  15
ATOM     15  C   UNL A   1      30.196  25.017  26.218  1.00  0.00     0.261 C 
ATOM     16  O   UNL A   1      29.131  24.769  26.798  1.00  0.00    -0.268 OA
ATOM     17  N   UNL A   1      30.337  26.341  25.849  1.00  0.00    -0.348 N 
ATOM     18  H   UNL A   1      29.512  26.829  26.071  1.00  0.00     0.164 HD
BRANCH  17  19
ATOM     19  C   UNL A   1      31.274  27.243  25.257  1.00  0.00     0.088 C 
ATOM     20  C   UNL A   1      32.766  27.269  25.268  1.00  0.00     0.034 C 
ATOM     21  C   UNL A   1      32.005  28.376  25.961  1.00  0.00    -0.013 C 
ATOM     22  C   UNL A   1      32.068  29.731  25.298  1.00  0.00     0.013 C 
ATOM     23  C   UNL A   1      32.041  28.454  27.463  1.00  0.00     0.013 C 
ENDBRANCH  17  19
ENDBRANCH  13  15
ENDBRANCH   8   9
ENDBRANCH   4   7
ENDBRANCH   2   3
ENDBRANCH   1   2
BRANCH   1  24
ATOM     24  C   UNL A   1      40.262  23.114  27.036  1.00  0.00     0.118 C 
BRANCH  24  25
ATOM     25  N   UNL A   1      41.161  23.744  26.083  1.00  0.00    -0.352 N 
ATOM     26  C   UNL A   1      41.628  25.035  26.027  1.00  0.00     0.251 C 
ATOM     27  H   UNL A   1      41.487  23.154  25.365  1.00  0.00     0.163 HD
ATOM     28  O   UNL A   1      42.179  25.424  25.002  1.00  0.00    -0.269 OA
BRANCH  26  29
ATOM     29  C   UNL A   1      41.464  25.955  27.176  1.00  0.00     0.039 A 
ATOM     30  C   UNL A   1      42.390  26.989  27.347  1.00  0.00     0.014 A 
ATOM     31  C   UNL A   1      40.444  25.776  28.116  1.00  0.00     0.014 A 
ATOM     32  C   UNL A   1      42.264  27.867  28.426  1.00  0.00     0.010 A 
ATOM     33  C   UNL A   1      40.273  26.699  29.145  1.00  0.00     0.010 A 
ATOM     34  C   UNL A   1      41.187  27.747  29.319  1.00  0.00    -0.014 A 
BRANCH  34  35
ATOM     35  C   UNL A   1      41.008  28.700  30.446  1.00  0.00     0.031 A 
ATOM     36  C   UNL A   1      41.867  28.588  31.678  1.00  0.00     0.074 A 
ATOM     37  C   UNL A   1      40.034  29.629  30.384  1.00  0.00     0.049 A 
ATOM     38  N   UNL A   1      41.813  29.277  32.788  1.00  0.00    -0.248 NA
ATOM     39  C   UNL A   1      42.906  27.545  31.670  1.00  0.00     0.031 C 
ATOM     40  C   UNL A   1      39.105  29.807  29.264  1.00  0.00     0.029 A 
ATOM     41  N   UNL A   1      39.652  30.590  31.286  1.00  0.00    -0.354 N 
ATOM     42  C   UNL A   1      42.795  28.743  33.614  1.00  0.00     0.074 A 
ATOM     43  C   UNL A   1      43.396  27.640  32.898  1.00  0.00     0.031 C 
ATOM     44  C   UNL A   1      38.276  30.826  29.538  1.00  0.00     0.029 A 
ATOM     45  C   UNL A   1      38.586  31.350  30.864  1.00  0.00     0.049 A 
ATOM     46  H   UNL A   1      40.099  30.723  32.152  1.00  0.00     0.167 HD
ATOM     47  C   UNL A   1      43.179  29.150  34.850  1.00  0.00     0.037 A 
ATOM     48  C   UNL A   1      37.928  32.351  31.479  1.00  0.00     0.037 A 
ATOM     49  C   UNL A   1      42.594  30.266  35.547  1.00  0.00     0.049 A 
ATOM     50  C   UNL A   1      38.377  32.794  32.845  1.00  0.00     0.074 A 
ATOM     51  C   UNL A   1      42.945  30.792  36.778  1.00  0.00     0.029 A 
ATOM     52  N   UNL A   1      41.535  31.030  35.074  1.00  0.00    -0.354 N 
ATOM     53  N   UNL A   1      39.345  32.313  33.589  1.00  0.00    -0.248 NA
ATOM     54  C   UNL A   1      37.652  33.918  33.452  1.00  0.00     0.031 C 
ATOM     55  C   UNL A   1      42.074  31.849  37.067  1.00  0.00     0.029 A 
ATOM     56  C   UNL A   1      41.211  32.012  35.994  1.00  0.00     0.049 A 
ATOM     57  H   UNL A   1      41.082  30.892  34.212  1.00  0.00     0.167 HD
ATOM     58  C   UNL A   1      39.360  33.091  34.741  1.00  0.00     0.074 A 
ATOM     59  C   UNL A   1      38.315  34.081  34.589  1.00  0.00     0.031 C 
ATOM     60  C   UNL A   1      40.169  32.994  35.825  1.00  0.00     0.037 A 
BRANCH  47  61
ATOM     61  C   UNL A   1      44.288  28.387  35.522  1.00  0.00     0.058 A 
ATOM     62  C   UNL A   1      45.632  28.769  35.387  1.00  0.00     0.135 A 
ATOM     63  C   UNL A   1      44.003  27.278  36.337  1.00  0.00     0.135 A 
ATOM     64  F   UNL A   1      45.963  29.813  34.610  1.00  0.00    -0.206 F 
ATOM     65  C   UNL A   1      46.656  28.063  36.008  1.00  0.00     0.059 A 
ATOM     66  C   UNL A   1      45.010  26.573  36.989  1.00  0.00     0.059 A 
ATOM     67  F   UNL A   1      42.736  26.868  36.502  1.00  0.00    -0.206 F 
ATOM     68  C   UNL A   1      46.336  26.963  36.805  1.00  0.00     0.060 A 
BRANCH  68  69
ATOM     69  S   UNL A   1      47.678  26.056  37.602  1.00  0.00     0.124 S 
ATOM     70  O   UNL A   1      47.744  24.852  36.780  1.00  0.00    -0.237 OA
ATOM     71  O   UNL A   1      48.802  26.977  37.468  1.00  0.00    -0.237 OA
ATOM     72  O   UNL A   1      47.193  25.859  38.965  1.00  0.00    -0.744 OA
ENDBRANCH  68  69
ENDBRANCH  47  61
BRANCH  48  73
ATOM     73  C   UNL A   1      36.790  33.020  30.792  1.00  0.00     0.058 A 
ATOM     74  C   UNL A   1      35.466  32.767  31.177  1.00  0.00     0.135 A 
ATOM     75  C   UNL A   1      37.006  33.943  29.758  1.00  0.00     0.135 A 
ATOM     76  F   UNL A   1      35.209  31.887  32.157  1.00  0.00    -0.206 F 
ATOM     77  C   UNL A   1      34.393  33.394  30.553  1.00  0.00     0.059 A 
ATOM     78  C   UNL A   1      35.950  34.603  29.135  1.00  0.00     0.059 A 
ATOM     79  F   UNL A   1      38.256  34.234  29.365  1.00  0.00    -0.206 F 
ATOM     80  C   UNL A   1      34.646  34.314  29.535  1.00  0.00     0.060 A 
BRANCH  80  81
ATOM     81  S   UNL A   1      33.249  35.167  28.772  1.00  0.00     0.124 S 
ATOM     82  O   UNL A   1      33.923  36.204  28.001  1.00  0.00    -0.237 OA
ATOM     83  O   UNL A   1      32.624  34.099  27.998  1.00  0.00    -0.237 OA
ATOM     84  O   UNL A   1      32.474  35.634  29.919  1.00  0.00    -0.744 OA
ENDBRANCH  80  81
ENDBRANCH  48  73
BRANCH  60  85
ATOM     85  C   UNL A   1      39.976  34.005  36.922  1.00  0.00     0.058 A 
ATOM     86  C   UNL A   1      40.682  35.217  36.940  1.00  0.00     0.135 A 
ATOM     87  C   UNL A   1      39.038  33.776  37.941  1.00  0.00     0.135 A 
ATOM     88  F   UNL A   1      41.595  35.482  35.991  1.00  0.00    -0.206 F 
ATOM     89  C   UNL A   1      40.482  36.158  37.944  1.00  0.00     0.059 A 
ATOM     90  C   UNL A   1      38.803  34.714  38.941  1.00  0.00     0.059 A 
ATOM     91  F   UNL A   1      38.329  32.635  37.965  1.00  0.00    -0.206 F 
ATOM     92  C   UNL A   1      39.540  35.898  38.940  1.00  0.00     0.060 A 
BRANCH  92  93
ATOM     93  S   UNL A   1      39.266  37.140  40.221  1.00  0.00     0.124 S 
ATOM     94  O   UNL A   1      38.435  38.110  39.517  1.00  0.00    -0.237 OA
ATOM     95  O   UNL A   1      38.597  36.370  41.266  1.00  0.00    -0.237 OA
ATOM     96  O   UNL A   1      40.615  37.591  40.551  1.00  0.00    -0.744 OA
ENDBRANCH  92  93
ENDBRANCH  60  85
ENDBRANCH  34  35
ENDBRANCH  26  29
ENDBRANCH  24  25
ENDBRANCH   1  24
TORSDOF 16
ENDMDL
