MODEL 1
REMARK VINA RESULT:     -11.6      0.000      0.000
REMARK SMILES O=C(CSC(=S)NC(=O)c1ccc([N+](=O)[O-])cc1)NCCCNC(=O)c1ccc(-c2c3nc(c(-c4c(F)cc(S(=O)(=O)[O-])cc4F)c4ccc([nH]4)c(-c4c(F)cc(S(=O)(=O)[O-])cc4F)c4nc(c(-c5c(F)cc(S(=O)(=O)[O-])cc5F)c5ccc2[nH]5)C=C4)C=C3)cc1
REMARK SMILES IDX 20 1 19 2 1 3 2 4 3 6 4 7 5 8 6 9 7 10 8 11 9 13 10 14 11 15
REMARK SMILES IDX 18 16 12 17 17 18 13 19 14 20 15 21 16 22 21 23 22 24 23 25
REMARK SMILES IDX 24 26 25 28 26 29 27 30 91 31 28 32 90 33 29 34 30 35 31 36
REMARK SMILES IDX 84 37 32 38 89 39 83 40 85 41 33 42 88 43 82 44 81 45 34 47
REMARK SMILES IDX 68 48 47 49 67 50 48 51 51 52 66 53 86 54 49 55 50 56 65 58
REMARK SMILES IDX 87 59 52 60 35 61 36 62 45 63 37 64 38 65 44 66 46 67 39 68
REMARK SMILES IDX 40 69 41 70 42 71 43 72 69 73 70 74 79 75 71 76 72 77 78 78
REMARK SMILES IDX 80 79 73 80 74 81 75 82 76 83 77 84 53 85 54 86 63 87 55 88
REMARK SMILES IDX 56 89 62 90 64 91 57 92 58 93 59 94 60 95 61 96
REMARK H PARENT 19 5 7 12 23 27 85 46 51 57
REMARK Flexibility Score: inf
ROOT
ATOM      1  C   UNL A   1      40.239  21.740  26.279  1.00  0.00     0.117 C 
ENDROOT
BRANCH   1   2
ATOM      2  N   UNL A   1      38.982  22.425  26.089  1.00  0.00    -0.355 N 
ATOM      3  O   UNL A   1      37.827  20.697  25.107  1.00  0.00    -0.274 OA
ATOM      4  C   UNL A   1      37.847  21.829  25.582  1.00  0.00     0.230 C 
ATOM      5  H   UNL A   1      38.932  23.377  26.337  1.00  0.00     0.163 HD
BRANCH   4   6
ATOM      6  C   UNL A   1      36.619  22.727  25.578  1.00  0.00     0.177 C 
BRANCH   6   7
ATOM      7  S   UNL A   1      35.507  22.326  24.195  1.00  0.00    -0.087 SA
BRANCH   7   8
ATOM      8  C   UNL A   1      34.019  21.807  24.945  1.00  0.00     0.141 C 
ATOM      9  S   UNL A   1      33.719  21.713  26.588  1.00  0.00    -0.052 S 
BRANCH   8  10
ATOM     10  N   UNL A   1      32.939  21.550  24.095  1.00  0.00    -0.307 N 
ATOM     11  C   UNL A   1      32.417  20.461  23.389  1.00  0.00     0.256 C 
ATOM     12  H   UNL A   1      32.396  22.359  23.954  1.00  0.00     0.171 HD
ATOM     13  O   UNL A   1      31.733  20.642  22.386  1.00  0.00    -0.269 OA
BRANCH  11  14
ATOM     14  C   UNL A   1      32.700  19.086  23.838  1.00  0.00     0.040 A 
ATOM     15  C   UNL A   1      33.240  18.172  22.924  1.00  0.00     0.021 A 
ATOM     16  C   UNL A   1      32.469  18.715  25.170  1.00  0.00     0.021 A 
ATOM     17  C   UNL A   1      33.645  16.910  23.365  1.00  0.00     0.086 A 
ATOM     18  C   UNL A   1      32.885  17.459  25.619  1.00  0.00     0.086 A 
ATOM     19  C   UNL A   1      33.493  16.572  24.717  1.00  0.00     0.269 A 
BRANCH  19  20
ATOM     20  N   UNL A   1      34.002  15.287  25.208  1.00  0.00     0.062 N 
ATOM     21  O   UNL A   1      33.174  14.422  25.522  1.00  0.00    -0.258 OA
ATOM     22  O   UNL A   1      35.232  15.149  25.272  1.00  0.00    -0.258 OA
ENDBRANCH  19  20
ENDBRANCH  11  14
ENDBRANCH   8  10
ENDBRANCH   7   8
ENDBRANCH   6   7
ENDBRANCH   4   6
ENDBRANCH   1   2
BRANCH   1  23
ATOM     23  C   UNL A   1      40.876  22.051  27.627  1.00  0.00     0.042 C 
BRANCH  23  24
ATOM     24  C   UNL A   1      42.037  23.041  27.573  1.00  0.00     0.118 C 
BRANCH  24  25
ATOM     25  N   UNL A   1      42.053  23.853  26.366  1.00  0.00    -0.352 N 
ATOM     26  C   UNL A   1      41.815  25.196  26.194  1.00  0.00     0.251 C 
ATOM     27  H   UNL A   1      42.268  23.363  25.540  1.00  0.00     0.163 HD
ATOM     28  O   UNL A   1      41.749  25.647  25.052  1.00  0.00    -0.269 OA
BRANCH  26  29
ATOM     29  C   UNL A   1      41.614  26.093  27.356  1.00  0.00     0.039 A 
ATOM     30  C   UNL A   1      42.541  27.115  27.582  1.00  0.00     0.014 A 
ATOM     31  C   UNL A   1      40.548  25.917  28.243  1.00  0.00     0.014 A 
ATOM     32  C   UNL A   1      42.369  27.989  28.661  1.00  0.00     0.010 A 
ATOM     33  C   UNL A   1      40.331  26.840  29.266  1.00  0.00     0.010 A 
ATOM     34  C   UNL A   1      41.247  27.878  29.497  1.00  0.00    -0.014 A 
BRANCH  34  35
ATOM     35  C   UNL A   1      41.039  28.814  30.635  1.00  0.00     0.031 A 
ATOM     36  C   UNL A   1      41.914  28.726  31.858  1.00  0.00     0.074 A 
ATOM     37  C   UNL A   1      40.039  29.717  30.588  1.00  0.00     0.049 A 
ATOM     38  N   UNL A   1      41.864  29.424  32.964  1.00  0.00    -0.248 NA
ATOM     39  C   UNL A   1      42.969  27.698  31.850  1.00  0.00     0.031 C 
ATOM     40  C   UNL A   1      39.090  29.876  29.483  1.00  0.00     0.029 A 
ATOM     41  N   UNL A   1      39.649  30.672  31.495  1.00  0.00    -0.354 N 
ATOM     42  C   UNL A   1      42.865  28.915  33.783  1.00  0.00     0.074 A 
ATOM     43  C   UNL A   1      43.468  27.808  33.072  1.00  0.00     0.031 C 
ATOM     44  C   UNL A   1      38.248  30.882  29.765  1.00  0.00     0.029 A 
ATOM     45  C   UNL A   1      38.569  31.419  31.084  1.00  0.00     0.049 A 
ATOM     46  H   UNL A   1      40.099  30.808  32.361  1.00  0.00     0.167 HD
ATOM     47  C   UNL A   1      43.269  29.345  35.003  1.00  0.00     0.037 A 
ATOM     48  C   UNL A   1      37.911  32.421  31.700  1.00  0.00     0.037 A 
ATOM     49  C   UNL A   1      42.685  30.465  35.696  1.00  0.00     0.049 A 
ATOM     50  C   UNL A   1      38.378  32.884  33.054  1.00  0.00     0.074 A 
ATOM     51  C   UNL A   1      43.055  31.011  36.913  1.00  0.00     0.029 A 
ATOM     52  N   UNL A   1      41.609  31.208  35.235  1.00  0.00    -0.354 N 
ATOM     53  N   UNL A   1      39.367  32.430  33.786  1.00  0.00    -0.248 NA
ATOM     54  C   UNL A   1      37.648  34.006  33.662  1.00  0.00     0.031 C 
ATOM     55  C   UNL A   1      42.174  32.056  37.210  1.00  0.00     0.029 A 
ATOM     56  C   UNL A   1      41.291  32.198  36.151  1.00  0.00     0.049 A 
ATOM     57  H   UNL A   1      41.140  31.056  34.383  1.00  0.00     0.167 HD
ATOM     58  C   UNL A   1      39.401  33.232  34.922  1.00  0.00     0.074 A 
ATOM     59  C   UNL A   1      38.337  34.205  34.777  1.00  0.00     0.031 C 
ATOM     60  C   UNL A   1      40.238  33.171  35.988  1.00  0.00     0.037 A 
BRANCH  47  61
ATOM     61  C   UNL A   1      44.401  28.606  35.665  1.00  0.00     0.058 A 
ATOM     62  C   UNL A   1      44.170  27.537  36.545  1.00  0.00     0.135 A 
ATOM     63  C   UNL A   1      45.736  28.948  35.391  1.00  0.00     0.135 A 
ATOM     64  F   UNL A   1      42.914  27.175  36.856  1.00  0.00    -0.206 F 
ATOM     65  C   UNL A   1      45.218  26.856  37.157  1.00  0.00     0.059 A 
ATOM     66  C   UNL A   1      46.801  28.261  35.967  1.00  0.00     0.059 A 
ATOM     67  F   UNL A   1      46.017  29.961  34.556  1.00  0.00    -0.206 F 
ATOM     68  C   UNL A   1      46.530  27.226  36.861  1.00  0.00     0.060 A 
BRANCH  68  69
ATOM     69  S   UNL A   1      47.878  26.329  37.661  1.00  0.00     0.124 S 
ATOM     70  O   UNL A   1      48.604  25.807  36.507  1.00  0.00    -0.237 OA
ATOM     71  O   UNL A   1      48.554  27.385  38.409  1.00  0.00    -0.237 OA
ATOM     72  O   UNL A   1      47.190  25.331  38.473  1.00  0.00    -0.744 OA
ENDBRANCH  68  69
ENDBRANCH  47  61
BRANCH  48  73
ATOM     73  C   UNL A   1      36.757  33.078  31.028  1.00  0.00     0.058 A 
ATOM     74  C   UNL A   1      36.951  33.967  29.960  1.00  0.00     0.135 A 
ATOM     75  C   UNL A   1      35.436  32.825  31.434  1.00  0.00     0.135 A 
ATOM     76  F   UNL A   1      38.193  34.247  29.539  1.00  0.00    -0.206 F 
ATOM     77  C   UNL A   1      35.882  34.600  29.332  1.00  0.00     0.059 A 
ATOM     78  C   UNL A   1      34.350  33.424  30.803  1.00  0.00     0.059 A 
ATOM     79  F   UNL A   1      35.193  31.970  32.438  1.00  0.00    -0.206 F 
ATOM     80  C   UNL A   1      34.584  34.319  29.761  1.00  0.00     0.060 A 
BRANCH  80  81
ATOM     81  S   UNL A   1      33.202  35.113  28.910  1.00  0.00     0.124 S 
ATOM     82  O   UNL A   1      33.850  36.277  28.318  1.00  0.00    -0.237 OA
ATOM     83  O   UNL A   1      32.778  34.073  27.978  1.00  0.00    -0.237 OA
ATOM     84  O   UNL A   1      32.262  35.395  29.991  1.00  0.00    -0.744 OA
ENDBRANCH  80  81
ENDBRANCH  48  73
BRANCH  60  85
ATOM     85  C   UNL A   1      40.078  34.216  37.059  1.00  0.00     0.058 A 
ATOM     86  C   UNL A   1      39.238  34.023  38.166  1.00  0.00     0.135 A 
ATOM     87  C   UNL A   1      40.816  35.410  36.998  1.00  0.00     0.135 A 
ATOM     88  F   UNL A   1      38.506  32.902  38.274  1.00  0.00    -0.206 F 
ATOM     89  C   UNL A   1      39.110  34.991  39.159  1.00  0.00     0.059 A 
ATOM     90  C   UNL A   1      40.728  36.376  37.994  1.00  0.00     0.059 A 
ATOM     91  F   UNL A   1      41.645  35.639  35.967  1.00  0.00    -0.206 F 
ATOM     92  C   UNL A   1      39.861  36.164  39.064  1.00  0.00     0.060 A 
BRANCH  92  93
ATOM     93  S   UNL A   1      39.706  37.400  40.371  1.00  0.00     0.124 S 
ATOM     94  O   UNL A   1      40.139  36.646  41.542  1.00  0.00    -0.237 OA
ATOM     95  O   UNL A   1      40.616  38.448  39.918  1.00  0.00    -0.237 OA
ATOM     96  O   UNL A   1      38.289  37.752  40.339  1.00  0.00    -0.744 OA
ENDBRANCH  92  93
ENDBRANCH  60  85
ENDBRANCH  34  35
ENDBRANCH  26  29
ENDBRANCH  24  25
ENDBRANCH  23  24
ENDBRANCH   1  23
TORSDOF 18
ENDMDL
MODEL 2
REMARK VINA RESULT:     -11.2      2.996      9.084
REMARK SMILES O=C(CSC(=S)NC(=O)c1ccc([N+](=O)[O-])cc1)NCCCNC(=O)c1ccc(-c2c3nc(c(-c4c(F)cc(S(=O)(=O)[O-])cc4F)c4ccc([nH]4)c(-c4c(F)cc(S(=O)(=O)[O-])cc4F)c4nc(c(-c5c(F)cc(S(=O)(=O)[O-])cc5F)c5ccc2[nH]5)C=C4)C=C3)cc1
REMARK SMILES IDX 20 1 19 2 1 3 2 4 3 6 4 7 5 8 6 9 7 10 8 11 9 13 10 14 11 15
REMARK SMILES IDX 18 16 12 17 17 18 13 19 14 20 15 21 16 22 21 23 22 24 23 25
REMARK SMILES IDX 24 26 25 28 26 29 27 30 91 31 28 32 90 33 29 34 30 35 31 36
REMARK SMILES IDX 84 37 32 38 89 39 83 40 85 41 33 42 88 43 82 44 81 45 34 47
REMARK SMILES IDX 68 48 47 49 67 50 48 51 51 52 66 53 86 54 49 55 50 56 65 58
REMARK SMILES IDX 87 59 52 60 35 61 36 62 45 63 37 64 38 65 44 66 46 67 39 68
REMARK SMILES IDX 40 69 41 70 42 71 43 72 69 73 70 74 79 75 71 76 72 77 78 78
REMARK SMILES IDX 80 79 73 80 74 81 75 82 76 83 77 84 53 85 54 86 63 87 55 88
REMARK SMILES IDX 56 89 62 90 64 91 57 92 58 93 59 94 60 95 61 96
REMARK H PARENT 19 5 7 12 23 27 85 46 51 57
REMARK Flexibility Score: inf
ROOT
ATOM      1  C   UNL A   1      33.287  26.397  25.531  1.00  0.00     0.117 C 
ENDROOT
BRANCH   1   2
ATOM      2  N   UNL A   1      32.918  25.213  26.271  1.00  0.00    -0.355 N 
ATOM      3  O   UNL A   1      31.340  24.406  24.808  1.00  0.00    -0.274 OA
ATOM      4  C   UNL A   1      32.023  24.268  25.819  1.00  0.00     0.230 C 
ATOM      5  H   UNL A   1      33.332  25.072  27.154  1.00  0.00     0.163 HD
BRANCH   4   6
ATOM      6  C   UNL A   1      31.881  23.056  26.729  1.00  0.00     0.177 C 
BRANCH   6   7
ATOM      7  S   UNL A   1      33.468  22.194  26.940  1.00  0.00    -0.087 SA
BRANCH   7   8
ATOM      8  C   UNL A   1      33.947  21.723  25.328  1.00  0.00     0.141 C 
ATOM      9  S   UNL A   1      35.503  21.384  24.817  1.00  0.00    -0.052 S 
BRANCH   8  10
ATOM     10  N   UNL A   1      32.921  21.503  24.403  1.00  0.00    -0.307 N 
ATOM     11  C   UNL A   1      32.452  20.449  23.613  1.00  0.00     0.256 C 
ATOM     12  H   UNL A   1      32.380  22.315  24.272  1.00  0.00     0.171 HD
ATOM     13  O   UNL A   1      31.828  20.676  22.581  1.00  0.00    -0.269 OA
BRANCH  11  14
ATOM     14  C   UNL A   1      32.721  19.054  24.008  1.00  0.00     0.040 A 
ATOM     15  C   UNL A   1      33.135  18.141  23.029  1.00  0.00     0.021 A 
ATOM     16  C   UNL A   1      32.602  18.663  25.349  1.00  0.00     0.021 A 
ATOM     17  C   UNL A   1      33.528  16.854  23.407  1.00  0.00     0.086 A 
ATOM     18  C   UNL A   1      33.009  17.383  25.732  1.00  0.00     0.086 A 
ATOM     19  C   UNL A   1      33.491  16.493  24.761  1.00  0.00     0.269 A 
BRANCH  19  20
ATOM     20  N   UNL A   1      33.993  15.179  25.177  1.00  0.00     0.062 N 
ATOM     21  O   UNL A   1      35.219  15.040  25.282  1.00  0.00    -0.258 OA
ATOM     22  O   UNL A   1      33.156  14.294  25.404  1.00  0.00    -0.258 OA
ENDBRANCH  19  20
ENDBRANCH  11  14
ENDBRANCH   8  10
ENDBRANCH   7   8
ENDBRANCH   6   7
ENDBRANCH   4   6
ENDBRANCH   1   2
BRANCH   1  23
ATOM     23  C   UNL A   1      33.295  27.649  26.398  1.00  0.00     0.042 C 
BRANCH  23  24
ATOM     24  C   UNL A   1      34.105  28.814  25.835  1.00  0.00     0.118 C 
BRANCH  24  25
ATOM     25  N   UNL A   1      33.712  30.108  26.371  1.00  0.00    -0.352 N 
ATOM     26  C   UNL A   1      34.256  30.850  27.392  1.00  0.00     0.251 C 
ATOM     27  H   UNL A   1      32.930  30.517  25.934  1.00  0.00     0.163 HD
ATOM     28  O   UNL A   1      33.671  31.864  27.768  1.00  0.00    -0.269 OA
BRANCH  26  29
ATOM     29  C   UNL A   1      35.515  30.435  28.054  1.00  0.00     0.039 A 
ATOM     30  C   UNL A   1      36.709  31.052  27.669  1.00  0.00     0.014 A 
ATOM     31  C   UNL A   1      35.538  29.424  29.018  1.00  0.00     0.014 A 
ATOM     32  C   UNL A   1      37.912  30.693  28.288  1.00  0.00     0.010 A 
ATOM     33  C   UNL A   1      36.722  29.129  29.693  1.00  0.00     0.010 A 
ATOM     34  C   UNL A   1      37.926  29.748  29.326  1.00  0.00    -0.014 A 
BRANCH  34  35
ATOM     35  C   UNL A   1      39.194  29.374  30.010  1.00  0.00     0.031 A 
ATOM     36  C   UNL A   1      39.629  30.107  31.253  1.00  0.00     0.074 A 
ATOM     37  C   UNL A   1      39.976  28.404  29.494  1.00  0.00     0.049 A 
ATOM     38  N   UNL A   1      40.716  29.953  31.966  1.00  0.00    -0.248 NA
ATOM     39  C   UNL A   1      38.739  31.172  31.744  1.00  0.00     0.031 C 
ATOM     40  C   UNL A   1      39.693  27.649  28.270  1.00  0.00     0.029 A 
ATOM     41  N   UNL A   1      41.171  27.888  29.930  1.00  0.00    -0.354 N 
ATOM     42  C   UNL A   1      40.646  30.905  32.977  1.00  0.00     0.074 A 
ATOM     43  C   UNL A   1      39.440  31.672  32.750  1.00  0.00     0.031 C 
ATOM     44  C   UNL A   1      40.671  26.751  28.070  1.00  0.00     0.029 A 
ATOM     45  C   UNL A   1      41.669  26.888  29.126  1.00  0.00     0.049 A 
ATOM     46  H   UNL A   1      41.630  28.204  30.742  1.00  0.00     0.167 HD
ATOM     47  C   UNL A   1      41.490  31.106  34.017  1.00  0.00     0.037 A 
ATOM     48  C   UNL A   1      42.802  26.165  29.228  1.00  0.00     0.037 A 
ATOM     49  C   UNL A   1      42.675  30.323  34.256  1.00  0.00     0.049 A 
ATOM     50  C   UNL A   1      43.725  26.404  30.393  1.00  0.00     0.074 A 
ATOM     51  C   UNL A   1      43.569  30.414  35.309  1.00  0.00     0.029 A 
ATOM     52  N   UNL A   1      43.132  29.305  33.432  1.00  0.00    -0.354 N 
ATOM     53  N   UNL A   1      43.611  27.267  31.373  1.00  0.00    -0.248 NA
ATOM     54  C   UNL A   1      44.926  25.561  30.474  1.00  0.00     0.031 C 
ATOM     55  C   UNL A   1      44.591  29.483  35.097  1.00  0.00     0.029 A 
ATOM     56  C   UNL A   1      44.304  28.772  33.943  1.00  0.00     0.049 A 
ATOM     57  H   UNL A   1      42.689  29.006  32.605  1.00  0.00     0.167 HD
ATOM     58  C   UNL A   1      44.703  27.048  32.206  1.00  0.00     0.074 A 
ATOM     59  C   UNL A   1      45.463  25.964  31.617  1.00  0.00     0.031 C 
ATOM     60  C   UNL A   1      45.044  27.682  33.355  1.00  0.00     0.037 A 
BRANCH  47  61
ATOM     61  C   UNL A   1      41.159  32.215  34.981  1.00  0.00     0.058 A 
ATOM     62  C   UNL A   1      40.285  32.017  36.061  1.00  0.00     0.135 A 
ATOM     63  C   UNL A   1      41.750  33.482  34.843  1.00  0.00     0.135 A 
ATOM     64  F   UNL A   1      39.679  30.831  36.234  1.00  0.00    -0.206 F 
ATOM     65  C   UNL A   1      39.980  33.043  36.951  1.00  0.00     0.059 A 
ATOM     66  C   UNL A   1      41.485  34.514  35.739  1.00  0.00     0.059 A 
ATOM     67  F   UNL A   1      42.596  33.728  33.830  1.00  0.00    -0.206 F 
ATOM     68  C   UNL A   1      40.585  34.289  36.780  1.00  0.00     0.060 A 
BRANCH  68  69
ATOM     69  S   UNL A   1      40.181  35.608  37.945  1.00  0.00     0.124 S 
ATOM     70  O   UNL A   1      39.017  35.048  38.625  1.00  0.00    -0.237 OA
ATOM     71  O   UNL A   1      41.398  35.701  38.745  1.00  0.00    -0.237 OA
ATOM     72  O   UNL A   1      39.912  36.754  37.083  1.00  0.00    -0.744 OA
ENDBRANCH  68  69
ENDBRANCH  47  61
BRANCH  48  73
ATOM     73  C   UNL A   1      43.114  25.123  28.211  1.00  0.00     0.058 A 
ATOM     74  C   UNL A   1      42.844  23.768  28.457  1.00  0.00     0.135 A 
ATOM     75  C   UNL A   1      43.682  25.460  26.971  1.00  0.00     0.135 A 
ATOM     76  F   UNL A   1      42.308  23.394  29.629  1.00  0.00    -0.206 F 
ATOM     77  C   UNL A   1      43.144  22.781  27.523  1.00  0.00     0.059 A 
ATOM     78  C   UNL A   1      43.965  24.494  26.011  1.00  0.00     0.059 A 
ATOM     79  F   UNL A   1      43.944  26.742  26.679  1.00  0.00    -0.206 F 
ATOM     80  C   UNL A   1      43.703  23.156  26.300  1.00  0.00     0.060 A 
BRANCH  80  81
ATOM     81  S   UNL A   1      44.049  21.872  25.077  1.00  0.00     0.124 S 
ATOM     82  O   UNL A   1      43.844  22.594  23.827  1.00  0.00    -0.237 OA
ATOM     83  O   UNL A   1      45.429  21.515  25.392  1.00  0.00    -0.237 OA
ATOM     84  O   UNL A   1      43.058  20.844  25.383  1.00  0.00    -0.744 OA
ENDBRANCH  80  81
ENDBRANCH  48  73
BRANCH  60  85
ATOM     85  C   UNL A   1      46.264  27.190  34.086  1.00  0.00     0.058 A 
ATOM     86  C   UNL A   1      46.198  26.156  35.033  1.00  0.00     0.135 A 
ATOM     87  C   UNL A   1      47.528  27.732  33.797  1.00  0.00     0.135 A 
ATOM     88  F   UNL A   1      45.016  25.604  35.351  1.00  0.00    -0.206 F 
ATOM     89  C   UNL A   1      47.336  25.699  35.691  1.00  0.00     0.059 A 
ATOM     90  C   UNL A   1      48.682  27.270  34.418  1.00  0.00     0.059 A 
ATOM     91  F   UNL A   1      47.650  28.714  32.889  1.00  0.00    -0.206 F 
ATOM     92  C   UNL A   1      48.575  26.262  35.375  1.00  0.00     0.060 A 
BRANCH  92  93
ATOM     93  S   UNL A   1      50.047  25.643  36.217  1.00  0.00     0.124 S 
ATOM     94  O   UNL A   1      50.936  26.798  36.142  1.00  0.00    -0.237 OA
ATOM     95  O   UNL A   1      49.535  25.323  37.546  1.00  0.00    -0.237 OA
ATOM     96  O   UNL A   1      50.442  24.494  35.410  1.00  0.00    -0.744 OA
ENDBRANCH  92  93
ENDBRANCH  60  85
ENDBRANCH  34  35
ENDBRANCH  26  29
ENDBRANCH  24  25
ENDBRANCH  23  24
ENDBRANCH   1  23
TORSDOF 18
ENDMDL
MODEL 3
REMARK VINA RESULT:     -11.2      2.114      3.650
REMARK SMILES O=C(CSC(=S)NC(=O)c1ccc([N+](=O)[O-])cc1)NCCCNC(=O)c1ccc(-c2c3nc(c(-c4c(F)cc(S(=O)(=O)[O-])cc4F)c4ccc([nH]4)c(-c4c(F)cc(S(=O)(=O)[O-])cc4F)c4nc(c(-c5c(F)cc(S(=O)(=O)[O-])cc5F)c5ccc2[nH]5)C=C4)C=C3)cc1
REMARK SMILES IDX 20 1 19 2 1 3 2 4 3 6 4 7 5 8 6 9 7 10 8 11 9 13 10 14 11 15
REMARK SMILES IDX 18 16 12 17 17 18 13 19 14 20 15 21 16 22 21 23 22 24 23 25
REMARK SMILES IDX 24 26 25 28 26 29 27 30 91 31 28 32 90 33 29 34 30 35 31 36
REMARK SMILES IDX 84 37 32 38 89 39 83 40 85 41 33 42 88 43 82 44 81 45 34 47
REMARK SMILES IDX 68 48 47 49 67 50 48 51 51 52 66 53 86 54 49 55 50 56 65 58
REMARK SMILES IDX 87 59 52 60 35 61 36 62 45 63 37 64 38 65 44 66 46 67 39 68
REMARK SMILES IDX 40 69 41 70 42 71 43 72 69 73 70 74 79 75 71 76 72 77 78 78
REMARK SMILES IDX 80 79 73 80 74 81 75 82 76 83 77 84 53 85 54 86 63 87 55 88
REMARK SMILES IDX 56 89 62 90 64 91 57 92 58 93 59 94 60 95 61 96
REMARK H PARENT 19 5 7 12 23 27 85 46 51 57
REMARK Flexibility Score: inf
ROOT
ATOM      1  C   UNL A   1      38.855  22.997  26.198  1.00  0.00     0.117 C 
ENDROOT
BRANCH   1   2
ATOM      2  N   UNL A   1      37.633  22.227  26.193  1.00  0.00    -0.355 N 
ATOM      3  O   UNL A   1      36.613  23.266  24.413  1.00  0.00    -0.274 OA
ATOM      4  C   UNL A   1      36.634  22.371  25.254  1.00  0.00     0.230 C 
ATOM      5  H   UNL A   1      37.506  21.557  26.903  1.00  0.00     0.163 HD
BRANCH   4   6
ATOM      6  C   UNL A   1      35.495  21.372  25.397  1.00  0.00     0.177 C 
BRANCH   6   7
ATOM      7  S   UNL A   1      34.196  22.000  26.505  1.00  0.00    -0.087 SA
BRANCH   7   8
ATOM      8  C   UNL A   1      32.692  21.588  25.720  1.00  0.00     0.141 C 
ATOM      9  S   UNL A   1      32.522  20.727  24.296  1.00  0.00    -0.052 S 
BRANCH   8  10
ATOM     10  N   UNL A   1      31.514  21.913  26.400  1.00  0.00    -0.307 N 
ATOM     11  C   UNL A   1      30.710  23.041  26.593  1.00  0.00     0.256 C 
ATOM     12  H   UNL A   1      31.150  21.131  26.874  1.00  0.00     0.171 HD
ATOM     13  O   UNL A   1      30.000  23.134  27.590  1.00  0.00    -0.269 OA
BRANCH  11  14
ATOM     14  C   UNL A   1      30.725  24.135  25.606  1.00  0.00     0.040 A 
ATOM     15  C   UNL A   1      30.623  23.821  24.244  1.00  0.00     0.021 A 
ATOM     16  C   UNL A   1      30.798  25.469  26.029  1.00  0.00     0.021 A 
ATOM     17  C   UNL A   1      30.494  24.848  23.305  1.00  0.00     0.086 A 
ATOM     18  C   UNL A   1      30.654  26.498  25.096  1.00  0.00     0.086 A 
ATOM     19  C   UNL A   1      30.479  26.180  23.740  1.00  0.00     0.269 A 
BRANCH  19  20
ATOM     20  N   UNL A   1      30.247  27.259  22.774  1.00  0.00     0.062 N 
ATOM     21  O   UNL A   1      31.019  27.342  21.809  1.00  0.00    -0.258 OA
ATOM     22  O   UNL A   1      29.288  28.015  22.984  1.00  0.00    -0.258 OA
ENDBRANCH  19  20
ENDBRANCH  11  14
ENDBRANCH   8  10
ENDBRANCH   7   8
ENDBRANCH   6   7
ENDBRANCH   4   6
ENDBRANCH   1   2
BRANCH   1  23
ATOM     23  C   UNL A   1      40.055  22.186  26.667  1.00  0.00     0.042 C 
BRANCH  23  24
ATOM     24  C   UNL A   1      41.264  23.016  27.089  1.00  0.00     0.118 C 
BRANCH  24  25
ATOM     25  N   UNL A   1      41.811  23.833  26.017  1.00  0.00    -0.352 N 
ATOM     26  C   UNL A   1      42.007  25.192  25.945  1.00  0.00     0.251 C 
ATOM     27  H   UNL A   1      42.084  23.334  25.214  1.00  0.00     0.163 HD
ATOM     28  O   UNL A   1      42.361  25.687  24.877  1.00  0.00    -0.269 OA
BRANCH  26  29
ATOM     29  C   UNL A   1      41.776  26.062  27.122  1.00  0.00     0.039 A 
ATOM     30  C   UNL A   1      42.632  27.147  27.332  1.00  0.00     0.014 A 
ATOM     31  C   UNL A   1      40.753  25.801  28.038  1.00  0.00     0.014 A 
ATOM     32  C   UNL A   1      42.429  27.997  28.425  1.00  0.00     0.010 A 
ATOM     33  C   UNL A   1      40.500  26.696  29.077  1.00  0.00     0.010 A 
ATOM     34  C   UNL A   1      41.344  27.796  29.293  1.00  0.00    -0.014 A 
BRANCH  34  35
ATOM     35  C   UNL A   1      41.102  28.705  30.446  1.00  0.00     0.031 A 
ATOM     36  C   UNL A   1      41.940  28.586  31.693  1.00  0.00     0.074 A 
ATOM     37  C   UNL A   1      40.104  29.610  30.392  1.00  0.00     0.049 A 
ATOM     38  N   UNL A   1      41.856  29.258  32.813  1.00  0.00    -0.248 NA
ATOM     39  C   UNL A   1      42.994  27.558  31.691  1.00  0.00     0.031 C 
ATOM     40  C   UNL A   1      39.189  29.796  29.262  1.00  0.00     0.029 A 
ATOM     41  N   UNL A   1      39.687  30.543  31.309  1.00  0.00    -0.354 N 
ATOM     42  C   UNL A   1      42.833  28.728  33.649  1.00  0.00     0.074 A 
ATOM     43  C   UNL A   1      43.456  27.638  32.930  1.00  0.00     0.031 C 
ATOM     44  C   UNL A   1      38.339  30.796  29.543  1.00  0.00     0.029 A 
ATOM     45  C   UNL A   1      38.620  31.300  30.884  1.00  0.00     0.049 A 
ATOM     46  H   UNL A   1      40.111  30.658  32.191  1.00  0.00     0.167 HD
ATOM     47  C   UNL A   1      43.200  29.128  34.890  1.00  0.00     0.037 A 
ATOM     48  C   UNL A   1      37.944  32.288  31.504  1.00  0.00     0.037 A 
ATOM     49  C   UNL A   1      42.596  30.231  35.593  1.00  0.00     0.049 A 
ATOM     50  C   UNL A   1      38.371  32.718  32.883  1.00  0.00     0.074 A 
ATOM     51  C   UNL A   1      42.929  30.747  36.833  1.00  0.00     0.029 A 
ATOM     52  N   UNL A   1      41.534  30.986  35.118  1.00  0.00    -0.354 N 
ATOM     53  N   UNL A   1      39.336  32.245  33.633  1.00  0.00    -0.248 NA
ATOM     54  C   UNL A   1      37.622  33.824  33.496  1.00  0.00     0.031 C 
ATOM     55  C   UNL A   1      42.039  31.785  37.129  1.00  0.00     0.029 A 
ATOM     56  C   UNL A   1      41.189  31.954  36.048  1.00  0.00     0.049 A 
ATOM     57  H   UNL A   1      41.090  30.856  34.249  1.00  0.00     0.167 HD
ATOM     58  C   UNL A   1      39.336  33.019  34.789  1.00  0.00     0.074 A 
ATOM     59  C   UNL A   1      38.277  33.996  34.635  1.00  0.00     0.031 C 
ATOM     60  C   UNL A   1      40.141  32.931  35.877  1.00  0.00     0.037 A 
BRANCH  47  61
ATOM     61  C   UNL A   1      44.312  28.371  35.568  1.00  0.00     0.058 A 
ATOM     62  C   UNL A   1      44.052  27.311  36.450  1.00  0.00     0.135 A 
ATOM     63  C   UNL A   1      45.655  28.689  35.308  1.00  0.00     0.135 A 
ATOM     64  F   UNL A   1      42.786  26.972  36.748  1.00  0.00    -0.206 F 
ATOM     65  C   UNL A   1      45.081  26.614  37.076  1.00  0.00     0.059 A 
ATOM     66  C   UNL A   1      46.701  27.986  35.898  1.00  0.00     0.059 A 
ATOM     67  F   UNL A   1      45.963  29.694  34.472  1.00  0.00    -0.206 F 
ATOM     68  C   UNL A   1      46.402  26.960  36.794  1.00  0.00     0.060 A 
BRANCH  68  69
ATOM     69  S   UNL A   1      47.726  26.043  37.612  1.00  0.00     0.124 S 
ATOM     70  O   UNL A   1      47.842  24.870  36.750  1.00  0.00    -0.237 OA
ATOM     71  O   UNL A   1      48.839  26.985  37.553  1.00  0.00    -0.237 OA
ATOM     72  O   UNL A   1      47.192  25.790  38.946  1.00  0.00    -0.744 OA
ENDBRANCH  68  69
ENDBRANCH  47  61
BRANCH  48  73
ATOM     73  C   UNL A   1      36.810  32.962  30.814  1.00  0.00     0.058 A 
ATOM     74  C   UNL A   1      35.481  32.681  31.164  1.00  0.00     0.135 A 
ATOM     75  C   UNL A   1      37.031  33.903  29.795  1.00  0.00     0.135 A 
ATOM     76  F   UNL A   1      35.216  31.785  32.126  1.00  0.00    -0.206 F 
ATOM     77  C   UNL A   1      34.410  33.291  30.516  1.00  0.00     0.059 A 
ATOM     78  C   UNL A   1      35.979  34.546  29.152  1.00  0.00     0.059 A 
ATOM     79  F   UNL A   1      38.284  34.220  29.433  1.00  0.00    -0.206 F 
ATOM     80  C   UNL A   1      34.671  34.225  29.512  1.00  0.00     0.060 A 
BRANCH  80  81
ATOM     81  S   UNL A   1      33.275  35.043  28.708  1.00  0.00     0.124 S 
ATOM     82  O   UNL A   1      32.477  35.459  29.856  1.00  0.00    -0.237 OA
ATOM     83  O   UNL A   1      33.934  36.113  27.966  1.00  0.00    -0.237 OA
ATOM     84  O   UNL A   1      32.696  33.984  27.887  1.00  0.00    -0.744 OA
ENDBRANCH  80  81
ENDBRANCH  48  73
BRANCH  60  85
ATOM     85  C   UNL A   1      39.949  33.950  36.968  1.00  0.00     0.058 A 
ATOM     86  C   UNL A   1      40.576  35.205  36.934  1.00  0.00     0.135 A 
ATOM     87  C   UNL A   1      39.084  33.680  38.042  1.00  0.00     0.135 A 
ATOM     88  F   UNL A   1      41.416  35.515  35.933  1.00  0.00    -0.206 F 
ATOM     89  C   UNL A   1      40.378  36.144  37.941  1.00  0.00     0.059 A 
ATOM     90  C   UNL A   1      38.847  34.615  39.043  1.00  0.00     0.059 A 
ATOM     91  F   UNL A   1      38.448  32.500  38.117  1.00  0.00    -0.206 F 
ATOM     92  C   UNL A   1      39.510  35.840  38.992  1.00  0.00     0.060 A 
BRANCH  92  93
ATOM     93  S   UNL A   1      39.242  37.077  40.280  1.00  0.00     0.124 S 
ATOM     94  O   UNL A   1      40.609  37.359  40.706  1.00  0.00    -0.237 OA
ATOM     95  O   UNL A   1      38.571  38.147  39.550  1.00  0.00    -0.237 OA
ATOM     96  O   UNL A   1      38.413  36.376  41.256  1.00  0.00    -0.744 OA
ENDBRANCH  92  93
ENDBRANCH  60  85
ENDBRANCH  34  35
ENDBRANCH  26  29
ENDBRANCH  24  25
ENDBRANCH  23  24
ENDBRANCH   1  23
TORSDOF 18
ENDMDL
