MODEL 1
REMARK VINA RESULT:     -11.8      0.000      0.000
REMARK SMILES Cc1cnc(C)c(N2CCC[C@@](CC3CC3)(C(=O)NCCCNC(=O)c3ccc(-c4c5nc(c(-c6c(F)cc(S(=O)(=O)[O-])cc6F)c6ccc([nH]6)c(-c6c(F)cc(S(=O)(=O)[O-])cc6F)c6nc(c(-c7c(F)cc(S(=O)(=O)[O-])cc7F)c7ccc4[nH]7)C=C6)C=C5)cc3)C2)n1
REMARK SMILES IDX 21 1 20 2 19 3 17 4 18 5 12 7 8 8 9 9 92 10 10 11 11 12 7 13
REMARK SMILES IDX 1 14 2 15 3 16 93 17 4 18 5 19 6 20 13 21 14 22 15 23 16 24
REMARK SMILES IDX 22 25 23 26 24 27 25 29 26 30 27 31 91 32 28 33 90 34 29 35
REMARK SMILES IDX 30 36 31 37 84 38 32 39 89 40 83 41 85 42 33 43 88 44 82 45
REMARK SMILES IDX 81 46 34 48 68 49 47 50 67 51 48 52 51 53 66 54 86 55 49 56
REMARK SMILES IDX 50 57 65 59 87 60 52 61 35 62 36 63 45 64 37 65 38 66 44 67
REMARK SMILES IDX 46 68 39 69 40 70 41 71 42 72 43 73 69 74 70 75 79 76 71 77
REMARK SMILES IDX 72 78 78 79 80 80 73 81 74 82 75 83 76 84 77 85 53 86 54 87
REMARK SMILES IDX 63 88 55 89 56 90 62 91 64 92 57 93 58 94 59 95 60 96 61 97
REMARK H PARENT 19 6 23 28 85 47 51 58
REMARK Flexibility Score: inf
ROOT
ATOM      1  C   UNL A   1      31.792  32.176  26.762  1.00  0.00     0.042 C 
ENDROOT
BRANCH   1   2
ATOM      2  C   UNL A   1      31.753  30.668  26.876  1.00  0.00     0.117 C 
BRANCH   2   3
ATOM      3  N   UNL A   1      32.969  30.045  27.297  1.00  0.00    -0.355 N 
ATOM      4  C   UNL A   1      33.559  28.963  26.715  1.00  0.00     0.228 C 
ATOM      5  O   UNL A   1      34.781  28.882  26.873  1.00  0.00    -0.274 OA
ATOM      6  H   UNL A   1      33.422  30.433  28.081  1.00  0.00     0.163 HD
BRANCH   4   7
ATOM      7  C   UNL A   1      32.748  27.904  25.900  1.00  0.00     0.067 C 
ATOM      8  N   UNL A   1      33.041  25.520  25.336  1.00  0.00    -0.354 N 
ATOM      9  C   UNL A   1      31.962  24.999  26.155  1.00  0.00     0.118 C 
ATOM     10  C   UNL A   1      33.734  26.679  25.893  1.00  0.00     0.135 C 
ATOM     11  C   UNL A   1      30.901  26.094  26.256  1.00  0.00     0.023 C 
ATOM     12  C   UNL A   1      31.486  27.448  26.683  1.00  0.00     0.020 C 
BRANCH   8  13
ATOM     13  C   UNL A   1      33.817  24.629  24.616  1.00  0.00     0.150 A 
ATOM     14  C   UNL A   1      36.906  22.698  25.130  1.00  0.00     0.068 C 
ATOM     15  C   UNL A   1      35.704  23.299  24.472  1.00  0.00     0.058 A 
ATOM     16  C   UNL A   1      35.461  23.094  23.124  1.00  0.00     0.135 A 
ATOM     17  N   UNL A   1      34.886  24.068  25.229  1.00  0.00    -0.233 NA
ATOM     18  N   UNL A   1      34.400  23.624  22.483  1.00  0.00    -0.256 NA
ATOM     19  C   UNL A   1      33.577  24.396  23.247  1.00  0.00     0.080 A 
ATOM     20  C   UNL A   1      32.498  25.123  22.499  1.00  0.00     0.071 C 
ENDBRANCH   8  13
BRANCH   7  21
ATOM     21  C   UNL A   1      32.591  28.342  24.402  1.00  0.00     0.022 C 
BRANCH  21  22
ATOM     22  C   UNL A   1      31.364  28.974  23.770  1.00  0.00    -0.010 C 
ATOM     23  C   UNL A   1      30.769  28.966  22.375  1.00  0.00     0.004 C 
ATOM     24  C   UNL A   1      30.253  28.004  23.398  1.00  0.00     0.004 C 
ENDBRANCH  21  22
ENDBRANCH   7  21
ENDBRANCH   4   7
ENDBRANCH   2   3
ENDBRANCH   1   2
BRANCH   1  25
ATOM     25  C   UNL A   1      32.878  32.799  27.620  1.00  0.00     0.118 C 
BRANCH  25  26
ATOM     26  N   UNL A   1      32.640  34.208  27.933  1.00  0.00    -0.352 N 
ATOM     27  C   UNL A   1      33.271  35.050  28.813  1.00  0.00     0.251 C 
ATOM     28  H   UNL A   1      31.903  34.621  27.428  1.00  0.00     0.163 HD
ATOM     29  O   UNL A   1      32.847  36.196  28.955  1.00  0.00    -0.269 OA
BRANCH  27  30
ATOM     30  C   UNL A   1      34.411  34.572  29.618  1.00  0.00     0.039 A 
ATOM     31  C   UNL A   1      34.163  34.050  30.891  1.00  0.00     0.014 A 
ATOM     32  C   UNL A   1      35.712  34.594  29.113  1.00  0.00     0.014 A 
ATOM     33  C   UNL A   1      35.207  33.472  31.612  1.00  0.00     0.010 A 
ATOM     34  C   UNL A   1      36.718  33.905  29.772  1.00  0.00     0.010 A 
ATOM     35  C   UNL A   1      36.480  33.344  31.034  1.00  0.00    -0.014 A 
BRANCH  35  36
ATOM     36  C   UNL A   1      37.577  32.631  31.732  1.00  0.00     0.031 A 
ATOM     37  C   UNL A   1      38.073  33.132  33.063  1.00  0.00     0.074 A 
ATOM     38  C   UNL A   1      38.174  31.584  31.127  1.00  0.00     0.049 A 
ATOM     39  N   UNL A   1      39.061  32.686  33.794  1.00  0.00    -0.248 NA
ATOM     40  C   UNL A   1      37.401  34.315  33.630  1.00  0.00     0.031 C 
ATOM     41  C   UNL A   1      37.842  31.069  29.794  1.00  0.00     0.029 A 
ATOM     42  N   UNL A   1      39.192  30.766  31.548  1.00  0.00    -0.354 N 
ATOM     43  C   UNL A   1      39.146  33.547  34.883  1.00  0.00     0.074 A 
ATOM     44  C   UNL A   1      38.151  34.576  34.689  1.00  0.00     0.031 C 
ATOM     45  C   UNL A   1      38.615  30.004  29.526  1.00  0.00     0.029 A 
ATOM     46  C   UNL A   1      39.520  29.781  30.647  1.00  0.00     0.049 A 
ATOM     47  H   UNL A   1      39.645  30.874  32.415  1.00  0.00     0.167 HD
ATOM     48  C   UNL A   1      39.956  33.466  35.963  1.00  0.00     0.037 A 
ATOM     49  C   UNL A   1      40.447  28.806  30.718  1.00  0.00     0.037 A 
ATOM     50  C   UNL A   1      40.896  32.398  36.175  1.00  0.00     0.049 A 
ATOM     51  C   UNL A   1      41.285  28.697  31.962  1.00  0.00     0.074 A 
ATOM     52  C   UNL A   1      41.695  32.163  37.280  1.00  0.00     0.029 A 
ATOM     53  N   UNL A   1      41.157  31.382  35.269  1.00  0.00    -0.354 N 
ATOM     54  N   UNL A   1      41.286  29.469  33.024  1.00  0.00    -0.248 NA
ATOM     55  C   UNL A   1      42.237  27.582  32.026  1.00  0.00     0.031 C 
ATOM     56  C   UNL A   1      42.468  31.025  37.024  1.00  0.00     0.029 A 
ATOM     57  C   UNL A   1      42.117  30.526  35.780  1.00  0.00     0.049 A 
ATOM     58  H   UNL A   1      40.723  31.283  34.390  1.00  0.00     0.167 HD
ATOM     59  C   UNL A   1      42.224  28.919  33.890  1.00  0.00     0.074 A 
ATOM     60  C   UNL A   1      42.750  27.737  33.238  1.00  0.00     0.031 C 
ATOM     61  C   UNL A   1      42.621  29.353  35.112  1.00  0.00     0.037 A 
BRANCH  48  62
ATOM     62  C   UNL A   1      39.846  34.537  37.011  1.00  0.00     0.058 A 
ATOM     63  C   UNL A   1      40.534  35.756  36.895  1.00  0.00     0.135 A 
ATOM     64  C   UNL A   1      38.996  34.369  38.116  1.00  0.00     0.135 A 
ATOM     65  F   UNL A   1      41.378  35.962  35.870  1.00  0.00    -0.206 F 
ATOM     66  C   UNL A   1      40.395  36.764  37.842  1.00  0.00     0.059 A 
ATOM     67  C   UNL A   1      38.820  35.375  39.062  1.00  0.00     0.059 A 
ATOM     68  F   UNL A   1      38.320  33.222  38.280  1.00  0.00    -0.206 F 
ATOM     69  C   UNL A   1      39.529  36.567  38.919  1.00  0.00     0.060 A 
BRANCH  69  70
ATOM     70  S   UNL A   1      39.326  37.904  40.116  1.00  0.00     0.124 S 
ATOM     71  O   UNL A   1      39.132  37.158  41.355  1.00  0.00    -0.237 OA
ATOM     72  O   UNL A   1      40.592  38.619  39.999  1.00  0.00    -0.237 OA
ATOM     73  O   UNL A   1      38.155  38.624  39.626  1.00  0.00    -0.744 OA
ENDBRANCH  69  70
ENDBRANCH  48  62
BRANCH  49  74
ATOM     74  C   UNL A   1      40.614  27.844  29.595  1.00  0.00     0.058 A 
ATOM     75  C   UNL A   1      39.717  26.781  29.414  1.00  0.00     0.135 A 
ATOM     76  C   UNL A   1      41.675  27.966  28.685  1.00  0.00     0.135 A 
ATOM     77  F   UNL A   1      38.685  26.622  30.257  1.00  0.00    -0.206 F 
ATOM     78  C   UNL A   1      39.884  25.852  28.391  1.00  0.00     0.059 A 
ATOM     79  C   UNL A   1      41.847  27.065  27.638  1.00  0.00     0.059 A 
ATOM     80  F   UNL A   1      42.548  28.979  28.798  1.00  0.00    -0.206 F 
ATOM     81  C   UNL A   1      40.956  26.001  27.510  1.00  0.00     0.060 A 
BRANCH  81  82
ATOM     82  S   UNL A   1      41.153  24.804  26.172  1.00  0.00     0.124 S 
ATOM     83  O   UNL A   1      41.165  25.674  25.001  1.00  0.00    -0.237 OA
ATOM     84  O   UNL A   1      42.423  24.169  26.510  1.00  0.00    -0.237 OA
ATOM     85  O   UNL A   1      39.977  23.950  26.312  1.00  0.00    -0.744 OA
ENDBRANCH  81  82
ENDBRANCH  49  74
BRANCH  61  86
ATOM     86  C   UNL A   1      43.653  28.531  35.828  1.00  0.00     0.058 A 
ATOM     87  C   UNL A   1      45.023  28.816  35.723  1.00  0.00     0.135 A 
ATOM     88  C   UNL A   1      43.264  27.464  36.654  1.00  0.00     0.135 A 
ATOM     89  F   UNL A   1      45.445  29.823  34.942  1.00  0.00    -0.206 F 
ATOM     90  C   UNL A   1      45.975  28.049  36.383  1.00  0.00     0.059 A 
ATOM     91  C   UNL A   1      44.197  26.702  37.348  1.00  0.00     0.059 A 
ATOM     92  F   UNL A   1      41.964  27.160  36.800  1.00  0.00    -0.206 F 
ATOM     93  C   UNL A   1      45.552  26.992  37.192  1.00  0.00     0.060 A 
BRANCH  93  94
ATOM     94  S   UNL A   1      46.797  26.009  38.052  1.00  0.00     0.124 S 
ATOM     95  O   UNL A   1      47.500  25.385  36.935  1.00  0.00    -0.237 OA
ATOM     96  O   UNL A   1      47.547  27.024  38.786  1.00  0.00    -0.237 OA
ATOM     97  O   UNL A   1      46.003  25.104  38.879  1.00  0.00    -0.744 OA
ENDBRANCH  93  94
ENDBRANCH  61  86
ENDBRANCH  35  36
ENDBRANCH  27  30
ENDBRANCH  25  26
ENDBRANCH   1  25
TORSDOF 16
ENDMDL
MODEL 2
REMARK VINA RESULT:     -11.7      2.267      8.722
REMARK SMILES Cc1cnc(C)c(N2CCC[C@@](CC3CC3)(C(=O)NCCCNC(=O)c3ccc(-c4c5nc(c(-c6c(F)cc(S(=O)(=O)[O-])cc6F)c6ccc([nH]6)c(-c6c(F)cc(S(=O)(=O)[O-])cc6F)c6nc(c(-c7c(F)cc(S(=O)(=O)[O-])cc7F)c7ccc4[nH]7)C=C6)C=C5)cc3)C2)n1
REMARK SMILES IDX 21 1 20 2 19 3 17 4 18 5 12 7 8 8 9 9 92 10 10 11 11 12 7 13
REMARK SMILES IDX 1 14 2 15 3 16 93 17 4 18 5 19 6 20 13 21 14 22 15 23 16 24
REMARK SMILES IDX 22 25 23 26 24 27 25 29 26 30 27 31 91 32 28 33 90 34 29 35
REMARK SMILES IDX 30 36 31 37 84 38 32 39 89 40 83 41 85 42 33 43 88 44 82 45
REMARK SMILES IDX 81 46 34 48 68 49 47 50 67 51 48 52 51 53 66 54 86 55 49 56
REMARK SMILES IDX 50 57 65 59 87 60 52 61 35 62 36 63 45 64 37 65 38 66 44 67
REMARK SMILES IDX 46 68 39 69 40 70 41 71 42 72 43 73 69 74 70 75 79 76 71 77
REMARK SMILES IDX 72 78 78 79 80 80 73 81 74 82 75 83 76 84 77 85 53 86 54 87
REMARK SMILES IDX 63 88 55 89 56 90 62 91 64 92 57 93 58 94 59 95 60 96 61 97
REMARK H PARENT 19 6 23 28 85 47 51 58
REMARK Flexibility Score: inf
ROOT
ATOM      1  C   UNL A   1      37.540  23.693  25.367  1.00  0.00     0.042 C 
ENDROOT
BRANCH   1   2
ATOM      2  C   UNL A   1      36.811  22.369  25.373  1.00  0.00     0.117 C 
BRANCH   2   3
ATOM      3  N   UNL A   1      35.959  22.133  26.497  1.00  0.00    -0.355 N 
ATOM      4  C   UNL A   1      34.602  22.016  26.463  1.00  0.00     0.228 C 
ATOM      5  O   UNL A   1      34.108  21.346  27.376  1.00  0.00    -0.274 OA
ATOM      6  H   UNL A   1      36.393  22.049  27.377  1.00  0.00     0.163 HD
BRANCH   4   7
ATOM      7  C   UNL A   1      33.731  22.678  25.346  1.00  0.00     0.067 C 
ATOM      8  N   UNL A   1      33.414  24.971  24.492  1.00  0.00    -0.354 N 
ATOM      9  C   UNL A   1      34.052  24.781  23.202  1.00  0.00     0.118 C 
ATOM     10  C   UNL A   1      34.002  24.208  25.589  1.00  0.00     0.135 C 
ATOM     11  C   UNL A   1      33.869  23.314  22.818  1.00  0.00     0.023 C 
ATOM     12  C   UNL A   1      34.295  22.351  23.936  1.00  0.00     0.020 C 
BRANCH   8  13
ATOM     13  C   UNL A   1      32.922  26.224  24.810  1.00  0.00     0.150 A 
ATOM     14  C   UNL A   1      33.841  29.011  27.029  1.00  0.00     0.068 C 
ATOM     15  C   UNL A   1      33.077  28.163  26.062  1.00  0.00     0.058 A 
ATOM     16  C   UNL A   1      31.825  28.556  25.616  1.00  0.00     0.135 A 
ATOM     17  N   UNL A   1      33.636  26.996  25.664  1.00  0.00    -0.233 NA
ATOM     18  N   UNL A   1      31.092  27.821  24.756  1.00  0.00    -0.256 NA
ATOM     19  C   UNL A   1      31.657  26.647  24.355  1.00  0.00     0.080 A 
ATOM     20  C   UNL A   1      30.771  25.752  23.538  1.00  0.00     0.071 C 
ENDBRANCH   8  13
BRANCH   7  21
ATOM     21  C   UNL A   1      32.202  22.461  25.618  1.00  0.00     0.022 C 
BRANCH  21  22
ATOM     22  C   UNL A   1      31.372  23.133  26.698  1.00  0.00    -0.010 C 
ATOM     23  C   UNL A   1      30.229  24.129  26.688  1.00  0.00     0.004 C 
ATOM     24  C   UNL A   1      29.928  22.667  26.790  1.00  0.00     0.004 C 
ENDBRANCH  21  22
ENDBRANCH   7  21
ENDBRANCH   4   7
ENDBRANCH   2   3
ENDBRANCH   1   2
BRANCH   1  25
ATOM     25  C   UNL A   1      38.483  23.847  26.546  1.00  0.00     0.118 C 
BRANCH  25  26
ATOM     26  N   UNL A   1      39.895  23.894  26.165  1.00  0.00    -0.352 N 
ATOM     27  C   UNL A   1      40.895  24.757  26.536  1.00  0.00     0.251 C 
ATOM     28  H   UNL A   1      40.173  23.189  25.537  1.00  0.00     0.163 HD
ATOM     29  O   UNL A   1      42.008  24.637  26.026  1.00  0.00    -0.269 OA
BRANCH  27  30
ATOM     30  C   UNL A   1      40.626  25.846  27.493  1.00  0.00     0.039 A 
ATOM     31  C   UNL A   1      39.673  25.640  28.494  1.00  0.00     0.014 A 
ATOM     32  C   UNL A   1      41.333  27.048  27.437  1.00  0.00     0.014 A 
ATOM     33  C   UNL A   1      39.499  26.605  29.486  1.00  0.00     0.010 A 
ATOM     34  C   UNL A   1      41.252  27.943  28.492  1.00  0.00     0.010 A 
ATOM     35  C   UNL A   1      40.328  27.737  29.525  1.00  0.00    -0.014 A 
BRANCH  35  36
ATOM     36  C   UNL A   1      40.242  28.720  30.632  1.00  0.00     0.031 A 
ATOM     37  C   UNL A   1      41.120  28.565  31.846  1.00  0.00     0.074 A 
ATOM     38  C   UNL A   1      39.319  29.701  30.574  1.00  0.00     0.049 A 
ATOM     39  N   UNL A   1      41.144  29.279  32.941  1.00  0.00    -0.248 NA
ATOM     40  C   UNL A   1      42.064  27.434  31.853  1.00  0.00     0.031 C 
ATOM     41  C   UNL A   1      38.348  29.892  29.490  1.00  0.00     0.029 A 
ATOM     42  N   UNL A   1      39.037  30.720  31.448  1.00  0.00    -0.354 N 
ATOM     43  C   UNL A   1      42.079  28.670  33.770  1.00  0.00     0.074 A 
ATOM     44  C   UNL A   1      42.555  27.493  33.081  1.00  0.00     0.031 C 
ATOM     45  C   UNL A   1      37.606  30.982  29.748  1.00  0.00     0.029 A 
ATOM     46  C   UNL A   1      38.020  31.545  31.028  1.00  0.00     0.049 A 
ATOM     47  H   UNL A   1      39.518  30.850  32.297  1.00  0.00     0.167 HD
ATOM     48  C   UNL A   1      42.524  29.074  34.982  1.00  0.00     0.037 A 
ATOM     49  C   UNL A   1      37.483  32.635  31.609  1.00  0.00     0.037 A 
ATOM     50  C   UNL A   1      42.089  30.284  35.628  1.00  0.00     0.049 A 
ATOM     51  C   UNL A   1      38.047  33.102  32.923  1.00  0.00     0.074 A 
ATOM     52  C   UNL A   1      42.547  30.840  36.808  1.00  0.00     0.029 A 
ATOM     53  N   UNL A   1      41.103  31.128  35.142  1.00  0.00    -0.354 N 
ATOM     54  N   UNL A   1      38.997  32.562  33.651  1.00  0.00    -0.248 NA
ATOM     55  C   UNL A   1      37.478  34.331  33.491  1.00  0.00     0.031 C 
ATOM     56  C   UNL A   1      41.809  32.003  37.056  1.00  0.00     0.029 A 
ATOM     57  C   UNL A   1      40.924  32.194  36.007  1.00  0.00     0.049 A 
ATOM     58  H   UNL A   1      40.602  30.991  34.305  1.00  0.00     0.167 HD
ATOM     59  C   UNL A   1      39.153  33.397  34.751  1.00  0.00     0.074 A 
ATOM     60  C   UNL A   1      38.217  34.490  34.580  1.00  0.00     0.031 C 
ATOM     61  C   UNL A   1      39.988  33.272  35.812  1.00  0.00     0.037 A 
BRANCH  48  62
ATOM     62  C   UNL A   1      43.551  28.225  35.678  1.00  0.00     0.058 A 
ATOM     63  C   UNL A   1      44.927  28.412  35.468  1.00  0.00     0.135 A 
ATOM     64  C   UNL A   1      43.157  27.251  36.611  1.00  0.00     0.135 A 
ATOM     65  F   UNL A   1      45.358  29.313  34.572  1.00  0.00    -0.206 F 
ATOM     66  C   UNL A   1      45.875  27.655  36.147  1.00  0.00     0.059 A 
ATOM     67  C   UNL A   1      44.090  26.502  37.322  1.00  0.00     0.059 A 
ATOM     68  F   UNL A   1      41.855  27.026  36.844  1.00  0.00    -0.206 F 
ATOM     69  C   UNL A   1      45.448  26.708  37.078  1.00  0.00     0.060 A 
BRANCH  69  70
ATOM     70  S   UNL A   1      46.694  25.766  37.983  1.00  0.00     0.124 S 
ATOM     71  O   UNL A   1      47.165  24.843  36.955  1.00  0.00    -0.237 OA
ATOM     72  O   UNL A   1      47.638  26.804  38.382  1.00  0.00    -0.237 OA
ATOM     73  O   UNL A   1      45.937  25.158  39.073  1.00  0.00    -0.744 OA
ENDBRANCH  69  70
ENDBRANCH  48  62
BRANCH  49  74
ATOM     74  C   UNL A   1      36.373  33.371  30.947  1.00  0.00     0.058 A 
ATOM     75  C   UNL A   1      36.603  34.147  29.800  1.00  0.00     0.135 A 
ATOM     76  C   UNL A   1      35.064  33.319  31.448  1.00  0.00     0.135 A 
ATOM     77  F   UNL A   1      37.838  34.229  29.282  1.00  0.00    -0.206 F 
ATOM     78  C   UNL A   1      35.581  34.872  29.194  1.00  0.00     0.059 A 
ATOM     79  C   UNL A   1      34.021  34.013  30.842  1.00  0.00     0.059 A 
ATOM     80  F   UNL A   1      34.785  32.572  32.528  1.00  0.00    -0.206 F 
ATOM     81  C   UNL A   1      34.293  34.801  29.725  1.00  0.00     0.060 A 
BRANCH  81  82
ATOM     82  S   UNL A   1      32.968  35.726  28.918  1.00  0.00     0.124 S 
ATOM     83  O   UNL A   1      33.720  36.756  28.211  1.00  0.00    -0.237 OA
ATOM     84  O   UNL A   1      32.342  34.705  28.084  1.00  0.00    -0.237 OA
ATOM     85  O   UNL A   1      32.157  36.194  30.039  1.00  0.00    -0.744 OA
ENDBRANCH  81  82
ENDBRANCH  49  74
BRANCH  61  86
ATOM     86  C   UNL A   1      39.943  34.355  36.850  1.00  0.00     0.058 A 
ATOM     87  C   UNL A   1      40.656  35.553  36.694  1.00  0.00     0.135 A 
ATOM     88  C   UNL A   1      39.151  34.205  37.999  1.00  0.00     0.135 A 
ATOM     89  F   UNL A   1      41.431  35.743  35.614  1.00  0.00    -0.206 F 
ATOM     90  C   UNL A   1      40.615  36.552  37.659  1.00  0.00     0.059 A 
ATOM     91  C   UNL A   1      39.071  35.203  38.964  1.00  0.00     0.059 A 
ATOM     92  F   UNL A   1      38.437  33.084  38.188  1.00  0.00    -0.206 F 
ATOM     93  C   UNL A   1      39.821  36.366  38.793  1.00  0.00     0.060 A 
BRANCH  93  94
ATOM     94  S   UNL A   1      39.769  37.673  40.035  1.00  0.00     0.124 S 
ATOM     95  O   UNL A   1      38.624  38.459  39.585  1.00  0.00    -0.237 OA
ATOM     96  O   UNL A   1      39.577  36.924  41.273  1.00  0.00    -0.237 OA
ATOM     97  O   UNL A   1      41.070  38.323  39.898  1.00  0.00    -0.744 OA
ENDBRANCH  93  94
ENDBRANCH  61  86
ENDBRANCH  35  36
ENDBRANCH  27  30
ENDBRANCH  25  26
ENDBRANCH   1  25
TORSDOF 16
ENDMDL
MODEL 3
REMARK VINA RESULT:     -11.5      6.249      8.804
REMARK SMILES Cc1cnc(C)c(N2CCC[C@@](CC3CC3)(C(=O)NCCCNC(=O)c3ccc(-c4c5nc(c(-c6c(F)cc(S(=O)(=O)[O-])cc6F)c6ccc([nH]6)c(-c6c(F)cc(S(=O)(=O)[O-])cc6F)c6nc(c(-c7c(F)cc(S(=O)(=O)[O-])cc7F)c7ccc4[nH]7)C=C6)C=C5)cc3)C2)n1
REMARK SMILES IDX 21 1 20 2 19 3 17 4 18 5 12 7 8 8 9 9 92 10 10 11 11 12 7 13
REMARK SMILES IDX 1 14 2 15 3 16 93 17 4 18 5 19 6 20 13 21 14 22 15 23 16 24
REMARK SMILES IDX 22 25 23 26 24 27 25 29 26 30 27 31 91 32 28 33 90 34 29 35
REMARK SMILES IDX 30 36 31 37 84 38 32 39 89 40 83 41 85 42 33 43 88 44 82 45
REMARK SMILES IDX 81 46 34 48 68 49 47 50 67 51 48 52 51 53 66 54 86 55 49 56
REMARK SMILES IDX 50 57 65 59 87 60 52 61 35 62 36 63 45 64 37 65 38 66 44 67
REMARK SMILES IDX 46 68 39 69 40 70 41 71 42 72 43 73 69 74 70 75 79 76 71 77
REMARK SMILES IDX 72 78 78 79 80 80 73 81 74 82 75 83 76 84 77 85 53 86 54 87
REMARK SMILES IDX 63 88 55 89 56 90 62 91 64 92 57 93 58 94 59 95 60 96 61 97
REMARK H PARENT 19 6 23 28 85 47 51 58
REMARK Flexibility Score: inf
ROOT
ATOM      1  C   UNL A   1      35.732  29.603  27.636  1.00  0.00     0.042 C 
ENDROOT
BRANCH   1   2
ATOM      2  C   UNL A   1      34.442  29.416  26.870  1.00  0.00     0.117 C 
BRANCH   2   3
ATOM      3  N   UNL A   1      33.281  29.154  27.662  1.00  0.00    -0.355 N 
ATOM      4  C   UNL A   1      32.338  28.203  27.411  1.00  0.00     0.228 C 
ATOM      5  O   UNL A   1      31.725  27.794  28.403  1.00  0.00    -0.274 OA
ATOM      6  H   UNL A   1      33.150  29.713  28.462  1.00  0.00     0.163 HD
BRANCH   4   7
ATOM      7  C   UNL A   1      32.055  27.662  25.973  1.00  0.00     0.067 C 
ATOM      8  N   UNL A   1      31.111  28.601  23.895  1.00  0.00    -0.354 N 
ATOM      9  C   UNL A   1      32.340  28.616  23.121  1.00  0.00     0.118 C 
ATOM     10  C   UNL A   1      31.279  28.865  25.322  1.00  0.00     0.135 C 
ATOM     11  C   UNL A   1      33.217  27.479  23.642  1.00  0.00     0.023 C 
ATOM     12  C   UNL A   1      33.376  27.504  25.169  1.00  0.00     0.020 C 
BRANCH   8  13
ATOM     13  C   UNL A   1      29.955  29.088  23.313  1.00  0.00     0.150 A 
ATOM     14  C   UNL A   1      28.637  32.343  22.216  1.00  0.00     0.068 C 
ATOM     15  C   UNL A   1      28.719  30.885  22.544  1.00  0.00     0.058 A 
ATOM     16  C   UNL A   1      27.606  30.070  22.415  1.00  0.00     0.135 A 
ATOM     17  N   UNL A   1      29.901  30.403  22.993  1.00  0.00    -0.233 NA
ATOM     18  N   UNL A   1      27.625  28.754  22.710  1.00  0.00    -0.256 NA
ATOM     19  C   UNL A   1      28.817  28.270  23.161  1.00  0.00     0.080 A 
ATOM     20  C   UNL A   1      28.791  26.852  23.651  1.00  0.00     0.071 C 
ENDBRANCH   8  13
BRANCH   7  21
ATOM     21  C   UNL A   1      31.044  26.463  26.007  1.00  0.00     0.022 C 
BRANCH  21  22
ATOM     22  C   UNL A   1      31.392  24.991  26.142  1.00  0.00    -0.010 C 
ATOM     23  C   UNL A   1      30.593  23.737  26.438  1.00  0.00     0.004 C 
ATOM     24  C   UNL A   1      30.889  24.100  25.017  1.00  0.00     0.004 C 
ENDBRANCH  21  22
ENDBRANCH   7  21
ENDBRANCH   4   7
ENDBRANCH   2   3
ENDBRANCH   1   2
BRANCH   1  25
ATOM     25  C   UNL A   1      35.745  30.880  28.457  1.00  0.00     0.118 C 
BRANCH  25  26
ATOM     26  N   UNL A   1      35.618  30.652  29.897  1.00  0.00    -0.352 N 
ATOM     27  C   UNL A   1      36.557  30.301  30.834  1.00  0.00     0.251 C 
ATOM     28  H   UNL A   1      34.708  30.769  30.252  1.00  0.00     0.163 HD
ATOM     29  O   UNL A   1      36.198  30.099  31.993  1.00  0.00    -0.269 OA
BRANCH  27  30
ATOM     30  C   UNL A   1      37.968  30.118  30.447  1.00  0.00     0.039 A 
ATOM     31  C   UNL A   1      38.818  29.424  31.312  1.00  0.00     0.014 A 
ATOM     32  C   UNL A   1      38.448  30.586  29.223  1.00  0.00     0.014 A 
ATOM     33  C   UNL A   1      40.118  29.125  30.906  1.00  0.00     0.010 A 
ATOM     34  C   UNL A   1      39.692  30.177  28.770  1.00  0.00     0.010 A 
ATOM     35  C   UNL A   1      40.546  29.449  29.609  1.00  0.00    -0.014 A 
BRANCH  35  36
ATOM     36  C   UNL A   1      41.882  29.042  29.112  1.00  0.00     0.031 A 
ATOM     37  C   UNL A   1      42.998  30.051  29.037  1.00  0.00     0.074 A 
ATOM     38  C   UNL A   1      42.062  27.785  28.658  1.00  0.00     0.049 A 
ATOM     39  N   UNL A   1      44.210  29.904  28.571  1.00  0.00    -0.248 NA
ATOM     40  C   UNL A   1      42.701  31.417  29.504  1.00  0.00     0.031 C 
ATOM     41  C   UNL A   1      41.027  26.748  28.593  1.00  0.00     0.029 A 
ATOM     42  N   UNL A   1      43.178  27.164  28.156  1.00  0.00    -0.354 N 
ATOM     43  C   UNL A   1      44.806  31.157  28.663  1.00  0.00     0.074 A 
ATOM     44  C   UNL A   1      43.806  32.067  29.170  1.00  0.00     0.031 C 
ATOM     45  C   UNL A   1      41.566  25.614  28.116  1.00  0.00     0.029 A 
ATOM     46  C   UNL A   1      42.971  25.850  27.808  1.00  0.00     0.049 A 
ATOM     47  H   UNL A   1      44.046  27.617  28.055  1.00  0.00     0.167 HD
ATOM     48  C   UNL A   1      46.082  31.509  28.382  1.00  0.00     0.037 A 
ATOM     49  C   UNL A   1      43.821  24.938  27.298  1.00  0.00     0.037 A 
ATOM     50  C   UNL A   1      47.086  30.578  27.941  1.00  0.00     0.049 A 
ATOM     51  C   UNL A   1      45.252  25.338  27.063  1.00  0.00     0.074 A 
ATOM     52  C   UNL A   1      48.433  30.806  27.724  1.00  0.00     0.029 A 
ATOM     53  N   UNL A   1      46.855  29.240  27.659  1.00  0.00    -0.354 N 
ATOM     54  N   UNL A   1      45.820  26.507  27.243  1.00  0.00    -0.248 NA
ATOM     55  C   UNL A   1      46.160  24.296  26.569  1.00  0.00     0.031 C 
ATOM     56  C   UNL A   1      49.009  29.614  27.272  1.00  0.00     0.029 A 
ATOM     57  C   UNL A   1      48.030  28.632  27.253  1.00  0.00     0.049 A 
ATOM     58  H   UNL A   1      45.983  28.788  27.737  1.00  0.00     0.167 HD
ATOM     59  C   UNL A   1      47.157  26.335  26.904  1.00  0.00     0.074 A 
ATOM     60  C   UNL A   1      47.316  24.944  26.532  1.00  0.00     0.031 C 
ATOM     61  C   UNL A   1      48.163  27.244  26.892  1.00  0.00     0.037 A 
BRANCH  48  62
ATOM     62  C   UNL A   1      46.476  32.947  28.570  1.00  0.00     0.058 A 
ATOM     63  C   UNL A   1      46.369  33.882  27.527  1.00  0.00     0.135 A 
ATOM     64  C   UNL A   1      46.910  33.411  29.822  1.00  0.00     0.135 A 
ATOM     65  F   UNL A   1      45.982  33.490  26.303  1.00  0.00    -0.206 F 
ATOM     66  C   UNL A   1      46.691  35.222  27.716  1.00  0.00     0.059 A 
ATOM     67  C   UNL A   1      47.210  34.752  30.041  1.00  0.00     0.059 A 
ATOM     68  F   UNL A   1      47.037  32.559  30.851  1.00  0.00    -0.206 F 
ATOM     69  C   UNL A   1      47.103  35.649  28.979  1.00  0.00     0.060 A 
BRANCH  69  70
ATOM     70  S   UNL A   1      47.474  37.400  29.217  1.00  0.00     0.124 S 
ATOM     71  O   UNL A   1      48.013  37.763  27.910  1.00  0.00    -0.237 OA
ATOM     72  O   UNL A   1      46.163  37.954  29.538  1.00  0.00    -0.237 OA
ATOM     73  O   UNL A   1      48.437  37.397  30.314  1.00  0.00    -0.744 OA
ENDBRANCH  69  70
ENDBRANCH  48  62
BRANCH  49  74
ATOM     74  C   UNL A   1      43.353  23.557  27.001  1.00  0.00     0.058 A 
ATOM     75  C   UNL A   1      43.153  22.624  28.030  1.00  0.00     0.135 A 
ATOM     76  C   UNL A   1      43.102  23.141  25.685  1.00  0.00     0.135 A 
ATOM     77  F   UNL A   1      43.379  22.973  29.306  1.00  0.00    -0.206 F 
ATOM     78  C   UNL A   1      42.753  21.318  27.762  1.00  0.00     0.059 A 
ATOM     79  C   UNL A   1      42.675  21.849  25.395  1.00  0.00     0.059 A 
ATOM     80  F   UNL A   1      43.254  24.001  24.666  1.00  0.00    -0.206 F 
ATOM     81  C   UNL A   1      42.519  20.939  26.440  1.00  0.00     0.060 A 
BRANCH  81  82
ATOM     82  S   UNL A   1      41.978  19.249  26.103  1.00  0.00     0.124 S 
ATOM     83  O   UNL A   1      42.333  18.576  27.347  1.00  0.00    -0.237 OA
ATOM     84  O   UNL A   1      40.551  19.425  25.856  1.00  0.00    -0.237 OA
ATOM     85  O   UNL A   1      42.767  18.872  24.934  1.00  0.00    -0.744 OA
ENDBRANCH  81  82
ENDBRANCH  49  74
BRANCH  61  86
ATOM     86  C   UNL A   1      49.524  26.753  26.491  1.00  0.00     0.058 A 
ATOM     87  C   UNL A   1      50.367  26.097  27.401  1.00  0.00     0.135 A 
ATOM     88  C   UNL A   1      49.976  26.913  25.172  1.00  0.00     0.135 A 
ATOM     89  F   UNL A   1      49.981  25.923  28.675  1.00  0.00    -0.206 F 
ATOM     90  C   UNL A   1      51.627  25.648  27.026  1.00  0.00     0.059 A 
ATOM     91  C   UNL A   1      51.222  26.446  24.766  1.00  0.00     0.059 A 
ATOM     92  F   UNL A   1      49.201  27.521  24.259  1.00  0.00    -0.206 F 
ATOM     93  C   UNL A   1      52.047  25.830  25.706  1.00  0.00     0.060 A 
BRANCH  93  94
ATOM     94  S   UNL A   1      53.682  25.235  25.230  1.00  0.00     0.124 S 
ATOM     95  O   UNL A   1      53.526  23.792  25.389  1.00  0.00    -0.237 OA
ATOM     96  O   UNL A   1      53.803  25.712  23.856  1.00  0.00    -0.237 OA
ATOM     97  O   UNL A   1      54.572  25.880  26.192  1.00  0.00    -0.744 OA
ENDBRANCH  93  94
ENDBRANCH  61  86
ENDBRANCH  35  36
ENDBRANCH  27  30
ENDBRANCH  25  26
ENDBRANCH   1  25
TORSDOF 16
ENDMDL
