MODEL 1
REMARK VINA RESULT:     -11.3      0.000      0.000
REMARK SMILES C[C@H]1[C@@H](C(=O)NCCCNC(=O)c2ccc(-c3c4nc(c(-c5c(F)cc(S(=O)(=O)[O-])cc5F)c5ccc([nH]5)c(-c5c(F)cc(S(=O)(=O)[O-])cc5F)c5nc(c(-c6c(F)cc(S(=O)(=O)[O-])cc6F)c6ccc3[nH]6)C=C5)C=C4)cc2)CC[N@@H+]1CC(F)(F)F
REMARK SMILES IDX 8 1 7 2 6 3 4 4 5 5 3 7 1 8 2 9 81 10 79 11 80 12 82 14
REMARK SMILES IDX 83 15 84 16 85 17 86 18 9 19 10 20 11 21 12 23 13 24 14 25
REMARK SMILES IDX 78 26 15 27 77 28 16 29 17 30 18 31 71 32 19 33 76 34 70 35
REMARK SMILES IDX 72 36 20 37 75 38 69 39 68 40 21 42 55 43 34 44 54 45 35 46
REMARK SMILES IDX 38 47 53 48 73 49 36 50 37 51 52 53 74 54 39 55 22 56 23 57
REMARK SMILES IDX 32 58 24 59 25 60 31 61 33 62 26 63 27 64 28 65 29 66 30 67
REMARK SMILES IDX 56 68 57 69 66 70 58 71 59 72 65 73 67 74 60 75 61 76 62 77
REMARK SMILES IDX 63 78 64 79 40 80 41 81 50 82 42 83 43 84 49 85 51 86 44 87
REMARK SMILES IDX 45 88 46 89 47 90 48 91
REMARK H PARENT 6 6 81 13 10 22 72 41 38 52
REMARK Flexibility Score: inf
ROOT
ATOM      1  C   UNL A   1      39.718  22.507  26.626  1.00  0.00     0.042 C 
ENDROOT
BRANCH   1   2
ATOM      2  C   UNL A   1      38.616  23.568  26.687  1.00  0.00     0.117 C 
BRANCH   2   3
ATOM      3  N   UNL A   1      38.042  23.760  25.368  1.00  0.00    -0.356 N 
ATOM      4  C   UNL A   1      36.962  23.191  24.768  1.00  0.00     0.229 C 
ATOM      5  O   UNL A   1      36.880  23.341  23.546  1.00  0.00    -0.275 OA
ATOM      6  H   UNL A   1      38.516  24.419  24.811  1.00  0.00     0.163 HD
BRANCH   4   7
ATOM      7  C   UNL A   1      35.844  22.542  25.588  1.00  0.00     0.142 C 
ATOM      8  C   UNL A   1      36.685  20.104  25.000  1.00  0.00     0.076 C 
ATOM      9  C   UNL A   1      35.596  21.020  25.522  1.00  0.00     0.193 C 
ATOM     10  N   UNL A   1      34.410  20.792  24.669  1.00  0.00    -0.325 N 
ATOM     11  C   UNL A   1      34.488  23.107  25.136  1.00  0.00     0.081 C 
ATOM     12  C   UNL A   1      34.000  22.085  24.127  1.00  0.00     0.263 C 
ATOM     13  H   UNL A   1      34.648  20.174  23.893  1.00  0.00     0.348 HD
BRANCH  10  14
ATOM     14  C   UNL A   1      33.331  20.040  25.357  1.00  0.00     0.379 C 
BRANCH  14  15
ATOM     15  C   UNL A   1      33.043  18.564  25.019  1.00  0.00     0.438 C 
ATOM     16  F   UNL A   1      32.540  17.895  26.080  1.00  0.00    -0.165 F 
ATOM     17  F   UNL A   1      32.131  18.475  24.021  1.00  0.00    -0.165 F 
ATOM     18  F   UNL A   1      34.150  17.909  24.606  1.00  0.00    -0.165 F 
ENDBRANCH  14  15
ENDBRANCH  10  14
ENDBRANCH   4   7
ENDBRANCH   2   3
ENDBRANCH   1   2
BRANCH   1  19
ATOM     19  C   UNL A   1      41.076  22.989  27.115  1.00  0.00     0.118 C 
BRANCH  19  20
ATOM     20  N   UNL A   1      41.761  23.778  26.110  1.00  0.00    -0.352 N 
ATOM     21  C   UNL A   1      41.918  25.139  26.011  1.00  0.00     0.251 C 
ATOM     22  H   UNL A   1      42.180  23.258  25.386  1.00  0.00     0.163 HD
ATOM     23  O   UNL A   1      42.311  25.608  24.945  1.00  0.00    -0.269 OA
BRANCH  21  24
ATOM     24  C   UNL A   1      41.613  26.049  27.147  1.00  0.00     0.039 A 
ATOM     25  C   UNL A   1      42.433  27.166  27.345  1.00  0.00     0.014 A 
ATOM     26  C   UNL A   1      40.591  25.786  28.064  1.00  0.00     0.014 A 
ATOM     27  C   UNL A   1      42.210  28.021  28.428  1.00  0.00     0.010 A 
ATOM     28  C   UNL A   1      40.309  26.689  29.091  1.00  0.00     0.010 A 
ATOM     29  C   UNL A   1      41.133  27.804  29.303  1.00  0.00    -0.014 A 
BRANCH  29  30
ATOM     30  C   UNL A   1      40.891  28.707  30.463  1.00  0.00     0.031 A 
ATOM     31  C   UNL A   1      41.719  28.573  31.717  1.00  0.00     0.074 A 
ATOM     32  C   UNL A   1      39.909  29.628  30.405  1.00  0.00     0.049 A 
ATOM     33  N   UNL A   1      41.638  29.247  32.838  1.00  0.00    -0.248 NA
ATOM     34  C   UNL A   1      42.754  27.528  31.725  1.00  0.00     0.031 C 
ATOM     35  C   UNL A   1      39.000  29.824  29.274  1.00  0.00     0.029 A 
ATOM     36  N   UNL A   1      39.508  30.571  31.319  1.00  0.00    -0.354 N 
ATOM     37  C   UNL A   1      42.598  28.699  33.683  1.00  0.00     0.074 A 
ATOM     38  C   UNL A   1      43.208  27.599  32.968  1.00  0.00     0.031 C 
ATOM     39  C   UNL A   1      38.164  30.838  29.552  1.00  0.00     0.029 A 
ATOM     40  C   UNL A   1      38.458  31.347  30.888  1.00  0.00     0.049 A 
ATOM     41  H   UNL A   1      39.933  30.681  32.200  1.00  0.00     0.167 HD
ATOM     42  C   UNL A   1      42.961  29.091  34.928  1.00  0.00     0.037 A 
ATOM     43  C   UNL A   1      37.803  32.355  31.498  1.00  0.00     0.037 A 
ATOM     44  C   UNL A   1      42.375  30.206  35.628  1.00  0.00     0.049 A 
ATOM     45  C   UNL A   1      38.241  32.793  32.869  1.00  0.00     0.074 A 
ATOM     46  C   UNL A   1      42.709  30.716  36.869  1.00  0.00     0.029 A 
ATOM     47  N   UNL A   1      41.336  30.987  35.142  1.00  0.00    -0.354 N 
ATOM     48  N   UNL A   1      39.190  32.298  33.628  1.00  0.00    -0.248 NA
ATOM     49  C   UNL A   1      37.529  33.933  33.461  1.00  0.00     0.031 C 
ATOM     50  C   UNL A   1      41.850  31.785  37.150  1.00  0.00     0.029 A 
ATOM     51  C   UNL A   1      41.008  31.967  36.064  1.00  0.00     0.049 A 
ATOM     52  H   UNL A   1      40.897  30.862  34.270  1.00  0.00     0.167 HD
ATOM     53  C   UNL A   1      39.200  33.077  34.780  1.00  0.00     0.074 A 
ATOM     54  C   UNL A   1      38.176  34.088  34.608  1.00  0.00     0.031 C 
ATOM     55  C   UNL A   1      39.984  32.964  35.881  1.00  0.00     0.037 A 
BRANCH  42  56
ATOM     56  C   UNL A   1      44.054  28.312  35.611  1.00  0.00     0.058 A 
ATOM     57  C   UNL A   1      43.766  27.225  36.452  1.00  0.00     0.135 A 
ATOM     58  C   UNL A   1      45.404  28.642  35.409  1.00  0.00     0.135 A 
ATOM     59  F   UNL A   1      42.493  26.874  36.692  1.00  0.00    -0.206 F 
ATOM     60  C   UNL A   1      44.775  26.515  37.097  1.00  0.00     0.059 A 
ATOM     61  C   UNL A   1      46.431  27.928  36.023  1.00  0.00     0.059 A 
ATOM     62  F   UNL A   1      45.738  29.670  34.614  1.00  0.00    -0.206 F 
ATOM     63  C   UNL A   1      46.104  26.878  36.879  1.00  0.00     0.060 A 
BRANCH  63  64
ATOM     64  S   UNL A   1      47.403  25.955  37.729  1.00  0.00     0.124 S 
ATOM     65  O   UNL A   1      47.253  24.629  37.132  1.00  0.00    -0.237 OA
ATOM     66  O   UNL A   1      48.608  26.687  37.344  1.00  0.00    -0.237 OA
ATOM     67  O   UNL A   1      47.034  26.058  39.133  1.00  0.00    -0.744 OA
ENDBRANCH  63  64
ENDBRANCH  42  56
BRANCH  43  68
ATOM     68  C   UNL A   1      36.681  33.034  30.800  1.00  0.00     0.058 A 
ATOM     69  C   UNL A   1      35.350  32.810  31.179  1.00  0.00     0.135 A 
ATOM     70  C   UNL A   1      36.918  33.944  29.757  1.00  0.00     0.135 A 
ATOM     71  F   UNL A   1      35.071  31.945  32.166  1.00  0.00    -0.206 F 
ATOM     72  C   UNL A   1      34.291  33.454  30.545  1.00  0.00     0.059 A 
ATOM     73  C   UNL A   1      35.879  34.617  29.123  1.00  0.00     0.059 A 
ATOM     74  F   UNL A   1      38.176  34.205  29.367  1.00  0.00    -0.206 F 
ATOM     75  C   UNL A   1      34.568  34.360  29.520  1.00  0.00     0.060 A 
BRANCH  75  76
ATOM     76  S   UNL A   1      33.193  35.242  28.748  1.00  0.00     0.124 S 
ATOM     77  O   UNL A   1      33.892  36.289  28.012  1.00  0.00    -0.237 OA
ATOM     78  O   UNL A   1      32.574  34.197  27.938  1.00  0.00    -0.237 OA
ATOM     79  O   UNL A   1      32.401  35.691  29.889  1.00  0.00    -0.744 OA
ENDBRANCH  75  76
ENDBRANCH  43  68
BRANCH  55  80
ATOM     80  C   UNL A   1      39.777  33.972  36.977  1.00  0.00     0.058 A 
ATOM     81  C   UNL A   1      39.074  33.651  38.149  1.00  0.00     0.135 A 
ATOM     82  C   UNL A   1      40.314  35.265  36.868  1.00  0.00     0.135 A 
ATOM     83  F   UNL A   1      38.537  32.429  38.301  1.00  0.00    -0.206 F 
ATOM     84  C   UNL A   1      38.883  34.585  39.161  1.00  0.00     0.059 A 
ATOM     85  C   UNL A   1      40.158  36.208  37.878  1.00  0.00     0.059 A 
ATOM     86  F   UNL A   1      41.006  35.619  35.773  1.00  0.00    -0.206 F 
ATOM     87  C   UNL A   1      39.427  35.863  39.014  1.00  0.00     0.060 A 
BRANCH  87  88
ATOM     88  S   UNL A   1      39.185  37.065  40.341  1.00  0.00     0.124 S 
ATOM     89  O   UNL A   1      38.702  38.226  39.598  1.00  0.00    -0.237 OA
ATOM     90  O   UNL A   1      38.201  36.403  41.191  1.00  0.00    -0.237 OA
ATOM     91  O   UNL A   1      40.516  37.201  40.922  1.00  0.00    -0.744 OA
ENDBRANCH  87  88
ENDBRANCH  55  80
ENDBRANCH  29  30
ENDBRANCH  21  24
ENDBRANCH  19  20
ENDBRANCH   1  19
TORSDOF 15
ENDMDL
MODEL 2
REMARK VINA RESULT:     -11.2      7.044     12.539
REMARK SMILES C[C@H]1[C@@H](C(=O)NCCCNC(=O)c2ccc(-c3c4nc(c(-c5c(F)cc(S(=O)(=O)[O-])cc5F)c5ccc([nH]5)c(-c5c(F)cc(S(=O)(=O)[O-])cc5F)c5nc(c(-c6c(F)cc(S(=O)(=O)[O-])cc6F)c6ccc3[nH]6)C=C5)C=C4)cc2)CC[N@@H+]1CC(F)(F)F
REMARK SMILES IDX 8 1 7 2 6 3 4 4 5 5 3 7 1 8 2 9 81 10 79 11 80 12 82 14
REMARK SMILES IDX 83 15 84 16 85 17 86 18 9 19 10 20 11 21 12 23 13 24 14 25
REMARK SMILES IDX 78 26 15 27 77 28 16 29 17 30 18 31 71 32 19 33 76 34 70 35
REMARK SMILES IDX 72 36 20 37 75 38 69 39 68 40 21 42 55 43 34 44 54 45 35 46
REMARK SMILES IDX 38 47 53 48 73 49 36 50 37 51 52 53 74 54 39 55 22 56 23 57
REMARK SMILES IDX 32 58 24 59 25 60 31 61 33 62 26 63 27 64 28 65 29 66 30 67
REMARK SMILES IDX 56 68 57 69 66 70 58 71 59 72 65 73 67 74 60 75 61 76 62 77
REMARK SMILES IDX 63 78 64 79 40 80 41 81 50 82 42 83 43 84 49 85 51 86 44 87
REMARK SMILES IDX 45 88 46 89 47 90 48 91
REMARK H PARENT 6 6 81 13 10 22 72 41 38 52
REMARK Flexibility Score: inf
ROOT
ATOM      1  C   UNL A   1      34.389  31.057  27.635  1.00  0.00     0.042 C 
ENDROOT
BRANCH   1   2
ATOM      2  C   UNL A   1      34.410  29.581  27.228  1.00  0.00     0.117 C 
BRANCH   2   3
ATOM      3  N   UNL A   1      33.321  28.874  27.877  1.00  0.00    -0.356 N 
ATOM      4  C   UNL A   1      32.322  28.104  27.367  1.00  0.00     0.229 C 
ATOM      5  O   UNL A   1      31.381  27.865  28.129  1.00  0.00    -0.275 OA
ATOM      6  H   UNL A   1      33.302  28.968  28.857  1.00  0.00     0.163 HD
BRANCH   4   7
ATOM      7  C   UNL A   1      32.444  27.451  25.988  1.00  0.00     0.142 C 
ATOM      8  C   UNL A   1      31.325  29.528  24.791  1.00  0.00     0.076 C 
ATOM      9  C   UNL A   1      31.758  28.076  24.754  1.00  0.00     0.193 C 
ATOM     10  N   UNL A   1      30.545  27.283  24.462  1.00  0.00    -0.325 N 
ATOM     11  C   UNL A   1      31.811  26.051  26.031  1.00  0.00     0.081 C 
ATOM     12  C   UNL A   1      30.402  26.286  25.519  1.00  0.00     0.263 C 
ATOM     13  H   UNL A   1      29.721  27.885  24.468  1.00  0.00     0.348 HD
BRANCH  10  14
ATOM     14  C   UNL A   1      30.526  26.730  23.085  1.00  0.00     0.379 C 
BRANCH  14  15
ATOM     15  C   UNL A   1      31.833  26.434  22.323  1.00  0.00     0.438 C 
ATOM     16  F   UNL A   1      31.594  25.885  21.111  1.00  0.00    -0.165 F 
ATOM     17  F   UNL A   1      32.530  27.576  22.114  1.00  0.00    -0.165 F 
ATOM     18  F   UNL A   1      32.642  25.592  23.004  1.00  0.00    -0.165 F 
ENDBRANCH  14  15
ENDBRANCH  10  14
ENDBRANCH   4   7
ENDBRANCH   2   3
ENDBRANCH   1   2
BRANCH   1  19
ATOM     19  C   UNL A   1      35.633  31.516  28.382  1.00  0.00     0.118 C 
BRANCH  19  20
ATOM     20  N   UNL A   1      35.548  31.223  29.800  1.00  0.00    -0.352 N 
ATOM     21  C   UNL A   1      36.407  30.519  30.608  1.00  0.00     0.251 C 
ATOM     22  H   UNL A   1      34.753  31.586  30.254  1.00  0.00     0.163 HD
ATOM     23  O   UNL A   1      36.013  30.173  31.721  1.00  0.00    -0.269 OA
BRANCH  21  24
ATOM     24  C   UNL A   1      37.780  30.157  30.168  1.00  0.00     0.039 A 
ATOM     25  C   UNL A   1      38.030  30.037  28.796  1.00  0.00     0.014 A 
ATOM     26  C   UNL A   1      38.802  29.859  31.074  1.00  0.00     0.014 A 
ATOM     27  C   UNL A   1      39.295  29.654  28.341  1.00  0.00     0.010 A 
ATOM     28  C   UNL A   1      40.090  29.568  30.618  1.00  0.00     0.010 A 
ATOM     29  C   UNL A   1      40.346  29.434  29.246  1.00  0.00    -0.014 A 
BRANCH  29  30
ATOM     30  C   UNL A   1      41.695  29.020  28.770  1.00  0.00     0.031 A 
ATOM     31  C   UNL A   1      42.814  30.028  28.679  1.00  0.00     0.074 A 
ATOM     32  C   UNL A   1      41.912  27.744  28.391  1.00  0.00     0.049 A 
ATOM     33  N   UNL A   1      44.045  29.864  28.264  1.00  0.00    -0.248 NA
ATOM     34  C   UNL A   1      42.501  31.409  29.079  1.00  0.00     0.031 C 
ATOM     35  C   UNL A   1      40.903  26.683  28.378  1.00  0.00     0.029 A 
ATOM     36  N   UNL A   1      43.052  27.124  27.942  1.00  0.00    -0.354 N 
ATOM     37  C   UNL A   1      44.645  31.116  28.340  1.00  0.00     0.074 A 
ATOM     38  C   UNL A   1      43.626  32.042  28.785  1.00  0.00     0.031 C 
ATOM     39  C   UNL A   1      41.473  25.540  27.964  1.00  0.00     0.029 A 
ATOM     40  C   UNL A   1      42.878  25.789  27.658  1.00  0.00     0.049 A 
ATOM     41  H   UNL A   1      43.912  27.590  27.833  1.00  0.00     0.167 HD
ATOM     42  C   UNL A   1      45.931  31.462  28.092  1.00  0.00     0.037 A 
ATOM     43  C   UNL A   1      43.751  24.869  27.201  1.00  0.00     0.037 A 
ATOM     44  C   UNL A   1      46.953  30.534  27.679  1.00  0.00     0.049 A 
ATOM     45  C   UNL A   1      45.181  25.268  26.960  1.00  0.00     0.074 A 
ATOM     46  C   UNL A   1      48.296  30.775  27.455  1.00  0.00     0.029 A 
ATOM     47  N   UNL A   1      46.743  29.184  27.435  1.00  0.00    -0.354 N 
ATOM     48  N   UNL A   1      45.742  26.446  27.094  1.00  0.00    -0.248 NA
ATOM     49  C   UNL A   1      46.100  24.209  26.518  1.00  0.00     0.031 C 
ATOM     50  C   UNL A   1      48.894  29.578  27.042  1.00  0.00     0.029 A 
ATOM     51  C   UNL A   1      47.930  28.582  27.050  1.00  0.00     0.049 A 
ATOM     52  H   UNL A   1      45.878  28.723  27.523  1.00  0.00     0.167 HD
ATOM     53  C   UNL A   1      47.083  26.268  26.769  1.00  0.00     0.074 A 
ATOM     54  C   UNL A   1      47.251  24.864  26.452  1.00  0.00     0.031 C 
ATOM     55  C   UNL A   1      48.082  27.184  26.734  1.00  0.00     0.037 A 
BRANCH  42  56
ATOM     56  C   UNL A   1      46.309  32.909  28.274  1.00  0.00     0.058 A 
ATOM     57  C   UNL A   1      46.215  33.830  27.218  1.00  0.00     0.135 A 
ATOM     58  C   UNL A   1      46.752  33.385  29.518  1.00  0.00     0.135 A 
ATOM     59  F   UNL A   1      45.810  33.428  26.002  1.00  0.00    -0.206 F 
ATOM     60  C   UNL A   1      46.580  35.163  27.379  1.00  0.00     0.059 A 
ATOM     61  C   UNL A   1      47.097  34.721  29.709  1.00  0.00     0.059 A 
ATOM     62  F   UNL A   1      46.860  32.549  30.562  1.00  0.00    -0.206 F 
ATOM     63  C   UNL A   1      47.024  35.598  28.627  1.00  0.00     0.060 A 
BRANCH  63  64
ATOM     64  S   UNL A   1      47.504  37.328  28.822  1.00  0.00     0.124 S 
ATOM     65  O   UNL A   1      46.698  37.969  27.785  1.00  0.00    -0.237 OA
ATOM     66  O   UNL A   1      47.101  37.611  30.198  1.00  0.00    -0.237 OA
ATOM     67  O   UNL A   1      48.939  37.314  28.583  1.00  0.00    -0.744 OA
ENDBRANCH  63  64
ENDBRANCH  42  56
BRANCH  43  68
ATOM     68  C   UNL A   1      43.296  23.473  26.970  1.00  0.00     0.058 A 
ATOM     69  C   UNL A   1      43.084  22.985  25.673  1.00  0.00     0.135 A 
ATOM     70  C   UNL A   1      43.092  22.589  28.042  1.00  0.00     0.135 A 
ATOM     71  F   UNL A   1      43.260  23.794  24.616  1.00  0.00    -0.206 F 
ATOM     72  C   UNL A   1      42.676  21.675  25.443  1.00  0.00     0.059 A 
ATOM     73  C   UNL A   1      42.706  21.268  27.836  1.00  0.00     0.059 A 
ATOM     74  F   UNL A   1      43.297  23.002  29.302  1.00  0.00    -0.206 F 
ATOM     75  C   UNL A   1      42.493  20.822  26.533  1.00  0.00     0.060 A 
BRANCH  75  76
ATOM     76  S   UNL A   1      42.029  19.105  26.222  1.00  0.00     0.124 S 
ATOM     77  O   UNL A   1      40.624  19.242  25.857  1.00  0.00    -0.237 OA
ATOM     78  O   UNL A   1      42.936  18.731  25.142  1.00  0.00    -0.237 OA
ATOM     79  O   UNL A   1      42.289  18.452  27.502  1.00  0.00    -0.744 OA
ENDBRANCH  75  76
ENDBRANCH  43  68
BRANCH  55  80
ATOM     80  C   UNL A   1      49.451  26.691  26.358  1.00  0.00     0.058 A 
ATOM     81  C   UNL A   1      49.951  26.831  25.054  1.00  0.00     0.135 A 
ATOM     82  C   UNL A   1      50.286  26.101  27.321  1.00  0.00     0.135 A 
ATOM     83  F   UNL A   1      49.192  27.386  24.095  1.00  0.00    -0.206 F 
ATOM     84  C   UNL A   1      51.218  26.374  24.708  1.00  0.00     0.059 A 
ATOM     85  C   UNL A   1      51.566  25.659  27.004  1.00  0.00     0.059 A 
ATOM     86  F   UNL A   1      49.861  25.955  28.585  1.00  0.00    -0.206 F 
ATOM     87  C   UNL A   1      52.017  25.786  25.690  1.00  0.00     0.060 A 
BRANCH  87  88
ATOM     88  S   UNL A   1      53.667  25.207  25.234  1.00  0.00     0.124 S 
ATOM     89  O   UNL A   1      53.525  23.764  25.398  1.00  0.00    -0.237 OA
ATOM     90  O   UNL A   1      53.798  25.680  23.860  1.00  0.00    -0.237 OA
ATOM     91  O   UNL A   1      54.537  25.867  26.203  1.00  0.00    -0.744 OA
ENDBRANCH  87  88
ENDBRANCH  55  80
ENDBRANCH  29  30
ENDBRANCH  21  24
ENDBRANCH  19  20
ENDBRANCH   1  19
TORSDOF 15
ENDMDL
MODEL 3
REMARK VINA RESULT:     -11.2      4.980     10.481
REMARK SMILES C[C@H]1[C@@H](C(=O)NCCCNC(=O)c2ccc(-c3c4nc(c(-c5c(F)cc(S(=O)(=O)[O-])cc5F)c5ccc([nH]5)c(-c5c(F)cc(S(=O)(=O)[O-])cc5F)c5nc(c(-c6c(F)cc(S(=O)(=O)[O-])cc6F)c6ccc3[nH]6)C=C5)C=C4)cc2)CC[N@@H+]1CC(F)(F)F
REMARK SMILES IDX 8 1 7 2 6 3 4 4 5 5 3 7 1 8 2 9 81 10 79 11 80 12 82 14
REMARK SMILES IDX 83 15 84 16 85 17 86 18 9 19 10 20 11 21 12 23 13 24 14 25
REMARK SMILES IDX 78 26 15 27 77 28 16 29 17 30 18 31 71 32 19 33 76 34 70 35
REMARK SMILES IDX 72 36 20 37 75 38 69 39 68 40 21 42 55 43 34 44 54 45 35 46
REMARK SMILES IDX 38 47 53 48 73 49 36 50 37 51 52 53 74 54 39 55 22 56 23 57
REMARK SMILES IDX 32 58 24 59 25 60 31 61 33 62 26 63 27 64 28 65 29 66 30 67
REMARK SMILES IDX 56 68 57 69 66 70 58 71 59 72 65 73 67 74 60 75 61 76 62 77
REMARK SMILES IDX 63 78 64 79 40 80 41 81 50 82 42 83 43 84 49 85 51 86 44 87
REMARK SMILES IDX 45 88 46 89 47 90 48 91
REMARK H PARENT 6 6 81 13 10 22 72 41 38 52
REMARK Flexibility Score: inf
ROOT
ATOM      1  C   UNL A   1      33.900  28.023  25.434  1.00  0.00     0.042 C 
ENDROOT
BRANCH   1   2
ATOM      2  C   UNL A   1      33.478  26.678  24.838  1.00  0.00     0.117 C 
BRANCH   2   3
ATOM      3  N   UNL A   1      32.746  25.908  25.826  1.00  0.00    -0.356 N 
ATOM      4  C   UNL A   1      32.875  24.616  26.233  1.00  0.00     0.229 C 
ATOM      5  O   UNL A   1      31.933  24.157  26.884  1.00  0.00    -0.275 OA
ATOM      6  H   UNL A   1      32.031  26.408  26.282  1.00  0.00     0.163 HD
BRANCH   4   7
ATOM      7  C   UNL A   1      34.178  23.841  26.023  1.00  0.00     0.142 C 
ATOM      8  C   UNL A   1      33.455  23.074  23.597  1.00  0.00     0.076 C 
ATOM      9  C   UNL A   1      34.360  22.914  24.803  1.00  0.00     0.193 C 
ATOM     10  N   UNL A   1      34.199  21.519  25.266  1.00  0.00    -0.325 N 
ATOM     11  C   UNL A   1      34.386  22.869  27.196  1.00  0.00     0.081 C 
ATOM     12  C   UNL A   1      33.818  21.563  26.676  1.00  0.00     0.263 C 
ATOM     13  H   UNL A   1      33.455  21.058  24.742  1.00  0.00     0.348 HD
BRANCH  10  14
ATOM     14  C   UNL A   1      35.376  20.665  24.970  1.00  0.00     0.379 C 
BRANCH  14  15
ATOM     15  C   UNL A   1      36.780  21.274  24.787  1.00  0.00     0.438 C 
ATOM     16  F   UNL A   1      37.157  22.001  25.862  1.00  0.00    -0.165 F 
ATOM     17  F   UNL A   1      37.704  20.297  24.622  1.00  0.00    -0.165 F 
ATOM     18  F   UNL A   1      36.851  22.077  23.701  1.00  0.00    -0.165 F 
ENDBRANCH  14  15
ENDBRANCH  10  14
ENDBRANCH   4   7
ENDBRANCH   2   3
ENDBRANCH   1   2
BRANCH   1  19
ATOM     19  C   UNL A   1      33.607  28.165  26.921  1.00  0.00     0.118 C 
BRANCH  19  20
ATOM     20  N   UNL A   1      33.473  29.555  27.313  1.00  0.00    -0.352 N 
ATOM     21  C   UNL A   1      34.347  30.367  27.995  1.00  0.00     0.251 C 
ATOM     22  H   UNL A   1      32.627  29.983  27.050  1.00  0.00     0.163 HD
ATOM     23  O   UNL A   1      33.927  31.431  28.446  1.00  0.00    -0.269 OA
BRANCH  21  24
ATOM     24  C   UNL A   1      35.768  29.987  28.209  1.00  0.00     0.039 A 
ATOM     25  C   UNL A   1      36.154  29.543  29.479  1.00  0.00     0.014 A 
ATOM     26  C   UNL A   1      36.740  30.130  27.215  1.00  0.00     0.014 A 
ATOM     27  C   UNL A   1      37.490  29.220  29.737  1.00  0.00     0.010 A 
ATOM     28  C   UNL A   1      38.055  29.718  27.444  1.00  0.00     0.010 A 
ATOM     29  C   UNL A   1      38.452  29.284  28.717  1.00  0.00    -0.014 A 
BRANCH  29  30
ATOM     30  C   UNL A   1      39.879  28.947  28.983  1.00  0.00     0.031 A 
ATOM     31  C   UNL A   1      40.801  29.970  29.600  1.00  0.00     0.074 A 
ATOM     32  C   UNL A   1      40.357  27.733  28.644  1.00  0.00     0.049 A 
ATOM     33  N   UNL A   1      42.076  29.872  29.882  1.00  0.00    -0.248 NA
ATOM     34  C   UNL A   1      40.221  31.284  29.918  1.00  0.00     0.031 C 
ATOM     35  C   UNL A   1      39.587  26.674  27.990  1.00  0.00     0.029 A 
ATOM     36  N   UNL A   1      41.607  27.187  28.801  1.00  0.00    -0.354 N 
ATOM     37  C   UNL A   1      42.452  31.109  30.394  1.00  0.00     0.074 A 
ATOM     38  C   UNL A   1      41.283  31.961  30.329  1.00  0.00     0.031 C 
ATOM     39  C   UNL A   1      40.374  25.599  27.822  1.00  0.00     0.029 A 
ATOM     40  C   UNL A   1      41.709  25.899  28.330  1.00  0.00     0.049 A 
ATOM     41  H   UNL A   1      42.360  27.671  29.210  1.00  0.00     0.167 HD
ATOM     42  C   UNL A   1      43.648  31.496  30.898  1.00  0.00     0.037 A 
ATOM     43  C   UNL A   1      42.758  25.053  28.308  1.00  0.00     0.037 A 
ATOM     44  C   UNL A   1      44.802  30.638  30.991  1.00  0.00     0.049 A 
ATOM     45  C   UNL A   1      44.070  25.492  28.900  1.00  0.00     0.074 A 
ATOM     46  C   UNL A   1      46.042  30.919  31.535  1.00  0.00     0.029 A 
ATOM     47  N   UNL A   1      44.853  29.330  30.534  1.00  0.00    -0.354 N 
ATOM     48  N   UNL A   1      44.387  26.649  29.432  1.00  0.00    -0.248 NA
ATOM     49  C   UNL A   1      45.161  24.508  28.901  1.00  0.00     0.031 C 
ATOM     50  C   UNL A   1      46.856  29.791  31.376  1.00  0.00     0.029 A 
ATOM     51  C   UNL A   1      46.108  28.793  30.771  1.00  0.00     0.049 A 
ATOM     52  H   UNL A   1      44.107  28.853  30.104  1.00  0.00     0.167 HD
ATOM     53  C   UNL A   1      45.709  26.526  29.845  1.00  0.00     0.074 A 
ATOM     54  C   UNL A   1      46.124  25.177  29.520  1.00  0.00     0.031 C 
ATOM     55  C   UNL A   1      46.508  27.449  30.438  1.00  0.00     0.037 A 
BRANCH  42  56
ATOM     56  C   UNL A   1      43.765  32.911  31.402  1.00  0.00     0.058 A 
ATOM     57  C   UNL A   1      43.503  33.237  32.743  1.00  0.00     0.135 A 
ATOM     58  C   UNL A   1      44.161  33.948  30.543  1.00  0.00     0.135 A 
ATOM     59  F   UNL A   1      43.107  32.287  33.605  1.00  0.00    -0.206 F 
ATOM     60  C   UNL A   1      43.595  34.546  33.205  1.00  0.00     0.059 A 
ATOM     61  C   UNL A   1      44.286  35.261  30.991  1.00  0.00     0.059 A 
ATOM     62  F   UNL A   1      44.426  33.694  29.252  1.00  0.00    -0.206 F 
ATOM     63  C   UNL A   1      43.982  35.552  32.321  1.00  0.00     0.060 A 
BRANCH  63  64
ATOM     64  S   UNL A   1      44.089  37.248  32.932  1.00  0.00     0.124 S 
ATOM     65  O   UNL A   1      45.388  37.234  33.600  1.00  0.00    -0.237 OA
ATOM     66  O   UNL A   1      44.024  38.029  31.697  1.00  0.00    -0.237 OA
ATOM     67  O   UNL A   1      42.932  37.370  33.807  1.00  0.00    -0.744 OA
ENDBRANCH  63  64
ENDBRANCH  42  56
BRANCH  43  68
ATOM     68  C   UNL A   1      42.598  23.694  27.728  1.00  0.00     0.058 A 
ATOM     69  C   UNL A   1      42.685  23.482  26.345  1.00  0.00     0.135 A 
ATOM     70  C   UNL A   1      42.382  22.575  28.548  1.00  0.00     0.135 A 
ATOM     71  F   UNL A   1      42.883  24.521  25.519  1.00  0.00    -0.206 F 
ATOM     72  C   UNL A   1      42.555  22.212  25.791  1.00  0.00     0.059 A 
ATOM     73  C   UNL A   1      42.271  21.292  28.020  1.00  0.00     0.059 A 
ATOM     74  F   UNL A   1      42.308  22.722  29.880  1.00  0.00    -0.206 F 
ATOM     75  C   UNL A   1      42.352  21.122  26.639  1.00  0.00     0.060 A 
BRANCH  75  76
ATOM     76  S   UNL A   1      42.250  19.469  25.918  1.00  0.00     0.124 S 
ATOM     77  O   UNL A   1      43.145  19.592  24.774  1.00  0.00    -0.237 OA
ATOM     78  O   UNL A   1      42.724  18.627  27.012  1.00  0.00    -0.237 OA
ATOM     79  O   UNL A   1      40.833  19.329  25.600  1.00  0.00    -0.744 OA
ENDBRANCH  75  76
ENDBRANCH  43  68
BRANCH  55  80
ATOM     80  C   UNL A   1      47.905  27.022  30.791  1.00  0.00     0.058 A 
ATOM     81  C   UNL A   1      48.976  27.204  29.903  1.00  0.00     0.135 A 
ATOM     82  C   UNL A   1      48.181  26.452  32.044  1.00  0.00     0.135 A 
ATOM     83  F   UNL A   1      48.765  27.741  28.690  1.00  0.00    -0.206 F 
ATOM     84  C   UNL A   1      50.268  26.807  30.231  1.00  0.00     0.059 A 
ATOM     85  C   UNL A   1      49.470  26.070  32.404  1.00  0.00     0.059 A 
ATOM     86  F   UNL A   1      47.195  26.267  32.935  1.00  0.00    -0.206 F 
ATOM     87  C   UNL A   1      50.504  26.238  31.484  1.00  0.00     0.060 A 
BRANCH  87  88
ATOM     88  S   UNL A   1      52.188  25.738  31.906  1.00  0.00     0.124 S 
ATOM     89  O   UNL A   1      52.477  26.612  33.038  1.00  0.00    -0.237 OA
ATOM     90  O   UNL A   1      52.026  24.322  32.222  1.00  0.00    -0.237 OA
ATOM     91  O   UNL A   1      52.940  26.018  30.687  1.00  0.00    -0.744 OA
ENDBRANCH  87  88
ENDBRANCH  55  80
ENDBRANCH  29  30
ENDBRANCH  21  24
ENDBRANCH  19  20
ENDBRANCH   1  19
TORSDOF 15
ENDMDL
