MODEL 1
REMARK VINA RESULT:     -11.2      0.000      0.000
REMARK SMILES CC[C@H]1CN(C(=O)N(CC(=O)NCCCNC(=O)c2ccc(-c3c4nc(c(-c5c(F)cc(S(=O)(=O)[O-])cc5F)c5ccc([nH]5)c(-c5c(F)cc(S(=O)(=O)[O-])cc5F)c5nc(c(-c6c(F)cc(S(=O)(=O)[O-])cc6F)c6ccc3[nH]6)C=C5)C=C4)cc2)C(C)(C)C)CC[N@@H+]1C
REMARK SMILES IDX 13 1 12 2 10 3 11 4 9 6 8 7 6 8 7 9 5 10 3 11 4 12 91 13
REMARK SMILES IDX 90 14 92 15 89 17 2 18 1 19 85 20 86 21 87 22 88 23 14 24
REMARK SMILES IDX 15 25 16 26 17 27 18 29 19 30 20 31 84 32 21 33 83 34 22 35
REMARK SMILES IDX 23 36 24 37 77 38 25 39 82 40 76 41 78 42 26 43 81 44 75 45
REMARK SMILES IDX 74 46 27 48 61 49 40 50 60 51 41 52 44 53 59 54 79 55 42 56
REMARK SMILES IDX 43 57 58 59 80 60 45 61 28 62 29 63 38 64 30 65 31 66 37 67
REMARK SMILES IDX 39 68 32 69 33 70 34 71 35 72 36 73 62 74 63 75 72 76 64 77
REMARK SMILES IDX 65 78 71 79 73 80 66 81 67 82 68 83 69 84 70 85 46 86 47 87
REMARK SMILES IDX 56 88 48 89 49 90 55 91 57 92 50 93 51 94 52 95 53 96 54 97
REMARK H PARENT 12 5 91 16 16 28 78 47 44 58
REMARK Flexibility Score: inf
ROOT
ATOM      1  C   UNL A   1      38.035  22.920  26.082  1.00  0.00     0.117 C 
ENDROOT
BRANCH   1   2
ATOM      2  N   UNL A   1      37.712  22.712  24.684  1.00  0.00    -0.354 N 
ATOM      3  C   UNL A   1      36.651  23.178  23.968  1.00  0.00     0.239 C 
ATOM      4  O   UNL A   1      36.654  23.003  22.747  1.00  0.00    -0.273 OA
ATOM      5  H   UNL A   1      38.351  22.157  24.181  1.00  0.00     0.163 HD
BRANCH   3   6
ATOM      6  C   UNL A   1      35.562  24.009  24.652  1.00  0.00     0.221 C 
BRANCH   6   7
ATOM      7  N   UNL A   1      34.146  23.697  24.398  1.00  0.00    -0.311 N 
BRANCH   7   8
ATOM      8  C   UNL A   1      33.441  24.260  23.337  1.00  0.00     0.321 C 
ATOM      9  O   UNL A   1      33.553  23.823  22.190  1.00  0.00    -0.248 OA
BRANCH   8  10
ATOM     10  N   UNL A   1      32.579  25.326  23.564  1.00  0.00    -0.313 N 
ATOM     11  C   UNL A   1      31.943  27.652  24.318  1.00  0.00     0.203 C 
ATOM     12  C   UNL A   1      32.973  26.745  23.576  1.00  0.00     0.186 C 
ATOM     13  N   UNL A   1      30.554  27.480  23.812  1.00  0.00    -0.332 N 
ATOM     14  C   UNL A   1      30.176  26.051  23.795  1.00  0.00     0.284 C 
ATOM     15  C   UNL A   1      30.370  28.090  22.495  1.00  0.00     0.333 C 
ATOM     16  H   UNL A   1      29.934  27.968  24.457  1.00  0.00     0.348 HD
ATOM     17  C   UNL A   1      31.192  25.109  23.128  1.00  0.00     0.183 C 
BRANCH  11  18
ATOM     18  C   UNL A   1      31.922  27.432  25.851  1.00  0.00     0.063 C 
ATOM     19  C   UNL A   1      33.300  27.441  26.498  1.00  0.00     0.010 C 
ENDBRANCH  11  18
ENDBRANCH   8  10
ENDBRANCH   7   8
BRANCH   7  20
ATOM     20  C   UNL A   1      33.376  22.884  25.422  1.00  0.00     0.037 C 
ATOM     21  C   UNL A   1      32.465  21.827  24.758  1.00  0.00     0.034 C 
ATOM     22  C   UNL A   1      34.365  22.180  26.384  1.00  0.00     0.034 C 
ATOM     23  C   UNL A   1      32.455  23.730  26.335  1.00  0.00     0.034 C 
ENDBRANCH   7  20
ENDBRANCH   6   7
ENDBRANCH   3   6
ENDBRANCH   1   2
BRANCH   1  24
ATOM     24  C   UNL A   1      39.321  22.225  26.497  1.00  0.00     0.042 C 
BRANCH  24  25
ATOM     25  C   UNL A   1      40.351  23.168  27.106  1.00  0.00     0.118 C 
BRANCH  25  26
ATOM     26  N   UNL A   1      41.153  23.836  26.090  1.00  0.00    -0.352 N 
ATOM     27  C   UNL A   1      41.591  25.134  26.045  1.00  0.00     0.251 C 
ATOM     28  H   UNL A   1      41.419  23.275  25.326  1.00  0.00     0.163 HD
ATOM     29  O   UNL A   1      42.066  25.582  25.002  1.00  0.00    -0.269 OA
BRANCH  27  30
ATOM     30  C   UNL A   1      41.481  25.994  27.242  1.00  0.00     0.039 A 
ATOM     31  C   UNL A   1      42.466  26.957  27.478  1.00  0.00     0.014 A 
ATOM     32  C   UNL A   1      40.414  25.846  28.133  1.00  0.00     0.014 A 
ATOM     33  C   UNL A   1      42.349  27.809  28.579  1.00  0.00     0.010 A 
ATOM     34  C   UNL A   1      40.263  26.740  29.188  1.00  0.00     0.010 A 
ATOM     35  C   UNL A   1      41.230  27.728  29.425  1.00  0.00    -0.014 A 
BRANCH  35  36
ATOM     36  C   UNL A   1      41.050  28.673  30.556  1.00  0.00     0.031 A 
ATOM     37  C   UNL A   1      41.875  28.522  31.805  1.00  0.00     0.074 A 
ATOM     38  C   UNL A   1      40.090  29.617  30.486  1.00  0.00     0.049 A 
ATOM     39  N   UNL A   1      41.803  29.191  32.927  1.00  0.00    -0.248 NA
ATOM     40  C   UNL A   1      42.899  27.464  31.805  1.00  0.00     0.031 C 
ATOM     41  C   UNL A   1      39.186  29.824  29.351  1.00  0.00     0.029 A 
ATOM     42  N   UNL A   1      39.699  30.569  31.396  1.00  0.00    -0.354 N 
ATOM     43  C   UNL A   1      42.750  28.622  33.771  1.00  0.00     0.074 A 
ATOM     44  C   UNL A   1      43.361  27.530  33.046  1.00  0.00     0.031 C 
ATOM     45  C   UNL A   1      38.353  30.839  29.630  1.00  0.00     0.029 A 
ATOM     46  C   UNL A   1      38.636  31.333  30.974  1.00  0.00     0.049 A 
ATOM     47  H   UNL A   1      40.138  30.691  32.269  1.00  0.00     0.167 HD
ATOM     48  C   UNL A   1      43.090  28.990  35.028  1.00  0.00     0.037 A 
ATOM     49  C   UNL A   1      37.956  32.310  31.604  1.00  0.00     0.037 A 
ATOM     50  C   UNL A   1      42.508  30.106  35.727  1.00  0.00     0.049 A 
ATOM     51  C   UNL A   1      38.372  32.715  32.992  1.00  0.00     0.074 A 
ATOM     52  C   UNL A   1      42.848  30.613  36.969  1.00  0.00     0.029 A 
ATOM     53  N   UNL A   1      41.465  30.885  35.249  1.00  0.00    -0.354 N 
ATOM     54  N   UNL A   1      39.328  32.221  33.743  1.00  0.00    -0.248 NA
ATOM     55  C   UNL A   1      37.625  33.815  33.620  1.00  0.00     0.031 C 
ATOM     56  C   UNL A   1      41.982  31.671  37.262  1.00  0.00     0.029 A 
ATOM     57  C   UNL A   1      41.133  31.853  36.182  1.00  0.00     0.049 A 
ATOM     58  H   UNL A   1      41.025  30.767  34.376  1.00  0.00     0.167 HD
ATOM     59  C   UNL A   1      39.311  32.963  34.918  1.00  0.00     0.074 A 
ATOM     60  C   UNL A   1      38.261  33.950  34.774  1.00  0.00     0.031 C 
ATOM     61  C   UNL A   1      40.092  32.837  36.018  1.00  0.00     0.037 A 
BRANCH  48  62
ATOM     62  C   UNL A   1      44.150  28.193  35.736  1.00  0.00     0.058 A 
ATOM     63  C   UNL A   1      43.827  27.097  36.552  1.00  0.00     0.135 A 
ATOM     64  C   UNL A   1      45.510  28.482  35.536  1.00  0.00     0.135 A 
ATOM     65  F   UNL A   1      42.542  26.786  36.790  1.00  0.00    -0.206 F 
ATOM     66  C   UNL A   1      44.813  26.323  37.153  1.00  0.00     0.059 A 
ATOM     67  C   UNL A   1      46.514  27.706  36.108  1.00  0.00     0.059 A 
ATOM     68  F   UNL A   1      45.874  29.521  34.768  1.00  0.00    -0.206 F 
ATOM     69  C   UNL A   1      46.155  26.632  36.921  1.00  0.00     0.060 A 
BRANCH  69  70
ATOM     70  S   UNL A   1      47.422  25.593  37.677  1.00  0.00     0.124 S 
ATOM     71  O   UNL A   1      48.606  26.438  37.552  1.00  0.00    -0.237 OA
ATOM     72  O   UNL A   1      46.912  25.415  39.034  1.00  0.00    -0.237 OA
ATOM     73  O   UNL A   1      47.419  24.392  36.848  1.00  0.00    -0.744 OA
ENDBRANCH  69  70
ENDBRANCH  48  62
BRANCH  49  74
ATOM     74  C   UNL A   1      36.809  32.975  30.930  1.00  0.00     0.058 A 
ATOM     75  C   UNL A   1      37.015  33.926  29.919  1.00  0.00     0.135 A 
ATOM     76  C   UNL A   1      35.484  32.681  31.288  1.00  0.00     0.135 A 
ATOM     77  F   UNL A   1      38.263  34.246  29.543  1.00  0.00    -0.206 F 
ATOM     78  C   UNL A   1      35.951  34.582  29.307  1.00  0.00     0.059 A 
ATOM     79  C   UNL A   1      34.403  33.303  30.673  1.00  0.00     0.059 A 
ATOM     80  F   UNL A   1      35.233  31.766  32.238  1.00  0.00    -0.206 F 
ATOM     81  C   UNL A   1      34.648  34.265  29.693  1.00  0.00     0.060 A 
BRANCH  81  82
ATOM     82  S   UNL A   1      33.273  35.104  28.878  1.00  0.00     0.124 S 
ATOM     83  O   UNL A   1      32.438  35.473  30.015  1.00  0.00    -0.237 OA
ATOM     84  O   UNL A   1      33.945  36.207  28.196  1.00  0.00    -0.237 OA
ATOM     85  O   UNL A   1      32.725  34.075  27.999  1.00  0.00    -0.744 OA
ENDBRANCH  81  82
ENDBRANCH  49  74
BRANCH  61  86
ATOM     86  C   UNL A   1      39.868  33.808  37.143  1.00  0.00     0.058 A 
ATOM     87  C   UNL A   1      40.515  35.052  37.182  1.00  0.00     0.135 A 
ATOM     88  C   UNL A   1      38.950  33.512  38.165  1.00  0.00     0.135 A 
ATOM     89  F   UNL A   1      41.406  35.381  36.234  1.00  0.00    -0.206 F 
ATOM     90  C   UNL A   1      40.274  35.963  38.206  1.00  0.00     0.059 A 
ATOM     91  C   UNL A   1      38.674  34.418  39.182  1.00  0.00     0.059 A 
ATOM     92  F   UNL A   1      38.297  32.338  38.168  1.00  0.00    -0.206 F 
ATOM     93  C   UNL A   1      39.348  35.639  39.200  1.00  0.00     0.060 A 
BRANCH  93  94
ATOM     94  S   UNL A   1      39.013  36.846  40.499  1.00  0.00     0.124 S 
ATOM     95  O   UNL A   1      38.156  36.079  41.398  1.00  0.00    -0.237 OA
ATOM     96  O   UNL A   1      40.350  37.146  41.001  1.00  0.00    -0.237 OA
ATOM     97  O   UNL A   1      38.357  37.939  39.788  1.00  0.00    -0.744 OA
ENDBRANCH  93  94
ENDBRANCH  61  86
ENDBRANCH  35  36
ENDBRANCH  27  30
ENDBRANCH  25  26
ENDBRANCH  24  25
ENDBRANCH   1  24
TORSDOF 18
ENDMDL
MODEL 2
REMARK VINA RESULT:     -11.1      6.727     11.638
REMARK SMILES CC[C@H]1CN(C(=O)N(CC(=O)NCCCNC(=O)c2ccc(-c3c4nc(c(-c5c(F)cc(S(=O)(=O)[O-])cc5F)c5ccc([nH]5)c(-c5c(F)cc(S(=O)(=O)[O-])cc5F)c5nc(c(-c6c(F)cc(S(=O)(=O)[O-])cc6F)c6ccc3[nH]6)C=C5)C=C4)cc2)C(C)(C)C)CC[N@@H+]1C
REMARK SMILES IDX 13 1 12 2 10 3 11 4 9 6 8 7 6 8 7 9 5 10 3 11 4 12 91 13
REMARK SMILES IDX 90 14 92 15 89 17 2 18 1 19 85 20 86 21 87 22 88 23 14 24
REMARK SMILES IDX 15 25 16 26 17 27 18 29 19 30 20 31 84 32 21 33 83 34 22 35
REMARK SMILES IDX 23 36 24 37 77 38 25 39 82 40 76 41 78 42 26 43 81 44 75 45
REMARK SMILES IDX 74 46 27 48 61 49 40 50 60 51 41 52 44 53 59 54 79 55 42 56
REMARK SMILES IDX 43 57 58 59 80 60 45 61 28 62 29 63 38 64 30 65 31 66 37 67
REMARK SMILES IDX 39 68 32 69 33 70 34 71 35 72 36 73 62 74 63 75 72 76 64 77
REMARK SMILES IDX 65 78 71 79 73 80 66 81 67 82 68 83 69 84 70 85 46 86 47 87
REMARK SMILES IDX 56 88 48 89 49 90 55 91 57 92 50 93 51 94 52 95 53 96 54 97
REMARK H PARENT 12 5 91 16 16 28 78 47 44 58
REMARK Flexibility Score: inf
ROOT
ATOM      1  C   UNL A   1      33.061  30.189  27.304  1.00  0.00     0.117 C 
ENDROOT
BRANCH   1   2
ATOM      2  N   UNL A   1      32.281  29.007  27.615  1.00  0.00    -0.354 N 
ATOM      3  C   UNL A   1      31.605  28.178  26.773  1.00  0.00     0.239 C 
ATOM      4  O   UNL A   1      31.130  27.139  27.240  1.00  0.00    -0.273 OA
ATOM      5  H   UNL A   1      32.234  28.771  28.570  1.00  0.00     0.163 HD
BRANCH   3   6
ATOM      6  C   UNL A   1      31.559  28.471  25.271  1.00  0.00     0.221 C 
BRANCH   6   7
ATOM      7  N   UNL A   1      31.866  27.396  24.313  1.00  0.00    -0.311 N 
BRANCH   7   8
ATOM      8  C   UNL A   1      33.169  26.966  24.073  1.00  0.00     0.321 C 
ATOM      9  O   UNL A   1      34.008  27.713  23.567  1.00  0.00    -0.248 OA
BRANCH   8  10
ATOM     10  N   UNL A   1      33.549  25.674  24.419  1.00  0.00    -0.313 N 
ATOM     11  C   UNL A   1      34.065  23.237  24.002  1.00  0.00     0.203 C 
ATOM     12  C   UNL A   1      34.201  24.713  23.515  1.00  0.00     0.186 C 
ATOM     13  N   UNL A   1      34.516  23.049  25.407  1.00  0.00    -0.332 N 
ATOM     14  C   UNL A   1      33.861  24.028  26.302  1.00  0.00     0.284 C 
ATOM     15  C   UNL A   1      35.972  23.115  25.530  1.00  0.00     0.333 C 
ATOM     16  H   UNL A   1      34.233  22.113  25.695  1.00  0.00     0.348 HD
ATOM     17  C   UNL A   1      33.916  25.491  25.831  1.00  0.00     0.183 C 
BRANCH  11  18
ATOM     18  C   UNL A   1      32.623  22.681  23.887  1.00  0.00     0.063 C 
ATOM     19  C   UNL A   1      32.307  22.052  22.537  1.00  0.00     0.010 C 
ENDBRANCH  11  18
ENDBRANCH   8  10
ENDBRANCH   7   8
BRANCH   7  20
ATOM     20  C   UNL A   1      30.758  26.863  23.424  1.00  0.00     0.037 C 
ATOM     21  C   UNL A   1      30.154  25.550  23.974  1.00  0.00     0.034 C 
ATOM     22  C   UNL A   1      29.640  27.926  23.285  1.00  0.00     0.034 C 
ATOM     23  C   UNL A   1      31.207  26.554  21.975  1.00  0.00     0.034 C 
ENDBRANCH   7  20
ENDBRANCH   6   7
ENDBRANCH   3   6
ENDBRANCH   1   2
BRANCH   1  24
ATOM     24  C   UNL A   1      34.392  29.858  26.650  1.00  0.00     0.042 C 
BRANCH  24  25
ATOM     25  C   UNL A   1      35.371  29.159  27.586  1.00  0.00     0.118 C 
BRANCH  25  26
ATOM     26  N   UNL A   1      35.318  29.700  28.938  1.00  0.00    -0.352 N 
ATOM     27  C   UNL A   1      36.325  29.833  29.858  1.00  0.00     0.251 C 
ATOM     28  H   UNL A   1      34.433  30.015  29.233  1.00  0.00     0.163 HD
ATOM     29  O   UNL A   1      36.051  30.102  31.028  1.00  0.00    -0.269 OA
BRANCH  27  30
ATOM     30  C   UNL A   1      37.732  29.641  29.450  1.00  0.00     0.039 A 
ATOM     31  C   UNL A   1      38.657  29.189  30.395  1.00  0.00     0.014 A 
ATOM     32  C   UNL A   1      38.140  29.915  28.141  1.00  0.00     0.014 A 
ATOM     33  C   UNL A   1      39.979  28.957  30.011  1.00  0.00     0.010 A 
ATOM     34  C   UNL A   1      39.440  29.617  27.744  1.00  0.00     0.010 A 
ATOM     35  C   UNL A   1      40.374  29.139  28.675  1.00  0.00    -0.014 A 
BRANCH  35  36
ATOM     36  C   UNL A   1      41.756  28.826  28.231  1.00  0.00     0.031 A 
ATOM     37  C   UNL A   1      42.118  27.424  27.819  1.00  0.00     0.074 A 
ATOM     38  C   UNL A   1      42.701  29.786  28.273  1.00  0.00     0.049 A 
ATOM     39  N   UNL A   1      43.286  26.938  27.486  1.00  0.00    -0.248 NA
ATOM     40  C   UNL A   1      41.031  26.431  27.805  1.00  0.00     0.031 C 
ATOM     41  C   UNL A   1      42.485  31.169  28.710  1.00  0.00     0.029 A 
ATOM     42  N   UNL A   1      44.037  29.745  27.962  1.00  0.00    -0.354 N 
ATOM     43  C   UNL A   1      43.080  25.584  27.247  1.00  0.00     0.074 A 
ATOM     44  C   UNL A   1      41.683  25.316  27.508  1.00  0.00     0.031 C 
ATOM     45  C   UNL A   1      43.644  31.841  28.635  1.00  0.00     0.029 A 
ATOM     46  C   UNL A   1      44.693  30.935  28.179  1.00  0.00     0.049 A 
ATOM     47  H   UNL A   1      44.485  28.938  27.618  1.00  0.00     0.167 HD
ATOM     48  C   UNL A   1      43.973  24.655  26.831  1.00  0.00     0.037 A 
ATOM     49  C   UNL A   1      45.994  31.255  28.041  1.00  0.00     0.037 A 
ATOM     50  C   UNL A   1      45.352  24.940  26.532  1.00  0.00     0.049 A 
ATOM     51  C   UNL A   1      46.959  30.209  27.553  1.00  0.00     0.074 A 
ATOM     52  C   UNL A   1      46.313  24.085  26.020  1.00  0.00     0.029 A 
ATOM     53  N   UNL A   1      45.969  26.167  26.720  1.00  0.00    -0.354 N 
ATOM     54  N   UNL A   1      46.729  28.953  27.250  1.00  0.00    -0.248 NA
ATOM     55  C   UNL A   1      48.360  30.621  27.381  1.00  0.00     0.031 C 
ATOM     56  C   UNL A   1      47.521  24.784  25.939  1.00  0.00     0.029 A 
ATOM     57  C   UNL A   1      47.302  26.087  26.357  1.00  0.00     0.049 A 
ATOM     58  H   UNL A   1      45.524  26.977  27.062  1.00  0.00     0.167 HD
ATOM     59  C   UNL A   1      47.948  28.434  26.831  1.00  0.00     0.074 A 
ATOM     60  C   UNL A   1      48.910  29.514  26.903  1.00  0.00     0.031 C 
ATOM     61  C   UNL A   1      48.245  27.176  26.424  1.00  0.00     0.037 A 
BRANCH  48  62
ATOM     62  C   UNL A   1      43.493  23.241  26.658  1.00  0.00     0.058 A 
ATOM     63  C   UNL A   1      43.319  22.671  25.388  1.00  0.00     0.135 A 
ATOM     64  C   UNL A   1      43.279  22.421  27.779  1.00  0.00     0.135 A 
ATOM     65  F   UNL A   1      43.494  23.415  24.283  1.00  0.00    -0.206 F 
ATOM     66  C   UNL A   1      42.937  21.343  25.233  1.00  0.00     0.059 A 
ATOM     67  C   UNL A   1      42.921  21.082  27.647  1.00  0.00     0.059 A 
ATOM     68  F   UNL A   1      43.430  22.916  29.017  1.00  0.00    -0.206 F 
ATOM     69  C   UNL A   1      42.746  20.555  26.369  1.00  0.00     0.060 A 
BRANCH  69  70
ATOM     70  S   UNL A   1      42.290  18.822  26.149  1.00  0.00     0.124 S 
ATOM     71  O   UNL A   1      43.225  18.404  25.108  1.00  0.00    -0.237 OA
ATOM     72  O   UNL A   1      42.530  18.265  27.477  1.00  0.00    -0.237 OA
ATOM     73  O   UNL A   1      40.890  18.886  25.743  1.00  0.00    -0.744 OA
ENDBRANCH  69  70
ENDBRANCH  48  62
BRANCH  49  74
ATOM     74  C   UNL A   1      46.464  32.628  28.370  1.00  0.00     0.058 A 
ATOM     75  C   UNL A   1      46.519  33.629  27.389  1.00  0.00     0.135 A 
ATOM     76  C   UNL A   1      46.874  32.964  29.670  1.00  0.00     0.135 A 
ATOM     77  F   UNL A   1      46.142  33.356  26.130  1.00  0.00    -0.206 F 
ATOM     78  C   UNL A   1      46.991  34.906  27.676  1.00  0.00     0.059 A 
ATOM     79  C   UNL A   1      47.324  34.242  29.988  1.00  0.00     0.059 A 
ATOM     80  F   UNL A   1      46.824  32.048  30.649  1.00  0.00    -0.206 F 
ATOM     81  C   UNL A   1      47.394  35.202  28.980  1.00  0.00     0.060 A 
BRANCH  81  82
ATOM     82  S   UNL A   1      47.984  36.868  29.349  1.00  0.00     0.124 S 
ATOM     83  O   UNL A   1      46.755  37.526  29.777  1.00  0.00    -0.237 OA
ATOM     84  O   UNL A   1      48.973  36.621  30.394  1.00  0.00    -0.237 OA
ATOM     85  O   UNL A   1      48.531  37.320  28.073  1.00  0.00    -0.744 OA
ENDBRANCH  81  82
ENDBRANCH  49  74
BRANCH  61  86
ATOM     86  C   UNL A   1      49.658  26.901  25.994  1.00  0.00     0.058 A 
ATOM     87  C   UNL A   1      50.628  26.444  26.899  1.00  0.00     0.135 A 
ATOM     88  C   UNL A   1      50.031  27.040  24.646  1.00  0.00     0.135 A 
ATOM     89  F   UNL A   1      50.324  26.299  28.199  1.00  0.00    -0.206 F 
ATOM     90  C   UNL A   1      51.925  26.152  26.488  1.00  0.00     0.059 A 
ATOM     91  C   UNL A   1      51.314  26.729  24.209  1.00  0.00     0.059 A 
ATOM     92  F   UNL A   1      49.138  27.465  23.738  1.00  0.00    -0.206 F 
ATOM     93  C   UNL A   1      52.257  26.295  25.140  1.00  0.00     0.060 A 
BRANCH  93  94
ATOM     94  S   UNL A   1      53.931  25.874  24.611  1.00  0.00     0.124 S 
ATOM     95  O   UNL A   1      53.881  26.202  23.189  1.00  0.00    -0.237 OA
ATOM     96  O   UNL A   1      54.752  26.756  25.435  1.00  0.00    -0.237 OA
ATOM     97  O   UNL A   1      54.040  24.453  24.924  1.00  0.00    -0.744 OA
ENDBRANCH  93  94
ENDBRANCH  61  86
ENDBRANCH  35  36
ENDBRANCH  27  30
ENDBRANCH  25  26
ENDBRANCH  24  25
ENDBRANCH   1  24
TORSDOF 18
ENDMDL
MODEL 3
REMARK VINA RESULT:     -11.0      6.535     12.035
REMARK SMILES CC[C@H]1CN(C(=O)N(CC(=O)NCCCNC(=O)c2ccc(-c3c4nc(c(-c5c(F)cc(S(=O)(=O)[O-])cc5F)c5ccc([nH]5)c(-c5c(F)cc(S(=O)(=O)[O-])cc5F)c5nc(c(-c6c(F)cc(S(=O)(=O)[O-])cc6F)c6ccc3[nH]6)C=C5)C=C4)cc2)C(C)(C)C)CC[N@@H+]1C
REMARK SMILES IDX 13 1 12 2 10 3 11 4 9 6 8 7 6 8 7 9 5 10 3 11 4 12 91 13
REMARK SMILES IDX 90 14 92 15 89 17 2 18 1 19 85 20 86 21 87 22 88 23 14 24
REMARK SMILES IDX 15 25 16 26 17 27 18 29 19 30 20 31 84 32 21 33 83 34 22 35
REMARK SMILES IDX 23 36 24 37 77 38 25 39 82 40 76 41 78 42 26 43 81 44 75 45
REMARK SMILES IDX 74 46 27 48 61 49 40 50 60 51 41 52 44 53 59 54 79 55 42 56
REMARK SMILES IDX 43 57 58 59 80 60 45 61 28 62 29 63 38 64 30 65 31 66 37 67
REMARK SMILES IDX 39 68 32 69 33 70 34 71 35 72 36 73 62 74 63 75 72 76 64 77
REMARK SMILES IDX 65 78 71 79 73 80 66 81 67 82 68 83 69 84 70 85 46 86 47 87
REMARK SMILES IDX 56 88 48 89 49 90 55 91 57 92 50 93 51 94 52 95 53 96 54 97
REMARK H PARENT 12 5 91 16 16 28 78 47 44 58
REMARK Flexibility Score: inf
ROOT
ATOM      1  C   UNL A   1      33.951  29.262  25.899  1.00  0.00     0.117 C 
ENDROOT
BRANCH   1   2
ATOM      2  N   UNL A   1      32.841  29.711  25.080  1.00  0.00    -0.354 N 
ATOM      3  C   UNL A   1      31.653  29.094  24.831  1.00  0.00     0.239 C 
ATOM      4  O   UNL A   1      30.787  29.729  24.223  1.00  0.00    -0.273 OA
ATOM      5  H   UNL A   1      32.965  30.584  24.644  1.00  0.00     0.163 HD
BRANCH   3   6
ATOM      6  C   UNL A   1      31.365  27.707  25.411  1.00  0.00     0.221 C 
BRANCH   6   7
ATOM      7  N   UNL A   1      31.581  26.514  24.577  1.00  0.00    -0.311 N 
BRANCH   7   8
ATOM      8  C   UNL A   1      32.759  25.772  24.633  1.00  0.00     0.321 C 
ATOM      9  O   UNL A   1      33.818  26.217  24.188  1.00  0.00    -0.248 OA
BRANCH   8  10
ATOM     10  N   UNL A   1      32.756  24.508  25.213  1.00  0.00    -0.313 N 
ATOM     11  C   UNL A   1      33.274  22.039  25.354  1.00  0.00     0.203 C 
ATOM     12  C   UNL A   1      33.774  23.470  24.983  1.00  0.00     0.186 C 
ATOM     13  N   UNL A   1      32.723  21.961  26.734  1.00  0.00    -0.332 N 
ATOM     14  C   UNL A   1      31.710  23.016  26.954  1.00  0.00     0.284 C 
ATOM     15  C   UNL A   1      33.774  22.021  27.749  1.00  0.00     0.333 C 
ATOM     16  H   UNL A   1      32.267  21.055  26.828  1.00  0.00     0.348 HD
ATOM     17  C   UNL A   1      32.137  24.435  26.544  1.00  0.00     0.183 C 
BRANCH  11  18
ATOM     18  C   UNL A   1      32.199  21.492  24.381  1.00  0.00     0.063 C 
ATOM     19  C   UNL A   1      32.516  21.728  22.911  1.00  0.00     0.010 C 
ENDBRANCH  11  18
ENDBRANCH   8  10
ENDBRANCH   7   8
BRANCH   7  20
ATOM     20  C   UNL A   1      30.574  26.181  23.492  1.00  0.00     0.037 C 
ATOM     21  C   UNL A   1      29.159  26.698  23.836  1.00  0.00     0.034 C 
ATOM     22  C   UNL A   1      31.033  26.793  22.145  1.00  0.00     0.034 C 
ATOM     23  C   UNL A   1      30.420  24.665  23.218  1.00  0.00     0.034 C 
ENDBRANCH   7  20
ENDBRANCH   6   7
ENDBRANCH   3   6
ENDBRANCH   1   2
BRANCH   1  24
ATOM     24  C   UNL A   1      33.959  29.903  27.277  1.00  0.00     0.042 C 
BRANCH  24  25
ATOM     25  C   UNL A   1      35.265  29.696  28.035  1.00  0.00     0.118 C 
BRANCH  25  26
ATOM     26  N   UNL A   1      35.381  30.587  29.182  1.00  0.00    -0.352 N 
ATOM     27  C   UNL A   1      36.444  30.778  30.026  1.00  0.00     0.251 C 
ATOM     28  H   UNL A   1      34.583  31.129  29.378  1.00  0.00     0.163 HD
ATOM     29  O   UNL A   1      36.285  31.404  31.073  1.00  0.00    -0.269 OA
BRANCH  27  30
ATOM     30  C   UNL A   1      37.771  30.225  29.685  1.00  0.00     0.039 A 
ATOM     31  C   UNL A   1      38.128  30.100  28.340  1.00  0.00     0.014 A 
ATOM     32  C   UNL A   1      38.655  29.820  30.689  1.00  0.00     0.014 A 
ATOM     33  C   UNL A   1      39.397  29.624  28.004  1.00  0.00     0.010 A 
ATOM     34  C   UNL A   1      39.943  29.411  30.354  1.00  0.00     0.010 A 
ATOM     35  C   UNL A   1      40.327  29.305  29.009  1.00  0.00    -0.014 A 
BRANCH  35  36
ATOM     36  C   UNL A   1      41.705  28.868  28.673  1.00  0.00     0.031 A 
ATOM     37  C   UNL A   1      42.820  29.878  28.596  1.00  0.00     0.074 A 
ATOM     38  C   UNL A   1      41.936  27.578  28.361  1.00  0.00     0.049 A 
ATOM     39  N   UNL A   1      44.065  29.705  28.235  1.00  0.00    -0.248 NA
ATOM     40  C   UNL A   1      42.486  31.269  28.946  1.00  0.00     0.031 C 
ATOM     41  C   UNL A   1      40.924  26.517  28.342  1.00  0.00     0.029 A 
ATOM     42  N   UNL A   1      43.090  26.938  27.982  1.00  0.00    -0.354 N 
ATOM     43  C   UNL A   1      44.655  30.962  28.291  1.00  0.00     0.074 A 
ATOM     44  C   UNL A   1      43.624  31.897  28.686  1.00  0.00     0.031 C 
ATOM     45  C   UNL A   1      41.503  25.362  27.976  1.00  0.00     0.029 A 
ATOM     46  C   UNL A   1      42.916  25.603  27.700  1.00  0.00     0.049 A 
ATOM     47  H   UNL A   1      43.961  27.394  27.915  1.00  0.00     0.167 HD
ATOM     48  C   UNL A   1      45.943  31.302  28.052  1.00  0.00     0.037 A 
ATOM     49  C   UNL A   1      43.791  24.680  27.255  1.00  0.00     0.037 A 
ATOM     50  C   UNL A   1      46.973  30.359  27.702  1.00  0.00     0.049 A 
ATOM     51  C   UNL A   1      45.222  25.081  27.021  1.00  0.00     0.074 A 
ATOM     52  C   UNL A   1      48.327  30.592  27.526  1.00  0.00     0.029 A 
ATOM     53  N   UNL A   1      46.768  29.008  27.470  1.00  0.00    -0.354 N 
ATOM     54  N   UNL A   1      45.782  26.259  27.162  1.00  0.00    -0.248 NA
ATOM     55  C   UNL A   1      46.146  24.028  26.576  1.00  0.00     0.031 C 
ATOM     56  C   UNL A   1      48.932  29.391  27.145  1.00  0.00     0.029 A 
ATOM     57  C   UNL A   1      47.964  28.399  27.130  1.00  0.00     0.049 A 
ATOM     58  H   UNL A   1      45.899  28.548  27.537  1.00  0.00     0.167 HD
ATOM     59  C   UNL A   1      47.123  26.084  26.844  1.00  0.00     0.074 A 
ATOM     60  C   UNL A   1      47.297  24.683  26.520  1.00  0.00     0.031 C 
ATOM     61  C   UNL A   1      48.122  27.000  26.821  1.00  0.00     0.037 A 
BRANCH  48  62
ATOM     62  C   UNL A   1      46.327  32.751  28.170  1.00  0.00     0.058 A 
ATOM     63  C   UNL A   1      46.929  33.262  29.330  1.00  0.00     0.135 A 
ATOM     64  C   UNL A   1      46.159  33.621  27.080  1.00  0.00     0.135 A 
ATOM     65  F   UNL A   1      47.099  32.477  30.407  1.00  0.00    -0.206 F 
ATOM     66  C   UNL A   1      47.341  34.587  29.411  1.00  0.00     0.059 A 
ATOM     67  C   UNL A   1      46.587  34.946  27.131  1.00  0.00     0.059 A 
ATOM     68  F   UNL A   1      45.586  33.185  25.948  1.00  0.00    -0.206 F 
ATOM     69  C   UNL A   1      47.171  35.420  28.304  1.00  0.00     0.060 A 
BRANCH  69  70
ATOM     70  S   UNL A   1      47.748  37.128  28.413  1.00  0.00     0.124 S 
ATOM     71  O   UNL A   1      48.632  37.211  27.254  1.00  0.00    -0.237 OA
ATOM     72  O   UNL A   1      46.503  37.885  28.315  1.00  0.00    -0.237 OA
ATOM     73  O   UNL A   1      48.410  37.182  29.712  1.00  0.00    -0.744 OA
ENDBRANCH  69  70
ENDBRANCH  48  62
BRANCH  49  74
ATOM     74  C   UNL A   1      43.340  23.286  27.000  1.00  0.00     0.058 A 
ATOM     75  C   UNL A   1      43.049  22.413  28.059  1.00  0.00     0.135 A 
ATOM     76  C   UNL A   1      43.198  22.796  25.692  1.00  0.00     0.135 A 
ATOM     77  F   UNL A   1      43.174  22.833  29.327  1.00  0.00    -0.206 F 
ATOM     78  C   UNL A   1      42.663  21.096  27.833  1.00  0.00     0.059 A 
ATOM     79  C   UNL A   1      42.787  21.491  25.440  1.00  0.00     0.059 A 
ATOM     80  F   UNL A   1      43.447  23.596  24.644  1.00  0.00    -0.206 F 
ATOM     81  C   UNL A   1      42.537  20.643  26.518  1.00  0.00     0.060 A 
BRANCH  81  82
ATOM     82  S   UNL A   1      42.012  18.939  26.234  1.00  0.00     0.124 S 
ATOM     83  O   UNL A   1      42.950  18.511  25.203  1.00  0.00    -0.237 OA
ATOM     84  O   UNL A   1      42.194  18.336  27.552  1.00  0.00    -0.237 OA
ATOM     85  O   UNL A   1      40.624  19.082  25.806  1.00  0.00    -0.744 OA
ENDBRANCH  81  82
ENDBRANCH  49  74
BRANCH  61  86
ATOM     86  C   UNL A   1      49.499  26.516  26.465  1.00  0.00     0.058 A 
ATOM     87  C   UNL A   1      50.003  26.624  25.160  1.00  0.00     0.135 A 
ATOM     88  C   UNL A   1      50.347  25.993  27.456  1.00  0.00     0.135 A 
ATOM     89  F   UNL A   1      49.231  27.112  24.176  1.00  0.00    -0.206 F 
ATOM     90  C   UNL A   1      51.293  26.211  24.843  1.00  0.00     0.059 A 
ATOM     91  C   UNL A   1      51.649  25.599  27.167  1.00  0.00     0.059 A 
ATOM     92  F   UNL A   1      49.917  25.877  28.722  1.00  0.00    -0.206 F 
ATOM     93  C   UNL A   1      52.110  25.703  25.855  1.00  0.00     0.060 A 
BRANCH  93  94
ATOM     94  S   UNL A   1      53.797  25.210  25.441  1.00  0.00     0.124 S 
ATOM     95  O   UNL A   1      53.673  23.756  25.389  1.00  0.00    -0.237 OA
ATOM     96  O   UNL A   1      54.012  25.874  24.159  1.00  0.00    -0.237 OA
ATOM     97  O   UNL A   1      54.587  25.733  26.551  1.00  0.00    -0.744 OA
ENDBRANCH  93  94
ENDBRANCH  61  86
ENDBRANCH  35  36
ENDBRANCH  27  30
ENDBRANCH  25  26
ENDBRANCH  24  25
ENDBRANCH   1  24
TORSDOF 18
ENDMDL
