MODEL 1
REMARK VINA RESULT:     -11.3      0.000      0.000
REMARK SMILES CCC[C@@H](C)C[C@H](C(=O)NCCCNC(=O)c1ccc(-c2c3nc(c(-c4c(F)cc(S(=O)(=O)[O-])cc4F)c4ccc([nH]4)c(-c4c(F)cc(S(=O)(=O)[O-])cc4F)c4nc(c(-c5c(F)cc(S(=O)(=O)[O-])cc5F)c5ccc2[nH]5)C=C4)C=C3)cc1)c1ccccc1C
REMARK SMILES IDX 11 1 10 2 8 3 9 4 7 6 6 7 4 8 5 9 3 10 2 11 1 12 83 13 84 14
REMARK SMILES IDX 88 15 85 16 87 17 89 18 86 19 12 20 13 21 14 22 15 23 16 25
REMARK SMILES IDX 17 26 18 27 82 28 19 29 81 30 20 31 21 32 22 33 75 34 23 35
REMARK SMILES IDX 80 36 74 37 76 38 24 39 79 40 73 41 72 42 25 44 59 45 38 46
REMARK SMILES IDX 58 47 39 48 42 49 57 50 77 51 40 52 41 53 56 55 78 56 43 57
REMARK SMILES IDX 26 58 27 59 36 60 28 61 29 62 35 63 37 64 30 65 31 66 32 67
REMARK SMILES IDX 33 68 34 69 60 70 61 71 70 72 62 73 63 74 69 75 71 76 64 77
REMARK SMILES IDX 65 78 66 79 67 80 68 81 44 82 45 83 54 84 46 85 47 86 53 87
REMARK SMILES IDX 55 88 48 89 49 90 50 91 51 92 52 93
REMARK H PARENT 10 5 14 24 76 43 42 54
REMARK Flexibility Score: inf
ROOT
ATOM      1  C   UNL A   1      37.787  23.356  25.969  1.00  0.00     0.117 C 
ENDROOT
BRANCH   1   2
ATOM      2  N   UNL A   1      37.622  23.126  24.545  1.00  0.00    -0.356 N 
ATOM      3  C   UNL A   1      36.500  23.177  23.771  1.00  0.00     0.227 C 
ATOM      4  O   UNL A   1      36.653  22.986  22.562  1.00  0.00    -0.274 OA
ATOM      5  H   UNL A   1      38.449  22.898  24.063  1.00  0.00     0.163 HD
BRANCH   3   6
ATOM      6  C   UNL A   1      35.130  23.440  24.411  1.00  0.00     0.109 C 
BRANCH   6   7
ATOM      7  C   UNL A   1      34.631  24.923  24.393  1.00  0.00     0.021 C 
BRANCH   7   8
ATOM      8  C   UNL A   1      33.973  25.550  25.646  1.00  0.00    -0.013 C 
ATOM      9  C   UNL A   1      32.800  24.663  26.091  1.00  0.00     0.007 C 
BRANCH   8  10
ATOM     10  C   UNL A   1      33.494  27.002  25.463  1.00  0.00     0.003 C 
BRANCH  10  11
ATOM     11  C   UNL A   1      33.240  27.413  24.003  1.00  0.00    -0.003 C 
ATOM     12  C   UNL A   1      33.713  28.819  23.653  1.00  0.00     0.004 C 
ENDBRANCH  10  11
ENDBRANCH   8  10
ENDBRANCH   7   8
ENDBRANCH   6   7
BRANCH   6  13
ATOM     13  C   UNL A   1      34.096  22.399  23.944  1.00  0.00    -0.033 A 
ATOM     14  C   UNL A   1      33.303  22.644  22.806  1.00  0.00     0.005 A 
ATOM     15  C   UNL A   1      33.947  21.151  24.601  1.00  0.00    -0.047 A 
ATOM     16  C   UNL A   1      32.326  21.737  22.386  1.00  0.00     0.000 A 
ATOM     17  C   UNL A   1      32.954  20.252  24.166  1.00  0.00     0.004 A 
ATOM     18  C   UNL A   1      34.799  20.697  25.759  1.00  0.00     0.044 C 
ATOM     19  C   UNL A   1      32.141  20.548  23.076  1.00  0.00     0.000 A 
ENDBRANCH   6  13
ENDBRANCH   3   6
ENDBRANCH   1   2
BRANCH   1  20
ATOM     20  C   UNL A   1      38.927  22.550  26.567  1.00  0.00     0.042 C 
BRANCH  20  21
ATOM     21  C   UNL A   1      40.120  23.379  27.027  1.00  0.00     0.118 C 
BRANCH  21  22
ATOM     22  N   UNL A   1      40.712  24.211  25.987  1.00  0.00    -0.352 N 
ATOM     23  C   UNL A   1      41.181  25.505  26.073  1.00  0.00     0.251 C 
ATOM     24  H   UNL A   1      40.788  23.790  25.100  1.00  0.00     0.163 HD
ATOM     25  O   UNL A   1      41.581  26.086  25.074  1.00  0.00    -0.269 OA
BRANCH  23  26
ATOM     26  C   UNL A   1      41.145  26.196  27.381  1.00  0.00     0.039 A 
ATOM     27  C   UNL A   1      42.275  26.898  27.806  1.00  0.00     0.014 A 
ATOM     28  C   UNL A   1      39.971  26.221  28.137  1.00  0.00     0.014 A 
ATOM     29  C   UNL A   1      42.191  27.714  28.937  1.00  0.00     0.010 A 
ATOM     30  C   UNL A   1      39.863  27.105  29.205  1.00  0.00     0.010 A 
ATOM     31  C   UNL A   1      40.968  27.869  29.609  1.00  0.00    -0.014 A 
BRANCH  31  32
ATOM     32  C   UNL A   1      40.811  28.835  30.728  1.00  0.00     0.031 A 
ATOM     33  C   UNL A   1      41.695  28.730  31.941  1.00  0.00     0.074 A 
ATOM     34  C   UNL A   1      39.821  29.750  30.689  1.00  0.00     0.049 A 
ATOM     35  N   UNL A   1      41.648  29.407  33.059  1.00  0.00    -0.248 NA
ATOM     36  C   UNL A   1      42.746  27.701  31.903  1.00  0.00     0.031 C 
ATOM     37  C   UNL A   1      38.863  29.920  29.595  1.00  0.00     0.029 A 
ATOM     38  N   UNL A   1      39.452  30.709  31.601  1.00  0.00    -0.354 N 
ATOM     39  C   UNL A   1      42.647  28.872  33.865  1.00  0.00     0.074 A 
ATOM     40  C   UNL A   1      43.241  27.777  33.129  1.00  0.00     0.031 C 
ATOM     41  C   UNL A   1      38.042  30.945  29.881  1.00  0.00     0.029 A 
ATOM     42  C   UNL A   1      38.388  31.479  31.194  1.00  0.00     0.049 A 
ATOM     43  H   UNL A   1      39.907  30.832  32.465  1.00  0.00     0.167 HD
ATOM     44  C   UNL A   1      43.052  29.273  35.093  1.00  0.00     0.037 A 
ATOM     45  C   UNL A   1      37.765  32.502  31.809  1.00  0.00     0.037 A 
ATOM     46  C   UNL A   1      42.482  30.384  35.806  1.00  0.00     0.049 A 
ATOM     47  C   UNL A   1      38.239  32.941  33.167  1.00  0.00     0.074 A 
ATOM     48  C   UNL A   1      42.850  30.902  37.035  1.00  0.00     0.029 A 
ATOM     49  N   UNL A   1      41.423  31.155  35.349  1.00  0.00    -0.354 N 
ATOM     50  N   UNL A   1      39.213  32.451  33.896  1.00  0.00    -0.248 NA
ATOM     51  C   UNL A   1      37.533  34.071  33.784  1.00  0.00     0.031 C 
ATOM     52  C   UNL A   1      41.999  31.973  37.331  1.00  0.00     0.029 A 
ATOM     53  C   UNL A   1      41.121  32.142  36.271  1.00  0.00     0.049 A 
ATOM     54  H   UNL A   1      40.955  31.021  34.493  1.00  0.00     0.167 HD
ATOM     55  C   UNL A   1      39.256  33.231  35.046  1.00  0.00     0.074 A 
ATOM     56  C   UNL A   1      38.211  34.227  34.913  1.00  0.00     0.031 C 
ATOM     57  C   UNL A   1      40.085  33.132  36.114  1.00  0.00     0.037 A 
BRANCH  44  58
ATOM     58  C   UNL A   1      44.174  28.500  35.728  1.00  0.00     0.058 A 
ATOM     59  C   UNL A   1      45.518  28.796  35.447  1.00  0.00     0.135 A 
ATOM     60  C   UNL A   1      43.907  27.438  36.607  1.00  0.00     0.135 A 
ATOM     61  F   UNL A   1      45.828  29.790  34.599  1.00  0.00    -0.206 F 
ATOM     62  C   UNL A   1      46.556  28.036  35.975  1.00  0.00     0.059 A 
ATOM     63  C   UNL A   1      44.932  26.682  37.170  1.00  0.00     0.059 A 
ATOM     64  F   UNL A   1      42.642  27.114  36.912  1.00  0.00    -0.206 F 
ATOM     65  C   UNL A   1      46.252  26.974  36.826  1.00  0.00     0.060 A 
BRANCH  65  66
ATOM     66  S   UNL A   1      47.606  25.970  37.475  1.00  0.00     0.124 S 
ATOM     67  O   UNL A   1      46.875  24.884  38.120  1.00  0.00    -0.237 OA
ATOM     68  O   UNL A   1      48.339  25.610  36.266  1.00  0.00    -0.237 OA
ATOM     69  O   UNL A   1      48.302  26.884  38.376  1.00  0.00    -0.744 OA
ENDBRANCH  65  66
ENDBRANCH  44  58
BRANCH  45  70
ATOM     70  C   UNL A   1      36.656  33.216  31.123  1.00  0.00     0.058 A 
ATOM     71  C   UNL A   1      36.922  34.086  30.054  1.00  0.00     0.135 A 
ATOM     72  C   UNL A   1      35.316  33.029  31.497  1.00  0.00     0.135 A 
ATOM     73  F   UNL A   1      38.188  34.299  29.665  1.00  0.00    -0.206 F 
ATOM     74  C   UNL A   1      35.901  34.753  29.386  1.00  0.00     0.059 A 
ATOM     75  C   UNL A   1      34.277  33.671  30.830  1.00  0.00     0.059 A 
ATOM     76  F   UNL A   1      35.009  32.195  32.503  1.00  0.00    -0.206 F 
ATOM     77  C   UNL A   1      34.580  34.536  29.779  1.00  0.00     0.060 A 
BRANCH  77  78
ATOM     78  S   UNL A   1      33.258  35.360  28.864  1.00  0.00     0.124 S 
ATOM     79  O   UNL A   1      34.012  36.288  28.030  1.00  0.00    -0.237 OA
ATOM     80  O   UNL A   1      32.626  34.244  28.167  1.00  0.00    -0.237 OA
ATOM     81  O   UNL A   1      32.452  35.967  29.919  1.00  0.00    -0.744 OA
ENDBRANCH  77  78
ENDBRANCH  45  70
BRANCH  57  82
ATOM     82  C   UNL A   1      39.923  34.150  37.206  1.00  0.00     0.058 A 
ATOM     83  C   UNL A   1      40.649  35.350  37.209  1.00  0.00     0.135 A 
ATOM     84  C   UNL A   1      38.990  33.941  38.236  1.00  0.00     0.135 A 
ATOM     85  F   UNL A   1      41.556  35.592  36.250  1.00  0.00    -0.206 F 
ATOM     86  C   UNL A   1      40.469  36.304  38.205  1.00  0.00     0.059 A 
ATOM     87  C   UNL A   1      38.780  34.890  39.231  1.00  0.00     0.059 A 
ATOM     88  F   UNL A   1      38.266  32.812  38.274  1.00  0.00    -0.206 F 
ATOM     89  C   UNL A   1      39.531  36.065  39.212  1.00  0.00     0.060 A 
BRANCH  89  90
ATOM     90  S   UNL A   1      39.278  37.325  40.480  1.00  0.00     0.124 S 
ATOM     91  O   UNL A   1      40.585  37.974  40.514  1.00  0.00    -0.237 OA
ATOM     92  O   UNL A   1      38.190  38.121  39.920  1.00  0.00    -0.237 OA
ATOM     93  O   UNL A   1      38.931  36.547  41.666  1.00  0.00    -0.744 OA
ENDBRANCH  89  90
ENDBRANCH  57  82
ENDBRANCH  31  32
ENDBRANCH  23  26
ENDBRANCH  21  22
ENDBRANCH  20  21
ENDBRANCH   1  20
TORSDOF 18
ENDMDL
MODEL 2
REMARK VINA RESULT:     -11.2      6.973     12.313
REMARK SMILES CCC[C@@H](C)C[C@H](C(=O)NCCCNC(=O)c1ccc(-c2c3nc(c(-c4c(F)cc(S(=O)(=O)[O-])cc4F)c4ccc([nH]4)c(-c4c(F)cc(S(=O)(=O)[O-])cc4F)c4nc(c(-c5c(F)cc(S(=O)(=O)[O-])cc5F)c5ccc2[nH]5)C=C4)C=C3)cc1)c1ccccc1C
REMARK SMILES IDX 11 1 10 2 8 3 9 4 7 6 6 7 4 8 5 9 3 10 2 11 1 12 83 13 84 14
REMARK SMILES IDX 88 15 85 16 87 17 89 18 86 19 12 20 13 21 14 22 15 23 16 25
REMARK SMILES IDX 17 26 18 27 82 28 19 29 81 30 20 31 21 32 22 33 75 34 23 35
REMARK SMILES IDX 80 36 74 37 76 38 24 39 79 40 73 41 72 42 25 44 59 45 38 46
REMARK SMILES IDX 58 47 39 48 42 49 57 50 77 51 40 52 41 53 56 55 78 56 43 57
REMARK SMILES IDX 26 58 27 59 36 60 28 61 29 62 35 63 37 64 30 65 31 66 32 67
REMARK SMILES IDX 33 68 34 69 60 70 61 71 70 72 62 73 63 74 69 75 71 76 64 77
REMARK SMILES IDX 65 78 66 79 67 80 68 81 44 82 45 83 54 84 46 85 47 86 53 87
REMARK SMILES IDX 55 88 48 89 49 90 50 91 51 92 52 93
REMARK H PARENT 10 5 14 24 76 43 42 54
REMARK Flexibility Score: inf
ROOT
ATOM      1  C   UNL A   1      33.116  29.448  26.290  1.00  0.00     0.117 C 
ENDROOT
BRANCH   1   2
ATOM      2  N   UNL A   1      33.621  29.324  24.934  1.00  0.00    -0.356 N 
ATOM      3  C   UNL A   1      32.968  29.019  23.777  1.00  0.00     0.227 C 
ATOM      4  O   UNL A   1      33.639  29.030  22.743  1.00  0.00    -0.274 OA
ATOM      5  H   UNL A   1      34.588  29.484  24.836  1.00  0.00     0.163 HD
BRANCH   3   6
ATOM      6  C   UNL A   1      31.474  28.665  23.803  1.00  0.00     0.109 C 
BRANCH   6   7
ATOM      7  C   UNL A   1      30.638  29.101  22.554  1.00  0.00     0.021 C 
BRANCH   7   8
ATOM      8  C   UNL A   1      29.380  29.988  22.716  1.00  0.00    -0.013 C 
ATOM      9  C   UNL A   1      28.153  29.083  22.914  1.00  0.00     0.007 C 
BRANCH   8  10
ATOM     10  C   UNL A   1      29.129  30.968  21.556  1.00  0.00     0.003 C 
BRANCH  10  11
ATOM     11  C   UNL A   1      28.278  32.195  21.927  1.00  0.00    -0.003 C 
ATOM     12  C   UNL A   1      28.875  33.066  23.026  1.00  0.00     0.004 C 
ENDBRANCH  10  11
ENDBRANCH   8  10
ENDBRANCH   7   8
ENDBRANCH   6   7
BRANCH   6  13
ATOM     13  C   UNL A   1      31.263  27.208  24.252  1.00  0.00    -0.033 A 
ATOM     14  C   UNL A   1      30.805  26.923  25.554  1.00  0.00     0.005 A 
ATOM     15  C   UNL A   1      31.467  26.118  23.368  1.00  0.00    -0.047 A 
ATOM     16  C   UNL A   1      30.649  25.610  26.004  1.00  0.00     0.000 A 
ATOM     17  C   UNL A   1      31.309  24.801  23.841  1.00  0.00     0.004 A 
ATOM     18  C   UNL A   1      31.846  26.267  21.916  1.00  0.00     0.044 C 
ATOM     19  C   UNL A   1      30.916  24.548  25.152  1.00  0.00     0.000 A 
ENDBRANCH   6  13
ENDBRANCH   3   6
ENDBRANCH   1   2
BRANCH   1  20
ATOM     20  C   UNL A   1      34.154  29.091  27.340  1.00  0.00     0.042 C 
BRANCH  20  21
ATOM     21  C   UNL A   1      35.239  30.142  27.545  1.00  0.00     0.118 C 
BRANCH  21  22
ATOM     22  N   UNL A   1      35.315  30.671  28.902  1.00  0.00    -0.352 N 
ATOM     23  C   UNL A   1      36.343  30.568  29.816  1.00  0.00     0.251 C 
ATOM     24  H   UNL A   1      34.524  31.170  29.207  1.00  0.00     0.163 HD
ATOM     25  O   UNL A   1      36.211  31.011  30.948  1.00  0.00    -0.269 OA
BRANCH  23  26
ATOM     26  C   UNL A   1      37.588  29.871  29.422  1.00  0.00     0.039 A 
ATOM     27  C   UNL A   1      37.987  29.904  28.084  1.00  0.00     0.014 A 
ATOM     28  C   UNL A   1      38.397  29.267  30.386  1.00  0.00     0.014 A 
ATOM     29  C   UNL A   1      39.250  29.425  27.732  1.00  0.00     0.010 A 
ATOM     30  C   UNL A   1      39.689  28.878  30.049  1.00  0.00     0.010 A 
ATOM     31  C   UNL A   1      40.134  28.963  28.722  1.00  0.00    -0.014 A 
BRANCH  31  32
ATOM     32  C   UNL A   1      41.533  28.578  28.399  1.00  0.00     0.031 A 
ATOM     33  C   UNL A   1      42.617  29.621  28.395  1.00  0.00     0.074 A 
ATOM     34  C   UNL A   1      41.810  27.311  28.028  1.00  0.00     0.049 A 
ATOM     35  N   UNL A   1      43.871  29.507  28.043  1.00  0.00    -0.248 NA
ATOM     36  C   UNL A   1      42.227  30.978  28.807  1.00  0.00     0.031 C 
ATOM     37  C   UNL A   1      40.838  26.219  27.939  1.00  0.00     0.029 A 
ATOM     38  N   UNL A   1      42.995  26.729  27.649  1.00  0.00    -0.354 N 
ATOM     39  C   UNL A   1      44.414  30.780  28.170  1.00  0.00     0.074 A 
ATOM     40  C   UNL A   1      43.338  31.660  28.573  1.00  0.00     0.031 C 
ATOM     41  C   UNL A   1      41.472  25.092  27.570  1.00  0.00     0.029 A 
ATOM     42  C   UNL A   1      42.884  25.389  27.358  1.00  0.00     0.049 A 
ATOM     43  H   UNL A   1      43.843  27.224  27.592  1.00  0.00     0.167 HD
ATOM     44  C   UNL A   1      45.697  31.177  27.994  1.00  0.00     0.037 A 
ATOM     45  C   UNL A   1      43.818  24.501  26.966  1.00  0.00     0.037 A 
ATOM     46  C   UNL A   1      46.770  30.294  27.626  1.00  0.00     0.049 A 
ATOM     47  C   UNL A   1      45.239  24.959  26.790  1.00  0.00     0.074 A 
ATOM     48  C   UNL A   1      48.113  30.586  27.468  1.00  0.00     0.029 A 
ATOM     49  N   UNL A   1      46.622  28.939  27.365  1.00  0.00    -0.354 N 
ATOM     50  N   UNL A   1      45.743  26.159  26.956  1.00  0.00    -0.248 NA
ATOM     51  C   UNL A   1      46.218  23.946  26.377  1.00  0.00     0.031 C 
ATOM     52  C   UNL A   1      48.774  29.411  27.089  1.00  0.00     0.029 A 
ATOM     53  C   UNL A   1      47.847  28.382  27.042  1.00  0.00     0.049 A 
ATOM     54  H   UNL A   1      45.771  28.447  27.403  1.00  0.00     0.167 HD
ATOM     55  C   UNL A   1      47.103  26.039  26.695  1.00  0.00     0.074 A 
ATOM     56  C   UNL A   1      47.343  24.648  26.364  1.00  0.00     0.031 C 
ATOM     57  C   UNL A   1      48.066  26.992  26.728  1.00  0.00     0.037 A 
BRANCH  44  58
ATOM     58  C   UNL A   1      45.996  32.635  28.210  1.00  0.00     0.058 A 
ATOM     59  C   UNL A   1      45.927  33.561  27.156  1.00  0.00     0.135 A 
ATOM     60  C   UNL A   1      46.376  33.110  29.475  1.00  0.00     0.135 A 
ATOM     61  F   UNL A   1      45.585  33.157  25.922  1.00  0.00    -0.206 F 
ATOM     62  C   UNL A   1      46.273  34.896  27.336  1.00  0.00     0.059 A 
ATOM     63  C   UNL A   1      46.700  34.448  29.685  1.00  0.00     0.059 A 
ATOM     64  F   UNL A   1      46.455  32.269  30.518  1.00  0.00    -0.206 F 
ATOM     65  C   UNL A   1      46.669  35.327  28.603  1.00  0.00     0.060 A 
BRANCH  65  66
ATOM     66  S   UNL A   1      47.154  37.053  28.816  1.00  0.00     0.124 S 
ATOM     67  O   UNL A   1      47.271  37.142  30.268  1.00  0.00    -0.237 OA
ATOM     68  O   UNL A   1      48.407  37.124  28.074  1.00  0.00    -0.237 OA
ATOM     69  O   UNL A   1      46.040  37.792  28.229  1.00  0.00    -0.744 OA
ENDBRANCH  65  66
ENDBRANCH  44  58
BRANCH  45  70
ATOM     70  C   UNL A   1      43.447  23.076  26.764  1.00  0.00     0.058 A 
ATOM     71  C   UNL A   1      43.385  22.532  25.472  1.00  0.00     0.135 A 
ATOM     72  C   UNL A   1      43.174  22.225  27.846  1.00  0.00     0.135 A 
ATOM     73  F   UNL A   1      43.633  23.308  24.406  1.00  0.00    -0.206 F 
ATOM     74  C   UNL A   1      43.055  21.198  25.257  1.00  0.00     0.059 A 
ATOM     75  C   UNL A   1      42.861  20.882  27.657  1.00  0.00     0.059 A 
ATOM     76  F   UNL A   1      43.236  22.693  29.102  1.00  0.00    -0.206 F 
ATOM     77  C   UNL A   1      42.798  20.379  26.357  1.00  0.00     0.060 A 
BRANCH  77  78
ATOM     78  S   UNL A   1      42.432  18.633  26.071  1.00  0.00     0.124 S 
ATOM     79  O   UNL A   1      43.340  18.319  24.974  1.00  0.00    -0.237 OA
ATOM     80  O   UNL A   1      42.758  18.035  27.362  1.00  0.00    -0.237 OA
ATOM     81  O   UNL A   1      41.012  18.642  25.734  1.00  0.00    -0.744 OA
ENDBRANCH  77  78
ENDBRANCH  45  70
BRANCH  57  82
ATOM     82  C   UNL A   1      49.473  26.558  26.435  1.00  0.00     0.058 A 
ATOM     83  C   UNL A   1      50.280  25.961  27.416  1.00  0.00     0.135 A 
ATOM     84  C   UNL A   1      50.003  26.695  25.141  1.00  0.00     0.135 A 
ATOM     85  F   UNL A   1      49.821  25.814  28.669  1.00  0.00    -0.206 F 
ATOM     86  C   UNL A   1      51.571  25.529  27.129  1.00  0.00     0.059 A 
ATOM     87  C   UNL A   1      51.283  26.252  24.828  1.00  0.00     0.059 A 
ATOM     88  F   UNL A   1      49.268  27.253  24.166  1.00  0.00    -0.206 F 
ATOM     89  C   UNL A   1      52.064  25.679  25.831  1.00  0.00     0.060 A 
BRANCH  89  90
ATOM     90  S   UNL A   1      53.727  25.082  25.460  1.00  0.00     0.124 S 
ATOM     91  O   UNL A   1      53.999  25.744  24.188  1.00  0.00    -0.237 OA
ATOM     92  O   UNL A   1      54.496  25.565  26.602  1.00  0.00    -0.237 OA
ATOM     93  O   UNL A   1      53.559  23.633  25.393  1.00  0.00    -0.744 OA
ENDBRANCH  89  90
ENDBRANCH  57  82
ENDBRANCH  31  32
ENDBRANCH  23  26
ENDBRANCH  21  22
ENDBRANCH  20  21
ENDBRANCH   1  20
TORSDOF 18
ENDMDL
MODEL 3
REMARK VINA RESULT:     -11.1      2.761      8.525
REMARK SMILES CCC[C@@H](C)C[C@H](C(=O)NCCCNC(=O)c1ccc(-c2c3nc(c(-c4c(F)cc(S(=O)(=O)[O-])cc4F)c4ccc([nH]4)c(-c4c(F)cc(S(=O)(=O)[O-])cc4F)c4nc(c(-c5c(F)cc(S(=O)(=O)[O-])cc5F)c5ccc2[nH]5)C=C4)C=C3)cc1)c1ccccc1C
REMARK SMILES IDX 11 1 10 2 8 3 9 4 7 6 6 7 4 8 5 9 3 10 2 11 1 12 83 13 84 14
REMARK SMILES IDX 88 15 85 16 87 17 89 18 86 19 12 20 13 21 14 22 15 23 16 25
REMARK SMILES IDX 17 26 18 27 82 28 19 29 81 30 20 31 21 32 22 33 75 34 23 35
REMARK SMILES IDX 80 36 74 37 76 38 24 39 79 40 73 41 72 42 25 44 59 45 38 46
REMARK SMILES IDX 58 47 39 48 42 49 57 50 77 51 40 52 41 53 56 55 78 56 43 57
REMARK SMILES IDX 26 58 27 59 36 60 28 61 29 62 35 63 37 64 30 65 31 66 32 67
REMARK SMILES IDX 33 68 34 69 60 70 61 71 70 72 62 73 63 74 69 75 71 76 64 77
REMARK SMILES IDX 65 78 66 79 67 80 68 81 44 82 45 83 54 84 46 85 47 86 53 87
REMARK SMILES IDX 55 88 48 89 49 90 50 91 51 92 52 93
REMARK H PARENT 10 5 14 24 76 43 42 54
REMARK Flexibility Score: inf
ROOT
ATOM      1  C   UNL A   1      33.210  29.632  26.686  1.00  0.00     0.117 C 
ENDROOT
BRANCH   1   2
ATOM      2  N   UNL A   1      33.607  29.646  25.289  1.00  0.00    -0.356 N 
ATOM      3  C   UNL A   1      33.109  28.952  24.227  1.00  0.00     0.227 C 
ATOM      4  O   UNL A   1      33.605  29.195  23.124  1.00  0.00    -0.274 OA
ATOM      5  H   UNL A   1      34.353  30.253  25.076  1.00  0.00     0.163 HD
BRANCH   3   6
ATOM      6  C   UNL A   1      31.999  27.910  24.435  1.00  0.00     0.109 C 
BRANCH   6   7
ATOM      7  C   UNL A   1      30.955  27.771  23.278  1.00  0.00     0.021 C 
BRANCH   7   8
ATOM      8  C   UNL A   1      29.587  28.490  23.359  1.00  0.00    -0.013 C 
ATOM      9  C   UNL A   1      28.477  27.436  23.501  1.00  0.00     0.007 C 
BRANCH   8  10
ATOM     10  C   UNL A   1      29.278  29.423  22.173  1.00  0.00     0.003 C 
BRANCH  10  11
ATOM     11  C   UNL A   1      27.934  30.163  22.275  1.00  0.00    -0.003 C 
ATOM     12  C   UNL A   1      27.801  31.062  23.499  1.00  0.00     0.004 C 
ENDBRANCH  10  11
ENDBRANCH   8  10
ENDBRANCH   7   8
ENDBRANCH   6   7
BRANCH   6  13
ATOM     13  C   UNL A   1      32.583  26.582  24.950  1.00  0.00    -0.033 A 
ATOM     14  C   UNL A   1      33.929  26.250  24.699  1.00  0.00     0.005 A 
ATOM     15  C   UNL A   1      31.813  25.683  25.731  1.00  0.00    -0.047 A 
ATOM     16  C   UNL A   1      34.472  25.033  25.114  1.00  0.00     0.000 A 
ATOM     17  C   UNL A   1      32.376  24.458  26.137  1.00  0.00     0.004 A 
ATOM     18  C   UNL A   1      30.397  25.949  26.177  1.00  0.00     0.044 C 
ATOM     19  C   UNL A   1      33.691  24.129  25.820  1.00  0.00     0.000 A 
ENDBRANCH   6  13
ENDBRANCH   3   6
ENDBRANCH   1   2
BRANCH   1  20
ATOM     20  C   UNL A   1      32.580  30.940  27.132  1.00  0.00     0.042 C 
BRANCH  20  21
ATOM     21  C   UNL A   1      33.570  32.074  27.375  1.00  0.00     0.118 C 
BRANCH  21  22
ATOM     22  N   UNL A   1      32.951  33.368  27.632  1.00  0.00    -0.352 N 
ATOM     23  C   UNL A   1      33.262  34.301  28.599  1.00  0.00     0.251 C 
ATOM     24  H   UNL A   1      32.209  33.610  27.033  1.00  0.00     0.163 HD
ATOM     25  O   UNL A   1      32.586  35.312  28.724  1.00  0.00    -0.269 OA
BRANCH  23  26
ATOM     26  C   UNL A   1      34.394  34.036  29.515  1.00  0.00     0.039 A 
ATOM     27  C   UNL A   1      34.147  33.385  30.725  1.00  0.00     0.014 A 
ATOM     28  C   UNL A   1      35.701  34.351  29.135  1.00  0.00     0.014 A 
ATOM     29  C   UNL A   1      35.223  32.952  31.504  1.00  0.00     0.010 A 
ATOM     30  C   UNL A   1      36.768  33.838  29.865  1.00  0.00     0.010 A 
ATOM     31  C   UNL A   1      36.541  33.124  31.050  1.00  0.00    -0.014 A 
BRANCH  31  32
ATOM     32  C   UNL A   1      37.699  32.553  31.787  1.00  0.00     0.031 A 
ATOM     33  C   UNL A   1      38.465  31.398  31.202  1.00  0.00     0.074 A 
ATOM     34  C   UNL A   1      38.006  33.017  33.015  1.00  0.00     0.049 A 
ATOM     35  N   UNL A   1      39.434  30.697  31.731  1.00  0.00    -0.248 NA
ATOM     36  C   UNL A   1      38.061  30.950  29.860  1.00  0.00     0.031 C 
ATOM     37  C   UNL A   1      37.307  34.096  33.716  1.00  0.00     0.029 A 
ATOM     38  N   UNL A   1      38.986  32.633  33.897  1.00  0.00    -0.354 N 
ATOM     39  C   UNL A   1      39.741  29.714  30.797  1.00  0.00     0.074 A 
ATOM     40  C   UNL A   1      38.814  29.873  29.697  1.00  0.00     0.031 C 
ATOM     41  C   UNL A   1      37.904  34.314  34.900  1.00  0.00     0.029 A 
ATOM     42  C   UNL A   1      39.000  33.365  35.061  1.00  0.00     0.049 A 
ATOM     43  H   UNL A   1      39.619  31.903  33.713  1.00  0.00     0.167 HD
ATOM     44  C   UNL A   1      40.721  28.781  30.838  1.00  0.00     0.037 A 
ATOM     45  C   UNL A   1      39.809  33.282  36.136  1.00  0.00     0.037 A 
ATOM     46  C   UNL A   1      41.662  28.647  31.917  1.00  0.00     0.049 A 
ATOM     47  C   UNL A   1      40.900  32.248  36.154  1.00  0.00     0.074 A 
ATOM     48  C   UNL A   1      42.722  27.767  32.035  1.00  0.00     0.029 A 
ATOM     49  N   UNL A   1      41.659  29.425  33.067  1.00  0.00    -0.354 N 
ATOM     50  N   UNL A   1      41.202  31.354  35.244  1.00  0.00    -0.248 NA
ATOM     51  C   UNL A   1      41.760  32.212  37.344  1.00  0.00     0.031 C 
ATOM     52  C   UNL A   1      43.347  27.997  33.266  1.00  0.00     0.029 A 
ATOM     53  C   UNL A   1      42.695  29.042  33.901  1.00  0.00     0.049 A 
ATOM     54  H   UNL A   1      41.014  30.143  33.260  1.00  0.00     0.167 HD
ATOM     55  C   UNL A   1      42.306  30.667  35.737  1.00  0.00     0.074 A 
ATOM     56  C   UNL A   1      42.620  31.253  37.025  1.00  0.00     0.031 C 
ATOM     57  C   UNL A   1      42.998  29.647  35.174  1.00  0.00     0.037 A 
BRANCH  44  58
ATOM     58  C   UNL A   1      40.819  27.842  29.667  1.00  0.00     0.058 A 
ATOM     59  C   UNL A   1      39.895  26.800  29.484  1.00  0.00     0.135 A 
ATOM     60  C   UNL A   1      41.856  27.969  28.730  1.00  0.00     0.135 A 
ATOM     61  F   UNL A   1      38.894  26.623  30.362  1.00  0.00    -0.206 F 
ATOM     62  C   UNL A   1      40.025  25.887  28.445  1.00  0.00     0.059 A 
ATOM     63  C   UNL A   1      41.989  27.083  27.664  1.00  0.00     0.059 A 
ATOM     64  F   UNL A   1      42.765  28.949  28.854  1.00  0.00    -0.206 F 
ATOM     65  C   UNL A   1      41.082  26.030  27.546  1.00  0.00     0.060 A 
BRANCH  65  66
ATOM     66  S   UNL A   1      41.263  24.815  26.222  1.00  0.00     0.124 S 
ATOM     67  O   UNL A   1      42.479  24.121  26.633  1.00  0.00    -0.237 OA
ATOM     68  O   UNL A   1      40.028  24.046  26.328  1.00  0.00    -0.237 OA
ATOM     69  O   UNL A   1      41.383  25.638  25.022  1.00  0.00    -0.744 OA
ENDBRANCH  65  66
ENDBRANCH  44  58
BRANCH  45  70
ATOM     70  C   UNL A   1      39.648  34.240  37.261  1.00  0.00     0.058 A 
ATOM     71  C   UNL A   1      38.964  33.862  38.426  1.00  0.00     0.135 A 
ATOM     72  C   UNL A   1      40.190  35.534  37.210  1.00  0.00     0.135 A 
ATOM     73  F   UNL A   1      38.425  32.637  38.519  1.00  0.00    -0.206 F 
ATOM     74  C   UNL A   1      38.813  34.735  39.499  1.00  0.00     0.059 A 
ATOM     75  C   UNL A   1      40.069  36.417  38.279  1.00  0.00     0.059 A 
ATOM     76  F   UNL A   1      40.867  35.937  36.124  1.00  0.00    -0.206 F 
ATOM     77  C   UNL A   1      39.373  36.011  39.417  1.00  0.00     0.060 A 
BRANCH  77  78
ATOM     78  S   UNL A   1      39.225  37.114  40.840  1.00  0.00     0.124 S 
ATOM     79  O   UNL A   1      38.499  36.277  41.786  1.00  0.00    -0.237 OA
ATOM     80  O   UNL A   1      40.622  37.383  41.166  1.00  0.00    -0.237 OA
ATOM     81  O   UNL A   1      38.485  38.252  40.302  1.00  0.00    -0.744 OA
ENDBRANCH  77  78
ENDBRANCH  45  70
BRANCH  57  82
ATOM     82  C   UNL A   1      44.185  29.122  35.929  1.00  0.00     0.058 A 
ATOM     83  C   UNL A   1      45.457  29.699  35.795  1.00  0.00     0.135 A 
ATOM     84  C   UNL A   1      44.035  28.061  36.837  1.00  0.00     0.135 A 
ATOM     85  F   UNL A   1      45.651  30.711  34.935  1.00  0.00    -0.206 F 
ATOM     86  C   UNL A   1      46.545  29.231  36.523  1.00  0.00     0.059 A 
ATOM     87  C   UNL A   1      45.106  27.590  37.590  1.00  0.00     0.059 A 
ATOM     88  F   UNL A   1      42.836  27.480  37.006  1.00  0.00    -0.206 F 
ATOM     89  C   UNL A   1      46.360  28.175  37.419  1.00  0.00     0.060 A 
BRANCH  89  90
ATOM     90  S   UNL A   1      47.771  27.599  38.387  1.00  0.00     0.124 S 
ATOM     91  O   UNL A   1      48.129  28.803  39.129  1.00  0.00    -0.237 OA
ATOM     92  O   UNL A   1      47.190  26.517  39.176  1.00  0.00    -0.237 OA
ATOM     93  O   UNL A   1      48.729  27.178  37.368  1.00  0.00    -0.744 OA
ENDBRANCH  89  90
ENDBRANCH  57  82
ENDBRANCH  31  32
ENDBRANCH  23  26
ENDBRANCH  21  22
ENDBRANCH  20  21
ENDBRANCH   1  20
TORSDOF 18
ENDMDL
