MODEL 1
REMARK VINA RESULT:     -11.0      0.000      0.000
REMARK SMILES C[C@H](C[N@@H+](C)[C@H]1CC[C@H]([NH3+])CC1)C(=O)NCCCNC(=O)c1ccc(-c2c3nc(c(-c4c(F)cc(S(=O)(=O)[O-])cc4F)c4ccc([nH]4)c(-c4c(F)cc(S(=O)(=O)[O-])cc4F)c4nc(c(-c5c(F)cc(S(=O)(=O)[O-])cc5F)c5ccc2[nH]5)C=C4)C=C3)cc1
REMARK SMILES IDX 16 1 15 2 13 3 14 4 2 6 1 7 3 8 4 9 5 10 6 12 7 13 12 14
REMARK SMILES IDX 8 15 11 16 9 17 10 18 17 22 18 23 19 24 20 25 21 27 22 28
REMARK SMILES IDX 23 29 87 30 24 31 86 32 25 33 26 34 27 35 80 36 28 37 85 38
REMARK SMILES IDX 79 39 81 40 29 41 84 42 78 43 77 44 30 46 64 47 43 48 63 49
REMARK SMILES IDX 44 50 47 51 62 52 82 53 45 54 46 55 61 57 83 58 48 59 31 60
REMARK SMILES IDX 32 61 41 62 33 63 34 64 40 65 42 66 35 67 36 68 37 69 38 70
REMARK SMILES IDX 39 71 65 72 66 73 75 74 67 75 68 76 74 77 76 78 69 79 70 80
REMARK SMILES IDX 71 81 72 82 73 83 49 84 50 85 59 86 51 87 52 88 58 89 60 90
REMARK SMILES IDX 53 91 54 92 55 93 56 94 57 95
REMARK H PARENT 15 5 4 11 10 19 10 20 10 21 19 26 81 45 47 56
REMARK Flexibility Score: inf
ROOT
ATOM      1  C   UNL A   1      31.688  27.200  26.327  1.00  0.00     0.117 C 
ENDROOT
BRANCH   1   2
ATOM      2  N   UNL A   1      31.103  25.991  26.816  1.00  0.00    -0.356 N 
ATOM      3  C   UNL A   1      31.307  24.748  26.291  1.00  0.00     0.228 C 
ATOM      4  O   UNL A   1      31.234  23.814  27.103  1.00  0.00    -0.275 OA
ATOM      5  H   UNL A   1      30.507  26.060  27.596  1.00  0.00     0.163 HD
BRANCH   3   6
ATOM      6  C   UNL A   1      31.495  24.426  24.780  1.00  0.00     0.130 C 
ATOM      7  C   UNL A   1      30.360  25.053  23.947  1.00  0.00     0.024 C 
BRANCH   6   8
ATOM      8  C   UNL A   1      32.031  23.091  24.171  1.00  0.00     0.275 C 
BRANCH   8   9
ATOM      9  N   UNL A   1      32.846  22.131  24.946  1.00  0.00    -0.334 N 
ATOM     10  C   UNL A   1      32.225  20.855  25.243  1.00  0.00     0.332 C 
ATOM     11  H   UNL A   1      32.816  22.716  25.780  1.00  0.00     0.348 HD
BRANCH   9  12
ATOM     12  C   UNL A   1      34.288  22.275  25.137  1.00  0.00     0.184 C 
ATOM     13  C   UNL A   1      35.055  23.383  24.383  1.00  0.00     0.071 C 
ATOM     14  C   UNL A   1      34.972  20.928  24.886  1.00  0.00     0.071 C 
ATOM     15  C   UNL A   1      36.509  23.431  24.889  1.00  0.00     0.071 C 
ATOM     16  C   UNL A   1      36.440  20.924  25.289  1.00  0.00     0.071 C 
ATOM     17  C   UNL A   1      37.226  22.091  24.696  1.00  0.00     0.181 C 
BRANCH  17  18
ATOM     18  N   UNL A   1      38.553  22.108  25.312  1.00  0.00    -0.355 N 
ATOM     19  H   UNL A   1      39.111  22.853  24.897  1.00  0.00     0.344 HD
ATOM     20  H   UNL A   1      39.013  21.210  25.156  1.00  0.00     0.344 HD
ATOM     21  H   UNL A   1      38.460  22.272  26.315  1.00  0.00     0.344 HD
ENDBRANCH  17  18
ENDBRANCH   9  12
ENDBRANCH   8   9
ENDBRANCH   6   8
ENDBRANCH   3   6
ENDBRANCH   1   2
BRANCH   1  22
ATOM     22  C   UNL A   1      31.969  28.311  27.313  1.00  0.00     0.042 C 
BRANCH  22  23
ATOM     23  C   UNL A   1      33.292  29.023  27.070  1.00  0.00     0.118 C 
BRANCH  23  24
ATOM     24  N   UNL A   1      33.433  30.316  27.748  1.00  0.00    -0.352 N 
ATOM     25  C   UNL A   1      34.489  30.913  28.404  1.00  0.00     0.251 C 
ATOM     26  H   UNL A   1      32.616  30.864  27.732  1.00  0.00     0.163 HD
ATOM     27  O   UNL A   1      34.309  32.014  28.927  1.00  0.00    -0.269 OA
BRANCH  25  28
ATOM     28  C   UNL A   1      35.801  30.236  28.536  1.00  0.00     0.039 A 
ATOM     29  C   UNL A   1      36.673  30.197  27.441  1.00  0.00     0.014 A 
ATOM     30  C   UNL A   1      36.199  29.661  29.738  1.00  0.00     0.014 A 
ATOM     31  C   UNL A   1      37.979  29.713  27.601  1.00  0.00     0.010 A 
ATOM     32  C   UNL A   1      37.531  29.320  29.935  1.00  0.00     0.010 A 
ATOM     33  C   UNL A   1      38.445  29.344  28.872  1.00  0.00    -0.014 A 
BRANCH  33  34
ATOM     34  C   UNL A   1      39.864  28.984  29.148  1.00  0.00     0.031 A 
ATOM     35  C   UNL A   1      40.816  30.038  29.661  1.00  0.00     0.074 A 
ATOM     36  C   UNL A   1      40.335  27.766  28.805  1.00  0.00     0.049 A 
ATOM     37  N   UNL A   1      42.122  30.012  29.734  1.00  0.00    -0.248 NA
ATOM     38  C   UNL A   1      40.219  31.312  30.096  1.00  0.00     0.031 C 
ATOM     39  C   UNL A   1      39.540  26.670  28.246  1.00  0.00     0.029 A 
ATOM     40  N   UNL A   1      41.610  27.254  28.849  1.00  0.00    -0.354 N 
ATOM     41  C   UNL A   1      42.501  31.276  30.173  1.00  0.00     0.074 A 
ATOM     42  C   UNL A   1      41.292  32.061  30.294  1.00  0.00     0.031 C 
ATOM     43  C   UNL A   1      40.336  25.613  28.020  1.00  0.00     0.029 A 
ATOM     44  C   UNL A   1      41.708  25.970  28.362  1.00  0.00     0.049 A 
ATOM     45  H   UNL A   1      42.381  27.757  29.197  1.00  0.00     0.167 HD
ATOM     46  C   UNL A   1      43.739  31.735  30.473  1.00  0.00     0.037 A 
ATOM     47  C   UNL A   1      42.783  25.175  28.188  1.00  0.00     0.037 A 
ATOM     48  C   UNL A   1      44.929  30.928  30.413  1.00  0.00     0.049 A 
ATOM     49  C   UNL A   1      44.146  25.694  28.557  1.00  0.00     0.074 A 
ATOM     50  C   UNL A   1      46.218  31.271  30.780  1.00  0.00     0.029 A 
ATOM     51  N   UNL A   1      44.974  29.614  29.970  1.00  0.00    -0.354 N 
ATOM     52  N   UNL A   1      44.480  26.877  29.019  1.00  0.00    -0.248 NA
ATOM     53  C   UNL A   1      45.280  24.776  28.380  1.00  0.00     0.031 C 
ATOM     54  C   UNL A   1      47.050  30.175  30.524  1.00  0.00     0.029 A 
ATOM     55  C   UNL A   1      46.271  29.136  30.040  1.00  0.00     0.049 A 
ATOM     56  H   UNL A   1      44.197  29.099  29.653  1.00  0.00     0.167 HD
ATOM     57  C   UNL A   1      45.856  26.835  29.211  1.00  0.00     0.074 A 
ATOM     58  C   UNL A   1      46.292  25.508  28.827  1.00  0.00     0.031 C 
ATOM     59  C   UNL A   1      46.685  27.807  29.665  1.00  0.00     0.037 A 
BRANCH  46  60
ATOM     60  C   UNL A   1      43.867  33.169  30.910  1.00  0.00     0.058 A 
ATOM     61  C   UNL A   1      43.748  33.544  32.258  1.00  0.00     0.135 A 
ATOM     62  C   UNL A   1      44.142  34.181  29.974  1.00  0.00     0.135 A 
ATOM     63  F   UNL A   1      43.471  32.622  33.194  1.00  0.00    -0.206 F 
ATOM     64  C   UNL A   1      43.856  34.871  32.659  1.00  0.00     0.059 A 
ATOM     65  C   UNL A   1      44.287  35.511  30.357  1.00  0.00     0.059 A 
ATOM     66  F   UNL A   1      44.268  33.882  28.672  1.00  0.00    -0.206 F 
ATOM     67  C   UNL A   1      44.125  35.849  31.700  1.00  0.00     0.060 A 
BRANCH  67  68
ATOM     68  S   UNL A   1      44.263  37.566  32.237  1.00  0.00     0.124 S 
ATOM     69  O   UNL A   1      43.809  38.280  31.047  1.00  0.00    -0.237 OA
ATOM     70  O   UNL A   1      43.361  37.609  33.384  1.00  0.00    -0.237 OA
ATOM     71  O   UNL A   1      45.680  37.711  32.553  1.00  0.00    -0.744 OA
ENDBRANCH  67  68
ENDBRANCH  46  60
BRANCH  47  72
ATOM     72  C   UNL A   1      42.613  23.795  27.655  1.00  0.00     0.058 A 
ATOM     73  C   UNL A   1      42.485  22.703  28.525  1.00  0.00     0.135 A 
ATOM     74  C   UNL A   1      42.557  23.542  26.276  1.00  0.00     0.135 A 
ATOM     75  F   UNL A   1      42.538  22.894  29.852  1.00  0.00    -0.206 F 
ATOM     76  C   UNL A   1      42.322  21.406  28.050  1.00  0.00     0.059 A 
ATOM     77  C   UNL A   1      42.370  22.255  25.776  1.00  0.00     0.059 A 
ATOM     78  F   UNL A   1      42.657  24.553  25.400  1.00  0.00    -0.206 F 
ATOM     79  C   UNL A   1      42.263  21.192  26.672  1.00  0.00     0.060 A 
BRANCH  79  80
ATOM     80  S   UNL A   1      41.999  19.511  26.068  1.00  0.00     0.124 S 
ATOM     81  O   UNL A   1      40.592  19.552  25.687  1.00  0.00    -0.237 OA
ATOM     82  O   UNL A   1      42.955  19.427  24.967  1.00  0.00    -0.237 OA
ATOM     83  O   UNL A   1      42.317  18.684  27.228  1.00  0.00    -0.744 OA
ENDBRANCH  79  80
ENDBRANCH  47  72
BRANCH  59  84
ATOM     84  C   UNL A   1      48.142  27.470  29.807  1.00  0.00     0.058 A 
ATOM     85  C   UNL A   1      49.027  27.561  28.723  1.00  0.00     0.135 A 
ATOM     86  C   UNL A   1      48.670  27.124  31.061  1.00  0.00     0.135 A 
ATOM     87  F   UNL A   1      48.570  27.879  27.502  1.00  0.00    -0.206 F 
ATOM     88  C   UNL A   1      50.386  27.307  28.875  1.00  0.00     0.059 A 
ATOM     89  C   UNL A   1      50.030  26.892  31.242  1.00  0.00     0.059 A 
ATOM     90  F   UNL A   1      47.866  27.033  32.133  1.00  0.00    -0.206 F 
ATOM     91  C   UNL A   1      50.880  26.980  30.139  1.00  0.00     0.060 A 
BRANCH  91  92
ATOM     92  S   UNL A   1      52.654  26.708  30.332  1.00  0.00     0.124 S 
ATOM     93  O   UNL A   1      53.060  27.915  31.044  1.00  0.00    -0.237 OA
ATOM     94  O   UNL A   1      52.698  25.471  31.104  1.00  0.00    -0.237 OA
ATOM     95  O   UNL A   1      53.133  26.598  28.957  1.00  0.00    -0.744 OA
ENDBRANCH  91  92
ENDBRANCH  59  84
ENDBRANCH  33  34
ENDBRANCH  25  28
ENDBRANCH  23  24
ENDBRANCH  22  23
ENDBRANCH   1  22
TORSDOF 17
ENDMDL
MODEL 2
REMARK VINA RESULT:     -10.6      1.354      2.175
REMARK SMILES C[C@H](C[N@@H+](C)[C@H]1CC[C@H]([NH3+])CC1)C(=O)NCCCNC(=O)c1ccc(-c2c3nc(c(-c4c(F)cc(S(=O)(=O)[O-])cc4F)c4ccc([nH]4)c(-c4c(F)cc(S(=O)(=O)[O-])cc4F)c4nc(c(-c5c(F)cc(S(=O)(=O)[O-])cc5F)c5ccc2[nH]5)C=C4)C=C3)cc1
REMARK SMILES IDX 16 1 15 2 13 3 14 4 2 6 1 7 3 8 4 9 5 10 6 12 7 13 12 14
REMARK SMILES IDX 8 15 11 16 9 17 10 18 17 22 18 23 19 24 20 25 21 27 22 28
REMARK SMILES IDX 23 29 87 30 24 31 86 32 25 33 26 34 27 35 80 36 28 37 85 38
REMARK SMILES IDX 79 39 81 40 29 41 84 42 78 43 77 44 30 46 64 47 43 48 63 49
REMARK SMILES IDX 44 50 47 51 62 52 82 53 45 54 46 55 61 57 83 58 48 59 31 60
REMARK SMILES IDX 32 61 41 62 33 63 34 64 40 65 42 66 35 67 36 68 37 69 38 70
REMARK SMILES IDX 39 71 65 72 66 73 75 74 67 75 68 76 74 77 76 78 69 79 70 80
REMARK SMILES IDX 71 81 72 82 73 83 49 84 50 85 59 86 51 87 52 88 58 89 60 90
REMARK SMILES IDX 53 91 54 92 55 93 56 94 57 95
REMARK H PARENT 15 5 4 11 10 19 10 20 10 21 19 26 81 45 47 56
REMARK Flexibility Score: inf
ROOT
ATOM      1  C   UNL A   1      31.679  29.241  25.027  1.00  0.00     0.117 C 
ENDROOT
BRANCH   1   2
ATOM      2  N   UNL A   1      31.320  29.312  23.645  1.00  0.00    -0.356 N 
ATOM      3  C   UNL A   1      30.725  28.311  22.933  1.00  0.00     0.228 C 
ATOM      4  O   UNL A   1      29.991  28.687  22.008  1.00  0.00    -0.275 OA
ATOM      5  H   UNL A   1      31.515  30.151  23.169  1.00  0.00     0.163 HD
BRANCH   3   6
ATOM      6  C   UNL A   1      30.992  26.789  23.119  1.00  0.00     0.130 C 
ATOM      7  C   UNL A   1      29.856  26.135  23.928  1.00  0.00     0.024 C 
BRANCH   6   8
ATOM      8  C   UNL A   1      32.379  26.109  23.356  1.00  0.00     0.275 C 
BRANCH   8   9
ATOM      9  N   UNL A   1      32.649  24.701  22.995  1.00  0.00    -0.334 N 
ATOM     10  C   UNL A   1      32.935  24.439  21.598  1.00  0.00     0.332 C 
ATOM     11  H   UNL A   1      31.689  24.423  23.194  1.00  0.00     0.348 HD
BRANCH   9  12
ATOM     12  C   UNL A   1      32.944  23.663  23.981  1.00  0.00     0.184 C 
ATOM     13  C   UNL A   1      34.070  22.642  23.707  1.00  0.00     0.071 C 
ATOM     14  C   UNL A   1      31.656  22.911  24.332  1.00  0.00     0.071 C 
ATOM     15  C   UNL A   1      34.293  21.778  24.962  1.00  0.00     0.071 C 
ATOM     16  C   UNL A   1      31.822  21.973  25.519  1.00  0.00     0.071 C 
ATOM     17  C   UNL A   1      33.018  21.035  25.377  1.00  0.00     0.181 C 
BRANCH  17  18
ATOM     18  N   UNL A   1      33.205  20.338  26.650  1.00  0.00    -0.355 N 
ATOM     19  H   UNL A   1      34.200  20.193  26.816  1.00  0.00     0.344 HD
ATOM     20  H   UNL A   1      32.730  19.435  26.617  1.00  0.00     0.344 HD
ATOM     21  H   UNL A   1      32.813  20.900  27.407  1.00  0.00     0.344 HD
ENDBRANCH  17  18
ENDBRANCH   9  12
ENDBRANCH   8   9
ENDBRANCH   6   8
ENDBRANCH   3   6
ENDBRANCH   1   2
BRANCH   1  22
ATOM     22  C   UNL A   1      33.145  29.312  25.392  1.00  0.00     0.042 C 
BRANCH  22  23
ATOM     23  C   UNL A   1      33.417  29.086  26.872  1.00  0.00     0.118 C 
BRANCH  23  24
ATOM     24  N   UNL A   1      33.520  30.308  27.676  1.00  0.00    -0.352 N 
ATOM     25  C   UNL A   1      34.548  30.849  28.420  1.00  0.00     0.251 C 
ATOM     26  H   UNL A   1      32.697  30.848  27.686  1.00  0.00     0.163 HD
ATOM     27  O   UNL A   1      34.339  31.892  29.040  1.00  0.00    -0.269 OA
BRANCH  25  28
ATOM     28  C   UNL A   1      35.864  30.175  28.528  1.00  0.00     0.039 A 
ATOM     29  C   UNL A   1      36.725  30.157  27.424  1.00  0.00     0.014 A 
ATOM     30  C   UNL A   1      36.276  29.583  29.717  1.00  0.00     0.014 A 
ATOM     31  C   UNL A   1      38.034  29.675  27.563  1.00  0.00     0.010 A 
ATOM     32  C   UNL A   1      37.610  29.244  29.895  1.00  0.00     0.010 A 
ATOM     33  C   UNL A   1      38.514  29.288  28.823  1.00  0.00    -0.014 A 
BRANCH  33  34
ATOM     34  C   UNL A   1      39.937  28.928  29.080  1.00  0.00     0.031 A 
ATOM     35  C   UNL A   1      40.900  29.988  29.558  1.00  0.00     0.074 A 
ATOM     36  C   UNL A   1      40.399  27.703  28.749  1.00  0.00     0.049 A 
ATOM     37  N   UNL A   1      42.207  29.960  29.607  1.00  0.00    -0.248 NA
ATOM     38  C   UNL A   1      40.315  31.271  29.982  1.00  0.00     0.031 C 
ATOM     39  C   UNL A   1      39.591  26.601  28.222  1.00  0.00     0.029 A 
ATOM     40  N   UNL A   1      41.673  27.189  28.778  1.00  0.00    -0.354 N 
ATOM     41  C   UNL A   1      42.598  31.230  30.018  1.00  0.00     0.074 A 
ATOM     42  C   UNL A   1      41.393  32.020  30.148  1.00  0.00     0.031 C 
ATOM     43  C   UNL A   1      40.381  25.538  27.999  1.00  0.00     0.029 A 
ATOM     44  C   UNL A   1      41.759  25.897  28.310  1.00  0.00     0.049 A 
ATOM     45  H   UNL A   1      42.451  27.696  29.103  1.00  0.00     0.167 HD
ATOM     46  C   UNL A   1      43.842  31.690  30.288  1.00  0.00     0.037 A 
ATOM     47  C   UNL A   1      42.829  25.097  28.130  1.00  0.00     0.037 A 
ATOM     48  C   UNL A   1      45.029  30.880  30.220  1.00  0.00     0.049 A 
ATOM     49  C   UNL A   1      44.200  25.618  28.465  1.00  0.00     0.074 A 
ATOM     50  C   UNL A   1      46.325  31.225  30.558  1.00  0.00     0.029 A 
ATOM     51  N   UNL A   1      45.062  29.559  29.798  1.00  0.00    -0.354 N 
ATOM     52  N   UNL A   1      44.545  26.807  28.902  1.00  0.00    -0.248 NA
ATOM     53  C   UNL A   1      45.328  24.695  28.283  1.00  0.00     0.031 C 
ATOM     54  C   UNL A   1      47.150  30.123  30.305  1.00  0.00     0.029 A 
ATOM     55  C   UNL A   1      46.360  29.079  29.853  1.00  0.00     0.049 A 
ATOM     56  H   UNL A   1      44.279  29.041  29.504  1.00  0.00     0.167 HD
ATOM     57  C   UNL A   1      45.924  26.765  29.070  1.00  0.00     0.074 A 
ATOM     58  C   UNL A   1      46.350  25.431  28.700  1.00  0.00     0.031 C 
ATOM     59  C   UNL A   1      46.763  27.742  29.492  1.00  0.00     0.037 A 
BRANCH  46  60
ATOM     60  C   UNL A   1      43.982  33.132  30.699  1.00  0.00     0.058 A 
ATOM     61  C   UNL A   1      44.239  34.145  29.762  1.00  0.00     0.135 A 
ATOM     62  C   UNL A   1      43.830  33.510  32.044  1.00  0.00     0.135 A 
ATOM     63  F   UNL A   1      44.408  33.840  28.465  1.00  0.00    -0.206 F 
ATOM     64  C   UNL A   1      44.378  35.475  30.145  1.00  0.00     0.059 A 
ATOM     65  C   UNL A   1      43.933  34.839  32.445  1.00  0.00     0.059 A 
ATOM     66  F   UNL A   1      43.582  32.585  32.984  1.00  0.00    -0.206 F 
ATOM     67  C   UNL A   1      44.225  35.812  31.491  1.00  0.00     0.060 A 
BRANCH  67  68
ATOM     68  S   UNL A   1      44.408  37.543  31.970  1.00  0.00     0.124 S 
ATOM     69  O   UNL A   1      43.800  38.224  30.831  1.00  0.00    -0.237 OA
ATOM     70  O   UNL A   1      43.655  37.602  33.219  1.00  0.00    -0.237 OA
ATOM     71  O   UNL A   1      45.851  37.708  32.104  1.00  0.00    -0.744 OA
ENDBRANCH  67  68
ENDBRANCH  46  60
BRANCH  47  72
ATOM     72  C   UNL A   1      42.646  23.709  27.623  1.00  0.00     0.058 A 
ATOM     73  C   UNL A   1      42.690  23.438  26.248  1.00  0.00     0.135 A 
ATOM     74  C   UNL A   1      42.442  22.628  28.495  1.00  0.00     0.135 A 
ATOM     75  F   UNL A   1      42.876  24.439  25.373  1.00  0.00    -0.206 F 
ATOM     76  C   UNL A   1      42.523  22.149  25.751  1.00  0.00     0.059 A 
ATOM     77  C   UNL A   1      42.298  21.325  28.024  1.00  0.00     0.059 A 
ATOM     78  F   UNL A   1      42.408  22.830  29.821  1.00  0.00    -0.206 F 
ATOM     79  C   UNL A   1      42.331  21.097  26.649  1.00  0.00     0.060 A 
BRANCH  79  80
ATOM     80  S   UNL A   1      42.170  19.422  25.996  1.00  0.00     0.124 S 
ATOM     81  O   UNL A   1      40.727  19.312  25.819  1.00  0.00    -0.237 OA
ATOM     82  O   UNL A   1      42.959  19.493  24.769  1.00  0.00    -0.237 OA
ATOM     83  O   UNL A   1      42.743  18.593  27.053  1.00  0.00    -0.744 OA
ENDBRANCH  79  80
ENDBRANCH  47  72
BRANCH  59  84
ATOM     84  C   UNL A   1      48.222  27.404  29.614  1.00  0.00     0.058 A 
ATOM     85  C   UNL A   1      49.120  27.633  28.561  1.00  0.00     0.135 A 
ATOM     86  C   UNL A   1      48.737  26.913  30.824  1.00  0.00     0.135 A 
ATOM     87  F   UNL A   1      48.676  28.094  27.382  1.00  0.00    -0.206 F 
ATOM     88  C   UNL A   1      50.480  27.376  28.701  1.00  0.00     0.059 A 
ATOM     89  C   UNL A   1      50.097  26.674  30.994  1.00  0.00     0.059 A 
ATOM     90  F   UNL A   1      47.920  26.685  31.865  1.00  0.00    -0.206 F 
ATOM     91  C   UNL A   1      50.960  26.902  29.923  1.00  0.00     0.060 A 
BRANCH  91  92
ATOM     92  S   UNL A   1      52.734  26.625  30.107  1.00  0.00     0.124 S 
ATOM     93  O   UNL A   1      53.197  27.946  30.519  1.00  0.00    -0.237 OA
ATOM     94  O   UNL A   1      52.784  25.588  31.132  1.00  0.00    -0.237 OA
ATOM     95  O   UNL A   1      53.153  26.200  28.775  1.00  0.00    -0.744 OA
ENDBRANCH  91  92
ENDBRANCH  59  84
ENDBRANCH  33  34
ENDBRANCH  25  28
ENDBRANCH  23  24
ENDBRANCH  22  23
ENDBRANCH   1  22
TORSDOF 17
ENDMDL
MODEL 3
REMARK VINA RESULT:     -10.5      2.253      3.118
REMARK SMILES C[C@H](C[N@@H+](C)[C@H]1CC[C@H]([NH3+])CC1)C(=O)NCCCNC(=O)c1ccc(-c2c3nc(c(-c4c(F)cc(S(=O)(=O)[O-])cc4F)c4ccc([nH]4)c(-c4c(F)cc(S(=O)(=O)[O-])cc4F)c4nc(c(-c5c(F)cc(S(=O)(=O)[O-])cc5F)c5ccc2[nH]5)C=C4)C=C3)cc1
REMARK SMILES IDX 16 1 15 2 13 3 14 4 2 6 1 7 3 8 4 9 5 10 6 12 7 13 12 14
REMARK SMILES IDX 8 15 11 16 9 17 10 18 17 22 18 23 19 24 20 25 21 27 22 28
REMARK SMILES IDX 23 29 87 30 24 31 86 32 25 33 26 34 27 35 80 36 28 37 85 38
REMARK SMILES IDX 79 39 81 40 29 41 84 42 78 43 77 44 30 46 64 47 43 48 63 49
REMARK SMILES IDX 44 50 47 51 62 52 82 53 45 54 46 55 61 57 83 58 48 59 31 60
REMARK SMILES IDX 32 61 41 62 33 63 34 64 40 65 42 66 35 67 36 68 37 69 38 70
REMARK SMILES IDX 39 71 65 72 66 73 75 74 67 75 68 76 74 77 76 78 69 79 70 80
REMARK SMILES IDX 71 81 72 82 73 83 49 84 50 85 59 86 51 87 52 88 58 89 60 90
REMARK SMILES IDX 53 91 54 92 55 93 56 94 57 95
REMARK H PARENT 15 5 4 11 10 19 10 20 10 21 19 26 81 45 47 56
REMARK Flexibility Score: inf
ROOT
ATOM      1  C   UNL A   1      32.889  28.618  25.809  1.00  0.00     0.117 C 
ENDROOT
BRANCH   1   2
ATOM      2  N   UNL A   1      31.973  27.522  25.748  1.00  0.00    -0.356 N 
ATOM      3  C   UNL A   1      32.091  26.441  24.923  1.00  0.00     0.228 C 
ATOM      4  O   UNL A   1      31.609  25.388  25.363  1.00  0.00    -0.275 OA
ATOM      5  H   UNL A   1      31.195  27.548  26.350  1.00  0.00     0.163 HD
BRANCH   3   6
ATOM      6  C   UNL A   1      32.657  26.469  23.473  1.00  0.00     0.130 C 
ATOM      7  C   UNL A   1      31.663  27.156  22.517  1.00  0.00     0.024 C 
BRANCH   6   8
ATOM      8  C   UNL A   1      33.495  25.349  22.779  1.00  0.00     0.275 C 
BRANCH   8   9
ATOM      9  N   UNL A   1      33.578  23.970  23.307  1.00  0.00    -0.334 N 
ATOM     10  C   UNL A   1      32.719  22.988  22.675  1.00  0.00     0.332 C 
ATOM     11  H   UNL A   1      33.168  24.244  24.199  1.00  0.00     0.348 HD
BRANCH   9  12
ATOM     12  C   UNL A   1      34.661  23.507  24.172  1.00  0.00     0.184 C 
ATOM     13  C   UNL A   1      35.249  24.454  25.240  1.00  0.00     0.071 C 
ATOM     14  C   UNL A   1      35.800  22.952  23.310  1.00  0.00     0.071 C 
ATOM     15  C   UNL A   1      36.242  23.675  26.122  1.00  0.00     0.071 C 
ATOM     16  C   UNL A   1      36.865  22.235  24.126  1.00  0.00     0.071 C 
ATOM     17  C   UNL A   1      37.381  23.065  25.298  1.00  0.00     0.181 C 
BRANCH  17  18
ATOM     18  N   UNL A   1      38.231  22.208  26.126  1.00  0.00    -0.355 N 
ATOM     19  H   UNL A   1      38.177  22.512  27.097  1.00  0.00     0.344 HD
ATOM     20  H   UNL A   1      39.197  22.274  25.802  1.00  0.00     0.344 HD
ATOM     21  H   UNL A   1      37.913  21.241  26.053  1.00  0.00     0.344 HD
ENDBRANCH  17  18
ENDBRANCH   9  12
ENDBRANCH   8   9
ENDBRANCH   6   8
ENDBRANCH   3   6
ENDBRANCH   1   2
BRANCH   1  22
ATOM     22  C   UNL A   1      33.103  29.301  27.141  1.00  0.00     0.042 C 
BRANCH  22  23
ATOM     23  C   UNL A   1      34.568  29.441  27.526  1.00  0.00     0.118 C 
BRANCH  23  24
ATOM     24  N   UNL A   1      34.833  30.387  28.615  1.00  0.00    -0.352 N 
ATOM     25  C   UNL A   1      35.967  30.668  29.350  1.00  0.00     0.251 C 
ATOM     26  H   UNL A   1      34.051  30.927  28.872  1.00  0.00     0.163 HD
ATOM     27  O   UNL A   1      35.890  31.503  30.252  1.00  0.00    -0.269 OA
BRANCH  25  28
ATOM     28  C   UNL A   1      37.242  29.952  29.110  1.00  0.00     0.039 A 
ATOM     29  C   UNL A   1      37.754  29.866  27.810  1.00  0.00     0.014 A 
ATOM     30  C   UNL A   1      37.959  29.385  30.158  1.00  0.00     0.014 A 
ATOM     31  C   UNL A   1      39.037  29.342  27.594  1.00  0.00     0.010 A 
ATOM     32  C   UNL A   1      39.281  29.005  29.966  1.00  0.00     0.010 A 
ATOM     33  C   UNL A   1      39.844  28.981  28.683  1.00  0.00    -0.014 A 
BRANCH  33  34
ATOM     34  C   UNL A   1      41.272  28.579  28.542  1.00  0.00     0.031 A 
ATOM     35  C   UNL A   1      42.351  29.634  28.581  1.00  0.00     0.074 A 
ATOM     36  C   UNL A   1      41.593  27.304  28.235  1.00  0.00     0.049 A 
ATOM     37  N   UNL A   1      43.611  29.545  28.239  1.00  0.00    -0.248 NA
ATOM     38  C   UNL A   1      41.942  30.983  29.007  1.00  0.00     0.031 C 
ATOM     39  C   UNL A   1      40.646  26.193  28.108  1.00  0.00     0.029 A 
ATOM     40  N   UNL A   1      42.807  26.732  27.941  1.00  0.00    -0.354 N 
ATOM     41  C   UNL A   1      44.128  30.831  28.362  1.00  0.00     0.074 A 
ATOM     42  C   UNL A   1      43.032  31.690  28.753  1.00  0.00     0.031 C 
ATOM     43  C   UNL A   1      41.314  25.074  27.786  1.00  0.00     0.029 A 
ATOM     44  C   UNL A   1      42.727  25.394  27.625  1.00  0.00     0.049 A 
ATOM     45  H   UNL A   1      43.655  27.231  27.956  1.00  0.00     0.167 HD
ATOM     46  C   UNL A   1      45.402  31.254  28.191  1.00  0.00     0.037 A 
ATOM     47  C   UNL A   1      43.680  24.526  27.229  1.00  0.00     0.037 A 
ATOM     48  C   UNL A   1      46.500  30.382  27.867  1.00  0.00     0.049 A 
ATOM     49  C   UNL A   1      45.096  25.011  27.074  1.00  0.00     0.074 A 
ATOM     50  C   UNL A   1      47.843  30.696  27.758  1.00  0.00     0.029 A 
ATOM     51  N   UNL A   1      46.383  29.023  27.613  1.00  0.00    -0.354 N 
ATOM     52  N   UNL A   1      45.575  26.221  27.244  1.00  0.00    -0.248 NA
ATOM     53  C   UNL A   1      46.101  24.017  26.673  1.00  0.00     0.031 C 
ATOM     54  C   UNL A   1      48.535  29.532  27.401  1.00  0.00     0.029 A 
ATOM     55  C   UNL A   1      47.629  28.487  27.333  1.00  0.00     0.049 A 
ATOM     56  H   UNL A   1      45.539  28.517  27.630  1.00  0.00     0.167 HD
ATOM     57  C   UNL A   1      46.939  26.127  26.995  1.00  0.00     0.074 A 
ATOM     58  C   UNL A   1      47.212  24.741  26.674  1.00  0.00     0.031 C 
ATOM     59  C   UNL A   1      47.882  27.100  27.029  1.00  0.00     0.037 A 
BRANCH  46  60
ATOM     60  C   UNL A   1      45.683  32.723  28.368  1.00  0.00     0.058 A 
ATOM     61  C   UNL A   1      45.625  33.621  27.290  1.00  0.00     0.135 A 
ATOM     62  C   UNL A   1      45.986  33.245  29.637  1.00  0.00     0.135 A 
ATOM     63  F   UNL A   1      45.355  33.175  26.052  1.00  0.00    -0.206 F 
ATOM     64  C   UNL A   1      45.895  34.975  27.454  1.00  0.00     0.059 A 
ATOM     65  C   UNL A   1      46.228  34.602  29.830  1.00  0.00     0.059 A 
ATOM     66  F   UNL A   1      46.054  32.434  30.704  1.00  0.00    -0.206 F 
ATOM     67  C   UNL A   1      46.198  35.457  28.729  1.00  0.00     0.060 A 
BRANCH  67  68
ATOM     68  S   UNL A   1      46.544  37.217  28.924  1.00  0.00     0.124 S 
ATOM     69  O   UNL A   1      47.172  37.531  27.644  1.00  0.00    -0.237 OA
ATOM     70  O   UNL A   1      45.212  37.777  29.129  1.00  0.00    -0.237 OA
ATOM     71  O   UNL A   1      47.426  37.264  30.084  1.00  0.00    -0.744 OA
ENDBRANCH  67  68
ENDBRANCH  46  60
BRANCH  47  72
ATOM     72  C   UNL A   1      43.330  23.103  26.967  1.00  0.00     0.058 A 
ATOM     73  C   UNL A   1      43.332  22.594  25.660  1.00  0.00     0.135 A 
ATOM     74  C   UNL A   1      43.005  22.222  28.010  1.00  0.00     0.135 A 
ATOM     75  F   UNL A   1      43.630  23.399  24.629  1.00  0.00    -0.206 F 
ATOM     76  C   UNL A   1      43.011  21.267  25.392  1.00  0.00     0.059 A 
ATOM     77  C   UNL A   1      42.704  20.883  27.770  1.00  0.00     0.059 A 
ATOM     78  F   UNL A   1      43.004  22.653  29.281  1.00  0.00    -0.206 F 
ATOM     79  C   UNL A   1      42.701  20.418  26.456  1.00  0.00     0.060 A 
BRANCH  79  80
ATOM     80  S   UNL A   1      42.337  18.685  26.101  1.00  0.00     0.124 S 
ATOM     81  O   UNL A   1      43.256  18.410  25.003  1.00  0.00    -0.237 OA
ATOM     82  O   UNL A   1      42.650  18.039  27.373  1.00  0.00    -0.237 OA
ATOM     83  O   UNL A   1      40.920  18.705  25.750  1.00  0.00    -0.744 OA
ENDBRANCH  79  80
ENDBRANCH  47  72
BRANCH  59  84
ATOM     84  C   UNL A   1      49.304  26.704  26.747  1.00  0.00     0.058 A 
ATOM     85  C   UNL A   1      50.142  26.203  27.754  1.00  0.00     0.135 A 
ATOM     86  C   UNL A   1      49.808  26.757  25.437  1.00  0.00     0.135 A 
ATOM     87  F   UNL A   1      49.710  26.140  29.023  1.00  0.00    -0.206 F 
ATOM     88  C   UNL A   1      51.437  25.779  27.474  1.00  0.00     0.059 A 
ATOM     89  C   UNL A   1      51.090  26.314  25.130  1.00  0.00     0.059 A 
ATOM     90  F   UNL A   1      49.042  27.220  24.436  1.00  0.00    -0.206 F 
ATOM     91  C   UNL A   1      51.900  25.833  26.159  1.00  0.00     0.060 A 
BRANCH  91  92
ATOM     92  S   UNL A   1      53.563  25.228  25.801  1.00  0.00     0.124 S 
ATOM     93  O   UNL A   1      54.217  25.384  27.096  1.00  0.00    -0.237 OA
ATOM     94  O   UNL A   1      53.312  23.854  25.379  1.00  0.00    -0.237 OA
ATOM     95  O   UNL A   1      54.032  26.124  24.749  1.00  0.00    -0.744 OA
ENDBRANCH  91  92
ENDBRANCH  59  84
ENDBRANCH  33  34
ENDBRANCH  25  28
ENDBRANCH  23  24
ENDBRANCH  22  23
ENDBRANCH   1  22
TORSDOF 17
ENDMDL
