MODEL 1
REMARK VINA RESULT:     -14.1      0.000      0.000
REMARK SMILES COc1ccccc1[C@@H]1CN(C(=O)c2cnn3ccccc23)C[C@H]1C(=O)NCCCNC(=O)c1ccc(-c2c3nc(c(-c4c(F)cc(S(=O)(=O)[O-])cc4F)c4ccc([nH]4)c(-c4c(F)cc(S(=O)(=O)[O-])cc4F)c4nc(c(-c5c(F)cc(S(=O)(=O)[O-])cc5F)c5ccc2[nH]5)C=C4)C=C3)cc1
REMARK SMILES IDX 29 1 28 2 27 3 25 4 26 5 24 7 9 8 10 9 11 10 23 11 8 12 3 13
REMARK SMILES IDX 4 14 5 15 7 16 6 17 2 18 1 19 12 20 13 21 14 22 15 23 22 24
REMARK SMILES IDX 16 25 17 26 21 27 18 28 20 29 19 30 30 31 31 32 32 33 33 35
REMARK SMILES IDX 34 36 35 37 99 38 36 39 98 40 37 41 38 42 39 43 92 44 40 45
REMARK SMILES IDX 97 46 91 47 93 48 41 49 96 50 90 51 89 52 42 54 76 55 55 56
REMARK SMILES IDX 75 57 56 58 59 59 74 60 94 61 57 62 58 63 73 65 95 66 60 67
REMARK SMILES IDX 43 68 44 69 53 70 45 71 46 72 52 73 54 74 47 75 48 76 49 77
REMARK SMILES IDX 50 78 51 79 77 80 78 81 87 82 79 83 80 84 86 85 88 86 81 87
REMARK SMILES IDX 82 88 83 89 84 90 85 91 61 92 62 93 71 94 63 95 64 96 70 97
REMARK SMILES IDX 72 98 65 99 66 100 67 101 68 102 69 103
REMARK H PARENT 27 6 31 34 93 53 59 64
REMARK Flexibility Score: inf
ROOT
ATOM      1  C   UNL A   1      32.919  28.390  27.151  1.00  0.00     0.042 C 
ENDROOT
BRANCH   1   2
ATOM      2  C   UNL A   1      32.408  27.355  26.152  1.00  0.00     0.117 C 
BRANCH   2   3
ATOM      3  N   UNL A   1      31.215  26.654  26.595  1.00  0.00    -0.356 N 
ATOM      4  C   UNL A   1      30.245  25.995  25.907  1.00  0.00     0.225 C 
ATOM      5  O   UNL A   1      29.419  25.362  26.569  1.00  0.00    -0.275 OA
ATOM      6  H   UNL A   1      31.086  26.655  27.571  1.00  0.00     0.163 HD
BRANCH   4   7
ATOM      7  C   UNL A   1      30.138  26.012  24.392  1.00  0.00     0.107 C 
ATOM      8  C   UNL A   1      30.700  27.292  23.742  1.00  0.00     0.057 C 
ATOM      9  C   UNL A   1      31.401  26.811  22.474  1.00  0.00     0.129 C 
ATOM     10  N   UNL A   1      31.816  25.458  22.800  1.00  0.00    -0.337 N 
ATOM     11  C   UNL A   1      30.867  24.847  23.722  1.00  0.00     0.134 C 
BRANCH   8  12
ATOM     12  C   UNL A   1      29.730  28.439  23.553  1.00  0.00    -0.000 A 
ATOM     13  C   UNL A   1      30.016  29.795  23.786  1.00  0.00     0.122 A 
ATOM     14  C   UNL A   1      29.031  30.774  23.603  1.00  0.00     0.047 A 
ATOM     15  C   UNL A   1      27.744  30.419  23.202  1.00  0.00     0.004 A 
ATOM     16  C   UNL A   1      28.419  28.107  23.149  1.00  0.00     0.008 A 
ATOM     17  C   UNL A   1      27.433  29.083  22.991  1.00  0.00     0.001 A 
BRANCH  13  18
ATOM     18  O   UNL A   1      31.170  30.218  24.393  1.00  0.00    -0.496 OA
ATOM     19  C   UNL A   1      30.957  31.022  25.546  1.00  0.00     0.278 C 
ENDBRANCH  13  18
ENDBRANCH   8  12
BRANCH  10  20
ATOM     20  C   UNL A   1      32.840  24.727  22.227  1.00  0.00     0.257 C 
ATOM     21  O   UNL A   1      33.175  24.888  21.056  1.00  0.00    -0.269 OA
BRANCH  20  22
ATOM     22  C   UNL A   1      33.545  23.791  23.077  1.00  0.00     0.085 A 
ATOM     23  C   UNL A   1      34.704  24.055  23.828  1.00  0.00     0.150 A 
ATOM     24  C   UNL A   1      33.297  22.452  23.311  1.00  0.00     0.079 A 
ATOM     25  N   UNL A   1      35.109  23.017  24.561  1.00  0.00    -0.176 NA
ATOM     26  N   UNL A   1      34.225  22.029  24.268  1.00  0.00    -0.240 N 
ATOM     27  C   UNL A   1      32.350  21.492  22.844  1.00  0.00     0.029 A 
ATOM     28  C   UNL A   1      34.183  20.748  24.823  1.00  0.00     0.113 A 
ATOM     29  C   UNL A   1      32.323  20.258  23.379  1.00  0.00     0.004 A 
ATOM     30  C   UNL A   1      33.254  19.864  24.420  1.00  0.00     0.020 A 
ENDBRANCH  20  22
ENDBRANCH  10  20
ENDBRANCH   4   7
ENDBRANCH   2   3
ENDBRANCH   1   2
BRANCH   1  31
ATOM     31  C   UNL A   1      34.253  28.985  26.751  1.00  0.00     0.118 C 
BRANCH  31  32
ATOM     32  N   UNL A   1      34.255  30.446  26.838  1.00  0.00    -0.352 N 
ATOM     33  C   UNL A   1      35.054  31.257  27.626  1.00  0.00     0.251 C 
ATOM     34  H   UNL A   1      33.605  30.912  26.263  1.00  0.00     0.163 HD
ATOM     35  O   UNL A   1      34.761  32.415  27.833  1.00  0.00    -0.269 OA
BRANCH  33  36
ATOM     36  C   UNL A   1      36.256  30.649  28.227  1.00  0.00     0.039 A 
ATOM     37  C   UNL A   1      36.507  29.282  28.104  1.00  0.00     0.014 A 
ATOM     38  C   UNL A   1      37.184  31.502  28.814  1.00  0.00     0.014 A 
ATOM     39  C   UNL A   1      37.754  28.794  28.485  1.00  0.00     0.010 A 
ATOM     40  C   UNL A   1      38.463  31.052  29.012  1.00  0.00     0.010 A 
ATOM     41  C   UNL A   1      38.746  29.691  28.910  1.00  0.00    -0.014 A 
BRANCH  41  42
ATOM     42  C   UNL A   1      40.117  29.238  29.152  1.00  0.00     0.031 A 
ATOM     43  C   UNL A   1      40.525  29.133  30.586  1.00  0.00     0.074 A 
ATOM     44  C   UNL A   1      40.875  28.698  28.172  1.00  0.00     0.049 A 
ATOM     45  N   UNL A   1      41.481  29.753  31.199  1.00  0.00    -0.248 NA
ATOM     46  C   UNL A   1      39.696  28.302  31.477  1.00  0.00     0.031 C 
ATOM     47  C   UNL A   1      40.498  28.440  26.774  1.00  0.00     0.029 A 
ATOM     48  N   UNL A   1      42.109  28.131  28.254  1.00  0.00    -0.354 N 
ATOM     49  C   UNL A   1      41.517  29.228  32.491  1.00  0.00     0.074 A 
ATOM     50  C   UNL A   1      40.294  28.486  32.655  1.00  0.00     0.031 C 
ATOM     51  C   UNL A   1      41.357  27.553  26.230  1.00  0.00     0.029 A 
ATOM     52  C   UNL A   1      42.444  27.337  27.164  1.00  0.00     0.049 A 
ATOM     53  H   UNL A   1      42.712  28.271  29.019  1.00  0.00     0.167 HD
ATOM     54  C   UNL A   1      42.655  29.241  33.242  1.00  0.00     0.037 A 
ATOM     55  C   UNL A   1      43.526  26.536  27.035  1.00  0.00     0.037 A 
ATOM     56  C   UNL A   1      43.614  30.180  32.717  1.00  0.00     0.049 A 
ATOM     57  C   UNL A   1      44.537  27.025  28.004  1.00  0.00     0.074 A 
ATOM     58  C   UNL A   1      43.623  31.541  32.485  1.00  0.00     0.029 A 
ATOM     59  N   UNL A   1      44.673  29.673  32.004  1.00  0.00    -0.354 N 
ATOM     60  N   UNL A   1      45.107  28.199  27.936  1.00  0.00    -0.248 NA
ATOM     61  C   UNL A   1      44.617  26.373  29.300  1.00  0.00     0.031 C 
ATOM     62  C   UNL A   1      44.375  31.707  31.284  1.00  0.00     0.029 A 
ATOM     63  C   UNL A   1      44.825  30.449  30.882  1.00  0.00     0.049 A 
ATOM     64  H   UNL A   1      45.224  28.896  32.252  1.00  0.00     0.167 HD
ATOM     65  C   UNL A   1      45.240  28.610  29.253  1.00  0.00     0.074 A 
ATOM     66  C   UNL A   1      45.036  27.399  30.045  1.00  0.00     0.031 C 
ATOM     67  C   UNL A   1      45.225  29.934  29.587  1.00  0.00     0.037 A 
BRANCH  54  68
ATOM     68  C   UNL A   1      43.055  28.153  34.220  1.00  0.00     0.058 A 
ATOM     69  C   UNL A   1      43.287  28.484  35.573  1.00  0.00     0.135 A 
ATOM     70  C   UNL A   1      43.499  26.868  33.831  1.00  0.00     0.135 A 
ATOM     71  F   UNL A   1      42.910  29.677  36.059  1.00  0.00    -0.206 F 
ATOM     72  C   UNL A   1      43.985  27.643  36.443  1.00  0.00     0.059 A 
ATOM     73  C   UNL A   1      44.145  25.993  34.697  1.00  0.00     0.059 A 
ATOM     74  F   UNL A   1      43.421  26.434  32.567  1.00  0.00    -0.206 F 
ATOM     75  C   UNL A   1      44.428  26.407  35.987  1.00  0.00     0.060 A 
BRANCH  75  76
ATOM     76  S   UNL A   1      45.445  25.373  37.057  1.00  0.00     0.124 S 
ATOM     77  O   UNL A   1      44.487  24.999  38.090  1.00  0.00    -0.237 OA
ATOM     78  O   UNL A   1      45.857  24.308  36.148  1.00  0.00    -0.237 OA
ATOM     79  O   UNL A   1      46.512  26.277  37.478  1.00  0.00    -0.744 OA
ENDBRANCH  75  76
ENDBRANCH  54  68
BRANCH  55  80
ATOM     80  C   UNL A   1      43.610  25.223  26.345  1.00  0.00     0.058 A 
ATOM     81  C   UNL A   1      44.526  25.006  25.304  1.00  0.00     0.135 A 
ATOM     82  C   UNL A   1      42.979  24.075  26.868  1.00  0.00     0.135 A 
ATOM     83  F   UNL A   1      45.187  26.039  24.761  1.00  0.00    -0.206 F 
ATOM     84  C   UNL A   1      44.837  23.722  24.840  1.00  0.00     0.059 A 
ATOM     85  C   UNL A   1      43.260  22.788  26.413  1.00  0.00     0.059 A 
ATOM     86  F   UNL A   1      42.131  24.160  27.905  1.00  0.00    -0.206 F 
ATOM     87  C   UNL A   1      44.212  22.616  25.416  1.00  0.00     0.060 A 
BRANCH  87  88
ATOM     88  S   UNL A   1      44.743  20.952  24.947  1.00  0.00     0.124 S 
ATOM     89  O   UNL A   1      46.109  20.917  25.457  1.00  0.00    -0.237 OA
ATOM     90  O   UNL A   1      43.779  20.112  25.650  1.00  0.00    -0.237 OA
ATOM     91  O   UNL A   1      44.617  20.953  23.492  1.00  0.00    -0.744 OA
ENDBRANCH  87  88
ENDBRANCH  55  80
BRANCH  67  92
ATOM     92  C   UNL A   1      45.386  30.953  28.485  1.00  0.00     0.058 A 
ATOM     93  C   UNL A   1      44.330  31.425  27.685  1.00  0.00     0.135 A 
ATOM     94  C   UNL A   1      46.620  31.610  28.362  1.00  0.00     0.135 A 
ATOM     95  F   UNL A   1      43.095  30.925  27.806  1.00  0.00    -0.206 F 
ATOM     96  C   UNL A   1      44.499  32.482  26.787  1.00  0.00     0.059 A 
ATOM     97  C   UNL A   1      46.803  32.685  27.494  1.00  0.00     0.059 A 
ATOM     98  F   UNL A   1      47.652  31.249  29.141  1.00  0.00    -0.206 F 
ATOM     99  C   UNL A   1      45.738  33.113  26.706  1.00  0.00     0.060 A 
BRANCH  99 100
ATOM    100  S   UNL A   1      45.918  34.555  25.633  1.00  0.00     0.124 S 
ATOM    101  O   UNL A   1      45.519  35.647  26.515  1.00  0.00    -0.237 OA
ATOM    102  O   UNL A   1      47.335  34.514  25.277  1.00  0.00    -0.237 OA
ATOM    103  O   UNL A   1      45.002  34.277  24.531  1.00  0.00    -0.744 OA
ENDBRANCH  99 100
ENDBRANCH  67  92
ENDBRANCH  41  42
ENDBRANCH  33  36
ENDBRANCH  31  32
ENDBRANCH   1  31
TORSDOF 17
ENDMDL
MODEL 2
REMARK VINA RESULT:     -13.1      1.509      4.292
REMARK SMILES COc1ccccc1[C@@H]1CN(C(=O)c2cnn3ccccc23)C[C@H]1C(=O)NCCCNC(=O)c1ccc(-c2c3nc(c(-c4c(F)cc(S(=O)(=O)[O-])cc4F)c4ccc([nH]4)c(-c4c(F)cc(S(=O)(=O)[O-])cc4F)c4nc(c(-c5c(F)cc(S(=O)(=O)[O-])cc5F)c5ccc2[nH]5)C=C4)C=C3)cc1
REMARK SMILES IDX 29 1 28 2 27 3 25 4 26 5 24 7 9 8 10 9 11 10 23 11 8 12 3 13
REMARK SMILES IDX 4 14 5 15 7 16 6 17 2 18 1 19 12 20 13 21 14 22 15 23 22 24
REMARK SMILES IDX 16 25 17 26 21 27 18 28 20 29 19 30 30 31 31 32 32 33 33 35
REMARK SMILES IDX 34 36 35 37 99 38 36 39 98 40 37 41 38 42 39 43 92 44 40 45
REMARK SMILES IDX 97 46 91 47 93 48 41 49 96 50 90 51 89 52 42 54 76 55 55 56
REMARK SMILES IDX 75 57 56 58 59 59 74 60 94 61 57 62 58 63 73 65 95 66 60 67
REMARK SMILES IDX 43 68 44 69 53 70 45 71 46 72 52 73 54 74 47 75 48 76 49 77
REMARK SMILES IDX 50 78 51 79 77 80 78 81 87 82 79 83 80 84 86 85 88 86 81 87
REMARK SMILES IDX 82 88 83 89 84 90 85 91 61 92 62 93 71 94 63 95 64 96 70 97
REMARK SMILES IDX 72 98 65 99 66 100 67 101 68 102 69 103
REMARK H PARENT 27 6 31 34 93 53 59 64
REMARK Flexibility Score: inf
ROOT
ATOM      1  C   UNL A   1      34.048  28.536  26.184  1.00  0.00     0.042 C 
ENDROOT
BRANCH   1   2
ATOM      2  C   UNL A   1      33.319  29.054  24.947  1.00  0.00     0.117 C 
BRANCH   2   3
ATOM      3  N   UNL A   1      34.062  28.874  23.711  1.00  0.00    -0.356 N 
ATOM      4  C   UNL A   1      33.808  28.128  22.603  1.00  0.00     0.225 C 
ATOM      5  O   UNL A   1      34.556  28.289  21.636  1.00  0.00    -0.275 OA
ATOM      6  H   UNL A   1      34.901  29.387  23.667  1.00  0.00     0.163 HD
BRANCH   4   7
ATOM      7  C   UNL A   1      32.671  27.125  22.515  1.00  0.00     0.107 C 
ATOM      8  C   UNL A   1      32.392  26.381  23.837  1.00  0.00     0.057 C 
ATOM      9  C   UNL A   1      30.872  26.265  23.907  1.00  0.00     0.129 C 
ATOM     10  N   UNL A   1      30.403  27.422  23.164  1.00  0.00    -0.337 N 
ATOM     11  C   UNL A   1      31.341  27.754  22.100  1.00  0.00     0.134 C 
BRANCH   8  12
ATOM     12  C   UNL A   1      33.153  25.092  24.063  1.00  0.00    -0.000 A 
ATOM     13  C   UNL A   1      33.111  24.316  25.234  1.00  0.00     0.122 A 
ATOM     14  C   UNL A   1      33.879  23.149  25.344  1.00  0.00     0.047 A 
ATOM     15  C   UNL A   1      34.712  22.746  24.302  1.00  0.00     0.004 A 
ATOM     16  C   UNL A   1      34.005  24.662  23.023  1.00  0.00     0.008 A 
ATOM     17  C   UNL A   1      34.787  23.512  23.147  1.00  0.00     0.001 A 
BRANCH  13  18
ATOM     18  O   UNL A   1      32.507  24.742  26.387  1.00  0.00    -0.496 OA
ATOM     19  C   UNL A   1      31.655  23.774  26.987  1.00  0.00     0.278 C 
ENDBRANCH  13  18
ENDBRANCH   8  12
BRANCH  10  20
ATOM     20  C   UNL A   1      29.178  28.055  23.271  1.00  0.00     0.257 C 
ATOM     21  O   UNL A   1      28.129  27.425  23.375  1.00  0.00    -0.269 OA
BRANCH  20  22
ATOM     22  C   UNL A   1      29.180  29.502  23.308  1.00  0.00     0.085 A 
ATOM     23  C   UNL A   1      29.672  30.311  24.349  1.00  0.00     0.150 A 
ATOM     24  C   UNL A   1      28.673  30.409  22.396  1.00  0.00     0.079 A 
ATOM     25  N   UNL A   1      29.589  31.617  24.090  1.00  0.00    -0.176 NA
ATOM     26  N   UNL A   1      28.998  31.685  22.870  1.00  0.00    -0.240 N 
ATOM     27  C   UNL A   1      27.972  30.327  21.156  1.00  0.00     0.029 A 
ATOM     28  C   UNL A   1      28.734  32.838  22.127  1.00  0.00     0.113 A 
ATOM     29  C   UNL A   1      27.717  31.444  20.451  1.00  0.00     0.004 A 
ATOM     30  C   UNL A   1      28.124  32.752  20.933  1.00  0.00     0.020 A 
ENDBRANCH  20  22
ENDBRANCH  10  20
ENDBRANCH   4   7
ENDBRANCH   2   3
ENDBRANCH   1   2
BRANCH   1  31
ATOM     31  C   UNL A   1      33.827  29.403  27.405  1.00  0.00     0.118 C 
BRANCH  31  32
ATOM     32  N   UNL A   1      34.101  30.815  27.137  1.00  0.00    -0.352 N 
ATOM     33  C   UNL A   1      35.151  31.588  27.603  1.00  0.00     0.251 C 
ATOM     34  H   UNL A   1      33.456  31.275  26.551  1.00  0.00     0.163 HD
ATOM     35  O   UNL A   1      35.106  32.799  27.559  1.00  0.00    -0.269 OA
BRANCH  33  36
ATOM     36  C   UNL A   1      36.311  30.883  28.179  1.00  0.00     0.039 A 
ATOM     37  C   UNL A   1      36.623  29.579  27.792  1.00  0.00     0.014 A 
ATOM     38  C   UNL A   1      37.146  31.602  29.027  1.00  0.00     0.014 A 
ATOM     39  C   UNL A   1      37.846  29.039  28.185  1.00  0.00     0.010 A 
ATOM     40  C   UNL A   1      38.415  31.139  29.254  1.00  0.00     0.010 A 
ATOM     41  C   UNL A   1      38.757  29.837  28.892  1.00  0.00    -0.014 A 
BRANCH  41  42
ATOM     42  C   UNL A   1      40.115  29.364  29.171  1.00  0.00     0.031 A 
ATOM     43  C   UNL A   1      40.460  29.189  30.614  1.00  0.00     0.074 A 
ATOM     44  C   UNL A   1      40.911  28.864  28.199  1.00  0.00     0.049 A 
ATOM     45  N   UNL A   1      41.392  29.773  31.296  1.00  0.00    -0.248 NA
ATOM     46  C   UNL A   1      39.590  28.323  31.429  1.00  0.00     0.031 C 
ATOM     47  C   UNL A   1      40.593  28.674  26.776  1.00  0.00     0.029 A 
ATOM     48  N   UNL A   1      42.137  28.285  28.307  1.00  0.00    -0.354 N 
ATOM     49  C   UNL A   1      41.370  29.188  32.562  1.00  0.00     0.074 A 
ATOM     50  C   UNL A   1      40.137  28.449  32.639  1.00  0.00     0.031 C 
ATOM     51  C   UNL A   1      41.469  27.807  26.229  1.00  0.00     0.029 A 
ATOM     52  C   UNL A   1      42.514  27.540  27.196  1.00  0.00     0.049 A 
ATOM     53  H   UNL A   1      42.708  28.385  29.103  1.00  0.00     0.167 HD
ATOM     54  C   UNL A   1      42.475  29.159  33.360  1.00  0.00     0.037 A 
ATOM     55  C   UNL A   1      43.597  26.738  27.077  1.00  0.00     0.037 A 
ATOM     56  C   UNL A   1      43.461  30.114  32.921  1.00  0.00     0.049 A 
ATOM     57  C   UNL A   1      44.568  27.174  28.109  1.00  0.00     0.074 A 
ATOM     58  C   UNL A   1      43.487  31.484  32.753  1.00  0.00     0.029 A 
ATOM     59  N   UNL A   1      44.547  29.633  32.230  1.00  0.00    -0.354 N 
ATOM     60  N   UNL A   1      45.146  28.346  28.120  1.00  0.00    -0.248 NA
ATOM     61  C   UNL A   1      44.588  26.462  29.376  1.00  0.00     0.031 C 
ATOM     62  C   UNL A   1      44.290  31.700  31.594  1.00  0.00     0.029 A 
ATOM     63  C   UNL A   1      44.751  30.458  31.153  1.00  0.00     0.049 A 
ATOM     64  H   UNL A   1      45.082  28.841  32.465  1.00  0.00     0.167 HD
ATOM     65  C   UNL A   1      45.225  28.694  29.459  1.00  0.00     0.074 A 
ATOM     66  C   UNL A   1      44.981  27.450  30.185  1.00  0.00     0.031 C 
ATOM     67  C   UNL A   1      45.203  30.002  29.854  1.00  0.00     0.037 A 
BRANCH  54  68
ATOM     68  C   UNL A   1      42.827  28.023  34.302  1.00  0.00     0.058 A 
ATOM     69  C   UNL A   1      42.937  28.276  35.687  1.00  0.00     0.135 A 
ATOM     70  C   UNL A   1      43.341  26.777  33.876  1.00  0.00     0.135 A 
ATOM     71  F   UNL A   1      42.484  29.427  36.210  1.00  0.00    -0.206 F 
ATOM     72  C   UNL A   1      43.586  27.402  36.562  1.00  0.00     0.059 A 
ATOM     73  C   UNL A   1      43.942  25.867  34.741  1.00  0.00     0.059 A 
ATOM     74  F   UNL A   1      43.382  26.419  32.588  1.00  0.00    -0.206 F 
ATOM     75  C   UNL A   1      44.104  26.208  36.072  1.00  0.00     0.060 A 
BRANCH  75  76
ATOM     76  S   UNL A   1      45.062  25.138  37.161  1.00  0.00     0.124 S 
ATOM     77  O   UNL A   1      44.692  23.818  36.664  1.00  0.00    -0.237 OA
ATOM     78  O   UNL A   1      46.428  25.568  36.884  1.00  0.00    -0.237 OA
ATOM     79  O   UNL A   1      44.560  25.479  38.489  1.00  0.00    -0.744 OA
ENDBRANCH  75  76
ENDBRANCH  54  68
BRANCH  55  80
ATOM     80  C   UNL A   1      43.703  25.458  26.330  1.00  0.00     0.058 A 
ATOM     81  C   UNL A   1      44.713  25.254  25.376  1.00  0.00     0.135 A 
ATOM     82  C   UNL A   1      42.979  24.313  26.725  1.00  0.00     0.135 A 
ATOM     83  F   UNL A   1      45.463  26.284  24.958  1.00  0.00    -0.206 F 
ATOM     84  C   UNL A   1      45.022  23.983  24.879  1.00  0.00     0.059 A 
ATOM     85  C   UNL A   1      43.259  23.039  26.234  1.00  0.00     0.059 A 
ATOM     86  F   UNL A   1      42.034  24.383  27.674  1.00  0.00    -0.206 F 
ATOM     87  C   UNL A   1      44.301  22.877  25.330  1.00  0.00     0.060 A 
BRANCH  87  88
ATOM     88  S   UNL A   1      44.816  21.217  24.829  1.00  0.00     0.124 S 
ATOM     89  O   UNL A   1      44.615  21.262  23.385  1.00  0.00    -0.237 OA
ATOM     90  O   UNL A   1      46.204  21.177  25.278  1.00  0.00    -0.237 OA
ATOM     91  O   UNL A   1      43.904  20.343  25.562  1.00  0.00    -0.744 OA
ENDBRANCH  87  88
ENDBRANCH  55  80
BRANCH  67  92
ATOM     92  C   UNL A   1      45.416  31.070  28.808  1.00  0.00     0.058 A 
ATOM     93  C   UNL A   1      44.379  31.687  28.086  1.00  0.00     0.135 A 
ATOM     94  C   UNL A   1      46.701  31.616  28.669  1.00  0.00     0.135 A 
ATOM     95  F   UNL A   1      43.108  31.295  28.232  1.00  0.00    -0.206 F 
ATOM     96  C   UNL A   1      44.611  32.778  27.246  1.00  0.00     0.059 A 
ATOM     97  C   UNL A   1      46.950  32.723  27.860  1.00  0.00     0.059 A 
ATOM     98  F   UNL A   1      47.724  31.113  29.378  1.00  0.00    -0.206 F 
ATOM     99  C   UNL A   1      45.901  33.296  27.147  1.00  0.00     0.060 A 
BRANCH  99 100
ATOM    100  S   UNL A   1      46.175  34.781  26.155  1.00  0.00     0.124 S 
ATOM    101  O   UNL A   1      45.748  34.348  24.828  1.00  0.00    -0.237 OA
ATOM    102  O   UNL A   1      45.314  35.764  26.808  1.00  0.00    -0.237 OA
ATOM    103  O   UNL A   1      47.607  35.029  26.300  1.00  0.00    -0.744 OA
ENDBRANCH  99 100
ENDBRANCH  67  92
ENDBRANCH  41  42
ENDBRANCH  33  36
ENDBRANCH  31  32
ENDBRANCH   1  31
TORSDOF 17
ENDMDL
MODEL 3
REMARK VINA RESULT:     -12.9      1.255      4.047
REMARK SMILES COc1ccccc1[C@@H]1CN(C(=O)c2cnn3ccccc23)C[C@H]1C(=O)NCCCNC(=O)c1ccc(-c2c3nc(c(-c4c(F)cc(S(=O)(=O)[O-])cc4F)c4ccc([nH]4)c(-c4c(F)cc(S(=O)(=O)[O-])cc4F)c4nc(c(-c5c(F)cc(S(=O)(=O)[O-])cc5F)c5ccc2[nH]5)C=C4)C=C3)cc1
REMARK SMILES IDX 29 1 28 2 27 3 25 4 26 5 24 7 9 8 10 9 11 10 23 11 8 12 3 13
REMARK SMILES IDX 4 14 5 15 7 16 6 17 2 18 1 19 12 20 13 21 14 22 15 23 22 24
REMARK SMILES IDX 16 25 17 26 21 27 18 28 20 29 19 30 30 31 31 32 32 33 33 35
REMARK SMILES IDX 34 36 35 37 99 38 36 39 98 40 37 41 38 42 39 43 92 44 40 45
REMARK SMILES IDX 97 46 91 47 93 48 41 49 96 50 90 51 89 52 42 54 76 55 55 56
REMARK SMILES IDX 75 57 56 58 59 59 74 60 94 61 57 62 58 63 73 65 95 66 60 67
REMARK SMILES IDX 43 68 44 69 53 70 45 71 46 72 52 73 54 74 47 75 48 76 49 77
REMARK SMILES IDX 50 78 51 79 77 80 78 81 87 82 79 83 80 84 86 85 88 86 81 87
REMARK SMILES IDX 82 88 83 89 84 90 85 91 61 92 62 93 71 94 63 95 64 96 70 97
REMARK SMILES IDX 72 98 65 99 66 100 67 101 68 102 69 103
REMARK H PARENT 27 6 31 34 93 53 59 64
REMARK Flexibility Score: inf
ROOT
ATOM      1  C   UNL A   1      32.914  28.114  26.963  1.00  0.00     0.042 C 
ENDROOT
BRANCH   1   2
ATOM      2  C   UNL A   1      32.818  26.983  25.942  1.00  0.00     0.117 C 
BRANCH   2   3
ATOM      3  N   UNL A   1      32.576  25.678  26.535  1.00  0.00    -0.356 N 
ATOM      4  C   UNL A   1      33.026  24.438  26.206  1.00  0.00     0.225 C 
ATOM      5  O   UNL A   1      32.767  23.522  26.990  1.00  0.00    -0.275 OA
ATOM      6  H   UNL A   1      31.978  25.696  27.317  1.00  0.00     0.163 HD
BRANCH   4   7
ATOM      7  C   UNL A   1      33.811  24.143  24.941  1.00  0.00     0.107 C 
ATOM      8  C   UNL A   1      33.164  23.069  24.042  1.00  0.00     0.057 C 
ATOM      9  C   UNL A   1      33.392  23.564  22.616  1.00  0.00     0.129 C 
ATOM     10  N   UNL A   1      33.445  25.008  22.756  1.00  0.00    -0.337 N 
ATOM     11  C   UNL A   1      34.007  25.370  24.050  1.00  0.00     0.134 C 
BRANCH   8  12
ATOM     12  C   UNL A   1      33.567  21.634  24.304  1.00  0.00    -0.000 A 
ATOM     13  C   UNL A   1      34.801  21.216  24.832  1.00  0.00     0.122 A 
ATOM     14  C   UNL A   1      35.077  19.855  25.010  1.00  0.00     0.047 A 
ATOM     15  C   UNL A   1      34.140  18.887  24.651  1.00  0.00     0.004 A 
ATOM     16  C   UNL A   1      32.636  20.634  23.949  1.00  0.00     0.008 A 
ATOM     17  C   UNL A   1      32.924  19.277  24.105  1.00  0.00     0.001 A 
BRANCH  13  18
ATOM     18  O   UNL A   1      35.862  22.066  25.001  1.00  0.00    -0.496 OA
ATOM     19  C   UNL A   1      36.977  21.775  24.167  1.00  0.00     0.278 C 
ENDBRANCH  13  18
ENDBRANCH   8  12
BRANCH  10  20
ATOM     20  C   UNL A   1      33.191  25.961  21.786  1.00  0.00     0.257 C 
ATOM     21  O   UNL A   1      33.331  25.722  20.590  1.00  0.00    -0.269 OA
BRANCH  20  22
ATOM     22  C   UNL A   1      32.701  27.248  22.231  1.00  0.00     0.085 A 
ATOM     23  C   UNL A   1      33.446  28.437  22.331  1.00  0.00     0.150 A 
ATOM     24  C   UNL A   1      31.450  27.602  22.700  1.00  0.00     0.079 A 
ATOM     25  N   UNL A   1      32.721  29.485  22.725  1.00  0.00    -0.176 NA
ATOM     26  N   UNL A   1      31.477  28.982  22.927  1.00  0.00    -0.240 N 
ATOM     27  C   UNL A   1      30.223  26.918  22.951  1.00  0.00     0.029 A 
ATOM     28  C   UNL A   1      30.333  29.692  23.298  1.00  0.00     0.113 A 
ATOM     29  C   UNL A   1      29.128  27.611  23.315  1.00  0.00     0.004 A 
ATOM     30  C   UNL A   1      29.165  29.053  23.479  1.00  0.00     0.020 A 
ENDBRANCH  20  22
ENDBRANCH  10  20
ENDBRANCH   4   7
ENDBRANCH   2   3
ENDBRANCH   1   2
BRANCH   1  31
ATOM     31  C   UNL A   1      34.226  28.865  26.888  1.00  0.00     0.118 C 
BRANCH  31  32
ATOM     32  N   UNL A   1      34.041  30.313  26.984  1.00  0.00    -0.352 N 
ATOM     33  C   UNL A   1      34.690  31.206  27.820  1.00  0.00     0.251 C 
ATOM     34  H   UNL A   1      33.370  30.702  26.378  1.00  0.00     0.163 HD
ATOM     35  O   UNL A   1      34.244  32.317  28.017  1.00  0.00    -0.269 OA
BRANCH  33  36
ATOM     36  C   UNL A   1      35.925  30.746  28.480  1.00  0.00     0.039 A 
ATOM     37  C   UNL A   1      36.098  29.404  28.824  1.00  0.00     0.014 A 
ATOM     38  C   UNL A   1      36.953  31.668  28.639  1.00  0.00     0.014 A 
ATOM     39  C   UNL A   1      37.358  28.975  29.233  1.00  0.00     0.010 A 
ATOM     40  C   UNL A   1      38.225  31.209  28.863  1.00  0.00     0.010 A 
ATOM     41  C   UNL A   1      38.432  29.878  29.221  1.00  0.00    -0.014 A 
BRANCH  41  42
ATOM     42  C   UNL A   1      39.800  29.424  29.477  1.00  0.00     0.031 A 
ATOM     43  C   UNL A   1      40.167  29.239  30.914  1.00  0.00     0.074 A 
ATOM     44  C   UNL A   1      40.592  28.948  28.491  1.00  0.00     0.049 A 
ATOM     45  N   UNL A   1      41.098  29.831  31.590  1.00  0.00    -0.248 NA
ATOM     46  C   UNL A   1      39.321  28.351  31.731  1.00  0.00     0.031 C 
ATOM     47  C   UNL A   1      40.259  28.767  27.070  1.00  0.00     0.029 A 
ATOM     48  N   UNL A   1      41.829  28.388  28.576  1.00  0.00    -0.354 N 
ATOM     49  C   UNL A   1      41.101  29.233  32.850  1.00  0.00     0.074 A 
ATOM     50  C   UNL A   1      39.882  28.473  32.935  1.00  0.00     0.031 C 
ATOM     51  C   UNL A   1      41.141  27.920  26.502  1.00  0.00     0.029 A 
ATOM     52  C   UNL A   1      42.203  27.660  27.453  1.00  0.00     0.049 A 
ATOM     53  H   UNL A   1      42.408  28.488  29.366  1.00  0.00     0.167 HD
ATOM     54  C   UNL A   1      42.217  29.213  33.634  1.00  0.00     0.037 A 
ATOM     55  C   UNL A   1      43.297  26.877  27.311  1.00  0.00     0.037 A 
ATOM     56  C   UNL A   1      43.182  30.188  33.193  1.00  0.00     0.049 A 
ATOM     57  C   UNL A   1      44.274  27.318  28.336  1.00  0.00     0.074 A 
ATOM     58  C   UNL A   1      43.184  31.561  33.040  1.00  0.00     0.029 A 
ATOM     59  N   UNL A   1      44.267  29.732  32.483  1.00  0.00    -0.354 N 
ATOM     60  N   UNL A   1      44.833  28.499  28.352  1.00  0.00    -0.248 NA
ATOM     61  C   UNL A   1      44.322  26.593  29.595  1.00  0.00     0.031 C 
ATOM     62  C   UNL A   1      43.968  31.802  31.873  1.00  0.00     0.029 A 
ATOM     63  C   UNL A   1      44.443  30.572  31.413  1.00  0.00     0.049 A 
ATOM     64  H   UNL A   1      44.817  28.947  32.703  1.00  0.00     0.167 HD
ATOM     65  C   UNL A   1      44.924  28.834  29.694  1.00  0.00     0.074 A 
ATOM     66  C   UNL A   1      44.709  27.578  30.409  1.00  0.00     0.031 C 
ATOM     67  C   UNL A   1      44.886  30.137  30.103  1.00  0.00     0.037 A 
BRANCH  54  68
ATOM     68  C   UNL A   1      42.599  28.073  34.559  1.00  0.00     0.058 A 
ATOM     69  C   UNL A   1      42.735  28.316  35.944  1.00  0.00     0.135 A 
ATOM     70  C   UNL A   1      43.118  26.836  34.113  1.00  0.00     0.135 A 
ATOM     71  F   UNL A   1      42.280  29.458  36.485  1.00  0.00    -0.206 F 
ATOM     72  C   UNL A   1      43.410  27.441  36.798  1.00  0.00     0.059 A 
ATOM     73  C   UNL A   1      43.744  25.925  34.958  1.00  0.00     0.059 A 
ATOM     74  F   UNL A   1      43.136  26.489  32.821  1.00  0.00    -0.206 F 
ATOM     75  C   UNL A   1      43.930  26.257  36.288  1.00  0.00     0.060 A 
BRANCH  75  76
ATOM     76  S   UNL A   1      44.920  25.188  37.348  1.00  0.00     0.124 S 
ATOM     77  O   UNL A   1      44.477  23.867  36.918  1.00  0.00    -0.237 OA
ATOM     78  O   UNL A   1      46.279  25.563  36.973  1.00  0.00    -0.237 OA
ATOM     79  O   UNL A   1      44.515  25.585  38.694  1.00  0.00    -0.744 OA
ENDBRANCH  75  76
ENDBRANCH  54  68
BRANCH  55  80
ATOM     80  C   UNL A   1      43.414  25.607  26.549  1.00  0.00     0.058 A 
ATOM     81  C   UNL A   1      44.260  25.504  25.434  1.00  0.00     0.135 A 
ATOM     82  C   UNL A   1      42.903  24.394  27.057  1.00  0.00     0.135 A 
ATOM     83  F   UNL A   1      44.807  26.604  24.898  1.00  0.00    -0.206 F 
ATOM     84  C   UNL A   1      44.618  24.268  24.882  1.00  0.00     0.059 A 
ATOM     85  C   UNL A   1      43.233  23.152  26.517  1.00  0.00     0.059 A 
ATOM     86  F   UNL A   1      42.134  24.371  28.157  1.00  0.00    -0.206 F 
ATOM     87  C   UNL A   1      44.114  23.095  25.445  1.00  0.00     0.060 A 
BRANCH  87  88
ATOM     88  S   UNL A   1      44.717  21.496  24.852  1.00  0.00     0.124 S 
ATOM     89  O   UNL A   1      43.616  20.608  25.210  1.00  0.00    -0.237 OA
ATOM     90  O   UNL A   1      44.897  21.745  23.426  1.00  0.00    -0.237 OA
ATOM     91  O   UNL A   1      45.951  21.298  25.606  1.00  0.00    -0.744 OA
ENDBRANCH  87  88
ENDBRANCH  55  80
BRANCH  67  92
ATOM     92  C   UNL A   1      45.068  31.219  29.066  1.00  0.00     0.058 A 
ATOM     93  C   UNL A   1      46.306  31.574  28.502  1.00  0.00     0.135 A 
ATOM     94  C   UNL A   1      43.921  31.788  28.492  1.00  0.00     0.135 A 
ATOM     95  F   UNL A   1      47.443  31.007  28.922  1.00  0.00    -0.206 F 
ATOM     96  C   UNL A   1      46.403  32.469  27.435  1.00  0.00     0.059 A 
ATOM     97  C   UNL A   1      43.991  32.660  27.407  1.00  0.00     0.059 A 
ATOM     98  F   UNL A   1      42.704  31.444  28.943  1.00  0.00    -0.206 F 
ATOM     99  C   UNL A   1      45.237  33.001  26.886  1.00  0.00     0.060 A 
BRANCH  99 100
ATOM    100  S   UNL A   1      45.358  34.062  25.430  1.00  0.00     0.124 S 
ATOM    101  O   UNL A   1      44.709  33.253  24.403  1.00  0.00    -0.237 OA
ATOM    102  O   UNL A   1      44.633  35.260  25.846  1.00  0.00    -0.237 OA
ATOM    103  O   UNL A   1      46.798  34.245  25.261  1.00  0.00    -0.744 OA
ENDBRANCH  99 100
ENDBRANCH  67  92
ENDBRANCH  41  42
ENDBRANCH  33  36
ENDBRANCH  31  32
ENDBRANCH   1  31
TORSDOF 17
ENDMDL
