MODEL 1
REMARK VINA RESULT:     -11.4      0.000      0.000
REMARK SMILES C/C(=N\Nc1ccccc1C(=O)NCCCNC(=O)c1ccc(-c2c3nc(c(-c4c(F)cc(S(=O)(=O)[O-])cc4F)c4ccc([nH]4)c(-c4c(F)cc(S(=O)(=O)[O-])cc4F)c4nc(c(-c5c(F)cc(S(=O)(=O)[O-])cc5F)c5ccc2[nH]5)C=C4)C=C3)cc1)c1ccc(S(C)(=O)=O)cc1
REMARK SMILES IDX 14 1 13 2 11 3 12 4 10 6 5 7 6 8 7 9 9 10 8 11 4 12 3 14
REMARK SMILES IDX 1 15 2 16 86 17 87 18 95 19 88 20 94 21 89 22 90 23 91 24
REMARK SMILES IDX 92 25 93 26 15 27 16 28 17 29 18 30 19 32 20 33 21 34 85 35
REMARK SMILES IDX 22 36 84 37 23 38 24 39 25 40 78 41 26 42 83 43 77 44 79 45
REMARK SMILES IDX 27 46 82 47 76 48 75 49 28 51 62 52 41 53 61 54 42 55 45 56
REMARK SMILES IDX 60 57 80 58 43 59 44 60 59 62 81 63 46 64 29 65 30 66 39 67
REMARK SMILES IDX 31 68 32 69 38 70 40 71 33 72 34 73 35 74 36 75 37 76 63 77
REMARK SMILES IDX 64 78 73 79 65 80 66 81 72 82 74 83 67 84 68 85 69 86 70 87
REMARK SMILES IDX 71 88 47 89 48 90 57 91 49 92 50 93 56 94 58 95 51 96 52 97
REMARK SMILES IDX 53 98 54 99 55 100
REMARK H PARENT 13 5 4 13 17 31 79 50 45 61
REMARK Flexibility Score: inf
ROOT
ATOM      1  C   UNL A   1      48.779  22.641  37.461  1.00  0.00     0.118 C 
ENDROOT
BRANCH   1   2
ATOM      2  N   UNL A   1      47.773  22.529  38.501  1.00  0.00    -0.352 N 
ATOM      3  C   UNL A   1      46.481  22.076  38.386  1.00  0.00     0.253 C 
ATOM      4  O   UNL A   1      45.797  21.942  39.401  1.00  0.00    -0.269 OA
ATOM      5  H   UNL A   1      48.050  22.813  39.402  1.00  0.00     0.163 HD
BRANCH   3   6
ATOM      6  C   UNL A   1      45.856  21.883  37.059  1.00  0.00     0.064 A 
ATOM      7  C   UNL A   1      45.903  20.703  36.297  1.00  0.00     0.069 A 
ATOM      8  C   UNL A   1      45.369  20.754  34.990  1.00  0.00     0.028 A 
ATOM      9  C   UNL A   1      44.744  21.898  34.489  1.00  0.00     0.002 A 
ATOM     10  C   UNL A   1      45.189  23.022  36.562  1.00  0.00     0.016 A 
ATOM     11  C   UNL A   1      44.626  23.025  35.289  1.00  0.00     0.001 A 
BRANCH   7  12
ATOM     12  N   UNL A   1      46.275  19.417  36.749  1.00  0.00    -0.277 N 
ATOM     13  H   UNL A   1      47.175  19.099  36.507  1.00  0.00     0.190 HD
BRANCH  12  14
ATOM     14  N   UNL A   1      45.506  18.585  37.484  1.00  0.00    -0.180 NA
ATOM     15  C   UNL A   1      47.241  18.533  39.294  1.00  0.00     0.069 C 
ATOM     16  C   UNL A   1      45.908  18.198  38.660  1.00  0.00     0.065 C 
BRANCH  16  17
ATOM     17  C   UNL A   1      44.990  17.328  39.446  1.00  0.00    -0.002 A 
ATOM     18  C   UNL A   1      43.876  16.753  38.822  1.00  0.00     0.011 A 
ATOM     19  C   UNL A   1      45.217  17.114  40.808  1.00  0.00     0.011 A 
ATOM     20  C   UNL A   1      43.002  15.943  39.550  1.00  0.00     0.021 A 
ATOM     21  C   UNL A   1      44.348  16.304  41.541  1.00  0.00     0.021 A 
ATOM     22  C   UNL A   1      43.245  15.724  40.909  1.00  0.00     0.067 A 
BRANCH  22  23
ATOM     23  S   UNL A   1      42.181  14.631  41.822  1.00  0.00     0.175 S 
ATOM     24  C   UNL A   1      41.787  13.342  40.671  1.00  0.00     0.163 C 
ATOM     25  O   UNL A   1      42.972  14.068  42.898  1.00  0.00    -0.224 OA
ATOM     26  O   UNL A   1      40.955  15.356  42.107  1.00  0.00    -0.224 OA
ENDBRANCH  22  23
ENDBRANCH  16  17
ENDBRANCH  12  14
ENDBRANCH   7  12
ENDBRANCH   3   6
ENDBRANCH   1   2
BRANCH   1  27
ATOM     27  C   UNL A   1      49.276  24.056  37.239  1.00  0.00     0.042 C 
BRANCH  27  28
ATOM     28  C   UNL A   1      48.184  25.111  37.115  1.00  0.00     0.118 C 
BRANCH  28  29
ATOM     29  N   UNL A   1      48.154  26.121  38.170  1.00  0.00    -0.352 N 
ATOM     30  C   UNL A   1      47.269  27.161  38.375  1.00  0.00     0.251 C 
ATOM     31  H   UNL A   1      48.874  26.049  38.837  1.00  0.00     0.163 HD
ATOM     32  O   UNL A   1      47.360  27.867  39.374  1.00  0.00    -0.269 OA
BRANCH  30  33
ATOM     33  C   UNL A   1      46.260  27.470  37.338  1.00  0.00     0.039 A 
ATOM     34  C   UNL A   1      44.995  26.884  37.438  1.00  0.00     0.014 A 
ATOM     35  C   UNL A   1      46.513  28.426  36.356  1.00  0.00     0.014 A 
ATOM     36  C   UNL A   1      43.949  27.363  36.645  1.00  0.00     0.010 A 
ATOM     37  C   UNL A   1      45.447  28.985  35.662  1.00  0.00     0.010 A 
ATOM     38  C   UNL A   1      44.148  28.474  35.810  1.00  0.00    -0.014 A 
BRANCH  38  39
ATOM     39  C   UNL A   1      43.018  29.137  35.101  1.00  0.00     0.031 A 
ATOM     40  C   UNL A   1      42.663  28.716  33.699  1.00  0.00     0.074 A 
ATOM     41  C   UNL A   1      42.382  30.182  35.672  1.00  0.00     0.049 A 
ATOM     42  N   UNL A   1      41.819  29.259  32.861  1.00  0.00    -0.248 NA
ATOM     43  C   UNL A   1      43.392  27.561  33.147  1.00  0.00     0.031 C 
ATOM     44  C   UNL A   1      42.679  30.743  36.994  1.00  0.00     0.029 A 
ATOM     45  N   UNL A   1      41.358  30.973  35.208  1.00  0.00    -0.354 N 
ATOM     46  C   UNL A   1      41.943  28.538  31.679  1.00  0.00     0.074 A 
ATOM     47  C   UNL A   1      42.985  27.557  31.888  1.00  0.00     0.031 C 
ATOM     48  C   UNL A   1      41.837  31.760  37.246  1.00  0.00     0.029 A 
ATOM     49  C   UNL A   1      40.969  31.956  36.091  1.00  0.00     0.049 A 
ATOM     50  H   UNL A   1      40.943  30.850  34.325  1.00  0.00     0.167 HD
ATOM     51  C   UNL A   1      41.233  28.659  30.533  1.00  0.00     0.037 A 
ATOM     52  C   UNL A   1      40.021  32.909  35.980  1.00  0.00     0.037 A 
ATOM     53  C   UNL A   1      40.149  29.587  30.354  1.00  0.00     0.049 A 
ATOM     54  C   UNL A   1      39.204  32.982  34.718  1.00  0.00     0.074 A 
ATOM     55  C   UNL A   1      39.312  29.731  29.262  1.00  0.00     0.029 A 
ATOM     56  N   UNL A   1      39.742  30.517  31.298  1.00  0.00    -0.354 N 
ATOM     57  N   UNL A   1      39.296  32.249  33.635  1.00  0.00    -0.248 NA
ATOM     58  C   UNL A   1      38.151  34.007  34.665  1.00  0.00     0.031 C 
ATOM     59  C   UNL A   1      38.412  30.767  29.536  1.00  0.00     0.029 A 
ATOM     60  C   UNL A   1      38.667  31.242  30.813  1.00  0.00     0.049 A 
ATOM     61  H   UNL A   1      40.156  30.643  32.182  1.00  0.00     0.167 HD
ATOM     62  C   UNL A   1      38.295  32.704  32.783  1.00  0.00     0.074 A 
ATOM     63  C   UNL A   1      37.603  33.768  33.481  1.00  0.00     0.031 C 
ATOM     64  C   UNL A   1      37.979  32.282  31.534  1.00  0.00     0.037 A 
BRANCH  51  65
ATOM     65  C   UNL A   1      41.585  27.743  29.394  1.00  0.00     0.058 A 
ATOM     66  C   UNL A   1      42.736  27.948  28.616  1.00  0.00     0.135 A 
ATOM     67  C   UNL A   1      40.783  26.630  29.096  1.00  0.00     0.135 A 
ATOM     68  F   UNL A   1      43.527  29.008  28.846  1.00  0.00    -0.206 F 
ATOM     69  C   UNL A   1      43.064  27.100  27.565  1.00  0.00     0.059 A 
ATOM     70  C   UNL A   1      41.108  25.750  28.067  1.00  0.00     0.059 A 
ATOM     71  F   UNL A   1      39.670  26.388  29.807  1.00  0.00    -0.206 F 
ATOM     72  C   UNL A   1      42.244  26.002  27.298  1.00  0.00     0.060 A 
BRANCH  72  73
ATOM     73  S   UNL A   1      42.694  24.900  25.942  1.00  0.00     0.124 S 
ATOM     74  O   UNL A   1      44.092  24.615  26.251  1.00  0.00    -0.237 OA
ATOM     75  O   UNL A   1      41.767  23.787  26.122  1.00  0.00    -0.237 OA
ATOM     76  O   UNL A   1      42.467  25.714  24.753  1.00  0.00    -0.744 OA
ENDBRANCH  72  73
ENDBRANCH  51  65
BRANCH  52  77
ATOM     77  C   UNL A   1      39.768  33.854  37.103  1.00  0.00     0.058 A 
ATOM     78  C   UNL A   1      40.445  35.080  37.175  1.00  0.00     0.135 A 
ATOM     79  C   UNL A   1      38.860  33.548  38.127  1.00  0.00     0.135 A 
ATOM     80  F   UNL A   1      41.328  35.416  36.222  1.00  0.00    -0.206 F 
ATOM     81  C   UNL A   1      40.252  35.961  38.235  1.00  0.00     0.059 A 
ATOM     82  C   UNL A   1      38.631  34.423  39.187  1.00  0.00     0.059 A 
ATOM     83  F   UNL A   1      38.173  32.396  38.097  1.00  0.00    -0.206 F 
ATOM     84  C   UNL A   1      39.343  35.622  39.239  1.00  0.00     0.060 A 
BRANCH  84  85
ATOM     85  S   UNL A   1      39.074  36.784  40.596  1.00  0.00     0.124 S 
ATOM     86  O   UNL A   1      38.372  35.948  41.563  1.00  0.00    -0.237 OA
ATOM     87  O   UNL A   1      40.438  37.164  40.950  1.00  0.00    -0.237 OA
ATOM     88  O   UNL A   1      38.279  37.840  39.978  1.00  0.00    -0.744 OA
ENDBRANCH  84  85
ENDBRANCH  52  77
BRANCH  64  89
ATOM     89  C   UNL A   1      36.809  32.936  30.858  1.00  0.00     0.058 A 
ATOM     90  C   UNL A   1      35.487  32.623  31.211  1.00  0.00     0.135 A 
ATOM     91  C   UNL A   1      37.016  33.934  29.892  1.00  0.00     0.135 A 
ATOM     92  F   UNL A   1      35.239  31.672  32.125  1.00  0.00    -0.206 F 
ATOM     93  C   UNL A   1      34.408  33.266  30.613  1.00  0.00     0.059 A 
ATOM     94  C   UNL A   1      35.952  34.606  29.300  1.00  0.00     0.059 A 
ATOM     95  F   UNL A   1      38.262  34.275  29.529  1.00  0.00    -0.206 F 
ATOM     96  C   UNL A   1      34.651  34.257  29.660  1.00  0.00     0.060 A 
BRANCH  96  97
ATOM     97  S   UNL A   1      33.243  35.114  28.923  1.00  0.00     0.124 S 
ATOM     98  O   UNL A   1      33.882  36.301  28.366  1.00  0.00    -0.237 OA
ATOM     99  O   UNL A   1      32.758  34.139  27.951  1.00  0.00    -0.237 OA
ATOM    100  O   UNL A   1      32.358  35.349  30.059  1.00  0.00    -0.744 OA
ENDBRANCH  96  97
ENDBRANCH  64  89
ENDBRANCH  38  39
ENDBRANCH  30  33
ENDBRANCH  28  29
ENDBRANCH  27  28
ENDBRANCH   1  27
TORSDOF 17
ENDMDL
MODEL 2
REMARK VINA RESULT:     -11.1      8.226     16.081
REMARK SMILES C/C(=N\Nc1ccccc1C(=O)NCCCNC(=O)c1ccc(-c2c3nc(c(-c4c(F)cc(S(=O)(=O)[O-])cc4F)c4ccc([nH]4)c(-c4c(F)cc(S(=O)(=O)[O-])cc4F)c4nc(c(-c5c(F)cc(S(=O)(=O)[O-])cc5F)c5ccc2[nH]5)C=C4)C=C3)cc1)c1ccc(S(C)(=O)=O)cc1
REMARK SMILES IDX 14 1 13 2 11 3 12 4 10 6 5 7 6 8 7 9 9 10 8 11 4 12 3 14
REMARK SMILES IDX 1 15 2 16 86 17 87 18 95 19 88 20 94 21 89 22 90 23 91 24
REMARK SMILES IDX 92 25 93 26 15 27 16 28 17 29 18 30 19 32 20 33 21 34 85 35
REMARK SMILES IDX 22 36 84 37 23 38 24 39 25 40 78 41 26 42 83 43 77 44 79 45
REMARK SMILES IDX 27 46 82 47 76 48 75 49 28 51 62 52 41 53 61 54 42 55 45 56
REMARK SMILES IDX 60 57 80 58 43 59 44 60 59 62 81 63 46 64 29 65 30 66 39 67
REMARK SMILES IDX 31 68 32 69 38 70 40 71 33 72 34 73 35 74 36 75 37 76 63 77
REMARK SMILES IDX 64 78 73 79 65 80 66 81 72 82 74 83 67 84 68 85 69 86 70 87
REMARK SMILES IDX 71 88 47 89 48 90 57 91 49 92 50 93 56 94 58 95 51 96 52 97
REMARK SMILES IDX 53 98 54 99 55 100
REMARK H PARENT 13 5 4 13 17 31 79 50 45 61
REMARK Flexibility Score: inf
ROOT
ATOM      1  C   UNL A   1      36.930  34.579  32.214  1.00  0.00     0.118 C 
ENDROOT
BRANCH   1   2
ATOM      2  N   UNL A   1      35.767  34.180  32.985  1.00  0.00    -0.352 N 
ATOM      3  C   UNL A   1      34.456  34.131  32.579  1.00  0.00     0.253 C 
ATOM      4  O   UNL A   1      33.608  33.656  33.334  1.00  0.00    -0.269 OA
ATOM      5  H   UNL A   1      35.939  33.909  33.916  1.00  0.00     0.163 HD
BRANCH   3   6
ATOM      6  C   UNL A   1      34.026  34.765  31.312  1.00  0.00     0.064 A 
ATOM      7  C   UNL A   1      34.230  34.239  30.025  1.00  0.00     0.069 A 
ATOM      8  C   UNL A   1      33.877  35.057  28.928  1.00  0.00     0.028 A 
ATOM      9  C   UNL A   1      33.274  36.305  29.098  1.00  0.00     0.002 A 
ATOM     10  C   UNL A   1      33.381  36.008  31.477  1.00  0.00     0.016 A 
ATOM     11  C   UNL A   1      32.996  36.768  30.376  1.00  0.00     0.001 A 
BRANCH   7  12
ATOM     12  N   UNL A   1      34.597  32.914  29.698  1.00  0.00    -0.277 N 
ATOM     13  H   UNL A   1      35.452  32.583  30.057  1.00  0.00     0.190 HD
BRANCH  12  14
ATOM     14  N   UNL A   1      33.878  32.061  28.937  1.00  0.00    -0.180 NA
ATOM     15  C   UNL A   1      35.929  31.459  27.624  1.00  0.00     0.069 C 
ATOM     16  C   UNL A   1      34.468  31.362  28.011  1.00  0.00     0.065 C 
BRANCH  16  17
ATOM     17  C   UNL A   1      33.632  30.397  27.244  1.00  0.00    -0.002 A 
ATOM     18  C   UNL A   1      32.593  30.870  26.434  1.00  0.00     0.011 A 
ATOM     19  C   UNL A   1      33.860  29.023  27.360  1.00  0.00     0.011 A 
ATOM     20  C   UNL A   1      31.796  29.975  25.717  1.00  0.00     0.021 A 
ATOM     21  C   UNL A   1      33.068  28.122  26.645  1.00  0.00     0.021 A 
ATOM     22  C   UNL A   1      32.040  28.603  25.829  1.00  0.00     0.067 A 
BRANCH  22  23
ATOM     23  S   UNL A   1      31.080  27.464  24.858  1.00  0.00     0.175 S 
ATOM     24  C   UNL A   1      32.261  26.710  23.773  1.00  0.00     0.163 C 
ATOM     25  O   UNL A   1      30.572  26.455  25.766  1.00  0.00    -0.224 OA
ATOM     26  O   UNL A   1      30.170  28.248  24.043  1.00  0.00    -0.224 OA
ENDBRANCH  22  23
ENDBRANCH  16  17
ENDBRANCH  12  14
ENDBRANCH   7  12
ENDBRANCH   3   6
ENDBRANCH   1   2
BRANCH   1  27
ATOM     27  C   UNL A   1      38.189  33.810  32.562  1.00  0.00     0.042 C 
BRANCH  27  28
ATOM     28  C   UNL A   1      38.297  32.427  31.930  1.00  0.00     0.118 C 
BRANCH  28  29
ATOM     29  N   UNL A   1      37.030  31.746  31.675  1.00  0.00    -0.352 N 
ATOM     30  C   UNL A   1      36.788  30.512  31.105  1.00  0.00     0.251 C 
ATOM     31  H   UNL A   1      36.226  32.243  31.950  1.00  0.00     0.163 HD
ATOM     32  O   UNL A   1      35.646  30.068  31.044  1.00  0.00    -0.269 OA
BRANCH  30  33
ATOM     33  C   UNL A   1      37.908  29.763  30.494  1.00  0.00     0.039 A 
ATOM     34  C   UNL A   1      38.210  29.988  29.148  1.00  0.00     0.014 A 
ATOM     35  C   UNL A   1      38.732  28.949  31.269  1.00  0.00     0.014 A 
ATOM     36  C   UNL A   1      39.414  29.513  28.623  1.00  0.00     0.010 A 
ATOM     37  C   UNL A   1      39.982  28.588  30.783  1.00  0.00     0.010 A 
ATOM     38  C   UNL A   1      40.348  28.880  29.459  1.00  0.00    -0.014 A 
BRANCH  38  39
ATOM     39  C   UNL A   1      41.719  28.536  28.988  1.00  0.00     0.031 A 
ATOM     40  C   UNL A   1      42.768  29.613  28.886  1.00  0.00     0.074 A 
ATOM     41  C   UNL A   1      41.992  27.287  28.555  1.00  0.00     0.049 A 
ATOM     42  N   UNL A   1      43.966  29.553  28.367  1.00  0.00    -0.248 NA
ATOM     43  C   UNL A   1      42.401  30.948  29.389  1.00  0.00     0.031 C 
ATOM     44  C   UNL A   1      41.044  26.168  28.525  1.00  0.00     0.029 A 
ATOM     45  N   UNL A   1      43.146  26.747  28.041  1.00  0.00    -0.354 N 
ATOM     46  C   UNL A   1      44.478  30.844  28.448  1.00  0.00     0.074 A 
ATOM     47  C   UNL A   1      43.439  31.677  29.011  1.00  0.00     0.031 C 
ATOM     48  C   UNL A   1      41.663  25.072  28.054  1.00  0.00     0.029 A 
ATOM     49  C   UNL A   1      43.037  25.415  27.706  1.00  0.00     0.049 A 
ATOM     50  H   UNL A   1      43.974  27.264  27.922  1.00  0.00     0.167 HD
ATOM     51  C   UNL A   1      45.711  31.290  28.113  1.00  0.00     0.037 A 
ATOM     52  C   UNL A   1      43.941  24.567  27.175  1.00  0.00     0.037 A 
ATOM     53  C   UNL A   1      46.765  30.444  27.621  1.00  0.00     0.049 A 
ATOM     54  C   UNL A   1      45.325  25.075  26.870  1.00  0.00     0.074 A 
ATOM     55  C   UNL A   1      48.075  30.782  27.332  1.00  0.00     0.029 A 
ATOM     56  N   UNL A   1      46.633  29.089  27.361  1.00  0.00    -0.354 N 
ATOM     57  N   UNL A   1      45.807  26.286  27.011  1.00  0.00    -0.248 NA
ATOM     58  C   UNL A   1      46.289  24.101  26.337  1.00  0.00     0.031 C 
ATOM     59  C   UNL A   1      48.730  29.634  26.874  1.00  0.00     0.029 A 
ATOM     60  C   UNL A   1      47.837  28.575  26.912  1.00  0.00     0.049 A 
ATOM     61  H   UNL A   1      45.806  28.568  27.479  1.00  0.00     0.167 HD
ATOM     62  C   UNL A   1      47.138  26.213  26.614  1.00  0.00     0.074 A 
ATOM     63  C   UNL A   1      47.387  24.837  26.237  1.00  0.00     0.031 C 
ATOM     64  C   UNL A   1      48.069  27.197  26.563  1.00  0.00     0.037 A 
BRANCH  51  65
ATOM     65  C   UNL A   1      45.997  32.754  28.299  1.00  0.00     0.058 A 
ATOM     66  C   UNL A   1      46.485  33.258  29.515  1.00  0.00     0.135 A 
ATOM     67  C   UNL A   1      45.815  33.659  27.241  1.00  0.00     0.135 A 
ATOM     68  F   UNL A   1      46.658  32.440  30.566  1.00  0.00    -0.206 F 
ATOM     69  C   UNL A   1      46.753  34.611  29.686  1.00  0.00     0.059 A 
ATOM     70  C   UNL A   1      46.105  35.013  27.380  1.00  0.00     0.059 A 
ATOM     71  F   UNL A   1      45.349  33.231  26.056  1.00  0.00    -0.206 F 
ATOM     72  C   UNL A   1      46.562  35.482  28.612  1.00  0.00     0.060 A 
BRANCH  72  73
ATOM     73  S   UNL A   1      46.933  37.232  28.845  1.00  0.00     0.124 S 
ATOM     74  O   UNL A   1      45.983  37.593  29.892  1.00  0.00    -0.237 OA
ATOM     75  O   UNL A   1      48.336  37.204  29.247  1.00  0.00    -0.237 OA
ATOM     76  O   UNL A   1      46.673  37.813  27.532  1.00  0.00    -0.744 OA
ENDBRANCH  72  73
ENDBRANCH  51  65
BRANCH  52  77
ATOM     77  C   UNL A   1      43.583  23.144  26.925  1.00  0.00     0.058 A 
ATOM     78  C   UNL A   1      43.429  22.662  25.616  1.00  0.00     0.135 A 
ATOM     79  C   UNL A   1      43.378  22.243  27.980  1.00  0.00     0.135 A 
ATOM     80  F   UNL A   1      43.609  23.486  24.572  1.00  0.00    -0.206 F 
ATOM     81  C   UNL A   1      43.057  21.345  25.360  1.00  0.00     0.059 A 
ATOM     82  C   UNL A   1      43.029  20.914  27.750  1.00  0.00     0.059 A 
ATOM     83  F   UNL A   1      43.531  22.648  29.250  1.00  0.00    -0.206 F 
ATOM     84  C   UNL A   1      42.857  20.478  26.436  1.00  0.00     0.060 A 
BRANCH  84  85
ATOM     85  S   UNL A   1      42.406  18.763  26.096  1.00  0.00     0.124 S 
ATOM     86  O   UNL A   1      40.995  18.894  25.751  1.00  0.00    -0.237 OA
ATOM     87  O   UNL A   1      43.303  18.420  24.997  1.00  0.00    -0.237 OA
ATOM     88  O   UNL A   1      42.688  18.088  27.359  1.00  0.00    -0.744 OA
ENDBRANCH  84  85
ENDBRANCH  52  77
BRANCH  64  89
ATOM     89  C   UNL A   1      49.455  26.816  26.127  1.00  0.00     0.058 A 
ATOM     90  C   UNL A   1      50.411  26.349  27.042  1.00  0.00     0.135 A 
ATOM     91  C   UNL A   1      49.807  26.859  24.769  1.00  0.00     0.135 A 
ATOM     92  F   UNL A   1      50.123  26.296  28.352  1.00  0.00    -0.206 F 
ATOM     93  C   UNL A   1      51.678  25.954  26.625  1.00  0.00     0.059 A 
ATOM     94  C   UNL A   1      51.060  26.446  24.328  1.00  0.00     0.059 A 
ATOM     95  F   UNL A   1      48.923  27.288  23.854  1.00  0.00    -0.206 F 
ATOM     96  C   UNL A   1      51.992  26.005  25.265  1.00  0.00     0.060 A 
BRANCH  96  97
ATOM     97  S   UNL A   1      53.625  25.450  24.733  1.00  0.00     0.124 S 
ATOM     98  O   UNL A   1      53.478  24.000  24.799  1.00  0.00    -0.237 OA
ATOM     99  O   UNL A   1      53.727  26.017  23.392  1.00  0.00    -0.237 OA
ATOM    100  O   UNL A   1      54.522  26.038  25.723  1.00  0.00    -0.744 OA
ENDBRANCH  96  97
ENDBRANCH  64  89
ENDBRANCH  38  39
ENDBRANCH  30  33
ENDBRANCH  28  29
ENDBRANCH  27  28
ENDBRANCH   1  27
TORSDOF 17
ENDMDL
MODEL 3
REMARK VINA RESULT:     -11.0      1.169      2.062
REMARK SMILES C/C(=N\Nc1ccccc1C(=O)NCCCNC(=O)c1ccc(-c2c3nc(c(-c4c(F)cc(S(=O)(=O)[O-])cc4F)c4ccc([nH]4)c(-c4c(F)cc(S(=O)(=O)[O-])cc4F)c4nc(c(-c5c(F)cc(S(=O)(=O)[O-])cc5F)c5ccc2[nH]5)C=C4)C=C3)cc1)c1ccc(S(C)(=O)=O)cc1
REMARK SMILES IDX 14 1 13 2 11 3 12 4 10 6 5 7 6 8 7 9 9 10 8 11 4 12 3 14
REMARK SMILES IDX 1 15 2 16 86 17 87 18 95 19 88 20 94 21 89 22 90 23 91 24
REMARK SMILES IDX 92 25 93 26 15 27 16 28 17 29 18 30 19 32 20 33 21 34 85 35
REMARK SMILES IDX 22 36 84 37 23 38 24 39 25 40 78 41 26 42 83 43 77 44 79 45
REMARK SMILES IDX 27 46 82 47 76 48 75 49 28 51 62 52 41 53 61 54 42 55 45 56
REMARK SMILES IDX 60 57 80 58 43 59 44 60 59 62 81 63 46 64 29 65 30 66 39 67
REMARK SMILES IDX 31 68 32 69 38 70 40 71 33 72 34 73 35 74 36 75 37 76 63 77
REMARK SMILES IDX 64 78 73 79 65 80 66 81 72 82 74 83 67 84 68 85 69 86 70 87
REMARK SMILES IDX 71 88 47 89 48 90 57 91 49 92 50 93 56 94 58 95 51 96 52 97
REMARK SMILES IDX 53 98 54 99 55 100
REMARK H PARENT 13 5 4 13 17 31 79 50 45 61
REMARK Flexibility Score: inf
ROOT
ATOM      1  C   UNL A   1      45.647  22.212  36.555  1.00  0.00     0.118 C 
ENDROOT
BRANCH   1   2
ATOM      2  N   UNL A   1      46.063  21.205  35.597  1.00  0.00    -0.352 N 
ATOM      3  C   UNL A   1      46.740  20.034  35.836  1.00  0.00     0.253 C 
ATOM      4  O   UNL A   1      46.912  19.238  34.913  1.00  0.00    -0.269 OA
ATOM      5  H   UNL A   1      45.831  21.383  34.656  1.00  0.00     0.163 HD
BRANCH   3   6
ATOM      6  C   UNL A   1      47.385  19.780  37.143  1.00  0.00     0.064 A 
ATOM      7  C   UNL A   1      46.798  19.101  38.225  1.00  0.00     0.069 A 
ATOM      8  C   UNL A   1      47.516  19.081  39.442  1.00  0.00     0.028 A 
ATOM      9  C   UNL A   1      48.791  19.637  39.560  1.00  0.00     0.002 A 
ATOM     10  C   UNL A   1      48.689  20.304  37.257  1.00  0.00     0.016 A 
ATOM     11  C   UNL A   1      49.393  20.222  38.455  1.00  0.00     0.001 A 
BRANCH   7  12
ATOM     12  N   UNL A   1      45.642  18.289  38.191  1.00  0.00    -0.277 N 
ATOM     13  H   UNL A   1      45.211  18.158  37.315  1.00  0.00     0.190 HD
BRANCH  12  14
ATOM     14  N   UNL A   1      45.076  17.676  39.253  1.00  0.00    -0.180 NA
ATOM     15  C   UNL A   1      43.792  16.156  37.727  1.00  0.00     0.069 C 
ATOM     16  C   UNL A   1      44.259  16.680  39.068  1.00  0.00     0.065 C 
BRANCH  16  17
ATOM     17  C   UNL A   1      43.713  16.008  40.280  1.00  0.00    -0.002 A 
ATOM     18  C   UNL A   1      42.673  15.081  40.149  1.00  0.00     0.011 A 
ATOM     19  C   UNL A   1      44.210  16.329  41.546  1.00  0.00     0.011 A 
ATOM     20  C   UNL A   1      42.146  14.451  41.279  1.00  0.00     0.021 A 
ATOM     21  C   UNL A   1      43.689  15.702  42.679  1.00  0.00     0.021 A 
ATOM     22  C   UNL A   1      42.658  14.768  42.539  1.00  0.00     0.067 A 
BRANCH  22  23
ATOM     23  S   UNL A   1      42.045  13.912  43.972  1.00  0.00     0.175 S 
ATOM     24  C   UNL A   1      43.045  14.517  45.304  1.00  0.00     0.163 C 
ATOM     25  O   UNL A   1      40.680  14.353  44.178  1.00  0.00    -0.224 OA
ATOM     26  O   UNL A   1      42.348  12.502  43.798  1.00  0.00    -0.224 OA
ENDBRANCH  22  23
ENDBRANCH  16  17
ENDBRANCH  12  14
ENDBRANCH   7  12
ENDBRANCH   3   6
ENDBRANCH   1   2
BRANCH   1  27
ATOM     27  C   UNL A   1      45.242  23.529  35.924  1.00  0.00     0.042 C 
BRANCH  27  28
ATOM     28  C   UNL A   1      46.398  24.434  35.517  1.00  0.00     0.118 C 
BRANCH  28  29
ATOM     29  N   UNL A   1      47.224  24.939  36.610  1.00  0.00    -0.352 N 
ATOM     30  C   UNL A   1      47.068  26.070  37.387  1.00  0.00     0.251 C 
ATOM     31  H   UNL A   1      48.012  24.391  36.826  1.00  0.00     0.163 HD
ATOM     32  O   UNL A   1      47.830  26.292  38.323  1.00  0.00    -0.269 OA
BRANCH  30  33
ATOM     33  C   UNL A   1      46.024  27.056  37.031  1.00  0.00     0.039 A 
ATOM     34  C   UNL A   1      46.351  28.091  36.151  1.00  0.00     0.014 A 
ATOM     35  C   UNL A   1      44.707  26.888  37.456  1.00  0.00     0.014 A 
ATOM     36  C   UNL A   1      45.333  28.864  35.587  1.00  0.00     0.010 A 
ATOM     37  C   UNL A   1      43.690  27.571  36.800  1.00  0.00     0.010 A 
ATOM     38  C   UNL A   1      43.987  28.555  35.844  1.00  0.00    -0.014 A 
BRANCH  38  39
ATOM     39  C   UNL A   1      42.874  29.223  35.113  1.00  0.00     0.031 A 
ATOM     40  C   UNL A   1      42.499  28.756  33.731  1.00  0.00     0.074 A 
ATOM     41  C   UNL A   1      42.273  30.309  35.644  1.00  0.00     0.049 A 
ATOM     42  N   UNL A   1      41.667  29.289  32.876  1.00  0.00    -0.248 NA
ATOM     43  C   UNL A   1      43.190  27.557  33.225  1.00  0.00     0.031 C 
ATOM     44  C   UNL A   1      42.594  30.915  36.940  1.00  0.00     0.029 A 
ATOM     45  N   UNL A   1      41.271  31.112  35.151  1.00  0.00    -0.354 N 
ATOM     46  C   UNL A   1      41.763  28.517  31.723  1.00  0.00     0.074 A 
ATOM     47  C   UNL A   1      42.776  27.514  31.968  1.00  0.00     0.031 C 
ATOM     48  C   UNL A   1      41.785  31.966  37.153  1.00  0.00     0.029 A 
ATOM     49  C   UNL A   1      40.917  32.140  35.996  1.00  0.00     0.049 A 
ATOM     50  H   UNL A   1      40.847  30.964  34.276  1.00  0.00     0.167 HD
ATOM     51  C   UNL A   1      41.050  28.612  30.577  1.00  0.00     0.037 A 
ATOM     52  C   UNL A   1      39.998  33.117  35.849  1.00  0.00     0.037 A 
ATOM     53  C   UNL A   1      39.994  29.565  30.364  1.00  0.00     0.049 A 
ATOM     54  C   UNL A   1      39.176  33.163  34.589  1.00  0.00     0.074 A 
ATOM     55  C   UNL A   1      39.155  29.689  29.271  1.00  0.00     0.029 A 
ATOM     56  N   UNL A   1      39.621  30.545  31.271  1.00  0.00    -0.354 N 
ATOM     57  N   UNL A   1      39.240  32.384  33.537  1.00  0.00    -0.248 NA
ATOM     58  C   UNL A   1      38.154  34.216  34.498  1.00  0.00     0.031 C 
ATOM     59  C   UNL A   1      38.289  30.762  29.506  1.00  0.00     0.029 A 
ATOM     60  C   UNL A   1      38.565  31.281  30.762  1.00  0.00     0.049 A 
ATOM     61  H   UNL A   1      40.043  30.694  32.147  1.00  0.00     0.167 HD
ATOM     62  C   UNL A   1      38.248  32.833  32.671  1.00  0.00     0.074 A 
ATOM     63  C   UNL A   1      37.593  33.946  33.328  1.00  0.00     0.031 C 
ATOM     64  C   UNL A   1      37.913  32.370  31.442  1.00  0.00     0.037 A 
BRANCH  51  65
ATOM     65  C   UNL A   1      41.368  27.640  29.475  1.00  0.00     0.058 A 
ATOM     66  C   UNL A   1      42.551  27.742  28.725  1.00  0.00     0.135 A 
ATOM     67  C   UNL A   1      40.499  26.576  29.185  1.00  0.00     0.135 A 
ATOM     68  F   UNL A   1      43.408  28.752  28.947  1.00  0.00    -0.206 F 
ATOM     69  C   UNL A   1      42.847  26.841  27.708  1.00  0.00     0.059 A 
ATOM     70  C   UNL A   1      40.789  25.646  28.192  1.00  0.00     0.059 A 
ATOM     71  F   UNL A   1      39.353  26.433  29.871  1.00  0.00    -0.206 F 
ATOM     72  C   UNL A   1      41.960  25.795  27.449  1.00  0.00     0.060 A 
BRANCH  72  73
ATOM     73  S   UNL A   1      42.369  24.624  26.138  1.00  0.00     0.124 S 
ATOM     74  O   UNL A   1      41.301  23.640  26.286  1.00  0.00    -0.237 OA
ATOM     75  O   UNL A   1      42.299  25.457  24.942  1.00  0.00    -0.237 OA
ATOM     76  O   UNL A   1      43.704  24.162  26.499  1.00  0.00    -0.744 OA
ENDBRANCH  72  73
ENDBRANCH  51  65
BRANCH  52  77
ATOM     77  C   UNL A   1      39.780  34.114  36.933  1.00  0.00     0.058 A 
ATOM     78  C   UNL A   1      40.311  35.408  36.835  1.00  0.00     0.135 A 
ATOM     79  C   UNL A   1      39.050  33.794  38.088  1.00  0.00     0.135 A 
ATOM     80  F   UNL A   1      41.021  35.762  35.753  1.00  0.00    -0.206 F 
ATOM     81  C   UNL A   1      40.152  36.344  37.854  1.00  0.00     0.059 A 
ATOM     82  C   UNL A   1      38.856  34.720  39.111  1.00  0.00     0.059 A 
ATOM     83  F   UNL A   1      38.505  32.576  38.224  1.00  0.00    -0.206 F 
ATOM     84  C   UNL A   1      39.423  35.989  38.990  1.00  0.00     0.060 A 
BRANCH  84  85
ATOM     85  S   UNL A   1      39.194  37.218  40.294  1.00  0.00     0.124 S 
ATOM     86  O   UNL A   1      38.449  36.455  41.288  1.00  0.00    -0.237 OA
ATOM     87  O   UNL A   1      40.570  37.554  40.646  1.00  0.00    -0.237 OA
ATOM     88  O   UNL A   1      38.450  38.279  39.623  1.00  0.00    -0.744 OA
ENDBRANCH  84  85
ENDBRANCH  52  77
BRANCH  64  89
ATOM     89  C   UNL A   1      36.759  33.032  30.745  1.00  0.00     0.058 A 
ATOM     90  C   UNL A   1      35.432  32.803  31.140  1.00  0.00     0.135 A 
ATOM     91  C   UNL A   1      36.990  33.954  29.712  1.00  0.00     0.135 A 
ATOM     92  F   UNL A   1      35.161  31.925  32.119  1.00  0.00    -0.206 F 
ATOM     93  C   UNL A   1      34.371  33.453  30.520  1.00  0.00     0.059 A 
ATOM     94  C   UNL A   1      35.945  34.634  29.095  1.00  0.00     0.059 A 
ATOM     95  F   UNL A   1      38.243  34.214  29.305  1.00  0.00    -0.206 F 
ATOM     96  C   UNL A   1      34.638  34.369  29.500  1.00  0.00     0.060 A 
BRANCH  96  97
ATOM     97  S   UNL A   1      33.254  35.238  28.732  1.00  0.00     0.124 S 
ATOM     98  O   UNL A   1      33.946  36.261  27.955  1.00  0.00    -0.237 OA
ATOM     99  O   UNL A   1      32.610  34.181  27.959  1.00  0.00    -0.237 OA
ATOM    100  O   UNL A   1      32.486  35.726  29.874  1.00  0.00    -0.744 OA
ENDBRANCH  96  97
ENDBRANCH  64  89
ENDBRANCH  38  39
ENDBRANCH  30  33
ENDBRANCH  28  29
ENDBRANCH  27  28
ENDBRANCH   1  27
TORSDOF 17
ENDMDL
