MODEL 1
REMARK VINA RESULT:     -12.6      0.000      0.000
REMARK SMILES Cc1cccc2[nH]cc(C[C@H](NC(=O)OC(C)(C)C)C(=O)NCCCNC(=O)c3ccc(-c4c5nc(c(-c6c(F)cc(S(=O)(=O)[O-])cc6F)c6ccc([nH]6)c(-c6c(F)cc(S(=O)(=O)[O-])cc6F)c6nc(c(-c7c(F)cc(S(=O)(=O)[O-])cc7F)c7ccc4[nH]7)C=C6)C=C5)cc3)c12
REMARK SMILES IDX 24 1 23 2 22 3 20 4 21 5 11 7 10 8 9 9 1 10 2 11 3 12 95 13
REMARK SMILES IDX 4 14 6 15 5 16 7 17 8 18 12 20 13 21 14 23 15 24 16 25 17 26
REMARK SMILES IDX 18 27 19 28 25 29 26 30 27 31 28 33 29 34 30 35 94 36 31 37
REMARK SMILES IDX 93 38 32 39 33 40 34 41 87 42 35 43 92 44 86 45 88 46 36 47
REMARK SMILES IDX 91 48 85 49 84 50 37 52 71 53 50 54 70 55 51 56 54 57 69 58
REMARK SMILES IDX 89 59 52 60 53 61 68 63 90 64 55 65 38 66 39 67 48 68 40 69
REMARK SMILES IDX 41 70 47 71 49 72 42 73 43 74 44 75 45 76 46 77 72 78 73 79
REMARK SMILES IDX 82 80 74 81 75 82 81 83 83 84 76 85 77 86 78 87 79 88 80 89
REMARK SMILES IDX 56 90 57 91 66 92 58 93 59 94 65 95 67 96 60 97 61 98 62 99
REMARK SMILES IDX 63 100 64 101
REMARK H PARENT 22 6 7 19 12 22 26 32 88 51 54 62
REMARK Flexibility Score: inf
ROOT
ATOM      1  C   UNL A   1      37.034  22.295  24.707  1.00  0.00     0.042 C 
ENDROOT
BRANCH   1   2
ATOM      2  C   UNL A   1      35.753  21.668  25.242  1.00  0.00     0.117 C 
BRANCH   2   3
ATOM      3  N   UNL A   1      35.448  22.032  26.615  1.00  0.00    -0.354 N 
ATOM      4  C   UNL A   1      34.265  22.428  27.180  1.00  0.00     0.243 C 
ATOM      5  O   UNL A   1      34.197  22.447  28.412  1.00  0.00    -0.273 OA
ATOM      6  H   UNL A   1      36.210  21.985  27.237  1.00  0.00     0.163 HD
BRANCH   4   7
ATOM      7  C   UNL A   1      33.010  22.667  26.313  1.00  0.00     0.179 C 
BRANCH   7   8
ATOM      8  C   UNL A   1      32.142  23.703  27.060  1.00  0.00     0.073 C 
BRANCH   8   9
ATOM      9  C   UNL A   1      31.416  24.697  26.212  1.00  0.00    -0.020 A 
ATOM     10  C   UNL A   1      34.540  25.514  25.179  1.00  0.00     0.045 C 
ATOM     11  C   UNL A   1      33.194  25.953  24.663  1.00  0.00    -0.041 A 
ATOM     12  C   UNL A   1      33.232  26.845  23.562  1.00  0.00     0.004 A 
ATOM     13  C   UNL A   1      31.916  25.584  25.183  1.00  0.00     0.006 A 
ATOM     14  C   UNL A   1      32.079  27.357  22.981  1.00  0.00     0.002 A 
ATOM     15  C   UNL A   1      30.780  26.140  24.574  1.00  0.00     0.046 A 
ATOM     16  C   UNL A   1      30.831  27.014  23.482  1.00  0.00     0.027 A 
ATOM     17  N   UNL A   1      29.670  25.662  25.228  1.00  0.00    -0.361 N 
ATOM     18  C   UNL A   1      30.037  24.796  26.210  1.00  0.00     0.087 A 
ATOM     19  H   UNL A   1      28.741  25.911  25.016  1.00  0.00     0.166 HD
ENDBRANCH   8   9
ENDBRANCH   7   8
BRANCH   7  20
ATOM     20  N   UNL A   1      32.332  21.396  26.060  1.00  0.00    -0.309 N 
ATOM     21  C   UNL A   1      32.309  20.721  24.868  1.00  0.00     0.408 C 
ATOM     22  H   UNL A   1      31.847  20.990  26.815  1.00  0.00     0.167 HD
ATOM     23  O   UNL A   1      31.758  19.640  24.787  1.00  0.00    -0.225 OA
BRANCH  21  24
ATOM     24  O   UNL A   1      32.966  21.366  23.873  1.00  0.00    -0.444 OA
BRANCH  24  25
ATOM     25  C   UNL A   1      32.240  21.978  22.768  1.00  0.00     0.106 C 
ATOM     26  C   UNL A   1      31.897  20.936  21.697  1.00  0.00     0.056 C 
ATOM     27  C   UNL A   1      30.989  22.730  23.244  1.00  0.00     0.056 C 
ATOM     28  C   UNL A   1      33.209  23.003  22.158  1.00  0.00     0.056 C 
ENDBRANCH  24  25
ENDBRANCH  21  24
ENDBRANCH   7  20
ENDBRANCH   4   7
ENDBRANCH   2   3
ENDBRANCH   1   2
BRANCH   1  29
ATOM     29  C   UNL A   1      37.844  22.972  25.797  1.00  0.00     0.118 C 
BRANCH  29  30
ATOM     30  N   UNL A   1      38.805  22.058  26.411  1.00  0.00    -0.352 N 
ATOM     31  C   UNL A   1      39.988  22.358  27.047  1.00  0.00     0.251 C 
ATOM     32  H   UNL A   1      38.577  21.102  26.362  1.00  0.00     0.163 HD
ATOM     33  O   UNL A   1      40.819  21.481  27.252  1.00  0.00    -0.269 OA
BRANCH  31  34
ATOM     34  C   UNL A   1      40.247  23.752  27.443  1.00  0.00     0.039 A 
ATOM     35  C   UNL A   1      39.274  24.730  27.230  1.00  0.00     0.014 A 
ATOM     36  C   UNL A   1      41.452  24.064  28.074  1.00  0.00     0.014 A 
ATOM     37  C   UNL A   1      39.485  26.010  27.731  1.00  0.00     0.010 A 
ATOM     38  C   UNL A   1      41.607  25.296  28.671  1.00  0.00     0.010 A 
ATOM     39  C   UNL A   1      40.645  26.283  28.473  1.00  0.00    -0.014 A 
BRANCH  39  40
ATOM     40  C   UNL A   1      40.820  27.595  29.086  1.00  0.00     0.031 A 
ATOM     41  C   UNL A   1      41.882  28.466  28.509  1.00  0.00     0.074 A 
ATOM     42  C   UNL A   1      39.965  28.104  29.997  1.00  0.00     0.049 A 
ATOM     43  N   UNL A   1      42.992  28.842  29.057  1.00  0.00    -0.248 NA
ATOM     44  C   UNL A   1      41.724  28.913  27.118  1.00  0.00     0.031 C 
ATOM     45  C   UNL A   1      38.687  27.553  30.458  1.00  0.00     0.029 A 
ATOM     46  N   UNL A   1      40.034  29.300  30.642  1.00  0.00    -0.354 N 
ATOM     47  C   UNL A   1      43.581  29.739  28.166  1.00  0.00     0.074 A 
ATOM     48  C   UNL A   1      42.840  29.622  26.936  1.00  0.00     0.031 C 
ATOM     49  C   UNL A   1      38.010  28.499  31.142  1.00  0.00     0.029 A 
ATOM     50  C   UNL A   1      38.876  29.650  31.316  1.00  0.00     0.049 A 
ATOM     51  H   UNL A   1      40.839  29.869  30.631  1.00  0.00     0.167 HD
ATOM     52  C   UNL A   1      44.502  30.659  28.575  1.00  0.00     0.037 A 
ATOM     53  C   UNL A   1      38.637  30.812  31.966  1.00  0.00     0.037 A 
ATOM     54  C   UNL A   1      45.013  30.346  29.886  1.00  0.00     0.049 A 
ATOM     55  C   UNL A   1      39.958  31.392  32.315  1.00  0.00     0.074 A 
ATOM     56  C   UNL A   1      45.695  29.283  30.444  1.00  0.00     0.029 A 
ATOM     57  N   UNL A   1      44.526  31.073  30.945  1.00  0.00    -0.354 N 
ATOM     58  N   UNL A   1      40.799  30.846  33.151  1.00  0.00    -0.248 NA
ATOM     59  C   UNL A   1      40.525  32.407  31.441  1.00  0.00     0.031 C 
ATOM     60  C   UNL A   1      45.187  29.171  31.774  1.00  0.00     0.029 A 
ATOM     61  C   UNL A   1      44.253  30.192  31.959  1.00  0.00     0.049 A 
ATOM     62  H   UNL A   1      44.399  32.049  30.971  1.00  0.00     0.167 HD
ATOM     63  C   UNL A   1      42.054  31.138  32.641  1.00  0.00     0.074 A 
ATOM     64  C   UNL A   1      41.825  32.204  31.672  1.00  0.00     0.031 C 
ATOM     65  C   UNL A   1      43.118  30.308  32.854  1.00  0.00     0.037 A 
BRANCH  52  66
ATOM     66  C   UNL A   1      44.703  32.026  27.954  1.00  0.00     0.058 A 
ATOM     67  C   UNL A   1      45.891  32.299  27.242  1.00  0.00     0.135 A 
ATOM     68  C   UNL A   1      43.916  33.156  28.271  1.00  0.00     0.135 A 
ATOM     69  F   UNL A   1      46.721  31.305  26.886  1.00  0.00    -0.206 F 
ATOM     70  C   UNL A   1      46.309  33.599  26.948  1.00  0.00     0.059 A 
ATOM     71  C   UNL A   1      44.286  34.455  27.938  1.00  0.00     0.059 A 
ATOM     72  F   UNL A   1      42.804  33.065  29.010  1.00  0.00    -0.206 F 
ATOM     73  C   UNL A   1      45.508  34.673  27.322  1.00  0.00     0.060 A 
BRANCH  73  74
ATOM     74  S   UNL A   1      46.106  36.354  27.079  1.00  0.00     0.124 S 
ATOM     75  O   UNL A   1      47.014  36.176  25.951  1.00  0.00    -0.237 OA
ATOM     76  O   UNL A   1      44.872  37.081  26.797  1.00  0.00    -0.237 OA
ATOM     77  O   UNL A   1      46.738  36.674  28.355  1.00  0.00    -0.744 OA
ENDBRANCH  73  74
ENDBRANCH  52  66
BRANCH  53  78
ATOM     78  C   UNL A   1      37.363  31.567  32.040  1.00  0.00     0.058 A 
ATOM     79  C   UNL A   1      36.816  31.941  33.278  1.00  0.00     0.135 A 
ATOM     80  C   UNL A   1      36.802  32.180  30.899  1.00  0.00     0.135 A 
ATOM     81  F   UNL A   1      37.300  31.415  34.414  1.00  0.00    -0.206 F 
ATOM     82  C   UNL A   1      35.820  32.914  33.388  1.00  0.00     0.059 A 
ATOM     83  C   UNL A   1      35.798  33.142  30.982  1.00  0.00     0.059 A 
ATOM     84  F   UNL A   1      37.281  31.932  29.670  1.00  0.00    -0.206 F 
ATOM     85  C   UNL A   1      35.335  33.528  32.234  1.00  0.00     0.060 A 
BRANCH  85  86
ATOM     86  S   UNL A   1      34.194  34.921  32.387  1.00  0.00     0.124 S 
ATOM     87  O   UNL A   1      34.033  35.334  30.997  1.00  0.00    -0.237 OA
ATOM     88  O   UNL A   1      33.030  34.293  33.004  1.00  0.00    -0.237 OA
ATOM     89  O   UNL A   1      34.917  35.861  33.239  1.00  0.00    -0.744 OA
ENDBRANCH  85  86
ENDBRANCH  53  78
BRANCH  65  90
ATOM     90  C   UNL A   1      43.001  29.258  33.930  1.00  0.00     0.058 A 
ATOM     91  C   UNL A   1      43.204  29.507  35.299  1.00  0.00     0.135 A 
ATOM     92  C   UNL A   1      42.499  27.996  33.578  1.00  0.00     0.135 A 
ATOM     93  F   UNL A   1      43.590  30.715  35.730  1.00  0.00    -0.206 F 
ATOM     94  C   UNL A   1      42.947  28.538  36.270  1.00  0.00     0.059 A 
ATOM     95  C   UNL A   1      42.206  27.025  34.532  1.00  0.00     0.059 A 
ATOM     96  F   UNL A   1      42.226  27.717  32.293  1.00  0.00    -0.206 F 
ATOM     97  C   UNL A   1      42.439  27.300  35.878  1.00  0.00     0.060 A 
BRANCH  97  98
ATOM     98  S   UNL A   1      41.999  26.092  37.147  1.00  0.00     0.124 S 
ATOM     99  O   UNL A   1      40.621  26.459  37.458  1.00  0.00    -0.237 OA
ATOM    100  O   UNL A   1      42.173  24.820  36.449  1.00  0.00    -0.237 OA
ATOM    101  O   UNL A   1      42.967  26.345  38.211  1.00  0.00    -0.744 OA
ENDBRANCH  97  98
ENDBRANCH  65  90
ENDBRANCH  39  40
ENDBRANCH  31  34
ENDBRANCH  29  30
ENDBRANCH   1  29
TORSDOF 18
ENDMDL
MODEL 2
REMARK VINA RESULT:     -12.5      1.690      2.439
REMARK SMILES Cc1cccc2[nH]cc(C[C@H](NC(=O)OC(C)(C)C)C(=O)NCCCNC(=O)c3ccc(-c4c5nc(c(-c6c(F)cc(S(=O)(=O)[O-])cc6F)c6ccc([nH]6)c(-c6c(F)cc(S(=O)(=O)[O-])cc6F)c6nc(c(-c7c(F)cc(S(=O)(=O)[O-])cc7F)c7ccc4[nH]7)C=C6)C=C5)cc3)c12
REMARK SMILES IDX 24 1 23 2 22 3 20 4 21 5 11 7 10 8 9 9 1 10 2 11 3 12 95 13
REMARK SMILES IDX 4 14 6 15 5 16 7 17 8 18 12 20 13 21 14 23 15 24 16 25 17 26
REMARK SMILES IDX 18 27 19 28 25 29 26 30 27 31 28 33 29 34 30 35 94 36 31 37
REMARK SMILES IDX 93 38 32 39 33 40 34 41 87 42 35 43 92 44 86 45 88 46 36 47
REMARK SMILES IDX 91 48 85 49 84 50 37 52 71 53 50 54 70 55 51 56 54 57 69 58
REMARK SMILES IDX 89 59 52 60 53 61 68 63 90 64 55 65 38 66 39 67 48 68 40 69
REMARK SMILES IDX 41 70 47 71 49 72 42 73 43 74 44 75 45 76 46 77 72 78 73 79
REMARK SMILES IDX 82 80 74 81 75 82 81 83 83 84 76 85 77 86 78 87 79 88 80 89
REMARK SMILES IDX 56 90 57 91 66 92 58 93 59 94 65 95 67 96 60 97 61 98 62 99
REMARK SMILES IDX 63 100 64 101
REMARK H PARENT 22 6 7 19 12 22 26 32 88 51 54 62
REMARK Flexibility Score: inf
ROOT
ATOM      1  C   UNL A   1      38.619  21.827  25.850  1.00  0.00     0.042 C 
ENDROOT
BRANCH   1   2
ATOM      2  C   UNL A   1      37.560  22.787  25.322  1.00  0.00     0.117 C 
BRANCH   2   3
ATOM      3  N   UNL A   1      36.501  23.077  26.273  1.00  0.00    -0.354 N 
ATOM      4  C   UNL A   1      35.141  23.042  26.115  1.00  0.00     0.243 C 
ATOM      5  O   UNL A   1      34.445  23.091  27.132  1.00  0.00    -0.273 OA
ATOM      6  H   UNL A   1      36.808  23.338  27.171  1.00  0.00     0.163 HD
BRANCH   4   7
ATOM      7  C   UNL A   1      34.507  22.771  24.733  1.00  0.00     0.179 C 
BRANCH   7   8
ATOM      8  C   UNL A   1      34.666  24.065  23.906  1.00  0.00     0.073 C 
BRANCH   8   9
ATOM      9  C   UNL A   1      33.423  24.614  23.284  1.00  0.00    -0.020 A 
ATOM     10  C   UNL A   1      33.210  26.360  26.183  1.00  0.00     0.045 C 
ATOM     11  C   UNL A   1      32.405  26.470  24.914  1.00  0.00    -0.041 A 
ATOM     12  C   UNL A   1      31.400  27.470  24.922  1.00  0.00     0.004 A 
ATOM     13  C   UNL A   1      32.540  25.666  23.741  1.00  0.00     0.006 A 
ATOM     14  C   UNL A   1      30.561  27.688  23.838  1.00  0.00     0.002 A 
ATOM     15  C   UNL A   1      31.658  25.911  22.678  1.00  0.00     0.046 A 
ATOM     16  C   UNL A   1      30.674  26.907  22.696  1.00  0.00     0.027 A 
ATOM     17  N   UNL A   1      31.954  25.030  21.667  1.00  0.00    -0.361 N 
ATOM     18  C   UNL A   1      33.010  24.248  22.017  1.00  0.00     0.087 A 
ATOM     19  H   UNL A   1      31.471  24.972  20.811  1.00  0.00     0.166 HD
ENDBRANCH   8   9
ENDBRANCH   7   8
BRANCH   7  20
ATOM     20  N   UNL A   1      33.119  22.340  24.899  1.00  0.00    -0.309 N 
ATOM     21  C   UNL A   1      32.673  21.045  24.883  1.00  0.00     0.408 C 
ATOM     22  H   UNL A   1      32.445  23.045  25.034  1.00  0.00     0.167 HD
ATOM     23  O   UNL A   1      31.499  20.799  25.089  1.00  0.00    -0.225 OA
BRANCH  21  24
ATOM     24  O   UNL A   1      33.656  20.141  24.655  1.00  0.00    -0.444 OA
BRANCH  24  25
ATOM     25  C   UNL A   1      33.345  18.735  24.428  1.00  0.00     0.106 C 
ATOM     26  C   UNL A   1      32.650  18.127  25.651  1.00  0.00     0.056 C 
ATOM     27  C   UNL A   1      32.524  18.523  23.149  1.00  0.00     0.056 C 
ATOM     28  C   UNL A   1      34.703  18.039  24.244  1.00  0.00     0.056 C 
ENDBRANCH  24  25
ENDBRANCH  21  24
ENDBRANCH   7  20
ENDBRANCH   4   7
ENDBRANCH   2   3
ENDBRANCH   1   2
BRANCH   1  29
ATOM     29  C   UNL A   1      39.722  22.544  26.605  1.00  0.00     0.118 C 
BRANCH  29  30
ATOM     30  N   UNL A   1      41.050  22.160  26.129  1.00  0.00    -0.352 N 
ATOM     31  C   UNL A   1      42.143  22.963  25.898  1.00  0.00     0.251 C 
ATOM     32  H   UNL A   1      41.177  21.201  25.947  1.00  0.00     0.163 HD
ATOM     33  O   UNL A   1      43.084  22.548  25.232  1.00  0.00    -0.269 OA
BRANCH  31  34
ATOM     34  C   UNL A   1      42.144  24.333  26.436  1.00  0.00     0.039 A 
ATOM     35  C   UNL A   1      41.606  25.378  25.683  1.00  0.00     0.014 A 
ATOM     36  C   UNL A   1      42.641  24.557  27.720  1.00  0.00     0.014 A 
ATOM     37  C   UNL A   1      41.495  26.638  26.262  1.00  0.00     0.010 A 
ATOM     38  C   UNL A   1      42.423  25.771  28.332  1.00  0.00     0.010 A 
ATOM     39  C   UNL A   1      41.883  26.825  27.597  1.00  0.00    -0.014 A 
BRANCH  39  40
ATOM     40  C   UNL A   1      41.673  28.118  28.238  1.00  0.00     0.031 A 
ATOM     41  C   UNL A   1      42.733  29.145  28.036  1.00  0.00     0.074 A 
ATOM     42  C   UNL A   1      40.511  28.469  28.828  1.00  0.00     0.049 A 
ATOM     43  N   UNL A   1      43.549  29.635  28.912  1.00  0.00    -0.248 NA
ATOM     44  C   UNL A   1      42.966  29.633  26.669  1.00  0.00     0.031 C 
ATOM     45  C   UNL A   1      39.241  27.737  28.852  1.00  0.00     0.029 A 
ATOM     46  N   UNL A   1      40.207  29.633  29.464  1.00  0.00    -0.354 N 
ATOM     47  C   UNL A   1      44.261  30.641  28.260  1.00  0.00     0.074 A 
ATOM     48  C   UNL A   1      43.974  30.487  26.857  1.00  0.00     0.031 C 
ATOM     49  C   UNL A   1      38.259  28.555  29.285  1.00  0.00     0.029 A 
ATOM     50  C   UNL A   1      38.858  29.798  29.732  1.00  0.00     0.049 A 
ATOM     51  H   UNL A   1      40.887  30.300  29.714  1.00  0.00     0.167 HD
ATOM     52  C   UNL A   1      44.870  31.652  28.946  1.00  0.00     0.037 A 
ATOM     53  C   UNL A   1      38.268  30.889  30.273  1.00  0.00     0.037 A 
ATOM     54  C   UNL A   1      44.974  31.346  30.351  1.00  0.00     0.049 A 
ATOM     55  C   UNL A   1      39.317  31.617  31.030  1.00  0.00     0.074 A 
ATOM     56  C   UNL A   1      45.582  30.355  31.096  1.00  0.00     0.029 A 
ATOM     57  N   UNL A   1      44.082  31.955  31.200  1.00  0.00    -0.354 N 
ATOM     58  N   UNL A   1      39.915  31.145  32.090  1.00  0.00    -0.248 NA
ATOM     59  C   UNL A   1      39.987  32.736  30.387  1.00  0.00     0.031 C 
ATOM     60  C   UNL A   1      44.699  30.117  32.191  1.00  0.00     0.029 A 
ATOM     61  C   UNL A   1      43.624  30.998  32.070  1.00  0.00     0.049 A 
ATOM     62  H   UNL A   1      43.820  32.903  31.186  1.00  0.00     0.167 HD
ATOM     63  C   UNL A   1      41.214  31.620  32.012  1.00  0.00     0.074 A 
ATOM     64  C   UNL A   1      41.161  32.692  31.023  1.00  0.00     0.031 C 
ATOM     65  C   UNL A   1      42.258  30.925  32.552  1.00  0.00     0.037 A 
BRANCH  52  66
ATOM     66  C   UNL A   1      45.067  33.061  28.427  1.00  0.00     0.058 A 
ATOM     67  C   UNL A   1      46.372  33.596  28.346  1.00  0.00     0.135 A 
ATOM     68  C   UNL A   1      44.021  33.998  28.280  1.00  0.00     0.135 A 
ATOM     69  F   UNL A   1      47.447  32.801  28.472  1.00  0.00    -0.206 F 
ATOM     70  C   UNL A   1      46.616  34.965  28.220  1.00  0.00     0.059 A 
ATOM     71  C   UNL A   1      44.242  35.360  28.097  1.00  0.00     0.059 A 
ATOM     72  F   UNL A   1      42.734  33.656  28.411  1.00  0.00    -0.206 F 
ATOM     73  C   UNL A   1      45.541  35.842  28.120  1.00  0.00     0.060 A 
BRANCH  73  74
ATOM     74  S   UNL A   1      45.842  37.618  28.105  1.00  0.00     0.124 S 
ATOM     75  O   UNL A   1      45.571  37.967  29.495  1.00  0.00    -0.237 OA
ATOM     76  O   UNL A   1      47.240  37.688  27.689  1.00  0.00    -0.237 OA
ATOM     77  O   UNL A   1      44.878  38.114  27.127  1.00  0.00    -0.744 OA
ENDBRANCH  73  74
ENDBRANCH  52  66
BRANCH  53  78
ATOM     78  C   UNL A   1      36.946  31.469  29.936  1.00  0.00     0.058 A 
ATOM     79  C   UNL A   1      36.093  31.954  30.941  1.00  0.00     0.135 A 
ATOM     80  C   UNL A   1      36.610  31.815  28.610  1.00  0.00     0.135 A 
ATOM     81  F   UNL A   1      36.347  31.682  32.230  1.00  0.00    -0.206 F 
ATOM     82  C   UNL A   1      35.010  32.790  30.657  1.00  0.00     0.059 A 
ATOM     83  C   UNL A   1      35.527  32.636  28.302  1.00  0.00     0.059 A 
ATOM     84  F   UNL A   1      37.382  31.445  27.578  1.00  0.00    -0.206 F 
ATOM     85  C   UNL A   1      34.751  33.146  29.334  1.00  0.00     0.060 A 
BRANCH  85  86
ATOM     86  S   UNL A   1      33.478  34.381  28.986  1.00  0.00     0.124 S 
ATOM     87  O   UNL A   1      32.596  33.657  28.076  1.00  0.00    -0.237 OA
ATOM     88  O   UNL A   1      32.941  34.648  30.316  1.00  0.00    -0.237 OA
ATOM     89  O   UNL A   1      34.227  35.482  28.386  1.00  0.00    -0.744 OA
ENDBRANCH  85  86
ENDBRANCH  53  78
BRANCH  65  90
ATOM     90  C   UNL A   1      41.951  29.820  33.531  1.00  0.00     0.058 A 
ATOM     91  C   UNL A   1      41.706  28.486  33.162  1.00  0.00     0.135 A 
ATOM     92  C   UNL A   1      42.077  30.091  34.902  1.00  0.00     0.135 A 
ATOM     93  F   UNL A   1      41.667  28.124  31.874  1.00  0.00    -0.206 F 
ATOM     94  C   UNL A   1      41.566  27.472  34.113  1.00  0.00     0.059 A 
ATOM     95  C   UNL A   1      41.971  29.091  35.866  1.00  0.00     0.059 A 
ATOM     96  F   UNL A   1      42.370  31.334  35.317  1.00  0.00    -0.206 F 
ATOM     97  C   UNL A   1      41.709  27.783  35.464  1.00  0.00     0.060 A 
BRANCH  97  98
ATOM     98  S   UNL A   1      41.642  26.450  36.681  1.00  0.00     0.124 S 
ATOM     99  O   UNL A   1      42.872  26.661  37.438  1.00  0.00    -0.237 OA
ATOM    100  O   UNL A   1      40.401  26.735  37.397  1.00  0.00    -0.237 OA
ATOM    101  O   UNL A   1      41.613  25.240  35.862  1.00  0.00    -0.744 OA
ENDBRANCH  97  98
ENDBRANCH  65  90
ENDBRANCH  39  40
ENDBRANCH  31  34
ENDBRANCH  29  30
ENDBRANCH   1  29
TORSDOF 18
ENDMDL
MODEL 3
REMARK VINA RESULT:     -12.5      2.998      9.124
REMARK SMILES Cc1cccc2[nH]cc(C[C@H](NC(=O)OC(C)(C)C)C(=O)NCCCNC(=O)c3ccc(-c4c5nc(c(-c6c(F)cc(S(=O)(=O)[O-])cc6F)c6ccc([nH]6)c(-c6c(F)cc(S(=O)(=O)[O-])cc6F)c6nc(c(-c7c(F)cc(S(=O)(=O)[O-])cc7F)c7ccc4[nH]7)C=C6)C=C5)cc3)c12
REMARK SMILES IDX 24 1 23 2 22 3 20 4 21 5 11 7 10 8 9 9 1 10 2 11 3 12 95 13
REMARK SMILES IDX 4 14 6 15 5 16 7 17 8 18 12 20 13 21 14 23 15 24 16 25 17 26
REMARK SMILES IDX 18 27 19 28 25 29 26 30 27 31 28 33 29 34 30 35 94 36 31 37
REMARK SMILES IDX 93 38 32 39 33 40 34 41 87 42 35 43 92 44 86 45 88 46 36 47
REMARK SMILES IDX 91 48 85 49 84 50 37 52 71 53 50 54 70 55 51 56 54 57 69 58
REMARK SMILES IDX 89 59 52 60 53 61 68 63 90 64 55 65 38 66 39 67 48 68 40 69
REMARK SMILES IDX 41 70 47 71 49 72 42 73 43 74 44 75 45 76 46 77 72 78 73 79
REMARK SMILES IDX 82 80 74 81 75 82 81 83 83 84 76 85 77 86 78 87 79 88 80 89
REMARK SMILES IDX 56 90 57 91 66 92 58 93 59 94 65 95 67 96 60 97 61 98 62 99
REMARK SMILES IDX 63 100 64 101
REMARK H PARENT 22 6 7 19 12 22 26 32 88 51 54 62
REMARK Flexibility Score: inf
ROOT
ATOM      1  C   UNL A   1      32.331  29.344  26.934  1.00  0.00     0.042 C 
ENDROOT
BRANCH   1   2
ATOM      2  C   UNL A   1      32.342  27.879  26.515  1.00  0.00     0.117 C 
BRANCH   2   3
ATOM      3  N   UNL A   1      31.061  27.213  26.668  1.00  0.00    -0.354 N 
ATOM      4  C   UNL A   1      30.668  25.959  26.283  1.00  0.00     0.243 C 
ATOM      5  O   UNL A   1      29.606  25.526  26.738  1.00  0.00    -0.273 OA
ATOM      6  H   UNL A   1      30.366  27.745  27.119  1.00  0.00     0.163 HD
BRANCH   4   7
ATOM      7  C   UNL A   1      31.604  25.050  25.457  1.00  0.00     0.179 C 
BRANCH   7   8
ATOM      8  C   UNL A   1      31.061  25.046  24.011  1.00  0.00     0.073 C 
BRANCH   8   9
ATOM      9  C   UNL A   1      31.191  26.325  23.248  1.00  0.00    -0.020 A 
ATOM     10  C   UNL A   1      27.881  26.610  23.924  1.00  0.00     0.045 C 
ATOM     11  C   UNL A   1      28.844  27.598  23.318  1.00  0.00    -0.041 A 
ATOM     12  C   UNL A   1      28.284  28.857  22.982  1.00  0.00     0.004 A 
ATOM     13  C   UNL A   1      30.227  27.383  23.035  1.00  0.00     0.006 A 
ATOM     14  C   UNL A   1      29.033  29.871  22.399  1.00  0.00     0.002 A 
ATOM     15  C   UNL A   1      30.939  28.431  22.430  1.00  0.00     0.046 A 
ATOM     16  C   UNL A   1      30.376  29.672  22.110  1.00  0.00     0.027 A 
ATOM     17  N   UNL A   1      32.233  28.012  22.241  1.00  0.00    -0.361 N 
ATOM     18  C   UNL A   1      32.398  26.753  22.728  1.00  0.00     0.087 A 
ATOM     19  H   UNL A   1      32.942  28.547  21.815  1.00  0.00     0.166 HD
ENDBRANCH   8   9
ENDBRANCH   7   8
BRANCH   7  20
ATOM     20  N   UNL A   1      31.675  23.723  26.068  1.00  0.00    -0.309 N 
ATOM     21  C   UNL A   1      32.777  22.910  26.096  1.00  0.00     0.408 C 
ATOM     22  H   UNL A   1      30.856  23.385  26.497  1.00  0.00     0.167 HD
ATOM     23  O   UNL A   1      32.737  21.845  26.684  1.00  0.00    -0.225 OA
BRANCH  21  24
ATOM     24  O   UNL A   1      33.848  23.434  25.452  1.00  0.00    -0.444 OA
BRANCH  24  25
ATOM     25  C   UNL A   1      34.356  22.829  24.227  1.00  0.00     0.106 C 
ATOM     26  C   UNL A   1      35.529  21.889  24.529  1.00  0.00     0.056 C 
ATOM     27  C   UNL A   1      33.253  22.116  23.433  1.00  0.00     0.056 C 
ATOM     28  C   UNL A   1      34.876  23.999  23.377  1.00  0.00     0.056 C 
ENDBRANCH  24  25
ENDBRANCH  21  24
ENDBRANCH   7  20
ENDBRANCH   4   7
ENDBRANCH   2   3
ENDBRANCH   1   2
BRANCH   1  29
ATOM     29  C   UNL A   1      33.729  29.884  27.177  1.00  0.00     0.118 C 
BRANCH  29  30
ATOM     30  N   UNL A   1      33.707  31.135  27.934  1.00  0.00    -0.352 N 
ATOM     31  C   UNL A   1      34.657  31.630  28.797  1.00  0.00     0.251 C 
ATOM     32  H   UNL A   1      32.906  31.694  27.812  1.00  0.00     0.163 HD
ATOM     33  O   UNL A   1      34.374  32.538  29.572  1.00  0.00    -0.269 OA
BRANCH  31  34
ATOM     34  C   UNL A   1      36.000  31.030  28.795  1.00  0.00     0.039 A 
ATOM     35  C   UNL A   1      37.127  31.840  28.951  1.00  0.00     0.014 A 
ATOM     36  C   UNL A   1      36.123  29.644  28.687  1.00  0.00     0.014 A 
ATOM     37  C   UNL A   1      38.375  31.240  29.081  1.00  0.00     0.010 A 
ATOM     38  C   UNL A   1      37.340  29.048  28.933  1.00  0.00     0.010 A 
ATOM     39  C   UNL A   1      38.475  29.840  29.095  1.00  0.00    -0.014 A 
BRANCH  39  40
ATOM     40  C   UNL A   1      39.768  29.209  29.333  1.00  0.00     0.031 A 
ATOM     41  C   UNL A   1      40.154  28.995  30.756  1.00  0.00     0.074 A 
ATOM     42  C   UNL A   1      40.514  28.662  28.352  1.00  0.00     0.049 A 
ATOM     43  N   UNL A   1      41.104  29.570  31.421  1.00  0.00    -0.248 NA
ATOM     44  C   UNL A   1      39.332  28.081  31.562  1.00  0.00     0.031 C 
ATOM     45  C   UNL A   1      40.171  28.475  26.939  1.00  0.00     0.029 A 
ATOM     46  N   UNL A   1      41.733  28.064  28.453  1.00  0.00    -0.354 N 
ATOM     47  C   UNL A   1      41.137  28.947  32.668  1.00  0.00     0.074 A 
ATOM     48  C   UNL A   1      39.934  28.158  32.751  1.00  0.00     0.031 C 
ATOM     49  C   UNL A   1      41.058  27.634  26.367  1.00  0.00     0.029 A 
ATOM     50  C   UNL A   1      42.121  27.369  27.319  1.00  0.00     0.049 A 
ATOM     51  H   UNL A   1      42.291  28.120  29.263  1.00  0.00     0.167 HD
ATOM     52  C   UNL A   1      42.253  28.966  33.453  1.00  0.00     0.037 A 
ATOM     53  C   UNL A   1      43.235  26.616  27.173  1.00  0.00     0.037 A 
ATOM     54  C   UNL A   1      43.194  29.961  33.004  1.00  0.00     0.049 A 
ATOM     55  C   UNL A   1      44.216  27.096  28.178  1.00  0.00     0.074 A 
ATOM     56  C   UNL A   1      43.171  31.333  32.848  1.00  0.00     0.029 A 
ATOM     57  N   UNL A   1      44.287  29.525  32.294  1.00  0.00    -0.354 N 
ATOM     58  N   UNL A   1      44.755  28.286  28.164  1.00  0.00    -0.248 NA
ATOM     59  C   UNL A   1      44.326  26.381  29.439  1.00  0.00     0.031 C 
ATOM     60  C   UNL A   1      43.959  31.590  31.687  1.00  0.00     0.029 A 
ATOM     61  C   UNL A   1      44.444  30.366  31.223  1.00  0.00     0.049 A 
ATOM     62  H   UNL A   1      44.853  28.750  32.516  1.00  0.00     0.167 HD
ATOM     63  C   UNL A   1      44.901  28.630  29.499  1.00  0.00     0.074 A 
ATOM     64  C   UNL A   1      44.745  27.375  30.227  1.00  0.00     0.031 C 
ATOM     65  C   UNL A   1      44.865  29.933  29.904  1.00  0.00     0.037 A 
BRANCH  52  66
ATOM     66  C   UNL A   1      42.660  27.870  34.416  1.00  0.00     0.058 A 
ATOM     67  C   UNL A   1      42.700  28.141  35.801  1.00  0.00     0.135 A 
ATOM     68  C   UNL A   1      43.283  26.666  34.018  1.00  0.00     0.135 A 
ATOM     69  F   UNL A   1      42.141  29.256  36.298  1.00  0.00    -0.206 F 
ATOM     70  C   UNL A   1      43.383  27.326  36.707  1.00  0.00     0.059 A 
ATOM     71  C   UNL A   1      43.920  25.811  34.911  1.00  0.00     0.059 A 
ATOM     72  F   UNL A   1      43.396  26.313  32.732  1.00  0.00    -0.206 F 
ATOM     73  C   UNL A   1      44.011  26.173  36.245  1.00  0.00     0.060 A 
BRANCH  73  74
ATOM     74  S   UNL A   1      45.015  25.196  37.377  1.00  0.00     0.124 S 
ATOM     75  O   UNL A   1      46.352  25.703  37.087  1.00  0.00    -0.237 OA
ATOM     76  O   UNL A   1      44.460  25.565  38.676  1.00  0.00    -0.237 OA
ATOM     77  O   UNL A   1      44.754  23.823  36.958  1.00  0.00    -0.744 OA
ENDBRANCH  73  74
ENDBRANCH  52  66
BRANCH  53  78
ATOM     78  C   UNL A   1      43.382  25.346  26.423  1.00  0.00     0.058 A 
ATOM     79  C   UNL A   1      44.334  25.218  25.399  1.00  0.00     0.135 A 
ATOM     80  C   UNL A   1      42.790  24.149  26.879  1.00  0.00     0.135 A 
ATOM     81  F   UNL A   1      44.954  26.305  24.915  1.00  0.00    -0.206 F 
ATOM     82  C   UNL A   1      44.728  23.973  24.902  1.00  0.00     0.059 A 
ATOM     83  C   UNL A   1      43.157  22.897  26.389  1.00  0.00     0.059 A 
ATOM     84  F   UNL A   1      41.904  24.151  27.887  1.00  0.00    -0.206 F 
ATOM     85  C   UNL A   1      44.151  22.816  25.422  1.00  0.00     0.060 A 
BRANCH  85  86
ATOM     86  S   UNL A   1      44.800  21.205  24.924  1.00  0.00     0.124 S 
ATOM     87  O   UNL A   1      44.697  21.274  23.470  1.00  0.00    -0.237 OA
ATOM     88  O   UNL A   1      46.152  21.239  25.470  1.00  0.00    -0.237 OA
ATOM     89  O   UNL A   1      43.894  20.258  25.569  1.00  0.00    -0.744 OA
ENDBRANCH  85  86
ENDBRANCH  53  78
BRANCH  65  90
ATOM     90  C   UNL A   1      45.014  31.011  28.860  1.00  0.00     0.058 A 
ATOM     91  C   UNL A   1      43.951  31.514  28.090  1.00  0.00     0.135 A 
ATOM     92  C   UNL A   1      46.246  31.674  28.757  1.00  0.00     0.135 A 
ATOM     93  F   UNL A   1      42.718  31.002  28.199  1.00  0.00    -0.206 F 
ATOM     94  C   UNL A   1      44.111  32.608  27.237  1.00  0.00     0.059 A 
ATOM     95  C   UNL A   1      46.421  32.786  27.937  1.00  0.00     0.059 A 
ATOM     96  F   UNL A   1      47.285  31.280  29.512  1.00  0.00    -0.206 F 
ATOM     97  C   UNL A   1      45.350  33.244  27.173  1.00  0.00     0.060 A 
BRANCH  97  98
ATOM     98  S   UNL A   1      45.522  34.728  26.158  1.00  0.00     0.124 S 
ATOM     99  O   UNL A   1      44.132  35.054  25.851  1.00  0.00    -0.237 OA
ATOM    100  O   UNL A   1      46.206  35.653  27.058  1.00  0.00    -0.237 OA
ATOM    101  O   UNL A   1      46.321  34.275  25.022  1.00  0.00    -0.744 OA
ENDBRANCH  97  98
ENDBRANCH  65  90
ENDBRANCH  39  40
ENDBRANCH  31  34
ENDBRANCH  29  30
ENDBRANCH   1  29
TORSDOF 18
ENDMDL
