MODEL 1
REMARK VINA RESULT:     -13.7      0.000      0.000
REMARK SMILES Cc1c(-c2nn(-c3ccccc3)cc2/C=N/O)nnn1-c1ccc(C(=O)NCCCNC(=O)c2ccc(-c3c4nc(c(-c5c(F)cc(S(=O)(=O)[O-])cc5F)c5ccc([nH]5)c(-c5c(F)cc(S(=O)(=O)[O-])cc5F)c5nc(c(-c6c(F)cc(S(=O)(=O)[O-])cc6F)c6ccc3[nH]6)C=C5)C=C4)cc2)cc1
REMARK SMILES IDX 28 1 27 2 25 3 26 4 24 6 21 7 22 8 101 9 23 10 100 11 20 12
REMARK SMILES IDX 1 13 2 14 3 15 18 16 19 17 4 18 5 19 14 20 6 21 13 22 15 23
REMARK SMILES IDX 16 24 17 25 7 27 8 28 12 29 9 30 11 31 10 32 29 33 30 34
REMARK SMILES IDX 31 35 32 36 33 38 34 39 35 40 99 41 36 42 98 43 37 44 38 45
REMARK SMILES IDX 39 46 92 47 40 48 97 49 91 50 93 51 41 52 96 53 90 54 89 55
REMARK SMILES IDX 42 57 76 58 55 59 75 60 56 61 59 62 74 63 94 64 57 65 58 66
REMARK SMILES IDX 73 68 95 69 60 70 43 71 44 72 53 73 45 74 46 75 52 76 54 77
REMARK SMILES IDX 47 78 48 79 49 80 50 81 51 82 77 83 78 84 87 85 79 86 80 87
REMARK SMILES IDX 86 88 88 89 81 90 82 91 83 92 84 93 85 94 61 95 62 96 71 97
REMARK SMILES IDX 63 98 64 99 70 100 72 101 65 102 66 103 67 104 68 105 69 106
REMARK H PARENT 27 5 17 26 31 37 93 56 59 67
REMARK Flexibility Score: inf
ROOT
ATOM      1  C   UNL A   1      38.235  21.423  25.398  1.00  0.00     0.118 C 
ENDROOT
BRANCH   1   2
ATOM      2  N   UNL A   1      37.394  20.279  25.105  1.00  0.00    -0.352 N 
ATOM      3  C   UNL A   1      36.036  20.119  25.057  1.00  0.00     0.251 C 
ATOM      4  O   UNL A   1      35.607  19.009  24.743  1.00  0.00    -0.269 OA
ATOM      5  H   UNL A   1      37.898  19.457  24.902  1.00  0.00     0.163 HD
BRANCH   3   6
ATOM      6  C   UNL A   1      35.080  21.243  25.285  1.00  0.00     0.039 A 
ATOM      7  C   UNL A   1      33.459  23.522  25.432  1.00  0.00     0.067 A 
ATOM      8  C   UNL A   1      33.297  22.627  24.371  1.00  0.00     0.029 A 
ATOM      9  C   UNL A   1      34.349  23.241  26.462  1.00  0.00     0.029 A 
ATOM     10  C   UNL A   1      34.143  21.516  24.277  1.00  0.00     0.016 A 
ATOM     11  C   UNL A   1      35.075  22.055  26.422  1.00  0.00     0.016 A 
BRANCH   7  12
ATOM     12  N   UNL A   1      32.664  24.679  25.527  1.00  0.00    -0.217 N 
ATOM     13  C   UNL A   1      33.695  26.050  23.674  1.00  0.00     0.069 C 
ATOM     14  C   UNL A   1      32.804  25.878  24.849  1.00  0.00     0.071 A 
ATOM     15  C   UNL A   1      31.885  26.702  25.475  1.00  0.00     0.137 A 
ATOM     16  N   UNL A   1      31.234  26.007  26.458  1.00  0.00    -0.128 NA
ATOM     17  N   UNL A   1      31.675  24.757  26.440  1.00  0.00    -0.061 NA
BRANCH  15  18
ATOM     18  C   UNL A   1      31.480  28.080  25.181  1.00  0.00     0.124 A 
ATOM     19  N   UNL A   1      30.515  28.364  24.292  1.00  0.00    -0.165 NA
ATOM     20  C   UNL A   1      31.966  29.245  25.832  1.00  0.00     0.044 A 
ATOM     21  N   UNL A   1      30.437  29.713  24.296  1.00  0.00    -0.240 N 
ATOM     22  C   UNL A   1      31.304  30.281  25.197  1.00  0.00     0.125 A 
BRANCH  20  23
ATOM     23  C   UNL A   1      32.908  29.418  26.911  1.00  0.00     0.166 C 
ATOM     24  N   UNL A   1      33.115  30.592  27.406  1.00  0.00    -0.097 NA
BRANCH  24  25
ATOM     25  O   UNL A   1      34.095  30.518  28.402  1.00  0.00    -0.411 OA
ATOM     26  H   UNL A   1      34.262  31.259  28.950  1.00  0.00     0.330 HD
ENDBRANCH  24  25
ENDBRANCH  20  23
BRANCH  21  27
ATOM     27  C   UNL A   1      29.583  30.392  23.397  1.00  0.00     0.065 A 
ATOM     28  C   UNL A   1      29.548  30.010  22.051  1.00  0.00     0.028 A 
ATOM     29  C   UNL A   1      28.824  31.481  23.844  1.00  0.00     0.028 A 
ATOM     30  C   UNL A   1      28.756  30.723  21.150  1.00  0.00     0.002 A 
ATOM     31  C   UNL A   1      28.078  32.222  22.924  1.00  0.00     0.002 A 
ATOM     32  C   UNL A   1      28.041  31.843  21.580  1.00  0.00     0.000 A 
ENDBRANCH  21  27
ENDBRANCH  15  18
ENDBRANCH   7  12
ENDBRANCH   3   6
ENDBRANCH   1   2
BRANCH   1  33
ATOM     33  C   UNL A   1      39.489  20.978  26.144  1.00  0.00     0.042 C 
BRANCH  33  34
ATOM     34  C   UNL A   1      39.981  22.119  26.999  1.00  0.00     0.118 C 
BRANCH  34  35
ATOM     35  N   UNL A   1      41.442  22.123  27.112  1.00  0.00    -0.352 N 
ATOM     36  C   UNL A   1      42.318  23.198  26.935  1.00  0.00     0.251 C 
ATOM     37  H   UNL A   1      41.859  21.261  27.341  1.00  0.00     0.163 HD
ATOM     38  O   UNL A   1      43.475  23.025  26.723  1.00  0.00    -0.269 OA
BRANCH  36  39
ATOM     39  C   UNL A   1      41.729  24.541  27.204  1.00  0.00     0.039 A 
ATOM     40  C   UNL A   1      40.976  25.337  26.348  1.00  0.00     0.014 A 
ATOM     41  C   UNL A   1      42.128  25.131  28.385  1.00  0.00     0.014 A 
ATOM     42  C   UNL A   1      40.819  26.725  26.738  1.00  0.00     0.010 A 
ATOM     43  C   UNL A   1      41.378  26.143  28.873  1.00  0.00     0.010 A 
ATOM     44  C   UNL A   1      41.329  27.198  28.013  1.00  0.00    -0.014 A 
BRANCH  44  45
ATOM     45  C   UNL A   1      41.054  28.476  28.857  1.00  0.00     0.031 A 
ATOM     46  C   UNL A   1      42.254  29.399  28.261  1.00  0.00     0.074 A 
ATOM     47  C   UNL A   1      39.946  28.799  29.762  1.00  0.00     0.049 A 
ATOM     48  N   UNL A   1      43.454  29.428  28.773  1.00  0.00    -0.248 NA
ATOM     49  C   UNL A   1      42.410  29.892  26.821  1.00  0.00     0.031 C 
ATOM     50  C   UNL A   1      38.697  28.061  30.319  1.00  0.00     0.029 A 
ATOM     51  N   UNL A   1      39.704  29.975  30.565  1.00  0.00    -0.354 N 
ATOM     52  C   UNL A   1      44.143  30.439  28.089  1.00  0.00     0.074 A 
ATOM     53  C   UNL A   1      43.640  30.429  26.771  1.00  0.00     0.031 C 
ATOM     54  C   UNL A   1      37.796  28.887  30.983  1.00  0.00     0.029 A 
ATOM     55  C   UNL A   1      38.335  30.234  31.115  1.00  0.00     0.049 A 
ATOM     56  H   UNL A   1      40.437  30.605  30.750  1.00  0.00     0.167 HD
ATOM     57  C   UNL A   1      44.663  31.469  28.811  1.00  0.00     0.037 A 
ATOM     58  C   UNL A   1      37.866  31.293  31.951  1.00  0.00     0.037 A 
ATOM     59  C   UNL A   1      44.683  31.051  30.192  1.00  0.00     0.049 A 
ATOM     60  C   UNL A   1      39.109  31.978  32.385  1.00  0.00     0.074 A 
ATOM     61  C   UNL A   1      45.315  30.025  30.869  1.00  0.00     0.029 A 
ATOM     62  N   UNL A   1      43.468  31.235  30.794  1.00  0.00    -0.354 N 
ATOM     63  N   UNL A   1      39.953  31.390  33.188  1.00  0.00    -0.248 NA
ATOM     64  C   UNL A   1      39.646  32.887  31.381  1.00  0.00     0.031 C 
ATOM     65  C   UNL A   1      44.353  29.499  31.783  1.00  0.00     0.029 A 
ATOM     66  C   UNL A   1      43.255  30.348  31.803  1.00  0.00     0.049 A 
ATOM     67  H   UNL A   1      42.823  31.931  30.527  1.00  0.00     0.167 HD
ATOM     68  C   UNL A   1      41.139  31.423  32.478  1.00  0.00     0.074 A 
ATOM     69  C   UNL A   1      40.888  32.386  31.367  1.00  0.00     0.031 C 
ATOM     70  C   UNL A   1      42.054  30.402  32.586  1.00  0.00     0.037 A 
BRANCH  57  71
ATOM     71  C   UNL A   1      44.613  32.938  28.432  1.00  0.00     0.058 A 
ATOM     72  C   UNL A   1      45.838  33.575  28.161  1.00  0.00     0.135 A 
ATOM     73  C   UNL A   1      43.494  33.802  28.551  1.00  0.00     0.135 A 
ATOM     74  F   UNL A   1      46.961  32.852  28.033  1.00  0.00    -0.206 F 
ATOM     75  C   UNL A   1      45.957  34.956  28.030  1.00  0.00     0.059 A 
ATOM     76  C   UNL A   1      43.582  35.188  28.373  1.00  0.00     0.059 A 
ATOM     77  F   UNL A   1      42.281  33.353  28.896  1.00  0.00    -0.206 F 
ATOM     78  C   UNL A   1      44.821  35.755  28.118  1.00  0.00     0.060 A 
BRANCH  78  79
ATOM     79  S   UNL A   1      44.999  37.525  27.823  1.00  0.00     0.124 S 
ATOM     80  O   UNL A   1      45.164  38.044  29.176  1.00  0.00    -0.237 OA
ATOM     81  O   UNL A   1      46.188  37.559  26.977  1.00  0.00    -0.237 OA
ATOM     82  O   UNL A   1      43.753  37.885  27.154  1.00  0.00    -0.744 OA
ENDBRANCH  78  79
ENDBRANCH  57  71
BRANCH  58  83
ATOM     83  C   UNL A   1      36.544  32.167  32.010  1.00  0.00     0.058 A 
ATOM     84  C   UNL A   1      35.885  32.816  33.127  1.00  0.00     0.135 A 
ATOM     85  C   UNL A   1      36.108  32.662  30.779  1.00  0.00     0.135 A 
ATOM     86  F   UNL A   1      36.203  32.504  34.397  1.00  0.00    -0.206 F 
ATOM     87  C   UNL A   1      34.890  33.855  32.985  1.00  0.00     0.059 A 
ATOM     88  C   UNL A   1      35.161  33.695  30.618  1.00  0.00     0.059 A 
ATOM     89  F   UNL A   1      36.684  32.206  29.661  1.00  0.00    -0.206 F 
ATOM     90  C   UNL A   1      34.557  34.306  31.710  1.00  0.00     0.060 A 
BRANCH  90  91
ATOM     91  S   UNL A   1      33.446  35.739  31.423  1.00  0.00     0.124 S 
ATOM     92  O   UNL A   1      34.107  36.815  32.154  1.00  0.00    -0.237 OA
ATOM     93  O   UNL A   1      33.448  35.868  29.970  1.00  0.00    -0.237 OA
ATOM     94  O   UNL A   1      32.176  35.299  31.999  1.00  0.00    -0.744 OA
ENDBRANCH  90  91
ENDBRANCH  58  83
BRANCH  70  95
ATOM     95  C   UNL A   1      41.877  29.315  33.634  1.00  0.00     0.058 A 
ATOM     96  C   UNL A   1      41.513  27.963  33.439  1.00  0.00     0.135 A 
ATOM     97  C   UNL A   1      42.303  29.650  34.920  1.00  0.00     0.135 A 
ATOM     98  F   UNL A   1      41.303  27.473  32.213  1.00  0.00    -0.206 F 
ATOM     99  C   UNL A   1      41.454  27.035  34.492  1.00  0.00     0.059 A 
ATOM    100  C   UNL A   1      42.313  28.736  35.969  1.00  0.00     0.059 A 
ATOM    101  F   UNL A   1      42.811  30.870  35.149  1.00  0.00    -0.206 F 
ATOM    102  C   UNL A   1      41.853  27.440  35.762  1.00  0.00     0.060 A 
BRANCH 102 103
ATOM    103  S   UNL A   1      41.859  26.253  37.125  1.00  0.00     0.124 S 
ATOM    104  O   UNL A   1      42.002  24.979  36.427  1.00  0.00    -0.237 OA
ATOM    105  O   UNL A   1      43.017  26.677  37.907  1.00  0.00    -0.237 OA
ATOM    106  O   UNL A   1      40.567  26.469  37.770  1.00  0.00    -0.744 OA
ENDBRANCH 102 103
ENDBRANCH  70  95
ENDBRANCH  44  45
ENDBRANCH  36  39
ENDBRANCH  34  35
ENDBRANCH  33  34
ENDBRANCH   1  33
TORSDOF 18
ENDMDL
MODEL 2
REMARK VINA RESULT:     -13.5      3.001      9.407
REMARK SMILES Cc1c(-c2nn(-c3ccccc3)cc2/C=N/O)nnn1-c1ccc(C(=O)NCCCNC(=O)c2ccc(-c3c4nc(c(-c5c(F)cc(S(=O)(=O)[O-])cc5F)c5ccc([nH]5)c(-c5c(F)cc(S(=O)(=O)[O-])cc5F)c5nc(c(-c6c(F)cc(S(=O)(=O)[O-])cc6F)c6ccc3[nH]6)C=C5)C=C4)cc2)cc1
REMARK SMILES IDX 28 1 27 2 25 3 26 4 24 6 21 7 22 8 101 9 23 10 100 11 20 12
REMARK SMILES IDX 1 13 2 14 3 15 18 16 19 17 4 18 5 19 14 20 6 21 13 22 15 23
REMARK SMILES IDX 16 24 17 25 7 27 8 28 12 29 9 30 11 31 10 32 29 33 30 34
REMARK SMILES IDX 31 35 32 36 33 38 34 39 35 40 99 41 36 42 98 43 37 44 38 45
REMARK SMILES IDX 39 46 92 47 40 48 97 49 91 50 93 51 41 52 96 53 90 54 89 55
REMARK SMILES IDX 42 57 76 58 55 59 75 60 56 61 59 62 74 63 94 64 57 65 58 66
REMARK SMILES IDX 73 68 95 69 60 70 43 71 44 72 53 73 45 74 46 75 52 76 54 77
REMARK SMILES IDX 47 78 48 79 49 80 50 81 51 82 77 83 78 84 87 85 79 86 80 87
REMARK SMILES IDX 86 88 88 89 81 90 82 91 83 92 84 93 85 94 61 95 62 96 71 97
REMARK SMILES IDX 63 98 64 99 70 100 72 101 65 102 66 103 67 104 68 105 69 106
REMARK H PARENT 27 5 17 26 31 37 93 56 59 67
REMARK Flexibility Score: inf
ROOT
ATOM      1  C   UNL A   1      31.250  30.821  25.634  1.00  0.00     0.118 C 
ENDROOT
BRANCH   1   2
ATOM      2  N   UNL A   1      30.319  30.934  24.529  1.00  0.00    -0.352 N 
ATOM      3  C   UNL A   1      30.077  30.140  23.440  1.00  0.00     0.251 C 
ATOM      4  O   UNL A   1      29.182  30.490  22.672  1.00  0.00    -0.269 OA
ATOM      5  H   UNL A   1      29.751  31.738  24.567  1.00  0.00     0.163 HD
BRANCH   3   6
ATOM      6  C   UNL A   1      30.789  28.849  23.205  1.00  0.00     0.039 A 
ATOM      7  C   UNL A   1      32.032  26.342  23.113  1.00  0.00     0.067 A 
ATOM      8  C   UNL A   1      30.637  26.421  23.098  1.00  0.00     0.029 A 
ATOM      9  C   UNL A   1      32.805  27.496  23.077  1.00  0.00     0.029 A 
ATOM     10  C   UNL A   1      30.021  27.675  23.194  1.00  0.00     0.016 A 
ATOM     11  C   UNL A   1      32.169  28.732  23.024  1.00  0.00     0.016 A 
BRANCH   7  12
ATOM     12  N   UNL A   1      32.683  25.095  23.076  1.00  0.00    -0.217 N 
ATOM     13  C   UNL A   1      31.988  24.190  25.329  1.00  0.00     0.069 C 
ATOM     14  C   UNL A   1      32.794  24.150  24.083  1.00  0.00     0.071 A 
ATOM     15  C   UNL A   1      33.692  23.237  23.559  1.00  0.00     0.137 A 
ATOM     16  N   UNL A   1      34.070  23.627  22.303  1.00  0.00    -0.128 NA
ATOM     17  N   UNL A   1      33.402  24.730  21.995  1.00  0.00    -0.061 NA
BRANCH  15  18
ATOM     18  C   UNL A   1      34.175  21.958  24.090  1.00  0.00     0.124 A 
ATOM     19  N   UNL A   1      33.501  20.812  23.908  1.00  0.00    -0.165 NA
ATOM     20  C   UNL A   1      35.410  21.751  24.759  1.00  0.00     0.044 A 
ATOM     21  N   UNL A   1      34.246  19.877  24.536  1.00  0.00    -0.240 N 
ATOM     22  C   UNL A   1      35.396  20.404  25.074  1.00  0.00     0.125 A 
BRANCH  20  23
ATOM     23  C   UNL A   1      36.494  22.651  25.073  1.00  0.00     0.166 C 
ATOM     24  N   UNL A   1      37.683  22.187  25.263  1.00  0.00    -0.097 NA
BRANCH  24  25
ATOM     25  O   UNL A   1      38.550  23.234  25.596  1.00  0.00    -0.411 OA
ATOM     26  H   UNL A   1      38.452  23.683  26.412  1.00  0.00     0.330 HD
ENDBRANCH  24  25
ENDBRANCH  20  23
BRANCH  21  27
ATOM     27  C   UNL A   1      33.795  18.541  24.643  1.00  0.00     0.065 A 
ATOM     28  C   UNL A   1      32.823  18.212  25.595  1.00  0.00     0.028 A 
ATOM     29  C   UNL A   1      34.366  17.546  23.840  1.00  0.00     0.028 A 
ATOM     30  C   UNL A   1      32.426  16.882  25.747  1.00  0.00     0.002 A 
ATOM     31  C   UNL A   1      34.002  16.211  24.038  1.00  0.00     0.002 A 
ATOM     32  C   UNL A   1      33.032  15.880  24.987  1.00  0.00     0.000 A 
ENDBRANCH  21  27
ENDBRANCH  15  18
ENDBRANCH   7  12
ENDBRANCH   3   6
ENDBRANCH   1   2
BRANCH   1  33
ATOM     33  C   UNL A   1      31.134  32.038  26.547  1.00  0.00     0.042 C 
BRANCH  33  34
ATOM     34  C   UNL A   1      32.507  32.399  27.057  1.00  0.00     0.118 C 
BRANCH  34  35
ATOM     35  N   UNL A   1      32.570  33.793  27.507  1.00  0.00    -0.352 N 
ATOM     36  C   UNL A   1      33.225  34.309  28.629  1.00  0.00     0.251 C 
ATOM     37  H   UNL A   1      32.092  34.447  26.948  1.00  0.00     0.163 HD
ATOM     38  O   UNL A   1      32.940  35.373  29.076  1.00  0.00    -0.269 OA
BRANCH  36  39
ATOM     39  C   UNL A   1      34.396  33.513  29.095  1.00  0.00     0.039 A 
ATOM     40  C   UNL A   1      34.446  32.572  30.117  1.00  0.00     0.014 A 
ATOM     41  C   UNL A   1      35.610  33.886  28.558  1.00  0.00     0.014 A 
ATOM     42  C   UNL A   1      35.767  32.201  30.583  1.00  0.00     0.010 A 
ATOM     43  C   UNL A   1      36.633  33.007  28.632  1.00  0.00     0.010 A 
ATOM     44  C   UNL A   1      36.955  32.711  29.922  1.00  0.00    -0.014 A 
BRANCH  44  45
ATOM     45  C   UNL A   1      38.449  32.277  29.942  1.00  0.00     0.031 A 
ATOM     46  C   UNL A   1      38.253  30.772  29.355  1.00  0.00     0.074 A 
ATOM     47  C   UNL A   1      39.662  33.052  30.223  1.00  0.00     0.049 A 
ATOM     48  N   UNL A   1      38.035  29.733  30.114  1.00  0.00    -0.248 NA
ATOM     49  C   UNL A   1      37.738  30.383  27.968  1.00  0.00     0.031 C 
ATOM     50  C   UNL A   1      39.991  34.502  30.675  1.00  0.00     0.029 A 
ATOM     51  N   UNL A   1      41.047  32.645  30.266  1.00  0.00    -0.354 N 
ATOM     52  C   UNL A   1      38.074  28.618  29.266  1.00  0.00     0.074 A 
ATOM     53  C   UNL A   1      37.556  29.054  28.027  1.00  0.00     0.031 C 
ATOM     54  C   UNL A   1      41.336  34.839  30.578  1.00  0.00     0.029 A 
ATOM     55  C   UNL A   1      42.131  33.676  30.207  1.00  0.00     0.049 A 
ATOM     56  H   UNL A   1      41.278  31.690  30.334  1.00  0.00     0.167 HD
ATOM     57  C   UNL A   1      38.978  27.637  29.529  1.00  0.00     0.037 A 
ATOM     58  C   UNL A   1      43.550  33.522  30.268  1.00  0.00     0.037 A 
ATOM     59  C   UNL A   1      39.437  27.836  30.884  1.00  0.00     0.049 A 
ATOM     60  C   UNL A   1      43.735  32.103  30.664  1.00  0.00     0.074 A 
ATOM     61  C   UNL A   1      38.808  27.833  32.115  1.00  0.00     0.029 A 
ATOM     62  N   UNL A   1      40.430  28.776  30.947  1.00  0.00    -0.354 N 
ATOM     63  N   UNL A   1      43.395  31.690  31.855  1.00  0.00    -0.248 NA
ATOM     64  C   UNL A   1      43.592  31.172  29.554  1.00  0.00     0.031 C 
ATOM     65  C   UNL A   1      39.359  28.927  32.847  1.00  0.00     0.029 A 
ATOM     66  C   UNL A   1      40.451  29.420  32.145  1.00  0.00     0.049 A 
ATOM     67  H   UNL A   1      41.057  28.963  30.210  1.00  0.00     0.167 HD
ATOM     68  C   UNL A   1      42.509  30.663  31.589  1.00  0.00     0.074 A 
ATOM     69  C   UNL A   1      42.688  30.375  30.137  1.00  0.00     0.031 C 
ATOM     70  C   UNL A   1      41.446  30.416  32.426  1.00  0.00     0.037 A 
BRANCH  57  71
ATOM     71  C   UNL A   1      39.833  26.912  28.506  1.00  0.00     0.058 A 
ATOM     72  C   UNL A   1      39.763  25.507  28.487  1.00  0.00     0.135 A 
ATOM     73  C   UNL A   1      40.874  27.477  27.725  1.00  0.00     0.135 A 
ATOM     74  F   UNL A   1      38.819  24.869  29.195  1.00  0.00    -0.206 F 
ATOM     75  C   UNL A   1      40.655  24.718  27.766  1.00  0.00     0.059 A 
ATOM     76  C   UNL A   1      41.749  26.705  26.953  1.00  0.00     0.059 A 
ATOM     77  F   UNL A   1      41.123  28.793  27.715  1.00  0.00    -0.206 F 
ATOM     78  C   UNL A   1      41.634  25.324  26.985  1.00  0.00     0.060 A 
BRANCH  78  79
ATOM     79  S   UNL A   1      42.692  24.270  25.974  1.00  0.00     0.124 S 
ATOM     80  O   UNL A   1      42.977  25.131  24.833  1.00  0.00    -0.237 OA
ATOM     81  O   UNL A   1      43.807  24.024  26.883  1.00  0.00    -0.237 OA
ATOM     82  O   UNL A   1      41.850  23.110  25.698  1.00  0.00    -0.744 OA
ENDBRANCH  78  79
ENDBRANCH  57  71
BRANCH  58  83
ATOM     83  C   UNL A   1      44.779  34.193  29.523  1.00  0.00     0.058 A 
ATOM     84  C   UNL A   1      46.207  34.037  29.719  1.00  0.00     0.135 A 
ATOM     85  C   UNL A   1      44.476  34.777  28.291  1.00  0.00     0.135 A 
ATOM     86  F   UNL A   1      46.696  33.455  30.830  1.00  0.00    -0.206 F 
ATOM     87  C   UNL A   1      47.204  34.440  28.754  1.00  0.00     0.059 A 
ATOM     88  C   UNL A   1      45.430  35.149  27.322  1.00  0.00     0.059 A 
ATOM     89  F   UNL A   1      43.191  34.914  27.944  1.00  0.00    -0.206 F 
ATOM     90  C   UNL A   1      46.792  34.975  27.535  1.00  0.00     0.060 A 
BRANCH  90  91
ATOM     91  S   UNL A   1      47.960  35.350  26.170  1.00  0.00     0.124 S 
ATOM     92  O   UNL A   1      47.763  36.780  25.956  1.00  0.00    -0.237 OA
ATOM     93  O   UNL A   1      49.251  34.967  26.731  1.00  0.00    -0.237 OA
ATOM     94  O   UNL A   1      47.486  34.497  25.081  1.00  0.00    -0.744 OA
ENDBRANCH  90  91
ENDBRANCH  58  83
BRANCH  70  95
ATOM     95  C   UNL A   1      41.332  31.133  33.761  1.00  0.00     0.058 A 
ATOM     96  C   UNL A   1      40.389  32.112  34.150  1.00  0.00     0.135 A 
ATOM     97  C   UNL A   1      42.141  30.631  34.781  1.00  0.00     0.135 A 
ATOM     98  F   UNL A   1      39.417  32.504  33.320  1.00  0.00    -0.206 F 
ATOM     99  C   UNL A   1      40.345  32.648  35.448  1.00  0.00     0.059 A 
ATOM    100  C   UNL A   1      42.078  31.100  36.089  1.00  0.00     0.059 A 
ATOM    101  F   UNL A   1      42.951  29.592  34.528  1.00  0.00    -0.206 F 
ATOM    102  C   UNL A   1      41.206  32.135  36.412  1.00  0.00     0.060 A 
BRANCH 102 103
ATOM    103  S   UNL A   1      41.128  32.751  38.109  1.00  0.00     0.124 S 
ATOM    104  O   UNL A   1      41.709  34.083  37.984  1.00  0.00    -0.237 OA
ATOM    105  O   UNL A   1      39.696  32.711  38.392  1.00  0.00    -0.237 OA
ATOM    106  O   UNL A   1      41.930  31.787  38.857  1.00  0.00    -0.744 OA
ENDBRANCH 102 103
ENDBRANCH  70  95
ENDBRANCH  44  45
ENDBRANCH  36  39
ENDBRANCH  34  35
ENDBRANCH  33  34
ENDBRANCH   1  33
TORSDOF 18
ENDMDL
MODEL 3
REMARK VINA RESULT:     -13.2      3.521      7.554
REMARK SMILES Cc1c(-c2nn(-c3ccccc3)cc2/C=N/O)nnn1-c1ccc(C(=O)NCCCNC(=O)c2ccc(-c3c4nc(c(-c5c(F)cc(S(=O)(=O)[O-])cc5F)c5ccc([nH]5)c(-c5c(F)cc(S(=O)(=O)[O-])cc5F)c5nc(c(-c6c(F)cc(S(=O)(=O)[O-])cc6F)c6ccc3[nH]6)C=C5)C=C4)cc2)cc1
REMARK SMILES IDX 28 1 27 2 25 3 26 4 24 6 21 7 22 8 101 9 23 10 100 11 20 12
REMARK SMILES IDX 1 13 2 14 3 15 18 16 19 17 4 18 5 19 14 20 6 21 13 22 15 23
REMARK SMILES IDX 16 24 17 25 7 27 8 28 12 29 9 30 11 31 10 32 29 33 30 34
REMARK SMILES IDX 31 35 32 36 33 38 34 39 35 40 99 41 36 42 98 43 37 44 38 45
REMARK SMILES IDX 39 46 92 47 40 48 97 49 91 50 93 51 41 52 96 53 90 54 89 55
REMARK SMILES IDX 42 57 76 58 55 59 75 60 56 61 59 62 74 63 94 64 57 65 58 66
REMARK SMILES IDX 73 68 95 69 60 70 43 71 44 72 53 73 45 74 46 75 52 76 54 77
REMARK SMILES IDX 47 78 48 79 49 80 50 81 51 82 77 83 78 84 87 85 79 86 80 87
REMARK SMILES IDX 86 88 88 89 81 90 82 91 83 92 84 93 85 94 61 95 62 96 71 97
REMARK SMILES IDX 63 98 64 99 70 100 72 101 65 102 66 103 67 104 68 105 69 106
REMARK H PARENT 27 5 17 26 31 37 93 56 59 67
REMARK Flexibility Score: inf
ROOT
ATOM      1  C   UNL A   1      36.720  19.991  25.009  1.00  0.00     0.118 C 
ENDROOT
BRANCH   1   2
ATOM      2  N   UNL A   1      35.714  18.966  24.812  1.00  0.00    -0.352 N 
ATOM      3  C   UNL A   1      34.346  19.001  24.828  1.00  0.00     0.251 C 
ATOM      4  O   UNL A   1      33.750  17.951  24.592  1.00  0.00    -0.269 OA
ATOM      5  H   UNL A   1      36.086  18.072  24.634  1.00  0.00     0.163 HD
BRANCH   3   6
ATOM      6  C   UNL A   1      33.570  20.260  25.034  1.00  0.00     0.039 A 
ATOM      7  C   UNL A   1      32.328  22.767  25.155  1.00  0.00     0.067 A 
ATOM      8  C   UNL A   1      32.088  21.930  24.061  1.00  0.00     0.029 A 
ATOM      9  C   UNL A   1      33.100  22.327  26.224  1.00  0.00     0.029 A 
ATOM     10  C   UNL A   1      32.750  20.698  23.984  1.00  0.00     0.016 A 
ATOM     11  C   UNL A   1      33.628  21.041  26.190  1.00  0.00     0.016 A 
BRANCH   7  12
ATOM     12  N   UNL A   1      31.725  24.035  25.237  1.00  0.00    -0.217 N 
ATOM     13  C   UNL A   1      33.100  25.269  23.516  1.00  0.00     0.069 C 
ATOM     14  C   UNL A   1      32.106  25.213  24.617  1.00  0.00     0.071 A 
ATOM     15  C   UNL A   1      31.286  26.158  25.208  1.00  0.00     0.137 A 
ATOM     16  N   UNL A   1      30.459  25.553  26.115  1.00  0.00    -0.128 NA
ATOM     17  N   UNL A   1      30.694  24.248  26.080  1.00  0.00    -0.061 NA
BRANCH  15  18
ATOM     18  C   UNL A   1      31.131  27.591  24.940  1.00  0.00     0.124 A 
ATOM     19  N   UNL A   1      30.143  28.067  24.165  1.00  0.00    -0.165 NA
ATOM     20  C   UNL A   1      31.912  28.632  25.508  1.00  0.00     0.044 A 
ATOM     21  N   UNL A   1      30.335  29.405  24.155  1.00  0.00    -0.240 N 
ATOM     22  C   UNL A   1      31.399  29.783  24.938  1.00  0.00     0.125 A 
BRANCH  20  23
ATOM     23  C   UNL A   1      32.990  28.607  26.467  1.00  0.00     0.166 C 
ATOM     24  N   UNL A   1      33.087  29.539  27.354  1.00  0.00    -0.097 NA
BRANCH  24  25
ATOM     25  O   UNL A   1      34.228  29.329  28.137  1.00  0.00    -0.411 OA
ATOM     26  H   UNL A   1      35.067  29.603  27.825  1.00  0.00     0.330 HD
ENDBRANCH  24  25
ENDBRANCH  20  23
BRANCH  21  27
ATOM     27  C   UNL A   1      29.533  30.247  23.350  1.00  0.00     0.065 A 
ATOM     28  C   UNL A   1      29.237  29.871  22.035  1.00  0.00     0.028 A 
ATOM     29  C   UNL A   1      29.091  31.476  23.852  1.00  0.00     0.028 A 
ATOM     30  C   UNL A   1      28.501  30.732  21.218  1.00  0.00     0.002 A 
ATOM     31  C   UNL A   1      28.403  32.355  23.010  1.00  0.00     0.002 A 
ATOM     32  C   UNL A   1      28.106  31.983  21.697  1.00  0.00     0.000 A 
ENDBRANCH  21  27
ENDBRANCH  15  18
ENDBRANCH   7  12
ENDBRANCH   3   6
ENDBRANCH   1   2
BRANCH   1  33
ATOM     33  C   UNL A   1      38.112  19.417  24.760  1.00  0.00     0.042 C 
BRANCH  33  34
ATOM     34  C   UNL A   1      39.082  20.048  25.728  1.00  0.00     0.118 C 
BRANCH  34  35
ATOM     35  N   UNL A   1      40.277  19.221  25.915  1.00  0.00    -0.352 N 
ATOM     36  C   UNL A   1      41.614  19.632  25.947  1.00  0.00     0.251 C 
ATOM     37  H   UNL A   1      40.120  18.257  26.035  1.00  0.00     0.163 HD
ATOM     38  O   UNL A   1      42.502  18.860  25.773  1.00  0.00    -0.269 OA
BRANCH  36  39
ATOM     39  C   UNL A   1      41.829  21.041  26.383  1.00  0.00     0.039 A 
ATOM     40  C   UNL A   1      42.235  22.127  25.615  1.00  0.00     0.014 A 
ATOM     41  C   UNL A   1      41.785  21.247  27.746  1.00  0.00     0.014 A 
ATOM     42  C   UNL A   1      42.690  23.294  26.345  1.00  0.00     0.010 A 
ATOM     43  C   UNL A   1      41.599  22.509  28.190  1.00  0.00     0.010 A 
ATOM     44  C   UNL A   1      42.604  23.339  27.795  1.00  0.00    -0.014 A 
BRANCH  44  45
ATOM     45  C   UNL A   1      42.682  24.502  28.825  1.00  0.00     0.031 A 
ATOM     46  C   UNL A   1      41.401  25.354  28.297  1.00  0.00     0.074 A 
ATOM     47  C   UNL A   1      43.530  24.669  30.010  1.00  0.00     0.049 A 
ATOM     48  N   UNL A   1      41.487  26.280  27.382  1.00  0.00    -0.248 NA
ATOM     49  C   UNL A   1      39.936  24.912  28.298  1.00  0.00     0.031 C 
ATOM     50  C   UNL A   1      44.695  23.888  30.679  1.00  0.00     0.029 A 
ATOM     51  N   UNL A   1      43.620  25.759  30.953  1.00  0.00    -0.354 N 
ATOM     52  C   UNL A   1      40.221  26.878  27.313  1.00  0.00     0.074 A 
ATOM     53  C   UNL A   1      39.291  25.850  27.584  1.00  0.00     0.031 C 
ATOM     54  C   UNL A   1      45.029  24.339  31.951  1.00  0.00     0.029 A 
ATOM     55  C   UNL A   1      44.284  25.547  32.279  1.00  0.00     0.049 A 
ATOM     56  H   UNL A   1      43.246  26.641  30.725  1.00  0.00     0.167 HD
ATOM     57  C   UNL A   1      40.124  28.216  27.541  1.00  0.00     0.037 A 
ATOM     58  C   UNL A   1      44.520  26.468  33.346  1.00  0.00     0.037 A 
ATOM     59  C   UNL A   1      41.456  28.761  27.431  1.00  0.00     0.049 A 
ATOM     60  C   UNL A   1      44.186  27.788  32.755  1.00  0.00     0.074 A 
ATOM     61  C   UNL A   1      42.382  28.822  26.407  1.00  0.00     0.029 A 
ATOM     62  N   UNL A   1      42.160  28.609  28.595  1.00  0.00    -0.354 N 
ATOM     63  N   UNL A   1      44.927  28.308  31.815  1.00  0.00    -0.248 NA
ATOM     64  C   UNL A   1      42.755  28.057  32.721  1.00  0.00     0.031 C 
ATOM     65  C   UNL A   1      43.648  28.529  26.996  1.00  0.00     0.029 A 
ATOM     66  C   UNL A   1      43.500  28.522  28.375  1.00  0.00     0.049 A 
ATOM     67  H   UNL A   1      41.745  28.569  29.487  1.00  0.00     0.167 HD
ATOM     68  C   UNL A   1      44.027  28.520  30.787  1.00  0.00     0.074 A 
ATOM     69  C   UNL A   1      42.686  28.362  31.419  1.00  0.00     0.031 C 
ATOM     70  C   UNL A   1      44.417  28.399  29.473  1.00  0.00     0.037 A 
BRANCH  57  71
ATOM     71  C   UNL A   1      39.054  28.906  28.367  1.00  0.00     0.058 A 
ATOM     72  C   UNL A   1      38.264  29.873  27.720  1.00  0.00     0.135 A 
ATOM     73  C   UNL A   1      38.917  28.857  29.778  1.00  0.00     0.135 A 
ATOM     74  F   UNL A   1      38.321  30.008  26.386  1.00  0.00    -0.206 F 
ATOM     75  C   UNL A   1      37.415  30.736  28.408  1.00  0.00     0.059 A 
ATOM     76  C   UNL A   1      38.031  29.679  30.484  1.00  0.00     0.059 A 
ATOM     77  F   UNL A   1      39.668  28.051  30.540  1.00  0.00    -0.206 F 
ATOM     78  C   UNL A   1      37.288  30.620  29.788  1.00  0.00     0.060 A 
BRANCH  78  79
ATOM     79  S   UNL A   1      36.088  31.674  30.626  1.00  0.00     0.124 S 
ATOM     80  O   UNL A   1      36.841  32.909  30.805  1.00  0.00    -0.237 OA
ATOM     81  O   UNL A   1      35.009  31.720  29.644  1.00  0.00    -0.237 OA
ATOM     82  O   UNL A   1      35.782  30.935  31.847  1.00  0.00    -0.744 OA
ENDBRANCH  78  79
ENDBRANCH  57  71
BRANCH  58  83
ATOM     83  C   UNL A   1      44.450  26.386  34.927  1.00  0.00     0.058 A 
ATOM     84  C   UNL A   1      43.487  25.745  35.802  1.00  0.00     0.135 A 
ATOM     85  C   UNL A   1      45.642  26.693  35.589  1.00  0.00     0.135 A 
ATOM     86  F   UNL A   1      42.292  25.336  35.337  1.00  0.00    -0.206 F 
ATOM     87  C   UNL A   1      43.729  25.459  37.198  1.00  0.00     0.059 A 
ATOM     88  C   UNL A   1      45.910  26.395  36.940  1.00  0.00     0.059 A 
ATOM     89  F   UNL A   1      46.649  27.221  34.885  1.00  0.00    -0.206 F 
ATOM     90  C   UNL A   1      44.970  25.769  37.750  1.00  0.00     0.060 A 
BRANCH  90  91
ATOM     91  S   UNL A   1      45.447  25.285  39.455  1.00  0.00     0.124 S 
ATOM     92  O   UNL A   1      44.597  26.133  40.284  1.00  0.00    -0.237 OA
ATOM     93  O   UNL A   1      45.140  23.859  39.487  1.00  0.00    -0.237 OA
ATOM     94  O   UNL A   1      46.872  25.608  39.508  1.00  0.00    -0.744 OA
ENDBRANCH  90  91
ENDBRANCH  58  83
BRANCH  70  95
ATOM     95  C   UNL A   1      45.884  28.226  29.117  1.00  0.00     0.058 A 
ATOM     96  C   UNL A   1      46.541  27.061  28.659  1.00  0.00     0.135 A 
ATOM     97  C   UNL A   1      46.629  29.404  29.061  1.00  0.00     0.135 A 
ATOM     98  F   UNL A   1      45.869  25.923  28.454  1.00  0.00    -0.206 F 
ATOM     99  C   UNL A   1      47.897  27.050  28.291  1.00  0.00     0.059 A 
ATOM    100  C   UNL A   1      47.956  29.434  28.645  1.00  0.00     0.059 A 
ATOM    101  F   UNL A   1      46.032  30.575  29.330  1.00  0.00    -0.206 F 
ATOM    102  C   UNL A   1      48.599  28.251  28.296  1.00  0.00     0.060 A 
BRANCH 102 103
ATOM    103  S   UNL A   1      50.325  28.287  27.760  1.00  0.00     0.124 S 
ATOM    104  O   UNL A   1      50.205  28.639  26.349  1.00  0.00    -0.237 OA
ATOM    105  O   UNL A   1      50.901  29.316  28.621  1.00  0.00    -0.237 OA
ATOM    106  O   UNL A   1      50.792  26.929  28.027  1.00  0.00    -0.744 OA
ENDBRANCH 102 103
ENDBRANCH  70  95
ENDBRANCH  44  45
ENDBRANCH  36  39
ENDBRANCH  34  35
ENDBRANCH  33  34
ENDBRANCH   1  33
TORSDOF 18
ENDMDL
