MODEL 1
REMARK VINA RESULT:     -14.3      0.000      0.000
REMARK SMILES O=C(NCCCNC(=O)c1ccn(-c2cc(-c3ccncc3)nc(-c3ccccc3F)n2)n1)c1ccc(-c2c3nc(c(-c4c(F)cc(S(=O)(=O)[O-])cc4F)c4ccc([nH]4)c(-c4c(F)cc(S(=O)(=O)[O-])cc4F)c4nc(c(-c5c(F)cc(S(=O)(=O)[O-])cc5F)c5ccc2[nH]5)C=C4)C=C3)cc1
REMARK SMILES IDX 4 1 3 2 1 3 2 4 34 6 35 7 99 8 36 9 98 10 37 11 38 12 39 13
REMARK SMILES IDX 92 14 40 15 97 16 91 17 93 18 41 19 96 20 90 21 89 22 42 24
REMARK SMILES IDX 76 25 55 26 75 27 56 28 59 29 74 30 94 31 57 32 58 33 73 35
REMARK SMILES IDX 95 36 60 37 43 38 44 39 53 40 45 41 46 42 52 43 54 44 47 45
REMARK SMILES IDX 48 46 49 47 50 48 51 49 77 50 78 51 87 52 79 53 80 54 86 55
REMARK SMILES IDX 88 56 81 57 82 58 83 59 84 60 85 61 61 62 62 63 71 64 63 65
REMARK SMILES IDX 64 66 70 67 72 68 65 69 66 70 67 71 68 72 69 73 5 74 6 75
REMARK SMILES IDX 7 76 8 77 9 79 10 80 11 81 33 82 12 83 13 84 14 85 15 86
REMARK SMILES IDX 32 87 16 88 24 89 23 90 17 91 18 92 22 93 19 94 21 95 20 96
REMARK SMILES IDX 25 97 26 98 30 99 27 100 29 101 31 102 28 103
REMARK H PARENT 3 5 93 23 59 34 7 78
REMARK Flexibility Score: inf
ROOT
ATOM      1  C   UNL A   1      37.110  23.193  24.854  1.00  0.00     0.118 C 
ENDROOT
BRANCH   1   2
ATOM      2  N   UNL A   1      38.113  22.204  25.196  1.00  0.00    -0.352 N 
ATOM      3  O   UNL A   1      39.694  21.050  26.210  1.00  0.00    -0.269 OA
ATOM      4  C   UNL A   1      39.157  22.154  26.077  1.00  0.00     0.251 C 
ATOM      5  H   UNL A   1      38.022  21.376  24.671  1.00  0.00     0.163 HD
BRANCH   4   6
ATOM      6  C   UNL A   1      39.719  23.320  26.812  1.00  0.00     0.039 A 
ATOM      7  C   UNL A   1      40.893  23.323  27.567  1.00  0.00     0.014 A 
ATOM      8  C   UNL A   1      38.976  24.512  26.722  1.00  0.00     0.014 A 
ATOM      9  C   UNL A   1      41.271  24.463  28.277  1.00  0.00     0.010 A 
ATOM     10  C   UNL A   1      39.355  25.655  27.417  1.00  0.00     0.010 A 
ATOM     11  C   UNL A   1      40.493  25.623  28.217  1.00  0.00    -0.014 A 
BRANCH  11  12
ATOM     12  C   UNL A   1      41.001  26.842  28.848  1.00  0.00     0.031 A 
ATOM     13  C   UNL A   1      42.249  27.384  28.234  1.00  0.00     0.074 A 
ATOM     14  C   UNL A   1      40.328  27.552  29.777  1.00  0.00     0.049 A 
ATOM     15  N   UNL A   1      43.409  27.556  28.781  1.00  0.00    -0.248 NA
ATOM     16  C   UNL A   1      42.222  27.679  26.791  1.00  0.00     0.031 C 
ATOM     17  C   UNL A   1      38.959  27.336  30.245  1.00  0.00     0.029 A 
ATOM     18  N   UNL A   1      40.695  28.701  30.419  1.00  0.00    -0.354 N 
ATOM     19  C   UNL A   1      44.199  28.178  27.815  1.00  0.00     0.074 A 
ATOM     20  C   UNL A   1      43.475  28.077  26.574  1.00  0.00     0.031 C 
ATOM     21  C   UNL A   1      38.540  28.430  30.922  1.00  0.00     0.029 A 
ATOM     22  C   UNL A   1      39.644  29.368  31.041  1.00  0.00     0.049 A 
ATOM     23  H   UNL A   1      41.623  29.029  30.440  1.00  0.00     0.167 HD
ATOM     24  C   UNL A   1      45.287  28.929  28.144  1.00  0.00     0.037 A 
ATOM     25  C   UNL A   1      39.665  30.626  31.557  1.00  0.00     0.037 A 
ATOM     26  C   UNL A   1      45.737  28.653  29.482  1.00  0.00     0.049 A 
ATOM     27  C   UNL A   1      41.085  30.981  31.803  1.00  0.00     0.074 A 
ATOM     28  C   UNL A   1      46.180  27.530  30.153  1.00  0.00     0.029 A 
ATOM     29  N   UNL A   1      45.456  29.582  30.451  1.00  0.00    -0.354 N 
ATOM     30  N   UNL A   1      41.842  30.417  32.702  1.00  0.00    -0.248 NA
ATOM     31  C   UNL A   1      41.791  31.725  30.771  1.00  0.00     0.031 C 
ATOM     32  C   UNL A   1      45.689  27.677  31.483  1.00  0.00     0.029 A 
ATOM     33  C   UNL A   1      45.018  28.898  31.555  1.00  0.00     0.049 A 
ATOM     34  H   UNL A   1      45.552  30.558  30.371  1.00  0.00     0.167 HD
ATOM     35  C   UNL A   1      43.100  30.367  32.122  1.00  0.00     0.074 A 
ATOM     36  C   UNL A   1      43.032  31.285  30.989  1.00  0.00     0.031 C 
ATOM     37  C   UNL A   1      43.987  29.382  32.446  1.00  0.00     0.037 A 
BRANCH  24  38
ATOM     38  C   UNL A   1      45.724  30.169  27.391  1.00  0.00     0.058 A 
ATOM     39  C   UNL A   1      44.907  31.308  27.221  1.00  0.00     0.135 A 
ATOM     40  C   UNL A   1      47.090  30.353  27.086  1.00  0.00     0.135 A 
ATOM     41  F   UNL A   1      43.612  31.316  27.559  1.00  0.00    -0.206 F 
ATOM     42  C   UNL A   1      45.400  32.533  26.791  1.00  0.00     0.059 A 
ATOM     43  C   UNL A   1      47.616  31.591  26.708  1.00  0.00     0.059 A 
ATOM     44  F   UNL A   1      47.964  29.343  27.229  1.00  0.00    -0.206 F 
ATOM     45  C   UNL A   1      46.761  32.676  26.569  1.00  0.00     0.060 A 
BRANCH  45  46
ATOM     46  S   UNL A   1      47.383  34.328  26.211  1.00  0.00     0.124 S 
ATOM     47  O   UNL A   1      48.797  34.061  25.969  1.00  0.00    -0.237 OA
ATOM     48  O   UNL A   1      46.595  34.699  25.040  1.00  0.00    -0.237 OA
ATOM     49  O   UNL A   1      47.080  35.073  27.429  1.00  0.00    -0.744 OA
ENDBRANCH  45  46
ENDBRANCH  24  38
BRANCH  25  50
ATOM     50  C   UNL A   1      38.591  31.659  31.549  1.00  0.00     0.058 A 
ATOM     51  C   UNL A   1      37.970  32.087  32.739  1.00  0.00     0.135 A 
ATOM     52  C   UNL A   1      37.944  32.022  30.351  1.00  0.00     0.135 A 
ATOM     53  F   UNL A   1      38.473  31.765  33.939  1.00  0.00    -0.206 F 
ATOM     54  C   UNL A   1      36.757  32.771  32.745  1.00  0.00     0.059 A 
ATOM     55  C   UNL A   1      36.719  32.701  30.332  1.00  0.00     0.059 A 
ATOM     56  F   UNL A   1      38.458  31.650  29.168  1.00  0.00    -0.206 F 
ATOM     57  C   UNL A   1      36.118  33.042  31.540  1.00  0.00     0.060 A 
BRANCH  57  58
ATOM     58  S   UNL A   1      34.457  33.751  31.604  1.00  0.00     0.124 S 
ATOM     59  O   UNL A   1      34.724  35.093  32.110  1.00  0.00    -0.237 OA
ATOM     60  O   UNL A   1      34.041  33.676  30.207  1.00  0.00    -0.237 OA
ATOM     61  O   UNL A   1      33.740  32.867  32.517  1.00  0.00    -0.744 OA
ENDBRANCH  57  58
ENDBRANCH  25  50
BRANCH  37  62
ATOM     62  C   UNL A   1      43.743  28.576  33.695  1.00  0.00     0.058 A 
ATOM     63  C   UNL A   1      42.924  27.441  33.588  1.00  0.00     0.135 A 
ATOM     64  C   UNL A   1      44.144  28.960  34.987  1.00  0.00     0.135 A 
ATOM     65  F   UNL A   1      42.465  27.051  32.387  1.00  0.00    -0.206 F 
ATOM     66  C   UNL A   1      42.510  26.723  34.705  1.00  0.00     0.059 A 
ATOM     67  C   UNL A   1      43.772  28.233  36.120  1.00  0.00     0.059 A 
ATOM     68  F   UNL A   1      44.846  30.085  35.188  1.00  0.00    -0.206 F 
ATOM     69  C   UNL A   1      42.938  27.126  35.969  1.00  0.00     0.060 A 
BRANCH  69  70
ATOM     70  S   UNL A   1      42.352  26.197  37.401  1.00  0.00     0.124 S 
ATOM     71  O   UNL A   1      40.975  26.669  37.522  1.00  0.00    -0.237 OA
ATOM     72  O   UNL A   1      42.507  24.814  36.961  1.00  0.00    -0.237 OA
ATOM     73  O   UNL A   1      43.248  26.613  38.477  1.00  0.00    -0.744 OA
ENDBRANCH  69  70
ENDBRANCH  37  62
ENDBRANCH  11  12
ENDBRANCH   4   6
ENDBRANCH   1   2
BRANCH   1  74
ATOM     74  C   UNL A   1      36.088  22.757  23.803  1.00  0.00     0.042 C 
BRANCH  74  75
ATOM     75  C   UNL A   1      34.628  22.996  24.190  1.00  0.00     0.118 C 
BRANCH  75  76
ATOM     76  N   UNL A   1      33.708  22.368  23.259  1.00  0.00    -0.351 N 
ATOM     77  C   UNL A   1      32.340  22.466  23.185  1.00  0.00     0.271 C 
ATOM     78  H   UNL A   1      34.125  21.788  22.583  1.00  0.00     0.163 HD
ATOM     79  O   UNL A   1      31.741  21.692  22.439  1.00  0.00    -0.267 OA
BRANCH  77  80
ATOM     80  C   UNL A   1      31.650  23.521  23.936  1.00  0.00     0.150 A 
ATOM     81  C   UNL A   1      30.943  23.374  25.158  1.00  0.00     0.056 A 
ATOM     82  N   UNL A   1      31.702  24.814  23.562  1.00  0.00    -0.161 NA
ATOM     83  C   UNL A   1      30.690  24.654  25.582  1.00  0.00     0.118 A 
ATOM     84  N   UNL A   1      31.186  25.497  24.616  1.00  0.00    -0.222 N 
BRANCH  84  85
ATOM     85  C   UNL A   1      31.229  26.918  24.689  1.00  0.00     0.158 A 
ATOM     86  C   UNL A   1      30.417  27.648  23.846  1.00  0.00     0.078 A 
ATOM     87  N   UNL A   1      32.068  27.485  25.587  1.00  0.00    -0.209 NA
ATOM     88  C   UNL A   1      30.468  29.018  23.996  1.00  0.00     0.077 A 
ATOM     89  C   UNL A   1      32.099  28.827  25.597  1.00  0.00     0.165 A 
ATOM     90  N   UNL A   1      31.339  29.625  24.829  1.00  0.00    -0.228 NA
BRANCH  88  91
ATOM     91  C   UNL A   1      29.540  29.907  23.292  1.00  0.00     0.003 A 
ATOM     92  C   UNL A   1      29.224  31.170  23.811  1.00  0.00     0.030 A 
ATOM     93  C   UNL A   1      28.966  29.538  22.073  1.00  0.00     0.030 A 
ATOM     94  C   UNL A   1      28.352  31.986  23.110  1.00  0.00     0.111 A 
ATOM     95  C   UNL A   1      28.095  30.419  21.452  1.00  0.00     0.111 A 
ATOM     96  N   UNL A   1      27.769  31.632  21.945  1.00  0.00    -0.265 NA
ENDBRANCH  88  91
BRANCH  89  97
ATOM     97  C   UNL A   1      33.126  29.462  26.413  1.00  0.00     0.055 A 
ATOM     98  C   UNL A   1      34.364  28.829  26.637  1.00  0.00     0.015 A 
ATOM     99  C   UNL A   1      32.921  30.717  26.992  1.00  0.00     0.134 A 
ATOM    100  C   UNL A   1      35.359  29.443  27.405  1.00  0.00     0.001 A 
ATOM    101  C   UNL A   1      33.905  31.331  27.768  1.00  0.00     0.040 A 
ATOM    102  F   UNL A   1      31.754  31.355  26.829  1.00  0.00    -0.206 F 
ATOM    103  C   UNL A   1      35.128  30.695  27.971  1.00  0.00     0.003 A 
ENDBRANCH  89  97
ENDBRANCH  84  85
ENDBRANCH  77  80
ENDBRANCH  75  76
ENDBRANCH  74  75
ENDBRANCH   1  74
TORSDOF 16
ENDMDL
MODEL 2
REMARK VINA RESULT:     -14.2      3.084      9.630
REMARK SMILES O=C(NCCCNC(=O)c1ccn(-c2cc(-c3ccncc3)nc(-c3ccccc3F)n2)n1)c1ccc(-c2c3nc(c(-c4c(F)cc(S(=O)(=O)[O-])cc4F)c4ccc([nH]4)c(-c4c(F)cc(S(=O)(=O)[O-])cc4F)c4nc(c(-c5c(F)cc(S(=O)(=O)[O-])cc5F)c5ccc2[nH]5)C=C4)C=C3)cc1
REMARK SMILES IDX 4 1 3 2 1 3 2 4 34 6 35 7 99 8 36 9 98 10 37 11 38 12 39 13
REMARK SMILES IDX 92 14 40 15 97 16 91 17 93 18 41 19 96 20 90 21 89 22 42 24
REMARK SMILES IDX 76 25 55 26 75 27 56 28 59 29 74 30 94 31 57 32 58 33 73 35
REMARK SMILES IDX 95 36 60 37 43 38 44 39 53 40 45 41 46 42 52 43 54 44 47 45
REMARK SMILES IDX 48 46 49 47 50 48 51 49 77 50 78 51 87 52 79 53 80 54 86 55
REMARK SMILES IDX 88 56 81 57 82 58 83 59 84 60 85 61 61 62 62 63 71 64 63 65
REMARK SMILES IDX 64 66 70 67 72 68 65 69 66 70 67 71 68 72 69 73 5 74 6 75
REMARK SMILES IDX 7 76 8 77 9 79 10 80 11 81 33 82 12 83 13 84 14 85 15 86
REMARK SMILES IDX 32 87 16 88 24 89 23 90 17 91 18 92 22 93 19 94 21 95 20 96
REMARK SMILES IDX 25 97 26 98 30 99 27 100 29 101 31 102 28 103
REMARK H PARENT 3 5 93 23 59 34 7 78
REMARK Flexibility Score: inf
ROOT
ATOM      1  C   UNL A   1      33.457  29.822  26.260  1.00  0.00     0.118 C 
ENDROOT
BRANCH   1   2
ATOM      2  N   UNL A   1      33.489  30.892  27.237  1.00  0.00    -0.352 N 
ATOM      3  O   UNL A   1      34.137  32.479  28.623  1.00  0.00    -0.269 OA
ATOM      4  C   UNL A   1      34.455  31.442  28.033  1.00  0.00     0.251 C 
ATOM      5  H   UNL A   1      32.612  31.322  27.355  1.00  0.00     0.163 HD
BRANCH   4   6
ATOM      6  C   UNL A   1      35.798  30.854  28.287  1.00  0.00     0.039 A 
ATOM      7  C   UNL A   1      36.136  29.505  28.176  1.00  0.00     0.014 A 
ATOM      8  C   UNL A   1      36.798  31.766  28.678  1.00  0.00     0.014 A 
ATOM      9  C   UNL A   1      37.415  29.066  28.523  1.00  0.00     0.010 A 
ATOM     10  C   UNL A   1      38.078  31.337  29.012  1.00  0.00     0.010 A 
ATOM     11  C   UNL A   1      38.380  29.979  28.957  1.00  0.00    -0.014 A 
BRANCH  11  12
ATOM     12  C   UNL A   1      39.750  29.507  29.163  1.00  0.00     0.031 A 
ATOM     13  C   UNL A   1      40.118  29.278  30.591  1.00  0.00     0.074 A 
ATOM     14  C   UNL A   1      40.575  29.114  28.170  1.00  0.00     0.049 A 
ATOM     15  N   UNL A   1      41.046  29.852  31.287  1.00  0.00    -0.248 NA
ATOM     16  C   UNL A   1      39.271  28.360  31.371  1.00  0.00     0.031 C 
ATOM     17  C   UNL A   1      40.254  28.968  26.750  1.00  0.00     0.029 A 
ATOM     18  N   UNL A   1      41.856  28.647  28.246  1.00  0.00    -0.354 N 
ATOM     19  C   UNL A   1      41.041  29.216  32.528  1.00  0.00     0.074 A 
ATOM     20  C   UNL A   1      39.834  28.433  32.577  1.00  0.00     0.031 C 
ATOM     21  C   UNL A   1      41.228  28.253  26.143  1.00  0.00     0.029 A 
ATOM     22  C   UNL A   1      42.296  27.997  27.096  1.00  0.00     0.049 A 
ATOM     23  H   UNL A   1      42.421  28.760  29.044  1.00  0.00     0.167 HD
ATOM     24  C   UNL A   1      42.137  29.200  33.338  1.00  0.00     0.037 A 
ATOM     25  C   UNL A   1      43.423  27.250  26.960  1.00  0.00     0.037 A 
ATOM     26  C   UNL A   1      43.082  30.221  32.970  1.00  0.00     0.049 A 
ATOM     27  C   UNL A   1      44.348  27.638  28.053  1.00  0.00     0.074 A 
ATOM     28  C   UNL A   1      43.047  31.597  32.872  1.00  0.00     0.029 A 
ATOM     29  N   UNL A   1      44.216  29.827  32.305  1.00  0.00    -0.354 N 
ATOM     30  N   UNL A   1      44.928  28.803  28.150  1.00  0.00    -0.248 NA
ATOM     31  C   UNL A   1      44.339  26.843  29.271  1.00  0.00     0.031 C 
ATOM     32  C   UNL A   1      43.883  31.911  31.761  1.00  0.00     0.029 A 
ATOM     33  C   UNL A   1      44.414  30.714  31.279  1.00  0.00     0.049 A 
ATOM     34  H   UNL A   1      44.783  29.053  32.524  1.00  0.00     0.167 HD
ATOM     35  C   UNL A   1      44.968  29.063  29.511  1.00  0.00     0.074 A 
ATOM     36  C   UNL A   1      44.699  27.780  30.150  1.00  0.00     0.031 C 
ATOM     37  C   UNL A   1      44.940  30.343  29.984  1.00  0.00     0.037 A 
BRANCH  24  38
ATOM     38  C   UNL A   1      42.520  28.037  34.228  1.00  0.00     0.058 A 
ATOM     39  C   UNL A   1      43.120  26.850  33.750  1.00  0.00     0.135 A 
ATOM     40  C   UNL A   1      42.569  28.218  35.628  1.00  0.00     0.135 A 
ATOM     41  F   UNL A   1      43.236  26.584  32.444  1.00  0.00    -0.206 F 
ATOM     42  C   UNL A   1      43.725  25.921  34.586  1.00  0.00     0.059 A 
ATOM     43  C   UNL A   1      43.224  27.325  36.480  1.00  0.00     0.059 A 
ATOM     44  F   UNL A   1      42.048  29.319  36.193  1.00  0.00    -0.206 F 
ATOM     45  C   UNL A   1      43.804  26.181  35.946  1.00  0.00     0.060 A 
BRANCH  45  46
ATOM     46  S   UNL A   1      44.773  25.051  36.960  1.00  0.00     0.124 S 
ATOM     47  O   UNL A   1      46.129  25.534  36.719  1.00  0.00    -0.237 OA
ATOM     48  O   UNL A   1      44.234  25.306  38.292  1.00  0.00    -0.237 OA
ATOM     49  O   UNL A   1      44.459  23.742  36.398  1.00  0.00    -0.744 OA
ENDBRANCH  45  46
ENDBRANCH  24  38
BRANCH  25  50
ATOM     50  C   UNL A   1      43.632  26.006  26.164  1.00  0.00     0.058 A 
ATOM     51  C   UNL A   1      42.861  24.849  26.389  1.00  0.00     0.135 A 
ATOM     52  C   UNL A   1      44.790  25.834  25.381  1.00  0.00     0.135 A 
ATOM     53  F   UNL A   1      41.760  24.885  27.153  1.00  0.00    -0.206 F 
ATOM     54  C   UNL A   1      43.245  23.593  25.925  1.00  0.00     0.059 A 
ATOM     55  C   UNL A   1      45.202  24.580  24.912  1.00  0.00     0.059 A 
ATOM     56  F   UNL A   1      45.591  26.879  25.122  1.00  0.00    -0.206 F 
ATOM     57  C   UNL A   1      44.435  23.459  25.219  1.00  0.00     0.060 A 
BRANCH  57  58
ATOM     58  S   UNL A   1      44.993  21.790  24.811  1.00  0.00     0.124 S 
ATOM     59  O   UNL A   1      46.421  21.873  25.099  1.00  0.00    -0.237 OA
ATOM     60  O   UNL A   1      44.211  20.974  25.735  1.00  0.00    -0.237 OA
ATOM     61  O   UNL A   1      44.645  21.645  23.401  1.00  0.00    -0.744 OA
ENDBRANCH  57  58
ENDBRANCH  25  50
BRANCH  37  62
ATOM     62  C   UNL A   1      45.240  31.470  29.031  1.00  0.00     0.058 A 
ATOM     63  C   UNL A   1      44.173  31.995  28.286  1.00  0.00     0.135 A 
ATOM     64  C   UNL A   1      46.532  31.930  28.716  1.00  0.00     0.135 A 
ATOM     65  F   UNL A   1      42.920  31.560  28.504  1.00  0.00    -0.206 F 
ATOM     66  C   UNL A   1      44.369  32.924  27.271  1.00  0.00     0.059 A 
ATOM     67  C   UNL A   1      46.749  32.890  27.724  1.00  0.00     0.059 A 
ATOM     68  F   UNL A   1      47.615  31.410  29.310  1.00  0.00    -0.206 F 
ATOM     69  C   UNL A   1      45.662  33.366  26.994  1.00  0.00     0.060 A 
BRANCH  69  70
ATOM     70  S   UNL A   1      45.888  34.541  25.644  1.00  0.00     0.124 S 
ATOM     71  O   UNL A   1      44.976  34.016  24.632  1.00  0.00    -0.237 OA
ATOM     72  O   UNL A   1      45.487  35.803  26.258  1.00  0.00    -0.237 OA
ATOM     73  O   UNL A   1      47.307  34.430  25.318  1.00  0.00    -0.744 OA
ENDBRANCH  69  70
ENDBRANCH  37  62
ENDBRANCH  11  12
ENDBRANCH   4   6
ENDBRANCH   1   2
BRANCH   1  74
ATOM     74  C   UNL A   1      32.937  28.478  26.773  1.00  0.00     0.042 C 
BRANCH  74  75
ATOM     75  C   UNL A   1      32.623  27.453  25.683  1.00  0.00     0.118 C 
BRANCH  75  76
ATOM     76  N   UNL A   1      31.202  27.179  25.586  1.00  0.00    -0.351 N 
ATOM     77  C   UNL A   1      30.542  26.256  24.811  1.00  0.00     0.271 C 
ATOM     78  H   UNL A   1      30.626  27.735  26.159  1.00  0.00     0.163 HD
ATOM     79  O   UNL A   1      29.315  26.328  24.740  1.00  0.00    -0.267 OA
BRANCH  77  80
ATOM     80  C   UNL A   1      31.304  25.186  24.157  1.00  0.00     0.150 A 
ATOM     81  C   UNL A   1      31.639  25.098  22.781  1.00  0.00     0.056 A 
ATOM     82  N   UNL A   1      31.862  24.178  24.855  1.00  0.00    -0.161 NA
ATOM     83  C   UNL A   1      32.545  24.070  22.698  1.00  0.00     0.118 A 
ATOM     84  N   UNL A   1      32.680  23.558  23.967  1.00  0.00    -0.222 N 
BRANCH  84  85
ATOM     85  C   UNL A   1      33.594  22.541  24.364  1.00  0.00     0.158 A 
ATOM     86  C   UNL A   1      33.144  21.239  24.434  1.00  0.00     0.078 A 
ATOM     87  N   UNL A   1      34.864  22.904  24.654  1.00  0.00    -0.209 NA
ATOM     88  C   UNL A   1      34.086  20.293  24.778  1.00  0.00     0.077 A 
ATOM     89  C   UNL A   1      35.682  21.917  25.056  1.00  0.00     0.165 A 
ATOM     90  N   UNL A   1      35.344  20.620  25.141  1.00  0.00    -0.228 NA
BRANCH  88  91
ATOM     91  C   UNL A   1      33.795  18.857  24.724  1.00  0.00     0.003 A 
ATOM     92  C   UNL A   1      34.766  17.945  24.290  1.00  0.00     0.030 A 
ATOM     93  C   UNL A   1      32.556  18.354  25.128  1.00  0.00     0.030 A 
ATOM     94  C   UNL A   1      34.455  16.595  24.265  1.00  0.00     0.111 A 
ATOM     95  C   UNL A   1      32.336  16.987  25.056  1.00  0.00     0.111 A 
ATOM     96  N   UNL A   1      33.255  16.097  24.627  1.00  0.00    -0.265 NA
ENDBRANCH  88  91
BRANCH  89  97
ATOM     97  C   UNL A   1      36.995  22.303  25.557  1.00  0.00     0.055 A 
ATOM     98  C   UNL A   1      37.215  23.587  26.091  1.00  0.00     0.015 A 
ATOM     99  C   UNL A   1      38.071  21.413  25.531  1.00  0.00     0.134 A 
ATOM    100  C   UNL A   1      38.469  23.955  26.589  1.00  0.00     0.001 A 
ATOM    101  C   UNL A   1      39.328  21.777  26.017  1.00  0.00     0.040 A 
ATOM    102  F   UNL A   1      37.924  20.185  25.015  1.00  0.00    -0.206 F 
ATOM    103  C   UNL A   1      39.527  23.049  26.550  1.00  0.00     0.003 A 
ENDBRANCH  89  97
ENDBRANCH  84  85
ENDBRANCH  77  80
ENDBRANCH  75  76
ENDBRANCH  74  75
ENDBRANCH   1  74
TORSDOF 16
ENDMDL
MODEL 3
REMARK VINA RESULT:     -14.2      1.129      1.639
REMARK SMILES O=C(NCCCNC(=O)c1ccn(-c2cc(-c3ccncc3)nc(-c3ccccc3F)n2)n1)c1ccc(-c2c3nc(c(-c4c(F)cc(S(=O)(=O)[O-])cc4F)c4ccc([nH]4)c(-c4c(F)cc(S(=O)(=O)[O-])cc4F)c4nc(c(-c5c(F)cc(S(=O)(=O)[O-])cc5F)c5ccc2[nH]5)C=C4)C=C3)cc1
REMARK SMILES IDX 4 1 3 2 1 3 2 4 34 6 35 7 99 8 36 9 98 10 37 11 38 12 39 13
REMARK SMILES IDX 92 14 40 15 97 16 91 17 93 18 41 19 96 20 90 21 89 22 42 24
REMARK SMILES IDX 76 25 55 26 75 27 56 28 59 29 74 30 94 31 57 32 58 33 73 35
REMARK SMILES IDX 95 36 60 37 43 38 44 39 53 40 45 41 46 42 52 43 54 44 47 45
REMARK SMILES IDX 48 46 49 47 50 48 51 49 77 50 78 51 87 52 79 53 80 54 86 55
REMARK SMILES IDX 88 56 81 57 82 58 83 59 84 60 85 61 61 62 62 63 71 64 63 65
REMARK SMILES IDX 64 66 70 67 72 68 65 69 66 70 67 71 68 72 69 73 5 74 6 75
REMARK SMILES IDX 7 76 8 77 9 79 10 80 11 81 33 82 12 83 13 84 14 85 15 86
REMARK SMILES IDX 32 87 16 88 24 89 23 90 17 91 18 92 22 93 19 94 21 95 20 96
REMARK SMILES IDX 25 97 26 98 30 99 27 100 29 101 31 102 28 103
REMARK H PARENT 3 5 93 23 59 34 7 78
REMARK Flexibility Score: inf
ROOT
ATOM      1  C   UNL A   1      37.468  22.542  25.240  1.00  0.00     0.118 C 
ENDROOT
BRANCH   1   2
ATOM      2  N   UNL A   1      38.783  21.977  25.474  1.00  0.00    -0.352 N 
ATOM      3  O   UNL A   1      40.763  21.489  26.312  1.00  0.00    -0.269 OA
ATOM      4  C   UNL A   1      39.864  22.332  26.232  1.00  0.00     0.251 C 
ATOM      5  H   UNL A   1      38.932  21.144  24.970  1.00  0.00     0.163 HD
BRANCH   4   6
ATOM      6  C   UNL A   1      40.058  23.654  26.886  1.00  0.00     0.039 A 
ATOM      7  C   UNL A   1      39.284  24.796  26.673  1.00  0.00     0.014 A 
ATOM      8  C   UNL A   1      41.131  23.732  27.795  1.00  0.00     0.014 A 
ATOM      9  C   UNL A   1      39.620  26.002  27.289  1.00  0.00     0.010 A 
ATOM     10  C   UNL A   1      41.463  24.928  28.423  1.00  0.00     0.010 A 
ATOM     11  C   UNL A   1      40.719  26.073  28.149  1.00  0.00    -0.014 A 
BRANCH  11  12
ATOM     12  C   UNL A   1      40.948  27.311  28.894  1.00  0.00     0.031 A 
ATOM     13  C   UNL A   1      42.064  28.152  28.370  1.00  0.00     0.074 A 
ATOM     14  C   UNL A   1      40.126  27.783  29.854  1.00  0.00     0.049 A 
ATOM     15  N   UNL A   1      43.153  28.514  28.968  1.00  0.00    -0.248 NA
ATOM     16  C   UNL A   1      42.000  28.559  26.955  1.00  0.00     0.031 C 
ATOM     17  C   UNL A   1      38.825  27.247  30.255  1.00  0.00     0.029 A 
ATOM     18  N   UNL A   1      40.232  28.923  30.599  1.00  0.00    -0.354 N 
ATOM     19  C   UNL A   1      43.810  29.368  28.083  1.00  0.00     0.074 A 
ATOM     20  C   UNL A   1      43.144  29.227  26.814  1.00  0.00     0.031 C 
ATOM     21  C   UNL A   1      38.174  28.167  31.003  1.00  0.00     0.029 A 
ATOM     22  C   UNL A   1      39.054  29.301  31.237  1.00  0.00     0.049 A 
ATOM     23  H   UNL A   1      41.069  29.434  30.678  1.00  0.00     0.167 HD
ATOM     24  C   UNL A   1      44.710  30.298  28.509  1.00  0.00     0.037 A 
ATOM     25  C   UNL A   1      38.801  30.486  31.853  1.00  0.00     0.037 A 
ATOM     26  C   UNL A   1      45.185  30.008  29.835  1.00  0.00     0.049 A 
ATOM     27  C   UNL A   1      40.109  31.106  32.175  1.00  0.00     0.074 A 
ATOM     28  C   UNL A   1      45.844  28.948  30.428  1.00  0.00     0.029 A 
ATOM     29  N   UNL A   1      44.699  30.771  30.867  1.00  0.00    -0.354 N 
ATOM     30  N   UNL A   1      40.954  30.637  33.051  1.00  0.00    -0.248 NA
ATOM     31  C   UNL A   1      40.660  32.068  31.232  1.00  0.00     0.031 C 
ATOM     32  C   UNL A   1      45.311  28.874  31.748  1.00  0.00     0.029 A 
ATOM     33  C   UNL A   1      44.397  29.918  31.896  1.00  0.00     0.049 A 
ATOM     34  H   UNL A   1      44.589  31.748  30.868  1.00  0.00     0.167 HD
ATOM     35  C   UNL A   1      42.203  30.900  32.513  1.00  0.00     0.074 A 
ATOM     36  C   UNL A   1      41.962  31.878  31.457  1.00  0.00     0.031 C 
ATOM     37  C   UNL A   1      43.272  30.097  32.787  1.00  0.00     0.037 A 
BRANCH  24  38
ATOM     38  C   UNL A   1      44.889  31.662  27.875  1.00  0.00     0.058 A 
ATOM     39  C   UNL A   1      44.017  32.750  28.103  1.00  0.00     0.135 A 
ATOM     40  C   UNL A   1      46.118  31.990  27.262  1.00  0.00     0.135 A 
ATOM     41  F   UNL A   1      42.859  32.613  28.759  1.00  0.00    -0.206 F 
ATOM     42  C   UNL A   1      44.336  34.057  27.759  1.00  0.00     0.059 A 
ATOM     43  C   UNL A   1      46.482  33.305  26.962  1.00  0.00     0.059 A 
ATOM     44  F   UNL A   1      47.032  31.038  27.014  1.00  0.00    -0.206 F 
ATOM     45  C   UNL A   1      45.584  34.332  27.220  1.00  0.00     0.060 A 
BRANCH  45  46
ATOM     46  S   UNL A   1      46.031  36.060  26.980  1.00  0.00     0.124 S 
ATOM     47  O   UNL A   1      46.792  36.335  28.194  1.00  0.00    -0.237 OA
ATOM     48  O   UNL A   1      46.803  36.002  25.743  1.00  0.00    -0.237 OA
ATOM     49  O   UNL A   1      44.739  36.730  26.879  1.00  0.00    -0.744 OA
ENDBRANCH  45  46
ENDBRANCH  24  38
BRANCH  25  50
ATOM     50  C   UNL A   1      37.533  31.269  31.892  1.00  0.00     0.058 A 
ATOM     51  C   UNL A   1      37.051  31.948  30.756  1.00  0.00     0.135 A 
ATOM     52  C   UNL A   1      36.934  31.616  33.119  1.00  0.00     0.135 A 
ATOM     53  F   UNL A   1      37.575  31.730  29.541  1.00  0.00    -0.206 F 
ATOM     54  C   UNL A   1      36.086  32.950  30.837  1.00  0.00     0.059 A 
ATOM     55  C   UNL A   1      35.969  32.626  33.227  1.00  0.00     0.059 A 
ATOM     56  F   UNL A   1      37.336  31.027  34.256  1.00  0.00    -0.206 F 
ATOM     57  C   UNL A   1      35.577  33.309  32.080  1.00  0.00     0.060 A 
BRANCH  57  58
ATOM     58  S   UNL A   1      34.480  34.743  32.161  1.00  0.00     0.124 S 
ATOM     59  O   UNL A   1      34.273  35.042  30.748  1.00  0.00    -0.237 OA
ATOM     60  O   UNL A   1      33.322  34.200  32.867  1.00  0.00    -0.237 OA
ATOM     61  O   UNL A   1      35.257  35.730  32.905  1.00  0.00    -0.744 OA
ENDBRANCH  57  58
ENDBRANCH  25  50
BRANCH  37  62
ATOM     62  C   UNL A   1      43.182  29.153  33.957  1.00  0.00     0.058 A 
ATOM     63  C   UNL A   1      42.698  27.859  33.714  1.00  0.00     0.135 A 
ATOM     64  C   UNL A   1      43.399  29.518  35.298  1.00  0.00     0.135 A 
ATOM     65  F   UNL A   1      42.423  27.466  32.459  1.00  0.00    -0.206 F 
ATOM     66  C   UNL A   1      42.429  26.967  34.746  1.00  0.00     0.059 A 
ATOM     67  C   UNL A   1      43.171  28.626  36.349  1.00  0.00     0.059 A 
ATOM     68  F   UNL A   1      43.768  30.765  35.626  1.00  0.00    -0.206 F 
ATOM     69  C   UNL A   1      42.667  27.359  36.063  1.00  0.00     0.060 A 
BRANCH  69  70
ATOM     70  S   UNL A   1      42.270  26.193  37.382  1.00  0.00     0.124 S 
ATOM     71  O   UNL A   1      40.873  26.517  37.660  1.00  0.00    -0.237 OA
ATOM     72  O   UNL A   1      42.501  24.903  36.739  1.00  0.00    -0.237 OA
ATOM     73  O   UNL A   1      43.211  26.536  38.445  1.00  0.00    -0.744 OA
ENDBRANCH  69  70
ENDBRANCH  37  62
ENDBRANCH  11  12
ENDBRANCH   4   6
ENDBRANCH   1   2
BRANCH   1  74
ATOM     74  C   UNL A   1      36.340  21.526  25.057  1.00  0.00     0.042 C 
BRANCH  74  75
ATOM     75  C   UNL A   1      34.930  22.102  25.194  1.00  0.00     0.118 C 
BRANCH  75  76
ATOM     76  N   UNL A   1      33.977  21.418  24.340  1.00  0.00    -0.351 N 
ATOM     77  C   UNL A   1      32.612  21.556  24.270  1.00  0.00     0.271 C 
ATOM     78  H   UNL A   1      34.365  20.759  23.719  1.00  0.00     0.163 HD
ATOM     79  O   UNL A   1      31.977  20.734  23.610  1.00  0.00    -0.267 OA
BRANCH  77  80
ATOM     80  C   UNL A   1      31.968  22.703  24.920  1.00  0.00     0.150 A 
ATOM     81  C   UNL A   1      31.435  22.749  26.234  1.00  0.00     0.056 A 
ATOM     82  N   UNL A   1      31.900  23.912  24.330  1.00  0.00    -0.161 NA
ATOM     83  C   UNL A   1      31.169  24.075  26.467  1.00  0.00     0.118 A 
ATOM     84  N   UNL A   1      31.488  24.752  25.313  1.00  0.00    -0.222 N 
BRANCH  84  85
ATOM     85  C   UNL A   1      31.463  26.165  25.139  1.00  0.00     0.158 A 
ATOM     86  C   UNL A   1      30.674  26.692  24.138  1.00  0.00     0.078 A 
ATOM     87  N   UNL A   1      32.215  26.923  25.969  1.00  0.00    -0.209 NA
ATOM     88  C   UNL A   1      30.653  28.069  24.049  1.00  0.00     0.077 A 
ATOM     89  C   UNL A   1      32.185  28.247  25.747  1.00  0.00     0.165 A 
ATOM     90  N   UNL A   1      31.441  28.857  24.810  1.00  0.00    -0.228 NA
BRANCH  88  91
ATOM     91  C   UNL A   1      29.733  28.770  23.150  1.00  0.00     0.003 A 
ATOM     92  C   UNL A   1      30.215  29.677  22.196  1.00  0.00     0.030 A 
ATOM     93  C   UNL A   1      28.356  28.539  23.196  1.00  0.00     0.030 A 
ATOM     94  C   UNL A   1      29.315  30.312  21.357  1.00  0.00     0.111 A 
ATOM     95  C   UNL A   1      27.533  29.231  22.322  1.00  0.00     0.111 A 
ATOM     96  N   UNL A   1      27.980  30.118  21.408  1.00  0.00    -0.265 NA
ENDBRANCH  88  91
BRANCH  89  97
ATOM     97  C   UNL A   1      33.128  29.069  26.494  1.00  0.00     0.055 A 
ATOM     98  C   UNL A   1      34.429  28.605  26.771  1.00  0.00     0.015 A 
ATOM     99  C   UNL A   1      32.777  30.341  26.953  1.00  0.00     0.134 A 
ATOM    100  C   UNL A   1      35.342  29.398  27.473  1.00  0.00     0.001 A 
ATOM    101  C   UNL A   1      33.680  31.133  27.663  1.00  0.00     0.040 A 
ATOM    102  F   UNL A   1      31.545  30.823  26.737  1.00  0.00    -0.206 F 
ATOM    103  C   UNL A   1      34.966  30.663  27.920  1.00  0.00     0.003 A 
ENDBRANCH  89  97
ENDBRANCH  84  85
ENDBRANCH  77  80
ENDBRANCH  75  76
ENDBRANCH  74  75
ENDBRANCH   1  74
TORSDOF 16
ENDMDL
