MODEL 1
REMARK VINA RESULT:      -9.5      0.000      0.000
REMARK SMILES Cc1ccc(F)c(C(=O)N[C@@H]2C=C[C@@H](C(=O)NCCCNC(=O)c3ccc(-c4c5nc(c(-c6c(F)cc(S(=O)(=O)[O-])cc6F)c6ccc([nH]6)c(-c6c(F)cc(S(=O)(=O)[O-])cc6F)c6nc(c(-c7c(F)cc(S(=O)(=O)[O-])cc7F)c7ccc4[nH]7)C=C6)C=C5)cc3)C2)c1
REMARK SMILES IDX 19 1 18 2 17 3 15 4 16 5 14 7 11 8 12 9 90 10 13 11 10 12
REMARK SMILES IDX 8 13 9 14 7 16 1 17 2 18 3 19 91 20 4 21 5 22 6 23 20 24
REMARK SMILES IDX 21 25 22 26 23 28 24 29 25 30 89 31 26 32 88 33 27 34 28 35
REMARK SMILES IDX 29 36 82 37 30 38 87 39 81 40 83 41 31 42 86 43 80 44 79 45
REMARK SMILES IDX 32 47 66 48 45 49 65 50 46 51 49 52 64 53 84 54 47 55 48 56
REMARK SMILES IDX 63 58 85 59 50 60 33 61 34 62 43 63 35 64 36 65 42 66 44 67
REMARK SMILES IDX 37 68 38 69 39 70 40 71 41 72 67 73 68 74 77 75 69 76 70 77
REMARK SMILES IDX 76 78 78 79 71 80 72 81 73 82 74 83 75 84 51 85 52 86 61 87
REMARK SMILES IDX 53 88 54 89 60 90 62 91 55 92 56 93 57 94 58 95 59 96
REMARK H PARENT 17 6 10 15 21 27 83 46 49 57
REMARK Flexibility Score: inf
ROOT
ATOM      1  C   UNL A   1      34.754  32.843  30.195  1.00  0.00     0.042 C 
ENDROOT
BRANCH   1   2
ATOM      2  C   UNL A   1      35.331  34.176  30.665  1.00  0.00     0.117 C 
BRANCH   2   3
ATOM      3  N   UNL A   1      36.678  34.424  30.189  1.00  0.00    -0.356 N 
ATOM      4  C   UNL A   1      37.896  34.283  30.775  1.00  0.00     0.227 C 
ATOM      5  O   UNL A   1      38.878  34.388  30.029  1.00  0.00    -0.274 OA
ATOM      6  H   UNL A   1      36.718  34.758  29.264  1.00  0.00     0.163 HD
BRANCH   4   7
ATOM      7  C   UNL A   1      38.113  34.100  32.284  1.00  0.00     0.103 C 
ATOM      8  C   UNL A   1      38.966  32.028  33.307  1.00  0.00     0.106 C 
ATOM      9  C   UNL A   1      39.931  33.165  33.438  1.00  0.00    -0.006 C 
ATOM     10  C   UNL A   1      37.702  32.710  32.768  1.00  0.00     0.047 C 
ATOM     11  C   UNL A   1      39.490  34.276  32.835  1.00  0.00    -0.016 C 
BRANCH   8  12
ATOM     12  N   UNL A   1      38.828  31.359  34.581  1.00  0.00    -0.346 N 
ATOM     13  C   UNL A   1      39.581  30.374  35.182  1.00  0.00     0.254 C 
ATOM     14  O   UNL A   1      39.341  30.092  36.353  1.00  0.00    -0.269 OA
ATOM     15  H   UNL A   1      38.058  31.662  35.116  1.00  0.00     0.164 HD
BRANCH  13  16
ATOM     16  C   UNL A   1      40.603  29.609  34.429  1.00  0.00     0.075 A 
ATOM     17  C   UNL A   1      44.377  29.466  33.992  1.00  0.00     0.044 C 
ATOM     18  C   UNL A   1      42.915  29.172  33.812  1.00  0.00    -0.050 A 
ATOM     19  C   UNL A   1      42.477  28.399  32.732  1.00  0.00     0.006 A 
ATOM     20  C   UNL A   1      41.971  29.693  34.711  1.00  0.00     0.020 A 
ATOM     21  C   UNL A   1      41.114  28.206  32.518  1.00  0.00     0.040 A 
ATOM     22  C   UNL A   1      40.185  28.830  33.348  1.00  0.00     0.135 A 
ATOM     23  F   UNL A   1      38.886  28.700  33.041  1.00  0.00    -0.206 F 
ENDBRANCH  13  16
ENDBRANCH   8  12
ENDBRANCH   4   7
ENDBRANCH   2   3
ENDBRANCH   1   2
BRANCH   1  24
ATOM     24  C   UNL A   1      34.637  32.687  28.680  1.00  0.00     0.118 C 
BRANCH  24  25
ATOM     25  N   UNL A   1      33.938  31.469  28.296  1.00  0.00    -0.352 N 
ATOM     26  C   UNL A   1      34.425  30.220  27.993  1.00  0.00     0.251 C 
ATOM     27  H   UNL A   1      32.959  31.555  28.245  1.00  0.00     0.163 HD
ATOM     28  O   UNL A   1      33.669  29.392  27.493  1.00  0.00    -0.269 OA
BRANCH  26  29
ATOM     29  C   UNL A   1      35.840  29.868  28.252  1.00  0.00     0.039 A 
ATOM     30  C   UNL A   1      36.768  30.000  27.213  1.00  0.00     0.014 A 
ATOM     31  C   UNL A   1      36.248  29.355  29.485  1.00  0.00     0.014 A 
ATOM     32  C   UNL A   1      38.109  29.671  27.427  1.00  0.00     0.010 A 
ATOM     33  C   UNL A   1      37.597  29.090  29.719  1.00  0.00     0.010 A 
ATOM     34  C   UNL A   1      38.541  29.240  28.692  1.00  0.00    -0.014 A 
BRANCH  34  35
ATOM     35  C   UNL A   1      39.972  28.933  28.958  1.00  0.00     0.031 A 
ATOM     36  C   UNL A   1      40.880  29.984  29.537  1.00  0.00     0.074 A 
ATOM     37  C   UNL A   1      40.472  27.730  28.615  1.00  0.00     0.049 A 
ATOM     38  N   UNL A   1      42.168  29.931  29.764  1.00  0.00    -0.248 NA
ATOM     39  C   UNL A   1      40.262  31.274  29.877  1.00  0.00     0.031 C 
ATOM     40  C   UNL A   1      39.705  26.635  28.017  1.00  0.00     0.029 A 
ATOM     41  N   UNL A   1      41.746  27.228  28.712  1.00  0.00    -0.354 N 
ATOM     42  C   UNL A   1      42.518  31.185  30.254  1.00  0.00     0.074 A 
ATOM     43  C   UNL A   1      41.316  31.990  30.244  1.00  0.00     0.031 C 
ATOM     44  C   UNL A   1      40.517  25.583  27.825  1.00  0.00     0.029 A 
ATOM     45  C   UNL A   1      41.869  25.941  28.247  1.00  0.00     0.049 A 
ATOM     46  H   UNL A   1      42.501  27.742  29.079  1.00  0.00     0.167 HD
ATOM     47  C   UNL A   1      43.726  31.620  30.689  1.00  0.00     0.037 A 
ATOM     48  C   UNL A   1      42.948  25.137  28.166  1.00  0.00     0.037 A 
ATOM     49  C   UNL A   1      44.915  30.807  30.719  1.00  0.00     0.049 A 
ATOM     50  C   UNL A   1      44.280  25.642  28.645  1.00  0.00     0.074 A 
ATOM     51  C   UNL A   1      46.170  31.134  31.200  1.00  0.00     0.029 A 
ATOM     52  N   UNL A   1      44.996  29.506  30.244  1.00  0.00    -0.354 N 
ATOM     53  N   UNL A   1      44.583  26.810  29.157  1.00  0.00    -0.248 NA
ATOM     54  C   UNL A   1      45.418  24.717  28.539  1.00  0.00     0.031 C 
ATOM     55  C   UNL A   1      47.023  30.047  30.975  1.00  0.00     0.029 A 
ATOM     56  C   UNL A   1      46.287  29.024  30.397  1.00  0.00     0.049 A 
ATOM     57  H   UNL A   1      44.247  28.999  29.854  1.00  0.00     0.167 HD
ATOM     58  C   UNL A   1      45.938  26.753  29.461  1.00  0.00     0.074 A 
ATOM     59  C   UNL A   1      46.396  25.432  29.079  1.00  0.00     0.031 C 
ATOM     60  C   UNL A   1      46.730  27.705  30.014  1.00  0.00     0.037 A 
BRANCH  47  61
ATOM     61  C   UNL A   1      43.816  33.050  31.153  1.00  0.00     0.058 A 
ATOM     62  C   UNL A   1      44.166  34.091  30.278  1.00  0.00     0.135 A 
ATOM     63  C   UNL A   1      43.559  33.382  32.493  1.00  0.00     0.135 A 
ATOM     64  F   UNL A   1      44.433  33.829  28.989  1.00  0.00    -0.206 F 
ATOM     65  C   UNL A   1      44.313  35.400  30.726  1.00  0.00     0.059 A 
ATOM     66  C   UNL A   1      43.670  34.691  32.956  1.00  0.00     0.059 A 
ATOM     67  F   UNL A   1      43.212  32.428  33.373  1.00  0.00    -0.206 F 
ATOM     68  C   UNL A   1      44.074  35.687  32.070  1.00  0.00     0.060 A 
BRANCH  68  69
ATOM     69  S   UNL A   1      44.316  37.380  32.650  1.00  0.00     0.124 S 
ATOM     70  O   UNL A   1      43.208  37.526  33.589  1.00  0.00    -0.237 OA
ATOM     71  O   UNL A   1      45.647  37.320  33.247  1.00  0.00    -0.237 OA
ATOM     72  O   UNL A   1      44.214  38.174  31.430  1.00  0.00    -0.744 OA
ENDBRANCH  68  69
ENDBRANCH  47  61
BRANCH  48  73
ATOM     73  C   UNL A   1      42.793  23.753  27.647  1.00  0.00     0.058 A 
ATOM     74  C   UNL A   1      42.614  22.677  28.529  1.00  0.00     0.135 A 
ATOM     75  C   UNL A   1      42.768  23.483  26.270  1.00  0.00     0.135 A 
ATOM     76  F   UNL A   1      42.639  22.887  29.855  1.00  0.00    -0.206 F 
ATOM     77  C   UNL A   1      42.412  21.382  28.067  1.00  0.00     0.059 A 
ATOM     78  C   UNL A   1      42.546  22.198  25.782  1.00  0.00     0.059 A 
ATOM     79  F   UNL A   1      42.919  24.481  25.386  1.00  0.00    -0.206 F 
ATOM     80  C   UNL A   1      42.371  21.153  26.690  1.00  0.00     0.060 A 
BRANCH  80  81
ATOM     81  S   UNL A   1      42.019  19.482  26.103  1.00  0.00     0.124 S 
ATOM     82  O   UNL A   1      40.585  19.554  25.853  1.00  0.00    -0.237 OA
ATOM     83  O   UNL A   1      42.870  19.390  24.920  1.00  0.00    -0.237 OA
ATOM     84  O   UNL A   1      42.426  18.641  27.224  1.00  0.00    -0.744 OA
ENDBRANCH  80  81
ENDBRANCH  48  73
BRANCH  60  85
ATOM     85  C   UNL A   1      48.167  27.349  30.271  1.00  0.00     0.058 A 
ATOM     86  C   UNL A   1      49.158  27.518  29.290  1.00  0.00     0.135 A 
ATOM     87  C   UNL A   1      48.569  26.883  31.534  1.00  0.00     0.135 A 
ATOM     88  F   UNL A   1      48.827  27.953  28.064  1.00  0.00    -0.206 F 
ATOM     89  C   UNL A   1      50.492  27.221  29.548  1.00  0.00     0.059 A 
ATOM     90  C   UNL A   1      49.901  26.604  31.821  1.00  0.00     0.059 A 
ATOM     91  F   UNL A   1      47.662  26.712  32.510  1.00  0.00    -0.206 F 
ATOM     92  C   UNL A   1      50.855  26.766  30.818  1.00  0.00     0.060 A 
BRANCH  92  93
ATOM     93  S   UNL A   1      52.596  26.422  31.151  1.00  0.00     0.124 S 
ATOM     94  O   UNL A   1      52.957  27.543  32.012  1.00  0.00    -0.237 OA
ATOM     95  O   UNL A   1      52.539  25.117  31.801  1.00  0.00    -0.237 OA
ATOM     96  O   UNL A   1      53.203  26.427  29.824  1.00  0.00    -0.744 OA
ENDBRANCH  92  93
ENDBRANCH  60  85
ENDBRANCH  34  35
ENDBRANCH  26  29
ENDBRANCH  24  25
ENDBRANCH   1  24
TORSDOF 15
ENDMDL
MODEL 2
REMARK VINA RESULT:      -9.4      5.062     12.055
REMARK SMILES Cc1ccc(F)c(C(=O)N[C@@H]2C=C[C@@H](C(=O)NCCCNC(=O)c3ccc(-c4c5nc(c(-c6c(F)cc(S(=O)(=O)[O-])cc6F)c6ccc([nH]6)c(-c6c(F)cc(S(=O)(=O)[O-])cc6F)c6nc(c(-c7c(F)cc(S(=O)(=O)[O-])cc7F)c7ccc4[nH]7)C=C6)C=C5)cc3)C2)c1
REMARK SMILES IDX 19 1 18 2 17 3 15 4 16 5 14 7 11 8 12 9 90 10 13 11 10 12
REMARK SMILES IDX 8 13 9 14 7 16 1 17 2 18 3 19 91 20 4 21 5 22 6 23 20 24
REMARK SMILES IDX 21 25 22 26 23 28 24 29 25 30 89 31 26 32 88 33 27 34 28 35
REMARK SMILES IDX 29 36 82 37 30 38 87 39 81 40 83 41 31 42 86 43 80 44 79 45
REMARK SMILES IDX 32 47 66 48 45 49 65 50 46 51 49 52 64 53 84 54 47 55 48 56
REMARK SMILES IDX 63 58 85 59 50 60 33 61 34 62 43 63 35 64 36 65 42 66 44 67
REMARK SMILES IDX 37 68 38 69 39 70 40 71 41 72 67 73 68 74 77 75 69 76 70 77
REMARK SMILES IDX 76 78 78 79 71 80 72 81 73 82 74 83 75 84 51 85 52 86 61 87
REMARK SMILES IDX 53 88 54 89 60 90 62 91 55 92 56 93 57 94 58 95 59 96
REMARK H PARENT 17 6 10 15 21 27 83 46 49 57
REMARK Flexibility Score: inf
ROOT
ATOM      1  C   UNL A   1      39.965  22.085  26.232  1.00  0.00     0.042 C 
ENDROOT
BRANCH   1   2
ATOM      2  C   UNL A   1      38.520  22.575  26.251  1.00  0.00     0.117 C 
BRANCH   2   3
ATOM      3  N   UNL A   1      37.878  22.538  24.951  1.00  0.00    -0.356 N 
ATOM      4  C   UNL A   1      36.585  22.360  24.573  1.00  0.00     0.227 C 
ATOM      5  O   UNL A   1      36.327  22.584  23.383  1.00  0.00    -0.274 OA
ATOM      6  H   UNL A   1      38.498  22.665  24.197  1.00  0.00     0.163 HD
BRANCH   4   7
ATOM      7  C   UNL A   1      35.481  21.821  25.495  1.00  0.00     0.103 C 
ATOM      8  C   UNL A   1      33.129  22.546  25.389  1.00  0.00     0.106 C 
ATOM      9  C   UNL A   1      33.303  21.117  24.978  1.00  0.00    -0.006 C 
ATOM     10  C   UNL A   1      34.512  22.914  25.943  1.00  0.00     0.047 C 
ATOM     11  C   UNL A   1      34.588  20.740  24.985  1.00  0.00    -0.016 C 
BRANCH   8  12
ATOM     12  N   UNL A   1      32.027  22.654  26.319  1.00  0.00    -0.346 N 
ATOM     13  C   UNL A   1      31.066  23.627  26.486  1.00  0.00     0.254 C 
ATOM     14  O   UNL A   1      30.132  23.396  27.251  1.00  0.00    -0.269 OA
ATOM     15  H   UNL A   1      31.949  21.896  26.943  1.00  0.00     0.164 HD
BRANCH  13  16
ATOM     16  C   UNL A   1      31.180  24.953  25.833  1.00  0.00     0.075 A 
ATOM     17  C   UNL A   1      31.779  28.593  26.749  1.00  0.00     0.044 C 
ATOM     18  C   UNL A   1      31.489  27.363  25.938  1.00  0.00    -0.050 A 
ATOM     19  C   UNL A   1      31.030  27.476  24.622  1.00  0.00     0.006 A 
ATOM     20  C   UNL A   1      31.652  26.088  26.501  1.00  0.00     0.020 A 
ATOM     21  C   UNL A   1      30.676  26.335  23.905  1.00  0.00     0.040 A 
ATOM     22  C   UNL A   1      30.727  25.085  24.519  1.00  0.00     0.135 A 
ATOM     23  F   UNL A   1      30.278  24.028  23.824  1.00  0.00    -0.206 F 
ENDBRANCH  13  16
ENDBRANCH   8  12
ENDBRANCH   4   7
ENDBRANCH   2   3
ENDBRANCH   1   2
BRANCH   1  24
ATOM     24  C   UNL A   1      40.983  23.047  26.840  1.00  0.00     0.118 C 
BRANCH  24  25
ATOM     25  N   UNL A   1      41.678  23.836  25.833  1.00  0.00    -0.352 N 
ATOM     26  C   UNL A   1      41.947  25.182  25.784  1.00  0.00     0.251 C 
ATOM     27  H   UNL A   1      42.009  23.320  25.062  1.00  0.00     0.163 HD
ATOM     28  O   UNL A   1      42.367  25.668  24.738  1.00  0.00    -0.269 OA
BRANCH  26  29
ATOM     29  C   UNL A   1      41.728  26.049  26.965  1.00  0.00     0.039 A 
ATOM     30  C   UNL A   1      42.592  27.129  27.179  1.00  0.00     0.014 A 
ATOM     31  C   UNL A   1      40.720  25.772  27.892  1.00  0.00     0.014 A 
ATOM     32  C   UNL A   1      42.411  27.960  28.287  1.00  0.00     0.010 A 
ATOM     33  C   UNL A   1      40.499  26.641  28.961  1.00  0.00     0.010 A 
ATOM     34  C   UNL A   1      41.344  27.740  29.174  1.00  0.00    -0.014 A 
BRANCH  34  35
ATOM     35  C   UNL A   1      41.101  28.641  30.332  1.00  0.00     0.031 A 
ATOM     36  C   UNL A   1      41.921  28.505  31.586  1.00  0.00     0.074 A 
ATOM     37  C   UNL A   1      40.096  29.536  30.282  1.00  0.00     0.049 A 
ATOM     38  N   UNL A   1      41.806  29.141  32.724  1.00  0.00    -0.248 NA
ATOM     39  C   UNL A   1      42.995  27.500  31.566  1.00  0.00     0.031 C 
ATOM     40  C   UNL A   1      39.206  29.746  29.138  1.00  0.00     0.029 A 
ATOM     41  N   UNL A   1      39.646  30.432  31.220  1.00  0.00    -0.354 N 
ATOM     42  C   UNL A   1      42.776  28.601  33.561  1.00  0.00     0.074 A 
ATOM     43  C   UNL A   1      43.437  27.552  32.814  1.00  0.00     0.031 C 
ATOM     44  C   UNL A   1      38.335  30.725  29.431  1.00  0.00     0.029 A 
ATOM     45  C   UNL A   1      38.577  31.185  30.796  1.00  0.00     0.049 A 
ATOM     46  H   UNL A   1      40.050  30.525  32.113  1.00  0.00     0.167 HD
ATOM     47  C   UNL A   1      43.098  28.957  34.828  1.00  0.00     0.037 A 
ATOM     48  C   UNL A   1      37.867  32.137  31.434  1.00  0.00     0.037 A 
ATOM     49  C   UNL A   1      42.453  30.017  35.559  1.00  0.00     0.049 A 
ATOM     50  C   UNL A   1      38.235  32.511  32.843  1.00  0.00     0.074 A 
ATOM     51  C   UNL A   1      42.749  30.496  36.823  1.00  0.00     0.029 A 
ATOM     52  N   UNL A   1      41.378  30.760  35.092  1.00  0.00    -0.354 N 
ATOM     53  N   UNL A   1      39.191  32.029  33.601  1.00  0.00    -0.248 NA
ATOM     54  C   UNL A   1      37.431  33.561  33.483  1.00  0.00     0.031 C 
ATOM     55  C   UNL A   1      41.824  31.499  37.139  1.00  0.00     0.029 A 
ATOM     56  C   UNL A   1      40.982  31.678  36.053  1.00  0.00     0.049 A 
ATOM     57  H   UNL A   1      40.958  30.650  34.209  1.00  0.00     0.167 HD
ATOM     58  C   UNL A   1      39.123  32.735  34.795  1.00  0.00     0.074 A 
ATOM     59  C   UNL A   1      38.033  33.682  34.659  1.00  0.00     0.031 C 
ATOM     60  C   UNL A   1      39.896  32.616  35.903  1.00  0.00     0.037 A 
BRANCH  47  61
ATOM     61  C   UNL A   1      44.193  28.174  35.506  1.00  0.00     0.058 A 
ATOM     62  C   UNL A   1      45.544  28.543  35.396  1.00  0.00     0.135 A 
ATOM     63  C   UNL A   1      43.888  27.034  36.266  1.00  0.00     0.135 A 
ATOM     64  F   UNL A   1      45.893  29.618  34.672  1.00  0.00    -0.206 F 
ATOM     65  C   UNL A   1      46.556  27.779  35.968  1.00  0.00     0.059 A 
ATOM     66  C   UNL A   1      44.883  26.272  36.874  1.00  0.00     0.059 A 
ATOM     67  F   UNL A   1      42.612  26.639  36.413  1.00  0.00    -0.206 F 
ATOM     68  C   UNL A   1      46.215  26.638  36.695  1.00  0.00     0.060 A 
BRANCH  68  69
ATOM     69  S   UNL A   1      47.540  25.628  37.390  1.00  0.00     0.124 S 
ATOM     70  O   UNL A   1      46.859  24.352  37.585  1.00  0.00    -0.237 OA
ATOM     71  O   UNL A   1      48.544  25.655  36.331  1.00  0.00    -0.237 OA
ATOM     72  O   UNL A   1      47.903  26.339  38.612  1.00  0.00    -0.744 OA
ENDBRANCH  68  69
ENDBRANCH  47  61
BRANCH  48  73
ATOM     73  C   UNL A   1      36.765  32.831  30.719  1.00  0.00     0.058 A 
ATOM     74  C   UNL A   1      35.427  32.542  31.020  1.00  0.00     0.135 A 
ATOM     75  C   UNL A   1      37.022  33.829  29.765  1.00  0.00     0.135 A 
ATOM     76  F   UNL A   1      35.133  31.590  31.920  1.00  0.00    -0.206 F 
ATOM     77  C   UNL A   1      34.379  33.218  30.405  1.00  0.00     0.059 A 
ATOM     78  C   UNL A   1      35.991  34.534  29.151  1.00  0.00     0.059 A 
ATOM     79  F   UNL A   1      38.287  34.152  29.454  1.00  0.00    -0.206 F 
ATOM     80  C   UNL A   1      34.671  34.219  29.477  1.00  0.00     0.060 A 
BRANCH  80  81
ATOM     81  S   UNL A   1      33.304  35.149  28.751  1.00  0.00     0.124 S 
ATOM     82  O   UNL A   1      34.013  36.213  28.050  1.00  0.00    -0.237 OA
ATOM     83  O   UNL A   1      32.665  34.143  27.909  1.00  0.00    -0.237 OA
ATOM     84  O   UNL A   1      32.528  35.566  29.915  1.00  0.00    -0.744 OA
ENDBRANCH  80  81
ENDBRANCH  48  73
BRANCH  60  85
ATOM     85  C   UNL A   1      39.619  33.551  37.047  1.00  0.00     0.058 A 
ATOM     86  C   UNL A   1      38.774  33.190  38.108  1.00  0.00     0.135 A 
ATOM     87  C   UNL A   1      40.249  34.805  37.108  1.00  0.00     0.135 A 
ATOM     88  F   UNL A   1      38.141  32.007  38.096  1.00  0.00    -0.206 F 
ATOM     89  C   UNL A   1      38.551  34.047  39.182  1.00  0.00     0.059 A 
ATOM     90  C   UNL A   1      40.060  35.666  38.184  1.00  0.00     0.059 A 
ATOM     91  F   UNL A   1      41.073  35.195  36.123  1.00  0.00    -0.206 F 
ATOM     92  C   UNL A   1      39.201  35.282  39.212  1.00  0.00     0.060 A 
BRANCH  92  93
ATOM     93  S   UNL A   1      38.934  36.368  40.630  1.00  0.00     0.124 S 
ATOM     94  O   UNL A   1      38.595  37.627  39.977  1.00  0.00    -0.237 OA
ATOM     95  O   UNL A   1      37.842  35.703  41.334  1.00  0.00    -0.237 OA
ATOM     96  O   UNL A   1      40.220  36.345  41.321  1.00  0.00    -0.744 OA
ENDBRANCH  92  93
ENDBRANCH  60  85
ENDBRANCH  34  35
ENDBRANCH  26  29
ENDBRANCH  24  25
ENDBRANCH   1  24
TORSDOF 15
ENDMDL
MODEL 3
REMARK VINA RESULT:      -9.4      4.784     11.531
REMARK SMILES Cc1ccc(F)c(C(=O)N[C@@H]2C=C[C@@H](C(=O)NCCCNC(=O)c3ccc(-c4c5nc(c(-c6c(F)cc(S(=O)(=O)[O-])cc6F)c6ccc([nH]6)c(-c6c(F)cc(S(=O)(=O)[O-])cc6F)c6nc(c(-c7c(F)cc(S(=O)(=O)[O-])cc7F)c7ccc4[nH]7)C=C6)C=C5)cc3)C2)c1
REMARK SMILES IDX 19 1 18 2 17 3 15 4 16 5 14 7 11 8 12 9 90 10 13 11 10 12
REMARK SMILES IDX 8 13 9 14 7 16 1 17 2 18 3 19 91 20 4 21 5 22 6 23 20 24
REMARK SMILES IDX 21 25 22 26 23 28 24 29 25 30 89 31 26 32 88 33 27 34 28 35
REMARK SMILES IDX 29 36 82 37 30 38 87 39 81 40 83 41 31 42 86 43 80 44 79 45
REMARK SMILES IDX 32 47 66 48 45 49 65 50 46 51 49 52 64 53 84 54 47 55 48 56
REMARK SMILES IDX 63 58 85 59 50 60 33 61 34 62 43 63 35 64 36 65 42 66 44 67
REMARK SMILES IDX 37 68 38 69 39 70 40 71 41 72 67 73 68 74 77 75 69 76 70 77
REMARK SMILES IDX 76 78 78 79 71 80 72 81 73 82 74 83 75 84 51 85 52 86 61 87
REMARK SMILES IDX 53 88 54 89 60 90 62 91 55 92 56 93 57 94 58 95 59 96
REMARK H PARENT 17 6 10 15 21 27 83 46 49 57
REMARK Flexibility Score: inf
ROOT
ATOM      1  C   UNL A   1      31.476  32.362  26.635  1.00  0.00     0.042 C 
ENDROOT
BRANCH   1   2
ATOM      2  C   UNL A   1      31.539  30.866  26.341  1.00  0.00     0.117 C 
BRANCH   2   3
ATOM      3  N   UNL A   1      32.659  30.197  26.976  1.00  0.00    -0.356 N 
ATOM      4  C   UNL A   1      33.275  29.011  26.733  1.00  0.00     0.227 C 
ATOM      5  O   UNL A   1      34.341  28.815  27.329  1.00  0.00    -0.274 OA
ATOM      6  H   UNL A   1      33.048  30.700  27.728  1.00  0.00     0.163 HD
BRANCH   4   7
ATOM      7  C   UNL A   1      32.686  27.896  25.856  1.00  0.00     0.103 C 
ATOM      8  C   UNL A   1      34.044  26.194  24.705  1.00  0.00     0.106 C 
ATOM      9  C   UNL A   1      33.199  25.606  25.793  1.00  0.00    -0.006 C 
ATOM     10  C   UNL A   1      33.524  27.633  24.606  1.00  0.00     0.047 C 
ATOM     11  C   UNL A   1      32.502  26.539  26.453  1.00  0.00    -0.016 C 
BRANCH   8  12
ATOM     12  N   UNL A   1      33.919  25.393  23.507  1.00  0.00    -0.346 N 
ATOM     13  C   UNL A   1      32.943  25.352  22.535  1.00  0.00     0.254 C 
ATOM     14  O   UNL A   1      33.160  24.690  21.522  1.00  0.00    -0.269 OA
ATOM     15  H   UNL A   1      34.665  24.767  23.359  1.00  0.00     0.164 HD
BRANCH  13  16
ATOM     16  C   UNL A   1      31.631  26.013  22.722  1.00  0.00     0.075 A 
ATOM     17  C   UNL A   1      30.034  29.443  22.346  1.00  0.00     0.044 C 
ATOM     18  C   UNL A   1      30.210  27.987  22.671  1.00  0.00    -0.050 A 
ATOM     19  C   UNL A   1      29.248  27.309  23.425  1.00  0.00     0.006 A 
ATOM     20  C   UNL A   1      31.356  27.298  22.242  1.00  0.00     0.020 A 
ATOM     21  C   UNL A   1      29.459  25.984  23.801  1.00  0.00     0.040 A 
ATOM     22  C   UNL A   1      30.656  25.352  23.471  1.00  0.00     0.135 A 
ATOM     23  F   UNL A   1      30.858  24.112  23.943  1.00  0.00    -0.206 F 
ENDBRANCH  13  16
ENDBRANCH   8  12
ENDBRANCH   4   7
ENDBRANCH   2   3
ENDBRANCH   1   2
BRANCH   1  24
ATOM     24  C   UNL A   1      32.722  32.944  27.301  1.00  0.00     0.118 C 
BRANCH  24  25
ATOM     25  N   UNL A   1      32.530  34.318  27.741  1.00  0.00    -0.352 N 
ATOM     26  C   UNL A   1      33.103  35.009  28.782  1.00  0.00     0.251 C 
ATOM     27  H   UNL A   1      31.886  34.836  27.206  1.00  0.00     0.163 HD
ATOM     28  O   UNL A   1      32.640  36.101  29.098  1.00  0.00    -0.269 OA
BRANCH  26  29
ATOM     29  C   UNL A   1      34.256  34.452  29.526  1.00  0.00     0.039 A 
ATOM     30  C   UNL A   1      34.027  33.839  30.763  1.00  0.00     0.014 A 
ATOM     31  C   UNL A   1      35.561  34.579  29.046  1.00  0.00     0.014 A 
ATOM     32  C   UNL A   1      35.097  33.308  31.489  1.00  0.00     0.010 A 
ATOM     33  C   UNL A   1      36.620  33.990  29.739  1.00  0.00     0.010 A 
ATOM     34  C   UNL A   1      36.400  33.354  30.970  1.00  0.00    -0.014 A 
BRANCH  34  35
ATOM     35  C   UNL A   1      37.547  32.751  31.700  1.00  0.00     0.031 A 
ATOM     36  C   UNL A   1      38.276  31.567  31.124  1.00  0.00     0.074 A 
ATOM     37  C   UNL A   1      37.889  33.224  32.914  1.00  0.00     0.049 A 
ATOM     38  N   UNL A   1      39.244  30.857  31.646  1.00  0.00    -0.248 NA
ATOM     39  C   UNL A   1      37.839  31.103  29.799  1.00  0.00     0.031 C 
ATOM     40  C   UNL A   1      37.242  34.346  33.597  1.00  0.00     0.029 A 
ATOM     41  N   UNL A   1      38.861  32.816  33.794  1.00  0.00    -0.354 N 
ATOM     42  C   UNL A   1      39.517  29.853  30.725  1.00  0.00     0.074 A 
ATOM     43  C   UNL A   1      38.580  30.017  29.635  1.00  0.00     0.031 C 
ATOM     44  C   UNL A   1      37.850  34.553  34.776  1.00  0.00     0.029 A 
ATOM     45  C   UNL A   1      38.902  33.555  34.952  1.00  0.00     0.049 A 
ATOM     46  H   UNL A   1      39.470  32.064  33.612  1.00  0.00     0.167 HD
ATOM     47  C   UNL A   1      40.473  28.892  30.774  1.00  0.00     0.037 A 
ATOM     48  C   UNL A   1      39.695  33.443  36.036  1.00  0.00     0.037 A 
ATOM     49  C   UNL A   1      41.419  28.747  31.850  1.00  0.00     0.049 A 
ATOM     50  C   UNL A   1      40.742  32.365  36.074  1.00  0.00     0.074 A 
ATOM     51  C   UNL A   1      42.464  27.848  31.963  1.00  0.00     0.029 A 
ATOM     52  N   UNL A   1      41.431  29.519  33.002  1.00  0.00    -0.354 N 
ATOM     53  N   UNL A   1      41.024  31.458  35.170  1.00  0.00    -0.248 NA
ATOM     54  C   UNL A   1      41.582  32.297  37.279  1.00  0.00     0.031 C 
ATOM     55  C   UNL A   1      43.081  28.046  33.204  1.00  0.00     0.029 A 
ATOM     56  C   UNL A   1      42.450  29.101  33.844  1.00  0.00     0.049 A 
ATOM     57  H   UNL A   1      40.806  30.256  33.195  1.00  0.00     0.167 HD
ATOM     58  C   UNL A   1      42.092  30.729  35.682  1.00  0.00     0.074 A 
ATOM     59  C   UNL A   1      42.408  31.305  36.974  1.00  0.00     0.031 C 
ATOM     60  C   UNL A   1      42.755  29.684  35.128  1.00  0.00     0.037 A 
BRANCH  47  61
ATOM     61  C   UNL A   1      40.525  27.915  29.629  1.00  0.00     0.058 A 
ATOM     62  C   UNL A   1      39.632  26.834  29.536  1.00  0.00     0.135 A 
ATOM     63  C   UNL A   1      41.486  28.055  28.616  1.00  0.00     0.135 A 
ATOM     64  F   UNL A   1      38.699  26.646  30.483  1.00  0.00    -0.206 F 
ATOM     65  C   UNL A   1      39.727  25.896  28.513  1.00  0.00     0.059 A 
ATOM     66  C   UNL A   1      41.580  27.145  27.565  1.00  0.00     0.059 A 
ATOM     67  F   UNL A   1      42.361  29.074  28.647  1.00  0.00    -0.206 F 
ATOM     68  C   UNL A   1      40.713  26.055  27.538  1.00  0.00     0.060 A 
BRANCH  68  69
ATOM     69  S   UNL A   1      40.857  24.805  26.244  1.00  0.00     0.124 S 
ATOM     70  O   UNL A   1      41.189  25.627  25.084  1.00  0.00    -0.237 OA
ATOM     71  O   UNL A   1      41.934  23.956  26.746  1.00  0.00    -0.237 OA
ATOM     72  O   UNL A   1      39.535  24.188  26.219  1.00  0.00    -0.744 OA
ENDBRANCH  68  69
ENDBRANCH  47  61
BRANCH  48  73
ATOM     73  C   UNL A   1      39.551  34.412  37.152  1.00  0.00     0.058 A 
ATOM     74  C   UNL A   1      38.842  34.066  38.311  1.00  0.00     0.135 A 
ATOM     75  C   UNL A   1      40.158  35.677  37.110  1.00  0.00     0.135 A 
ATOM     76  F   UNL A   1      38.238  32.870  38.394  1.00  0.00    -0.206 F 
ATOM     77  C   UNL A   1      38.741  34.934  39.391  1.00  0.00     0.059 A 
ATOM     78  C   UNL A   1      40.090  36.557  38.185  1.00  0.00     0.059 A 
ATOM     79  F   UNL A   1      40.860  36.050  36.028  1.00  0.00    -0.206 F 
ATOM     80  C   UNL A   1      39.376  36.176  39.323  1.00  0.00     0.060 A 
BRANCH  80  81
ATOM     81  S   UNL A   1      39.312  37.259  40.766  1.00  0.00     0.124 S 
ATOM     82  O   UNL A   1      38.659  36.401  41.748  1.00  0.00    -0.237 OA
ATOM     83  O   UNL A   1      40.725  37.539  41.001  1.00  0.00    -0.237 OA
ATOM     84  O   UNL A   1      38.526  38.396  40.297  1.00  0.00    -0.744 OA
ENDBRANCH  80  81
ENDBRANCH  48  73
BRANCH  60  85
ATOM     85  C   UNL A   1      43.911  29.110  35.898  1.00  0.00     0.058 A 
ATOM     86  C   UNL A   1      43.755  28.007  36.753  1.00  0.00     0.135 A 
ATOM     87  C   UNL A   1      45.204  29.637  35.738  1.00  0.00     0.135 A 
ATOM     88  F   UNL A   1      42.541  27.470  36.948  1.00  0.00    -0.206 F 
ATOM     89  C   UNL A   1      44.837  27.458  37.435  1.00  0.00     0.059 A 
ATOM     90  C   UNL A   1      46.303  29.088  36.390  1.00  0.00     0.059 A 
ATOM     91  F   UNL A   1      45.409  30.686  34.926  1.00  0.00    -0.206 F 
ATOM     92  C   UNL A   1      46.108  28.004  37.245  1.00  0.00     0.060 A 
BRANCH  92  93
ATOM     93  S   UNL A   1      47.510  27.258  38.104  1.00  0.00     0.124 S 
ATOM     94  O   UNL A   1      47.356  25.851  37.751  1.00  0.00    -0.237 OA
ATOM     95  O   UNL A   1      48.649  27.942  37.500  1.00  0.00    -0.237 OA
ATOM     96  O   UNL A   1      47.263  27.585  39.504  1.00  0.00    -0.744 OA
ENDBRANCH  92  93
ENDBRANCH  60  85
ENDBRANCH  34  35
ENDBRANCH  26  29
ENDBRANCH  24  25
ENDBRANCH   1  24
TORSDOF 15
ENDMDL
