MODEL 1
REMARK VINA RESULT:      -9.4      0.000      0.000
REMARK SMILES C[NH+](C)CCSCC(C)(C)C(=O)NCCCNC(=O)c1ccc(-c2c3nc(c(-c4c(F)cc(S(=O)(=O)[O-])cc4F)c4ccc([nH]4)c(-c4c(F)cc(S(=O)(=O)[O-])cc4F)c4nc(c(-c5c(F)cc(S(=O)(=O)[O-])cc5F)c5ccc2[nH]5)C=C4)C=C3)cc1
REMARK SMILES IDX 14 1 13 2 11 3 12 4 8 6 9 7 10 8 7 9 6 10 5 11 4 12 2 13
REMARK SMILES IDX 1 14 3 15 15 17 16 18 17 19 18 20 19 22 20 23 21 24 85 25
REMARK SMILES IDX 22 26 84 27 23 28 24 29 25 30 78 31 26 32 83 33 77 34 79 35
REMARK SMILES IDX 27 36 82 37 76 38 75 39 28 41 62 42 41 43 61 44 42 45 45 46
REMARK SMILES IDX 60 47 80 48 43 49 44 50 59 52 81 53 46 54 29 55 30 56 39 57
REMARK SMILES IDX 31 58 32 59 38 60 40 61 33 62 34 63 35 64 36 65 37 66 63 67
REMARK SMILES IDX 64 68 73 69 65 70 66 71 72 72 74 73 67 74 68 75 69 76 70 77
REMARK SMILES IDX 71 78 47 79 48 80 57 81 49 82 50 83 56 84 58 85 51 86 52 87
REMARK SMILES IDX 53 88 54 89 55 90
REMARK H PARENT 13 5 2 16 17 21 79 40 45 51
REMARK Flexibility Score: inf
ROOT
ATOM      1  C   UNL A   1      31.541  27.833  25.959  1.00  0.00     0.117 C 
ENDROOT
BRANCH   1   2
ATOM      2  N   UNL A   1      32.546  27.879  24.908  1.00  0.00    -0.356 N 
ATOM      3  C   UNL A   1      33.197  26.913  24.203  1.00  0.00     0.226 C 
ATOM      4  O   UNL A   1      34.044  27.312  23.399  1.00  0.00    -0.274 OA
ATOM      5  H   UNL A   1      32.808  28.794  24.655  1.00  0.00     0.163 HD
BRANCH   3   6
ATOM      6  C   UNL A   1      32.918  25.418  24.422  1.00  0.00     0.053 C 
ATOM      7  C   UNL A   1      31.504  25.067  23.975  1.00  0.00     0.022 C 
ATOM      8  C   UNL A   1      33.087  25.103  25.924  1.00  0.00     0.022 C 
BRANCH   6   9
ATOM      9  C   UNL A   1      33.979  24.545  23.672  1.00  0.00     0.086 C 
BRANCH   9  10
ATOM     10  S   UNL A   1      35.486  23.834  24.461  1.00  0.00    -0.155 SA
BRANCH  10  11
ATOM     11  C   UNL A   1      35.384  22.011  24.311  1.00  0.00     0.131 C 
BRANCH  11  12
ATOM     12  C   UNL A   1      34.133  21.246  24.804  1.00  0.00     0.272 C 
BRANCH  12  13
ATOM     13  N   UNL A   1      32.771  21.646  24.437  1.00  0.00    -0.339 N 
ATOM     14  C   UNL A   1      32.310  21.210  23.135  1.00  0.00     0.332 C 
ATOM     15  C   UNL A   1      31.775  21.577  25.494  1.00  0.00     0.332 C 
ATOM     16  H   UNL A   1      32.893  22.650  24.309  1.00  0.00     0.347 HD
ENDBRANCH  12  13
ENDBRANCH  11  12
ENDBRANCH  10  11
ENDBRANCH   9  10
ENDBRANCH   6   9
ENDBRANCH   3   6
ENDBRANCH   1   2
BRANCH   1  17
ATOM     17  C   UNL A   1      32.066  28.337  27.291  1.00  0.00     0.042 C 
BRANCH  17  18
ATOM     18  C   UNL A   1      33.475  28.897  27.214  1.00  0.00     0.118 C 
BRANCH  18  19
ATOM     19  N   UNL A   1      33.563  30.267  27.708  1.00  0.00    -0.352 N 
ATOM     20  C   UNL A   1      34.579  30.895  28.395  1.00  0.00     0.251 C 
ATOM     21  H   UNL A   1      32.776  30.828  27.524  1.00  0.00     0.163 HD
ATOM     22  O   UNL A   1      34.396  31.989  28.900  1.00  0.00    -0.269 OA
BRANCH  20  23
ATOM     23  C   UNL A   1      35.879  30.204  28.543  1.00  0.00     0.039 A 
ATOM     24  C   UNL A   1      36.767  30.185  27.465  1.00  0.00     0.014 A 
ATOM     25  C   UNL A   1      36.240  29.635  29.765  1.00  0.00     0.014 A 
ATOM     26  C   UNL A   1      38.060  29.695  27.652  1.00  0.00     0.010 A 
ATOM     27  C   UNL A   1      37.554  29.244  29.976  1.00  0.00     0.010 A 
ATOM     28  C   UNL A   1      38.484  29.283  28.926  1.00  0.00    -0.014 A 
BRANCH  28  29
ATOM     29  C   UNL A   1      39.898  28.924  29.204  1.00  0.00     0.031 A 
ATOM     30  C   UNL A   1      40.849  29.969  29.722  1.00  0.00     0.074 A 
ATOM     31  C   UNL A   1      40.345  27.694  28.878  1.00  0.00     0.049 A 
ATOM     32  N   UNL A   1      42.143  29.890  29.891  1.00  0.00    -0.248 NA
ATOM     33  C   UNL A   1      40.280  31.285  30.060  1.00  0.00     0.031 C 
ATOM     34  C   UNL A   1      39.531  26.618  28.302  1.00  0.00     0.029 A 
ATOM     35  N   UNL A   1      41.602  27.144  28.958  1.00  0.00    -0.354 N 
ATOM     36  C   UNL A   1      42.545  31.148  30.324  1.00  0.00     0.074 A 
ATOM     37  C   UNL A   1      41.366  31.984  30.357  1.00  0.00     0.031 C 
ATOM     38  C   UNL A   1      40.305  25.541  28.090  1.00  0.00     0.029 A 
ATOM     39  C   UNL A   1      41.677  25.859  28.470  1.00  0.00     0.049 A 
ATOM     40  H   UNL A   1      42.376  27.625  29.328  1.00  0.00     0.167 HD
ATOM     41  C   UNL A   1      43.783  31.560  30.679  1.00  0.00     0.037 A 
ATOM     42  C   UNL A   1      42.735  25.038  28.321  1.00  0.00     0.037 A 
ATOM     43  C   UNL A   1      44.939  30.704  30.701  1.00  0.00     0.049 A 
ATOM     44  C   UNL A   1      44.098  25.522  28.739  1.00  0.00     0.074 A 
ATOM     45  C   UNL A   1      46.209  30.992  31.167  1.00  0.00     0.029 A 
ATOM     46  N   UNL A   1      44.968  29.399  30.235  1.00  0.00    -0.354 N 
ATOM     47  N   UNL A   1      44.438  26.681  29.251  1.00  0.00    -0.248 NA
ATOM     48  C   UNL A   1      45.222  24.592  28.557  1.00  0.00     0.031 C 
ATOM     49  C   UNL A   1      47.020  29.878  30.934  1.00  0.00     0.029 A 
ATOM     50  C   UNL A   1      46.245  28.881  30.364  1.00  0.00     0.049 A 
ATOM     51  H   UNL A   1      44.195  28.913  29.866  1.00  0.00     0.167 HD
ATOM     52  C   UNL A   1      45.810  26.614  29.462  1.00  0.00     0.074 A 
ATOM     53  C   UNL A   1      46.235  25.294  29.045  1.00  0.00     0.031 C 
ATOM     54  C   UNL A   1      46.647  27.563  29.949  1.00  0.00     0.037 A 
BRANCH  41  55
ATOM     55  C   UNL A   1      43.966  32.990  31.097  1.00  0.00     0.058 A 
ATOM     56  C   UNL A   1      44.255  33.998  30.163  1.00  0.00     0.135 A 
ATOM     57  C   UNL A   1      43.752  33.373  32.431  1.00  0.00     0.135 A 
ATOM     58  F   UNL A   1      44.486  33.685  28.879  1.00  0.00    -0.206 F 
ATOM     59  C   UNL A   1      44.323  35.335  30.537  1.00  0.00     0.059 A 
ATOM     60  C   UNL A   1      43.793  34.707  32.824  1.00  0.00     0.059 A 
ATOM     61  F   UNL A   1      43.481  32.446  33.363  1.00  0.00    -0.206 F 
ATOM     62  C   UNL A   1      44.081  35.681  31.869  1.00  0.00     0.060 A 
BRANCH  62  63
ATOM     63  S   UNL A   1      44.110  37.428  32.323  1.00  0.00     0.124 S 
ATOM     64  O   UNL A   1      43.103  37.472  33.378  1.00  0.00    -0.237 OA
ATOM     65  O   UNL A   1      45.492  37.613  32.757  1.00  0.00    -0.237 OA
ATOM     66  O   UNL A   1      43.751  38.109  31.083  1.00  0.00    -0.744 OA
ENDBRANCH  62  63
ENDBRANCH  41  55
BRANCH  42  67
ATOM     67  C   UNL A   1      42.564  23.683  27.732  1.00  0.00     0.058 A 
ATOM     68  C   UNL A   1      42.362  22.559  28.547  1.00  0.00     0.135 A 
ATOM     69  C   UNL A   1      42.632  23.478  26.344  1.00  0.00     0.135 A 
ATOM     70  F   UNL A   1      42.294  22.702  29.879  1.00  0.00    -0.206 F 
ATOM     71  C   UNL A   1      42.267  21.277  28.014  1.00  0.00     0.059 A 
ATOM     72  C   UNL A   1      42.514  22.210  25.785  1.00  0.00     0.059 A 
ATOM     73  F   UNL A   1      42.805  24.521  25.518  1.00  0.00    -0.206 F 
ATOM     74  C   UNL A   1      42.351  21.113  26.629  1.00  0.00     0.060 A 
BRANCH  74  75
ATOM     75  S   UNL A   1      42.220  19.448  25.942  1.00  0.00     0.124 S 
ATOM     76  O   UNL A   1      40.784  19.337  25.714  1.00  0.00    -0.237 OA
ATOM     77  O   UNL A   1      43.053  19.541  24.747  1.00  0.00    -0.237 OA
ATOM     78  O   UNL A   1      42.759  18.606  27.006  1.00  0.00    -0.744 OA
ENDBRANCH  74  75
ENDBRANCH  42  67
BRANCH  54  79
ATOM     79  C   UNL A   1      48.102  27.211  30.068  1.00  0.00     0.058 A 
ATOM     80  C   UNL A   1      48.986  27.401  28.996  1.00  0.00     0.135 A 
ATOM     81  C   UNL A   1      48.628  26.750  31.284  1.00  0.00     0.135 A 
ATOM     82  F   UNL A   1      48.528  27.831  27.809  1.00  0.00    -0.206 F 
ATOM     83  C   UNL A   1      50.345  27.138  29.123  1.00  0.00     0.059 A 
ATOM     84  C   UNL A   1      49.988  26.505  31.442  1.00  0.00     0.059 A 
ATOM     85  F   UNL A   1      47.822  26.560  32.342  1.00  0.00    -0.206 F 
ATOM     86  C   UNL A   1      50.837  26.696  30.353  1.00  0.00     0.060 A 
BRANCH  86  87
ATOM     87  S   UNL A   1      52.612  26.414  30.521  1.00  0.00     0.124 S 
ATOM     88  O   UNL A   1      53.046  27.647  31.168  1.00  0.00    -0.237 OA
ATOM     89  O   UNL A   1      52.661  25.213  31.348  1.00  0.00    -0.237 OA
ATOM     90  O   UNL A   1      53.060  26.238  29.143  1.00  0.00    -0.744 OA
ENDBRANCH  86  87
ENDBRANCH  54  79
ENDBRANCH  28  29
ENDBRANCH  20  23
ENDBRANCH  18  19
ENDBRANCH  17  18
ENDBRANCH   1  17
TORSDOF 18
ENDMDL
MODEL 2
REMARK VINA RESULT:      -9.3      5.092     10.848
REMARK SMILES C[NH+](C)CCSCC(C)(C)C(=O)NCCCNC(=O)c1ccc(-c2c3nc(c(-c4c(F)cc(S(=O)(=O)[O-])cc4F)c4ccc([nH]4)c(-c4c(F)cc(S(=O)(=O)[O-])cc4F)c4nc(c(-c5c(F)cc(S(=O)(=O)[O-])cc5F)c5ccc2[nH]5)C=C4)C=C3)cc1
REMARK SMILES IDX 14 1 13 2 11 3 12 4 8 6 9 7 10 8 7 9 6 10 5 11 4 12 2 13
REMARK SMILES IDX 1 14 3 15 15 17 16 18 17 19 18 20 19 22 20 23 21 24 85 25
REMARK SMILES IDX 22 26 84 27 23 28 24 29 25 30 78 31 26 32 83 33 77 34 79 35
REMARK SMILES IDX 27 36 82 37 76 38 75 39 28 41 62 42 41 43 61 44 42 45 45 46
REMARK SMILES IDX 60 47 80 48 43 49 44 50 59 52 81 53 46 54 29 55 30 56 39 57
REMARK SMILES IDX 31 58 32 59 38 60 40 61 33 62 34 63 35 64 36 65 37 66 63 67
REMARK SMILES IDX 64 68 73 69 65 70 66 71 72 72 74 73 67 74 68 75 69 76 70 77
REMARK SMILES IDX 71 78 47 79 48 80 57 81 49 82 50 83 56 84 58 85 51 86 52 87
REMARK SMILES IDX 53 88 54 89 55 90
REMARK H PARENT 13 5 2 16 17 21 79 40 45 51
REMARK Flexibility Score: inf
ROOT
ATOM      1  C   UNL A   1      36.950  21.965  25.590  1.00  0.00     0.117 C 
ENDROOT
BRANCH   1   2
ATOM      2  N   UNL A   1      35.916  21.961  26.614  1.00  0.00    -0.356 N 
ATOM      3  C   UNL A   1      34.586  21.670  26.589  1.00  0.00     0.226 C 
ATOM      4  O   UNL A   1      33.982  21.821  27.654  1.00  0.00    -0.274 OA
ATOM      5  H   UNL A   1      36.245  22.222  27.505  1.00  0.00     0.163 HD
BRANCH   3   6
ATOM      6  C   UNL A   1      33.877  21.215  25.304  1.00  0.00     0.053 C 
ATOM      7  C   UNL A   1      32.406  20.930  25.578  1.00  0.00     0.022 C 
ATOM      8  C   UNL A   1      34.572  19.936  24.788  1.00  0.00     0.022 C 
BRANCH   6   9
ATOM      9  C   UNL A   1      34.042  22.287  24.175  1.00  0.00     0.086 C 
BRANCH   9  10
ATOM     10  S   UNL A   1      32.710  23.438  23.630  1.00  0.00    -0.155 SA
BRANCH  10  11
ATOM     11  C   UNL A   1      33.322  24.338  22.156  1.00  0.00     0.131 C 
BRANCH  11  12
ATOM     12  C   UNL A   1      32.976  25.831  21.941  1.00  0.00     0.272 C 
BRANCH  12  13
ATOM     13  N   UNL A   1      32.603  26.718  23.047  1.00  0.00    -0.339 N 
ATOM     14  C   UNL A   1      33.662  27.055  23.976  1.00  0.00     0.332 C 
ATOM     15  C   UNL A   1      31.707  27.815  22.716  1.00  0.00     0.332 C 
ATOM     16  H   UNL A   1      32.007  26.100  23.597  1.00  0.00     0.347 HD
ENDBRANCH  12  13
ENDBRANCH  11  12
ENDBRANCH  10  11
ENDBRANCH   9  10
ENDBRANCH   6   9
ENDBRANCH   3   6
ENDBRANCH   1   2
BRANCH   1  17
ATOM     17  C   UNL A   1      37.424  23.365  25.244  1.00  0.00     0.042 C 
BRANCH  17  18
ATOM     18  C   UNL A   1      38.212  24.031  26.359  1.00  0.00     0.118 C 
BRANCH  18  19
ATOM     19  N   UNL A   1      39.639  23.740  26.288  1.00  0.00    -0.352 N 
ATOM     20  C   UNL A   1      40.713  24.473  26.745  1.00  0.00     0.251 C 
ATOM     21  H   UNL A   1      39.872  22.891  25.848  1.00  0.00     0.163 HD
ATOM     22  O   UNL A   1      41.849  24.167  26.423  1.00  0.00    -0.269 OA
BRANCH  20  23
ATOM     23  C   UNL A   1      40.465  25.657  27.596  1.00  0.00     0.039 A 
ATOM     24  C   UNL A   1      39.498  25.582  28.601  1.00  0.00     0.014 A 
ATOM     25  C   UNL A   1      41.232  26.813  27.437  1.00  0.00     0.014 A 
ATOM     26  C   UNL A   1      39.384  26.627  29.519  1.00  0.00     0.010 A 
ATOM     27  C   UNL A   1      41.187  27.802  28.410  1.00  0.00     0.010 A 
ATOM     28  C   UNL A   1      40.273  27.714  29.470  1.00  0.00    -0.014 A 
BRANCH  28  29
ATOM     29  C   UNL A   1      40.299  28.754  30.530  1.00  0.00     0.031 A 
ATOM     30  C   UNL A   1      41.196  28.584  31.726  1.00  0.00     0.074 A 
ATOM     31  C   UNL A   1      39.430  29.784  30.468  1.00  0.00     0.049 A 
ATOM     32  N   UNL A   1      41.258  29.304  32.815  1.00  0.00    -0.248 NA
ATOM     33  C   UNL A   1      42.119  27.436  31.712  1.00  0.00     0.031 C 
ATOM     34  C   UNL A   1      38.461  30.017  29.392  1.00  0.00     0.029 A 
ATOM     35  N   UNL A   1      39.200  30.819  31.342  1.00  0.00    -0.354 N 
ATOM     36  C   UNL A   1      42.200  28.681  33.627  1.00  0.00     0.074 A 
ATOM     37  C   UNL A   1      42.657  27.504  32.922  1.00  0.00     0.031 C 
ATOM     38  C   UNL A   1      37.751  31.124  29.666  1.00  0.00     0.029 A 
ATOM     39  C   UNL A   1      38.178  31.656  30.954  1.00  0.00     0.049 A 
ATOM     40  H   UNL A   1      39.716  30.950  32.169  1.00  0.00     0.167 HD
ATOM     41  C   UNL A   1      42.653  29.069  34.840  1.00  0.00     0.037 A 
ATOM     42  C   UNL A   1      37.628  32.717  31.578  1.00  0.00     0.037 A 
ATOM     43  C   UNL A   1      42.236  30.274  35.506  1.00  0.00     0.049 A 
ATOM     44  C   UNL A   1      38.165  33.131  32.922  1.00  0.00     0.074 A 
ATOM     45  C   UNL A   1      42.729  30.821  36.677  1.00  0.00     0.029 A 
ATOM     46  N   UNL A   1      41.226  31.114  35.065  1.00  0.00    -0.354 N 
ATOM     47  N   UNL A   1      39.134  32.592  33.622  1.00  0.00    -0.248 NA
ATOM     48  C   UNL A   1      37.534  34.293  33.564  1.00  0.00     0.031 C 
ATOM     49  C   UNL A   1      41.983  31.964  36.972  1.00  0.00     0.029 A 
ATOM     50  C   UNL A   1      41.053  32.154  35.962  1.00  0.00     0.049 A 
ATOM     51  H   UNL A   1      40.708  30.989  34.236  1.00  0.00     0.167 HD
ATOM     52  C   UNL A   1      39.236  33.355  34.779  1.00  0.00     0.074 A 
ATOM     53  C   UNL A   1      38.247  34.408  34.676  1.00  0.00     0.031 C 
ATOM     54  C   UNL A   1      40.067  33.195  35.838  1.00  0.00     0.037 A 
BRANCH  41  55
ATOM     55  C   UNL A   1      43.668  28.206  35.531  1.00  0.00     0.058 A 
ATOM     56  C   UNL A   1      43.287  27.200  36.433  1.00  0.00     0.135 A 
ATOM     57  C   UNL A   1      45.031  28.320  35.213  1.00  0.00     0.135 A 
ATOM     58  F   UNL A   1      42.000  27.059  36.785  1.00  0.00    -0.206 F 
ATOM     59  C   UNL A   1      44.221  26.336  36.993  1.00  0.00     0.059 A 
ATOM     60  C   UNL A   1      45.981  27.452  35.744  1.00  0.00     0.059 A 
ATOM     61  F   UNL A   1      45.448  29.271  34.362  1.00  0.00    -0.206 F 
ATOM     62  C   UNL A   1      45.565  26.464  36.634  1.00  0.00     0.060 A 
BRANCH  62  63
ATOM     63  S   UNL A   1      46.754  25.292  37.322  1.00  0.00     0.124 S 
ATOM     64  O   UNL A   1      47.038  24.451  36.163  1.00  0.00    -0.237 OA
ATOM     65  O   UNL A   1      47.840  26.168  37.751  1.00  0.00    -0.237 OA
ATOM     66  O   UNL A   1      46.012  24.646  38.399  1.00  0.00    -0.744 OA
ENDBRANCH  62  63
ENDBRANCH  41  55
BRANCH  42  67
ATOM     67  C   UNL A   1      36.494  33.454  30.959  1.00  0.00     0.058 A 
ATOM     68  C   UNL A   1      35.189  33.326  31.457  1.00  0.00     0.135 A 
ATOM     69  C   UNL A   1      36.686  34.276  29.837  1.00  0.00     0.135 A 
ATOM     70  F   UNL A   1      34.953  32.549  32.525  1.00  0.00    -0.206 F 
ATOM     71  C   UNL A   1      34.109  33.957  30.847  1.00  0.00     0.059 A 
ATOM     72  C   UNL A   1      35.626  34.939  29.225  1.00  0.00     0.059 A 
ATOM     73  F   UNL A   1      37.917  34.449  29.332  1.00  0.00    -0.206 F 
ATOM     74  C   UNL A   1      34.338  34.757  29.726  1.00  0.00     0.060 A 
BRANCH  74  75
ATOM     75  S   UNL A   1      32.934  35.579  28.943  1.00  0.00     0.124 S 
ATOM     76  O   UNL A   1      33.597  36.635  28.187  1.00  0.00    -0.237 OA
ATOM     77  O   UNL A   1      32.345  34.501  28.154  1.00  0.00    -0.237 OA
ATOM     78  O   UNL A   1      32.131  36.021  30.079  1.00  0.00    -0.744 OA
ENDBRANCH  74  75
ENDBRANCH  42  67
BRANCH  54  79
ATOM     79  C   UNL A   1      39.953  34.181  36.965  1.00  0.00     0.058 A 
ATOM     80  C   UNL A   1      40.535  35.455  36.879  1.00  0.00     0.135 A 
ATOM     81  C   UNL A   1      39.195  33.878  38.106  1.00  0.00     0.135 A 
ATOM     82  F   UNL A   1      41.278  35.788  35.811  1.00  0.00    -0.206 F 
ATOM     83  C   UNL A   1      40.375  36.393  37.892  1.00  0.00     0.059 A 
ATOM     84  C   UNL A   1      39.000  34.810  39.119  1.00  0.00     0.059 A 
ATOM     85  F   UNL A   1      38.611  32.674  38.230  1.00  0.00    -0.206 F 
ATOM     86  C   UNL A   1      39.600  36.063  39.006  1.00  0.00     0.060 A 
BRANCH  86  87
ATOM     87  S   UNL A   1      39.354  37.311  40.286  1.00  0.00     0.124 S 
ATOM     88  O   UNL A   1      38.581  36.568  41.276  1.00  0.00    -0.237 OA
ATOM     89  O   UNL A   1      40.724  37.641  40.669  1.00  0.00    -0.237 OA
ATOM     90  O   UNL A   1      38.630  38.371  39.593  1.00  0.00    -0.744 OA
ENDBRANCH  86  87
ENDBRANCH  54  79
ENDBRANCH  28  29
ENDBRANCH  20  23
ENDBRANCH  18  19
ENDBRANCH  17  18
ENDBRANCH   1  17
TORSDOF 18
ENDMDL
MODEL 3
REMARK VINA RESULT:      -9.3      4.959     10.753
REMARK SMILES C[NH+](C)CCSCC(C)(C)C(=O)NCCCNC(=O)c1ccc(-c2c3nc(c(-c4c(F)cc(S(=O)(=O)[O-])cc4F)c4ccc([nH]4)c(-c4c(F)cc(S(=O)(=O)[O-])cc4F)c4nc(c(-c5c(F)cc(S(=O)(=O)[O-])cc5F)c5ccc2[nH]5)C=C4)C=C3)cc1
REMARK SMILES IDX 14 1 13 2 11 3 12 4 8 6 9 7 10 8 7 9 6 10 5 11 4 12 2 13
REMARK SMILES IDX 1 14 3 15 15 17 16 18 17 19 18 20 19 22 20 23 21 24 85 25
REMARK SMILES IDX 22 26 84 27 23 28 24 29 25 30 78 31 26 32 83 33 77 34 79 35
REMARK SMILES IDX 27 36 82 37 76 38 75 39 28 41 62 42 41 43 61 44 42 45 45 46
REMARK SMILES IDX 60 47 80 48 43 49 44 50 59 52 81 53 46 54 29 55 30 56 39 57
REMARK SMILES IDX 31 58 32 59 38 60 40 61 33 62 34 63 35 64 36 65 37 66 63 67
REMARK SMILES IDX 64 68 73 69 65 70 66 71 72 72 74 73 67 74 68 75 69 76 70 77
REMARK SMILES IDX 71 78 47 79 48 80 57 81 49 82 50 83 56 84 58 85 51 86 52 87
REMARK SMILES IDX 53 88 54 89 55 90
REMARK H PARENT 13 5 2 16 17 21 79 40 45 51
REMARK Flexibility Score: inf
ROOT
ATOM      1  C   UNL A   1      39.142  22.435  26.118  1.00  0.00     0.117 C 
ENDROOT
BRANCH   1   2
ATOM      2  N   UNL A   1      38.352  21.294  25.680  1.00  0.00    -0.356 N 
ATOM      3  C   UNL A   1      37.131  21.183  25.089  1.00  0.00     0.226 C 
ATOM      4  O   UNL A   1      36.731  20.032  24.893  1.00  0.00    -0.274 OA
ATOM      5  H   UNL A   1      38.790  20.427  25.845  1.00  0.00     0.163 HD
BRANCH   3   6
ATOM      6  C   UNL A   1      36.290  22.414  24.720  1.00  0.00     0.053 C 
ATOM      7  C   UNL A   1      36.880  23.122  23.507  1.00  0.00     0.022 C 
ATOM      8  C   UNL A   1      36.271  23.374  25.930  1.00  0.00     0.022 C 
BRANCH   6   9
ATOM      9  C   UNL A   1      34.800  22.007  24.465  1.00  0.00     0.086 C 
BRANCH   9  10
ATOM     10  S   UNL A   1      33.651  22.916  23.346  1.00  0.00    -0.155 SA
BRANCH  10  11
ATOM     11  C   UNL A   1      32.265  23.546  24.367  1.00  0.00     0.131 C 
BRANCH  11  12
ATOM     12  C   UNL A   1      32.512  24.058  25.806  1.00  0.00     0.272 C 
BRANCH  12  13
ATOM     13  N   UNL A   1      31.881  23.445  26.978  1.00  0.00    -0.339 N 
ATOM     14  C   UNL A   1      30.517  22.992  26.801  1.00  0.00     0.332 C 
ATOM     15  C   UNL A   1      32.722  22.562  27.771  1.00  0.00     0.332 C 
ATOM     16  H   UNL A   1      31.773  24.257  27.585  1.00  0.00     0.347 HD
ENDBRANCH  12  13
ENDBRANCH  11  12
ENDBRANCH  10  11
ENDBRANCH   9  10
ENDBRANCH   6   9
ENDBRANCH   3   6
ENDBRANCH   1   2
BRANCH   1  17
ATOM     17  C   UNL A   1      40.127  22.076  27.217  1.00  0.00     0.042 C 
BRANCH  17  18
ATOM     18  C   UNL A   1      41.384  22.927  27.205  1.00  0.00     0.118 C 
BRANCH  18  19
ATOM     19  N   UNL A   1      41.433  23.839  26.068  1.00  0.00    -0.352 N 
ATOM     20  C   UNL A   1      41.343  25.214  26.034  1.00  0.00     0.251 C 
ATOM     21  H   UNL A   1      41.547  23.408  25.190  1.00  0.00     0.163 HD
ATOM     22  O   UNL A   1      41.207  25.796  24.971  1.00  0.00    -0.269 OA
BRANCH  20  23
ATOM     23  C   UNL A   1      41.375  25.967  27.307  1.00  0.00     0.039 A 
ATOM     24  C   UNL A   1      42.527  26.679  27.649  1.00  0.00     0.014 A 
ATOM     25  C   UNL A   1      40.245  26.016  28.125  1.00  0.00     0.014 A 
ATOM     26  C   UNL A   1      42.502  27.532  28.753  1.00  0.00     0.010 A 
ATOM     27  C   UNL A   1      40.190  26.940  29.160  1.00  0.00     0.010 A 
ATOM     28  C   UNL A   1      41.312  27.719  29.476  1.00  0.00    -0.014 A 
BRANCH  28  29
ATOM     29  C   UNL A   1      41.197  28.746  30.543  1.00  0.00     0.031 A 
ATOM     30  C   UNL A   1      42.071  28.661  31.764  1.00  0.00     0.074 A 
ATOM     31  C   UNL A   1      40.226  29.679  30.462  1.00  0.00     0.049 A 
ATOM     32  N   UNL A   1      42.024  29.373  32.860  1.00  0.00    -0.248 NA
ATOM     33  C   UNL A   1      43.111  27.617  31.772  1.00  0.00     0.031 C 
ATOM     34  C   UNL A   1      39.270  29.818  29.357  1.00  0.00     0.029 A 
ATOM     35  N   UNL A   1      39.861  30.675  31.334  1.00  0.00    -0.354 N 
ATOM     36  C   UNL A   1      43.003  28.846  33.695  1.00  0.00     0.074 A 
ATOM     37  C   UNL A   1      43.603  27.731  32.998  1.00  0.00     0.031 C 
ATOM     38  C   UNL A   1      38.438  30.841  29.616  1.00  0.00     0.029 A 
ATOM     39  C   UNL A   1      38.768  31.403  30.921  1.00  0.00     0.049 A 
ATOM     40  H   UNL A   1      40.337  30.852  32.177  1.00  0.00     0.167 HD
ATOM     41  C   UNL A   1      43.377  29.269  34.924  1.00  0.00     0.037 A 
ATOM     42  C   UNL A   1      38.091  32.394  31.534  1.00  0.00     0.037 A 
ATOM     43  C   UNL A   1      42.815  30.417  35.584  1.00  0.00     0.049 A 
ATOM     44  C   UNL A   1      38.541  32.851  32.896  1.00  0.00     0.074 A 
ATOM     45  C   UNL A   1      43.213  31.002  36.773  1.00  0.00     0.029 A 
ATOM     46  N   UNL A   1      41.734  31.149  35.118  1.00  0.00    -0.354 N 
ATOM     47  N   UNL A   1      39.541  32.410  33.622  1.00  0.00    -0.248 NA
ATOM     48  C   UNL A   1      37.772  33.933  33.526  1.00  0.00     0.031 C 
ATOM     49  C   UNL A   1      42.341  32.057  37.052  1.00  0.00     0.029 A 
ATOM     50  C   UNL A   1      41.426  32.156  36.016  1.00  0.00     0.049 A 
ATOM     51  H   UNL A   1      41.257  30.978  34.273  1.00  0.00     0.167 HD
ATOM     52  C   UNL A   1      39.527  33.169  34.786  1.00  0.00     0.074 A 
ATOM     53  C   UNL A   1      38.436  34.112  34.659  1.00  0.00     0.031 C 
ATOM     54  C   UNL A   1      40.339  33.089  35.868  1.00  0.00     0.037 A 
BRANCH  41  55
ATOM     55  C   UNL A   1      44.457  28.512  35.641  1.00  0.00     0.058 A 
ATOM     56  C   UNL A   1      44.159  27.449  36.508  1.00  0.00     0.135 A 
ATOM     57  C   UNL A   1      45.809  28.787  35.379  1.00  0.00     0.135 A 
ATOM     58  F   UNL A   1      42.884  27.156  36.806  1.00  0.00    -0.206 F 
ATOM     59  C   UNL A   1      45.164  26.685  37.090  1.00  0.00     0.059 A 
ATOM     60  C   UNL A   1      46.831  28.021  35.932  1.00  0.00     0.059 A 
ATOM     61  F   UNL A   1      46.146  29.797  34.562  1.00  0.00    -0.206 F 
ATOM     62  C   UNL A   1      46.497  26.973  36.788  1.00  0.00     0.060 A 
BRANCH  62  63
ATOM     63  S   UNL A   1      47.785  25.929  37.503  1.00  0.00     0.124 S 
ATOM     64  O   UNL A   1      47.716  24.752  36.643  1.00  0.00    -0.237 OA
ATOM     65  O   UNL A   1      48.978  26.757  37.349  1.00  0.00    -0.237 OA
ATOM     66  O   UNL A   1      47.339  25.729  38.878  1.00  0.00    -0.744 OA
ENDBRANCH  62  63
ENDBRANCH  41  55
BRANCH  42  67
ATOM     67  C   UNL A   1      36.904  33.013  30.885  1.00  0.00     0.058 A 
ATOM     68  C   UNL A   1      37.050  33.984  29.883  1.00  0.00     0.135 A 
ATOM     69  C   UNL A   1      35.600  32.670  31.276  1.00  0.00     0.135 A 
ATOM     70  F   UNL A   1      38.275  34.349  29.478  1.00  0.00    -0.206 F 
ATOM     71  C   UNL A   1      35.949  34.619  29.315  1.00  0.00     0.059 A 
ATOM     72  C   UNL A   1      34.482  33.271  30.705  1.00  0.00     0.059 A 
ATOM     73  F   UNL A   1      35.403  31.733  32.217  1.00  0.00    -0.206 F 
ATOM     74  C   UNL A   1      34.668  34.259  29.739  1.00  0.00     0.060 A 
BRANCH  74  75
ATOM     75  S   UNL A   1      33.243  35.081  28.994  1.00  0.00     0.124 S 
ATOM     76  O   UNL A   1      32.821  34.096  28.005  1.00  0.00    -0.237 OA
ATOM     77  O   UNL A   1      32.355  35.259  30.139  1.00  0.00    -0.237 OA
ATOM     78  O   UNL A   1      33.814  36.313  28.458  1.00  0.00    -0.744 OA
ENDBRANCH  74  75
ENDBRANCH  42  67
BRANCH  54  79
ATOM     79  C   UNL A   1      40.088  34.047  36.997  1.00  0.00     0.058 A 
ATOM     80  C   UNL A   1      40.722  35.297  37.045  1.00  0.00     0.135 A 
ATOM     81  C   UNL A   1      39.151  33.743  37.997  1.00  0.00     0.135 A 
ATOM     82  F   UNL A   1      41.633  35.629  36.117  1.00  0.00    -0.206 F 
ATOM     83  C   UNL A   1      40.442  36.213  38.053  1.00  0.00     0.059 A 
ATOM     84  C   UNL A   1      38.836  34.654  39.000  1.00  0.00     0.059 A 
ATOM     85  F   UNL A   1      38.512  32.562  37.989  1.00  0.00    -0.206 F 
ATOM     86  C   UNL A   1      39.492  35.883  39.022  1.00  0.00     0.060 A 
BRANCH  86  87
ATOM     87  S   UNL A   1      39.097  37.105  40.292  1.00  0.00     0.124 S 
ATOM     88  O   UNL A   1      40.424  37.454  40.787  1.00  0.00    -0.237 OA
ATOM     89  O   UNL A   1      38.413  38.142  39.526  1.00  0.00    -0.237 OA
ATOM     90  O   UNL A   1      38.254  36.364  41.225  1.00  0.00    -0.744 OA
ENDBRANCH  86  87
ENDBRANCH  54  79
ENDBRANCH  28  29
ENDBRANCH  20  23
ENDBRANCH  18  19
ENDBRANCH  17  18
ENDBRANCH   1  17
TORSDOF 18
ENDMDL
