MODEL 1
REMARK VINA RESULT:     -11.0      0.000      0.000
REMARK SMILES O=C(CC1(C[S@](=O)C[C@H]2Cc3ccccc3S2)CC1)NCCCNC(=O)c1ccc(-c2c3nc(c(-c4c(F)cc(S(=O)(=O)[O-])cc4F)c4ccc([nH]4)c(-c4c(F)cc(S(=O)(=O)[O-])cc4F)c4nc(c(-c5c(F)cc(S(=O)(=O)[O-])cc5F)c5ccc2[nH]5)C=C4)C=C3)cc1
REMARK SMILES IDX 21 1 20 2 1 3 2 4 3 6 4 7 18 8 19 9 5 10 6 11 7 12 8 13 9 14
REMARK SMILES IDX 10 15 17 16 11 17 16 18 12 19 15 20 13 21 14 22 22 23 23 24
REMARK SMILES IDX 24 25 25 26 26 28 27 29 28 30 92 31 29 32 91 33 30 34 31 35
REMARK SMILES IDX 32 36 85 37 33 38 90 39 84 40 86 41 34 42 89 43 83 44 82 45
REMARK SMILES IDX 35 47 69 48 48 49 68 50 49 51 52 52 67 53 87 54 50 55 51 56
REMARK SMILES IDX 66 58 88 59 53 60 36 61 37 62 46 63 38 64 39 65 45 66 47 67
REMARK SMILES IDX 40 68 41 69 42 70 43 71 44 72 70 73 71 74 80 75 72 76 73 77
REMARK SMILES IDX 79 78 81 79 74 80 75 81 76 82 77 83 78 84 54 85 55 86 64 87
REMARK SMILES IDX 56 88 57 89 63 90 65 91 58 92 59 93 60 94 61 95 62 96
REMARK H PARENT 20 5 24 27 86 46 52 57
REMARK Flexibility Score: inf
ROOT
ATOM      1  C   UNL A   1      37.232  23.521  25.209  1.00  0.00     0.117 C 
ENDROOT
BRANCH   1   2
ATOM      2  N   UNL A   1      35.880  23.071  24.892  1.00  0.00    -0.356 N 
ATOM      3  O   UNL A   1      35.519  23.593  22.696  1.00  0.00    -0.275 OA
ATOM      4  C   UNL A   1      35.151  23.070  23.741  1.00  0.00     0.220 C 
ATOM      5  H   UNL A   1      35.399  22.694  25.665  1.00  0.00     0.163 HD
BRANCH   4   6
ATOM      6  C   UNL A   1      33.802  22.311  23.848  1.00  0.00     0.108 C 
BRANCH   6   7
ATOM      7  C   UNL A   1      32.576  23.021  24.477  1.00  0.00    -0.009 C 
ATOM      8  C   UNL A   1      32.063  22.198  25.677  1.00  0.00     0.009 C 
ATOM      9  C   UNL A   1      32.398  23.613  25.904  1.00  0.00     0.009 C 
BRANCH   7  10
ATOM     10  C   UNL A   1      31.628  23.644  23.495  1.00  0.00     0.112 C 
BRANCH  10  11
ATOM     11  S   UNL A   1      32.213  24.975  22.440  1.00  0.00     0.023 S 
ATOM     12  O   UNL A   1      33.006  24.510  21.270  1.00  0.00    -0.260 OA
BRANCH  11  13
ATOM     13  C   UNL A   1      33.025  26.296  23.327  1.00  0.00     0.120 C 
BRANCH  13  14
ATOM     14  C   UNL A   1      32.661  26.934  24.698  1.00  0.00     0.068 C 
ATOM     15  C   UNL A   1      33.789  27.124  25.723  1.00  0.00     0.052 C 
ATOM     16  S   UNL A   1      31.535  28.361  24.888  1.00  0.00    -0.121 SA
ATOM     17  C   UNL A   1      33.680  28.444  26.418  1.00  0.00    -0.033 A 
ATOM     18  C   UNL A   1      32.556  29.190  26.087  1.00  0.00     0.011 A 
ATOM     19  C   UNL A   1      34.673  28.974  27.246  1.00  0.00     0.005 A 
ATOM     20  C   UNL A   1      32.408  30.483  26.577  1.00  0.00     0.015 A 
ATOM     21  C   UNL A   1      34.542  30.277  27.722  1.00  0.00     0.000 A 
ATOM     22  C   UNL A   1      33.411  31.029  27.391  1.00  0.00     0.001 A 
ENDBRANCH  13  14
ENDBRANCH  11  13
ENDBRANCH  10  11
ENDBRANCH   7  10
ENDBRANCH   6   7
ENDBRANCH   4   6
ENDBRANCH   1   2
BRANCH   1  23
ATOM     23  C   UNL A   1      38.269  22.618  25.833  1.00  0.00     0.042 C 
BRANCH  23  24
ATOM     24  C   UNL A   1      39.198  23.198  26.888  1.00  0.00     0.118 C 
BRANCH  24  25
ATOM     25  N   UNL A   1      40.565  23.540  26.483  1.00  0.00    -0.352 N 
ATOM     26  C   UNL A   1      41.340  24.643  26.798  1.00  0.00     0.251 C 
ATOM     27  H   UNL A   1      40.999  22.882  25.894  1.00  0.00     0.163 HD
ATOM     28  O   UNL A   1      42.517  24.726  26.444  1.00  0.00    -0.269 OA
BRANCH  26  29
ATOM     29  C   UNL A   1      40.722  25.776  27.526  1.00  0.00     0.039 A 
ATOM     30  C   UNL A   1      41.278  27.046  27.424  1.00  0.00     0.014 A 
ATOM     31  C   UNL A   1      39.688  25.536  28.434  1.00  0.00     0.014 A 
ATOM     32  C   UNL A   1      41.052  27.961  28.442  1.00  0.00     0.010 A 
ATOM     33  C   UNL A   1      39.357  26.516  29.376  1.00  0.00     0.010 A 
ATOM     34  C   UNL A   1      40.119  27.692  29.458  1.00  0.00    -0.014 A 
BRANCH  34  35
ATOM     35  C   UNL A   1      40.044  28.606  30.634  1.00  0.00     0.031 A 
ATOM     36  C   UNL A   1      41.059  28.511  31.752  1.00  0.00     0.074 A 
ATOM     37  C   UNL A   1      39.135  29.600  30.643  1.00  0.00     0.049 A 
ATOM     38  N   UNL A   1      41.152  29.230  32.844  1.00  0.00    -0.248 NA
ATOM     39  C   UNL A   1      42.101  27.476  31.637  1.00  0.00     0.031 C 
ATOM     40  C   UNL A   1      38.125  29.829  29.607  1.00  0.00     0.029 A 
ATOM     41  N   UNL A   1      38.940  30.634  31.526  1.00  0.00    -0.354 N 
ATOM     42  C   UNL A   1      42.231  28.714  33.557  1.00  0.00     0.074 A 
ATOM     43  C   UNL A   1      42.752  27.606  32.785  1.00  0.00     0.031 C 
ATOM     44  C   UNL A   1      37.473  30.970  29.869  1.00  0.00     0.029 A 
ATOM     45  C   UNL A   1      37.959  31.512  31.134  1.00  0.00     0.049 A 
ATOM     46  H   UNL A   1      39.454  30.734  32.360  1.00  0.00     0.167 HD
ATOM     47  C   UNL A   1      42.750  29.130  34.737  1.00  0.00     0.037 A 
ATOM     48  C   UNL A   1      37.485  32.623  31.729  1.00  0.00     0.037 A 
ATOM     49  C   UNL A   1      42.268  30.268  35.478  1.00  0.00     0.049 A 
ATOM     50  C   UNL A   1      38.058  33.049  33.049  1.00  0.00     0.074 A 
ATOM     51  C   UNL A   1      42.734  30.774  36.679  1.00  0.00     0.029 A 
ATOM     52  N   UNL A   1      41.222  31.087  35.079  1.00  0.00    -0.354 N 
ATOM     53  N   UNL A   1      39.043  32.514  33.729  1.00  0.00    -0.248 NA
ATOM     54  C   UNL A   1      37.440  34.215  33.693  1.00  0.00     0.031 C 
ATOM     55  C   UNL A   1      41.950  31.880  37.023  1.00  0.00     0.029 A 
ATOM     56  C   UNL A   1      41.019  32.086  36.017  1.00  0.00     0.049 A 
ATOM     57  H   UNL A   1      40.700  30.975  34.251  1.00  0.00     0.167 HD
ATOM     58  C   UNL A   1      39.163  33.278  34.883  1.00  0.00     0.074 A 
ATOM     59  C   UNL A   1      38.166  34.325  34.798  1.00  0.00     0.031 C 
ATOM     60  C   UNL A   1      40.017  33.118  35.922  1.00  0.00     0.037 A 
BRANCH  47  61
ATOM     61  C   UNL A   1      43.898  28.350  35.319  1.00  0.00     0.058 A 
ATOM     62  C   UNL A   1      43.694  27.270  36.192  1.00  0.00     0.135 A 
ATOM     63  C   UNL A   1      45.220  28.648  34.948  1.00  0.00     0.135 A 
ATOM     64  F   UNL A   1      42.452  26.950  36.590  1.00  0.00    -0.206 F 
ATOM     65  C   UNL A   1      44.759  26.524  36.690  1.00  0.00     0.059 A 
ATOM     66  C   UNL A   1      46.299  27.902  35.415  1.00  0.00     0.059 A 
ATOM     67  F   UNL A   1      45.473  29.669  34.114  1.00  0.00    -0.206 F 
ATOM     68  C   UNL A   1      46.058  26.847  36.294  1.00  0.00     0.060 A 
BRANCH  68  69
ATOM     69  S   UNL A   1      47.427  25.858  36.934  1.00  0.00     0.124 S 
ATOM     70  O   UNL A   1      48.269  26.883  37.541  1.00  0.00    -0.237 OA
ATOM     71  O   UNL A   1      46.755  24.957  37.866  1.00  0.00    -0.237 OA
ATOM     72  O   UNL A   1      47.975  25.221  35.740  1.00  0.00    -0.744 OA
ENDBRANCH  68  69
ENDBRANCH  47  61
BRANCH  48  73
ATOM     73  C   UNL A   1      36.397  33.393  31.075  1.00  0.00     0.058 A 
ATOM     74  C   UNL A   1      36.650  34.179  29.943  1.00  0.00     0.135 A 
ATOM     75  C   UNL A   1      35.074  33.315  31.539  1.00  0.00     0.135 A 
ATOM     76  F   UNL A   1      37.900  34.291  29.469  1.00  0.00    -0.206 F 
ATOM     77  C   UNL A   1      35.627  34.858  29.287  1.00  0.00     0.059 A 
ATOM     78  C   UNL A   1      34.033  33.964  30.887  1.00  0.00     0.059 A 
ATOM     79  F   UNL A   1      34.782  32.564  32.612  1.00  0.00    -0.206 F 
ATOM     80  C   UNL A   1      34.320  34.737  29.763  1.00  0.00     0.060 A 
BRANCH  80  81
ATOM     81  S   UNL A   1      32.988  35.558  28.861  1.00  0.00     0.124 S 
ATOM     82  O   UNL A   1      32.174  36.080  29.952  1.00  0.00    -0.237 OA
ATOM     83  O   UNL A   1      33.713  36.548  28.073  1.00  0.00    -0.237 OA
ATOM     84  O   UNL A   1      32.389  34.473  28.089  1.00  0.00    -0.744 OA
ENDBRANCH  80  81
ENDBRANCH  48  73
BRANCH  60  85
ATOM     85  C   UNL A   1      39.914  34.097  37.054  1.00  0.00     0.058 A 
ATOM     86  C   UNL A   1      40.617  35.312  37.033  1.00  0.00     0.135 A 
ATOM     87  C   UNL A   1      39.064  33.847  38.142  1.00  0.00     0.135 A 
ATOM     88  F   UNL A   1      41.448  35.593  36.017  1.00  0.00    -0.206 F 
ATOM     89  C   UNL A   1      40.493  36.239  38.060  1.00  0.00     0.059 A 
ATOM     90  C   UNL A   1      38.909  34.769  39.172  1.00  0.00     0.059 A 
ATOM     91  F   UNL A   1      38.365  32.703  38.206  1.00  0.00    -0.206 F 
ATOM     92  C   UNL A   1      39.634  35.960  39.126  1.00  0.00     0.060 A 
BRANCH  92  93
ATOM     93  S   UNL A   1      39.453  37.191  40.435  1.00  0.00     0.124 S 
ATOM     94  O   UNL A   1      38.874  36.394  41.511  1.00  0.00    -0.237 OA
ATOM     95  O   UNL A   1      40.828  37.633  40.642  1.00  0.00    -0.237 OA
ATOM     96  O   UNL A   1      38.563  38.186  39.844  1.00  0.00    -0.744 OA
ENDBRANCH  92  93
ENDBRANCH  60  85
ENDBRANCH  34  35
ENDBRANCH  26  29
ENDBRANCH  24  25
ENDBRANCH  23  24
ENDBRANCH   1  23
TORSDOF 18
ENDMDL
MODEL 2
REMARK VINA RESULT:     -10.8      2.305      8.332
REMARK SMILES O=C(CC1(C[S@](=O)C[C@H]2Cc3ccccc3S2)CC1)NCCCNC(=O)c1ccc(-c2c3nc(c(-c4c(F)cc(S(=O)(=O)[O-])cc4F)c4ccc([nH]4)c(-c4c(F)cc(S(=O)(=O)[O-])cc4F)c4nc(c(-c5c(F)cc(S(=O)(=O)[O-])cc5F)c5ccc2[nH]5)C=C4)C=C3)cc1
REMARK SMILES IDX 21 1 20 2 1 3 2 4 3 6 4 7 18 8 19 9 5 10 6 11 7 12 8 13 9 14
REMARK SMILES IDX 10 15 17 16 11 17 16 18 12 19 15 20 13 21 14 22 22 23 23 24
REMARK SMILES IDX 24 25 25 26 26 28 27 29 28 30 92 31 29 32 91 33 30 34 31 35
REMARK SMILES IDX 32 36 85 37 33 38 90 39 84 40 86 41 34 42 89 43 83 44 82 45
REMARK SMILES IDX 35 47 69 48 48 49 68 50 49 51 52 52 67 53 87 54 50 55 51 56
REMARK SMILES IDX 66 58 88 59 53 60 36 61 37 62 46 63 38 64 39 65 45 66 47 67
REMARK SMILES IDX 40 68 41 69 42 70 43 71 44 72 70 73 71 74 80 75 72 76 73 77
REMARK SMILES IDX 79 78 81 79 74 80 75 81 76 82 77 83 78 84 54 85 55 86 64 87
REMARK SMILES IDX 56 88 57 89 63 90 65 91 58 92 59 93 60 94 61 95 62 96
REMARK H PARENT 20 5 24 27 86 46 52 57
REMARK Flexibility Score: inf
ROOT
ATOM      1  C   UNL A   1      34.218  29.414  26.926  1.00  0.00     0.117 C 
ENDROOT
BRANCH   1   2
ATOM      2  N   UNL A   1      33.643  28.122  26.562  1.00  0.00    -0.356 N 
ATOM      3  O   UNL A   1      31.637  27.973  27.647  1.00  0.00    -0.275 OA
ATOM      4  C   UNL A   1      32.458  27.519  26.859  1.00  0.00     0.220 C 
ATOM      5  H   UNL A   1      34.229  27.579  25.985  1.00  0.00     0.163 HD
BRANCH   4   6
ATOM      6  C   UNL A   1      32.208  26.199  26.083  1.00  0.00     0.108 C 
BRANCH   6   7
ATOM      7  C   UNL A   1      30.767  25.840  25.635  1.00  0.00    -0.009 C 
ATOM      8  C   UNL A   1      30.608  24.306  25.595  1.00  0.00     0.009 C 
ATOM      9  C   UNL A   1      29.652  25.078  26.404  1.00  0.00     0.009 C 
BRANCH   7  10
ATOM     10  C   UNL A   1      30.200  26.712  24.555  1.00  0.00     0.112 C 
BRANCH  10  11
ATOM     11  S   UNL A   1      31.115  26.910  23.021  1.00  0.00     0.023 S 
ATOM     12  O   UNL A   1      30.482  27.855  22.062  1.00  0.00    -0.260 OA
BRANCH  11  13
ATOM     13  C   UNL A   1      31.572  25.365  22.248  1.00  0.00     0.120 C 
BRANCH  13  14
ATOM     14  C   UNL A   1      32.872  24.527  22.412  1.00  0.00     0.068 C 
ATOM     15  C   UNL A   1      33.980  25.092  23.314  1.00  0.00     0.052 C 
ATOM     16  S   UNL A   1      32.891  22.712  22.634  1.00  0.00    -0.121 SA
ATOM     17  C   UNL A   1      34.595  24.022  24.160  1.00  0.00    -0.033 A 
ATOM     18  C   UNL A   1      34.130  22.737  23.910  1.00  0.00     0.011 A 
ATOM     19  C   UNL A   1      35.478  24.273  25.214  1.00  0.00     0.005 A 
ATOM     20  C   UNL A   1      34.539  21.679  24.715  1.00  0.00     0.015 A 
ATOM     21  C   UNL A   1      35.873  23.221  26.038  1.00  0.00     0.000 A 
ATOM     22  C   UNL A   1      35.408  21.927  25.787  1.00  0.00     0.001 A 
ENDBRANCH  13  14
ENDBRANCH  11  13
ENDBRANCH  10  11
ENDBRANCH   7  10
ENDBRANCH   6   7
ENDBRANCH   4   6
ENDBRANCH   1   2
BRANCH   1  23
ATOM     23  C   UNL A   1      33.381  30.655  27.122  1.00  0.00     0.042 C 
BRANCH  23  24
ATOM     24  C   UNL A   1      34.038  31.887  27.726  1.00  0.00     0.118 C 
BRANCH  24  25
ATOM     25  N   UNL A   1      33.224  33.098  27.868  1.00  0.00    -0.352 N 
ATOM     26  C   UNL A   1      33.396  34.199  28.687  1.00  0.00     0.251 C 
ATOM     27  H   UNL A   1      32.428  33.131  27.290  1.00  0.00     0.163 HD
ATOM     28  O   UNL A   1      32.659  35.183  28.610  1.00  0.00    -0.269 OA
BRANCH  26  29
ATOM     29  C   UNL A   1      34.455  34.170  29.723  1.00  0.00     0.039 A 
ATOM     30  C   UNL A   1      35.780  34.393  29.362  1.00  0.00     0.014 A 
ATOM     31  C   UNL A   1      34.144  33.761  31.023  1.00  0.00     0.014 A 
ATOM     32  C   UNL A   1      36.788  33.884  30.167  1.00  0.00     0.010 A 
ATOM     33  C   UNL A   1      35.174  33.382  31.891  1.00  0.00     0.010 A 
ATOM     34  C   UNL A   1      36.497  33.332  31.426  1.00  0.00    -0.014 A 
BRANCH  34  35
ATOM     35  C   UNL A   1      37.575  32.624  32.174  1.00  0.00     0.031 A 
ATOM     36  C   UNL A   1      38.331  31.477  31.540  1.00  0.00     0.074 A 
ATOM     37  C   UNL A   1      37.958  33.087  33.380  1.00  0.00     0.049 A 
ATOM     38  N   UNL A   1      39.304  30.754  32.039  1.00  0.00    -0.248 NA
ATOM     39  C   UNL A   1      37.946  31.083  30.174  1.00  0.00     0.031 C 
ATOM     40  C   UNL A   1      37.340  34.212  34.087  1.00  0.00     0.029 A 
ATOM     41  N   UNL A   1      38.986  32.705  34.206  1.00  0.00    -0.354 N 
ATOM     42  C   UNL A   1      39.618  29.805  31.070  1.00  0.00     0.074 A 
ATOM     43  C   UNL A   1      38.720  30.028  29.958  1.00  0.00     0.031 C 
ATOM     44  C   UNL A   1      38.046  34.479  35.194  1.00  0.00     0.029 A 
ATOM     45  C   UNL A   1      39.115  33.494  35.323  1.00  0.00     0.049 A 
ATOM     46  H   UNL A   1      39.573  31.937  34.016  1.00  0.00     0.167 HD
ATOM     47  C   UNL A   1      40.574  28.846  31.096  1.00  0.00     0.037 A 
ATOM     48  C   UNL A   1      39.984  33.429  36.349  1.00  0.00     0.037 A 
ATOM     49  C   UNL A   1      41.506  28.659  32.179  1.00  0.00     0.049 A 
ATOM     50  C   UNL A   1      41.017  32.342  36.369  1.00  0.00     0.074 A 
ATOM     51  C   UNL A   1      42.517  27.720  32.293  1.00  0.00     0.029 A 
ATOM     52  N   UNL A   1      41.552  29.437  33.326  1.00  0.00    -0.354 N 
ATOM     53  N   UNL A   1      41.260  31.424  35.465  1.00  0.00    -0.248 NA
ATOM     54  C   UNL A   1      41.877  32.266  37.557  1.00  0.00     0.031 C 
ATOM     55  C   UNL A   1      43.155  27.910  33.523  1.00  0.00     0.029 A 
ATOM     56  C   UNL A   1      42.566  28.991  34.159  1.00  0.00     0.049 A 
ATOM     57  H   UNL A   1      40.954  30.195  33.520  1.00  0.00     0.167 HD
ATOM     58  C   UNL A   1      42.302  30.660  35.976  1.00  0.00     0.074 A 
ATOM     59  C   UNL A   1      42.658  31.237  37.255  1.00  0.00     0.031 C 
ATOM     60  C   UNL A   1      42.902  29.572  35.434  1.00  0.00     0.037 A 
BRANCH  47  61
ATOM     61  C   UNL A   1      40.665  27.906  29.923  1.00  0.00     0.058 A 
ATOM     62  C   UNL A   1      39.700  26.913  29.693  1.00  0.00     0.135 A 
ATOM     63  C   UNL A   1      41.698  28.043  28.981  1.00  0.00     0.135 A 
ATOM     64  F   UNL A   1      38.698  26.729  30.568  1.00  0.00    -0.206 F 
ATOM     65  C   UNL A   1      39.766  26.078  28.580  1.00  0.00     0.059 A 
ATOM     66  C   UNL A   1      41.772  27.235  27.850  1.00  0.00     0.059 A 
ATOM     67  F   UNL A   1      42.647  28.979  29.151  1.00  0.00    -0.206 F 
ATOM     68  C   UNL A   1      40.805  26.248  27.664  1.00  0.00     0.060 A 
BRANCH  68  69
ATOM     69  S   UNL A   1      40.865  25.169  26.216  1.00  0.00     0.124 S 
ATOM     70  O   UNL A   1      41.224  26.113  25.163  1.00  0.00    -0.237 OA
ATOM     71  O   UNL A   1      41.900  24.207  26.584  1.00  0.00    -0.237 OA
ATOM     72  O   UNL A   1      39.511  24.627  26.138  1.00  0.00    -0.744 OA
ENDBRANCH  68  69
ENDBRANCH  47  61
BRANCH  48  73
ATOM     73  C   UNL A   1      39.892  34.426  37.447  1.00  0.00     0.058 A 
ATOM     74  C   UNL A   1      39.188  34.139  38.624  1.00  0.00     0.135 A 
ATOM     75  C   UNL A   1      40.551  35.662  37.360  1.00  0.00     0.135 A 
ATOM     76  F   UNL A   1      38.534  32.974  38.749  1.00  0.00    -0.206 F 
ATOM     77  C   UNL A   1      39.144  35.042  39.682  1.00  0.00     0.059 A 
ATOM     78  C   UNL A   1      40.543  36.569  38.413  1.00  0.00     0.059 A 
ATOM     79  F   UNL A   1      41.250  35.975  36.258  1.00  0.00    -0.206 F 
ATOM     80  C   UNL A   1      39.832  36.252  39.569  1.00  0.00     0.060 A 
BRANCH  80  81
ATOM     81  S   UNL A   1      39.836  37.383  40.977  1.00  0.00     0.124 S 
ATOM     82  O   UNL A   1      39.338  38.610  40.367  1.00  0.00    -0.237 OA
ATOM     83  O   UNL A   1      38.932  36.719  41.909  1.00  0.00    -0.237 OA
ATOM     84  O   UNL A   1      41.237  37.405  41.385  1.00  0.00    -0.744 OA
ENDBRANCH  80  81
ENDBRANCH  48  73
BRANCH  60  85
ATOM     85  C   UNL A   1      44.007  28.933  36.223  1.00  0.00     0.058 A 
ATOM     86  C   UNL A   1      45.302  29.475  36.236  1.00  0.00     0.135 A 
ATOM     87  C   UNL A   1      43.759  27.802  37.016  1.00  0.00     0.135 A 
ATOM     88  F   UNL A   1      45.590  30.552  35.487  1.00  0.00    -0.206 F 
ATOM     89  C   UNL A   1      46.318  28.909  36.997  1.00  0.00     0.059 A 
ATOM     90  C   UNL A   1      44.755  27.230  37.801  1.00  0.00     0.059 A 
ATOM     91  F   UNL A   1      42.536  27.249  37.043  1.00  0.00    -0.206 F 
ATOM     92  C   UNL A   1      46.034  27.787  37.779  1.00  0.00     0.060 A 
BRANCH  92  93
ATOM     93  S   UNL A   1      47.354  27.085  38.792  1.00  0.00     0.124 S 
ATOM     94  O   UNL A   1      46.635  26.740  40.014  1.00  0.00    -0.237 OA
ATOM     95  O   UNL A   1      47.806  25.959  37.982  1.00  0.00    -0.237 OA
ATOM     96  O   UNL A   1      48.308  28.184  38.915  1.00  0.00    -0.744 OA
ENDBRANCH  92  93
ENDBRANCH  60  85
ENDBRANCH  34  35
ENDBRANCH  26  29
ENDBRANCH  24  25
ENDBRANCH  23  24
ENDBRANCH   1  23
TORSDOF 18
ENDMDL
MODEL 3
REMARK VINA RESULT:     -10.7      1.575      8.351
REMARK SMILES O=C(CC1(C[S@](=O)C[C@H]2Cc3ccccc3S2)CC1)NCCCNC(=O)c1ccc(-c2c3nc(c(-c4c(F)cc(S(=O)(=O)[O-])cc4F)c4ccc([nH]4)c(-c4c(F)cc(S(=O)(=O)[O-])cc4F)c4nc(c(-c5c(F)cc(S(=O)(=O)[O-])cc5F)c5ccc2[nH]5)C=C4)C=C3)cc1
REMARK SMILES IDX 21 1 20 2 1 3 2 4 3 6 4 7 18 8 19 9 5 10 6 11 7 12 8 13 9 14
REMARK SMILES IDX 10 15 17 16 11 17 16 18 12 19 15 20 13 21 14 22 22 23 23 24
REMARK SMILES IDX 24 25 25 26 26 28 27 29 28 30 92 31 29 32 91 33 30 34 31 35
REMARK SMILES IDX 32 36 85 37 33 38 90 39 84 40 86 41 34 42 89 43 83 44 82 45
REMARK SMILES IDX 35 47 69 48 48 49 68 50 49 51 52 52 67 53 87 54 50 55 51 56
REMARK SMILES IDX 66 58 88 59 53 60 36 61 37 62 46 63 38 64 39 65 45 66 47 67
REMARK SMILES IDX 40 68 41 69 42 70 43 71 44 72 70 73 71 74 80 75 72 76 73 77
REMARK SMILES IDX 79 78 81 79 74 80 75 81 76 82 77 83 78 84 54 85 55 86 64 87
REMARK SMILES IDX 56 88 57 89 63 90 65 91 58 92 59 93 60 94 61 95 62 96
REMARK H PARENT 20 5 24 27 86 46 52 57
REMARK Flexibility Score: inf
ROOT
ATOM      1  C   UNL A   1      37.408  23.758  26.126  1.00  0.00     0.117 C 
ENDROOT
BRANCH   1   2
ATOM      2  N   UNL A   1      36.582  22.579  25.881  1.00  0.00    -0.356 N 
ATOM      3  O   UNL A   1      36.651  22.193  23.629  1.00  0.00    -0.275 OA
ATOM      4  C   UNL A   1      36.299  21.865  24.756  1.00  0.00     0.220 C 
ATOM      5  H   UNL A   1      36.144  22.230  26.691  1.00  0.00     0.163 HD
BRANCH   4   6
ATOM      6  C   UNL A   1      35.504  20.558  25.019  1.00  0.00     0.108 C 
BRANCH   6   7
ATOM      7  C   UNL A   1      33.964  20.624  25.186  1.00  0.00    -0.009 C 
ATOM      8  C   UNL A   1      33.332  21.209  23.906  1.00  0.00     0.009 C 
ATOM      9  C   UNL A   1      32.849  19.902  24.377  1.00  0.00     0.009 C 
BRANCH   7  10
ATOM     10  C   UNL A   1      33.488  21.030  26.548  1.00  0.00     0.112 C 
BRANCH  10  11
ATOM     11  S   UNL A   1      32.548  22.551  26.728  1.00  0.00     0.023 S 
ATOM     12  O   UNL A   1      31.120  22.425  26.330  1.00  0.00    -0.260 OA
BRANCH  11  13
ATOM     13  C   UNL A   1      33.335  23.977  25.993  1.00  0.00     0.120 C 
BRANCH  13  14
ATOM     14  C   UNL A   1      32.701  25.305  25.493  1.00  0.00     0.068 C 
ATOM     15  C   UNL A   1      31.832  26.101  26.479  1.00  0.00     0.052 C 
ATOM     16  S   UNL A   1      33.586  26.532  24.467  1.00  0.00    -0.121 SA
ATOM     17  C   UNL A   1      32.096  27.569  26.378  1.00  0.00    -0.033 A 
ATOM     18  C   UNL A   1      32.981  27.939  25.374  1.00  0.00     0.011 A 
ATOM     19  C   UNL A   1      31.607  28.513  27.286  1.00  0.00     0.005 A 
ATOM     20  C   UNL A   1      33.396  29.262  25.261  1.00  0.00     0.015 A 
ATOM     21  C   UNL A   1      32.037  29.836  27.193  1.00  0.00     0.000 A 
ATOM     22  C   UNL A   1      32.926  30.210  26.181  1.00  0.00     0.001 A 
ENDBRANCH  13  14
ENDBRANCH  11  13
ENDBRANCH  10  11
ENDBRANCH   7  10
ENDBRANCH   6   7
ENDBRANCH   4   6
ENDBRANCH   1   2
BRANCH   1  23
ATOM     23  C   UNL A   1      38.840  23.671  26.594  1.00  0.00     0.042 C 
BRANCH  23  24
ATOM     24  C   UNL A   1      39.622  24.961  26.786  1.00  0.00     0.118 C 
BRANCH  24  25
ATOM     25  N   UNL A   1      40.551  25.363  25.725  1.00  0.00    -0.352 N 
ATOM     26  C   UNL A   1      41.735  26.075  25.798  1.00  0.00     0.251 C 
ATOM     27  H   UNL A   1      40.290  25.082  24.818  1.00  0.00     0.163 HD
ATOM     28  O   UNL A   1      42.447  26.245  24.808  1.00  0.00    -0.269 OA
BRANCH  26  29
ATOM     29  C   UNL A   1      42.124  26.700  27.083  1.00  0.00     0.039 A 
ATOM     30  C   UNL A   1      41.753  26.100  28.282  1.00  0.00     0.014 A 
ATOM     31  C   UNL A   1      42.720  27.964  27.089  1.00  0.00     0.014 A 
ATOM     32  C   UNL A   1      41.654  26.885  29.421  1.00  0.00     0.010 A 
ATOM     33  C   UNL A   1      42.751  28.706  28.275  1.00  0.00     0.010 A 
ATOM     34  C   UNL A   1      42.112  28.214  29.424  1.00  0.00    -0.014 A 
BRANCH  34  35
ATOM     35  C   UNL A   1      41.815  29.082  30.600  1.00  0.00     0.031 A 
ATOM     36  C   UNL A   1      40.581  29.957  30.620  1.00  0.00     0.074 A 
ATOM     37  C   UNL A   1      42.588  28.994  31.700  1.00  0.00     0.049 A 
ATOM     38  N   UNL A   1      40.161  30.768  31.562  1.00  0.00    -0.248 NA
ATOM     39  C   UNL A   1      39.709  29.930  29.434  1.00  0.00     0.031 C 
ATOM     40  C   UNL A   1      43.783  28.157  31.827  1.00  0.00     0.029 A 
ATOM     41  N   UNL A   1      42.462  29.577  32.936  1.00  0.00    -0.354 N 
ATOM     42  C   UNL A   1      39.005  31.367  31.069  1.00  0.00     0.074 A 
ATOM     43  C   UNL A   1      38.798  30.845  29.736  1.00  0.00     0.031 C 
ATOM     44  C   UNL A   1      44.232  28.216  33.087  1.00  0.00     0.029 A 
ATOM     45  C   UNL A   1      43.410  29.159  33.838  1.00  0.00     0.049 A 
ATOM     46  H   UNL A   1      41.760  30.232  33.155  1.00  0.00     0.167 HD
ATOM     47  C   UNL A   1      38.184  32.259  31.674  1.00  0.00     0.037 A 
ATOM     48  C   UNL A   1      43.614  29.505  35.124  1.00  0.00     0.037 A 
ATOM     49  C   UNL A   1      38.359  32.736  33.022  1.00  0.00     0.049 A 
ATOM     50  C   UNL A   1      42.707  30.515  35.764  1.00  0.00     0.074 A 
ATOM     51  C   UNL A   1      37.574  33.633  33.726  1.00  0.00     0.029 A 
ATOM     52  N   UNL A   1      39.378  32.341  33.876  1.00  0.00    -0.354 N 
ATOM     53  N   UNL A   1      41.652  31.108  35.260  1.00  0.00    -0.248 NA
ATOM     54  C   UNL A   1      43.032  30.920  37.137  1.00  0.00     0.031 C 
ATOM     55  C   UNL A   1      38.136  33.806  34.996  1.00  0.00     0.029 A 
ATOM     56  C   UNL A   1      39.250  32.987  35.095  1.00  0.00     0.049 A 
ATOM     57  H   UNL A   1      40.088  31.697  33.650  1.00  0.00     0.167 HD
ATOM     58  C   UNL A   1      41.186  31.958  36.255  1.00  0.00     0.074 A 
ATOM     59  C   UNL A   1      42.060  31.785  37.397  1.00  0.00     0.031 C 
ATOM     60  C   UNL A   1      40.134  32.810  36.220  1.00  0.00     0.037 A 
BRANCH  47  61
ATOM     61  C   UNL A   1      37.019  32.795  30.885  1.00  0.00     0.058 A 
ATOM     62  C   UNL A   1      35.717  32.300  31.058  1.00  0.00     0.135 A 
ATOM     63  C   UNL A   1      37.198  33.861  29.989  1.00  0.00     0.135 A 
ATOM     64  F   UNL A   1      35.491  31.272  31.892  1.00  0.00    -0.206 F 
ATOM     65  C   UNL A   1      34.637  32.832  30.359  1.00  0.00     0.059 A 
ATOM     66  C   UNL A   1      36.130  34.424  29.295  1.00  0.00     0.059 A 
ATOM     67  F   UNL A   1      38.423  34.374  29.787  1.00  0.00    -0.206 F 
ATOM     68  C   UNL A   1      34.854  33.895  29.480  1.00  0.00     0.060 A 
BRANCH  68  69
ATOM     69  S   UNL A   1      33.439  34.586  28.595  1.00  0.00     0.124 S 
ATOM     70  O   UNL A   1      33.068  33.475  27.725  1.00  0.00    -0.237 OA
ATOM     71  O   UNL A   1      32.505  34.881  29.677  1.00  0.00    -0.237 OA
ATOM     72  O   UNL A   1      33.997  35.753  27.918  1.00  0.00    -0.744 OA
ENDBRANCH  68  69
ENDBRANCH  47  61
BRANCH  48  73
ATOM     73  C   UNL A   1      44.738  28.892  35.875  1.00  0.00     0.058 A 
ATOM     74  C   UNL A   1      46.015  29.469  35.861  1.00  0.00     0.135 A 
ATOM     75  C   UNL A   1      44.543  27.748  36.664  1.00  0.00     0.135 A 
ATOM     76  F   UNL A   1      46.251  30.558  35.113  1.00  0.00    -0.206 F 
ATOM     77  C   UNL A   1      47.061  28.937  36.608  1.00  0.00     0.059 A 
ATOM     78  C   UNL A   1      45.566  27.212  37.439  1.00  0.00     0.059 A 
ATOM     79  F   UNL A   1      43.334  27.168  36.721  1.00  0.00    -0.206 F 
ATOM     80  C   UNL A   1      46.824  27.812  37.400  1.00  0.00     0.060 A 
BRANCH  80  81
ATOM     81  S   UNL A   1      48.165  27.174  38.427  1.00  0.00     0.124 S 
ATOM     82  O   UNL A   1      47.794  27.682  39.742  1.00  0.00    -0.237 OA
ATOM     83  O   UNL A   1      48.040  25.733  38.239  1.00  0.00    -0.237 OA
ATOM     84  O   UNL A   1      49.356  27.773  37.832  1.00  0.00    -0.744 OA
ENDBRANCH  80  81
ENDBRANCH  48  73
BRANCH  60  85
ATOM     85  C   UNL A   1      39.867  33.624  37.452  1.00  0.00     0.058 A 
ATOM     86  C   UNL A   1      40.533  34.838  37.682  1.00  0.00     0.135 A 
ATOM     87  C   UNL A   1      38.900  33.216  38.384  1.00  0.00     0.135 A 
ATOM     88  F   UNL A   1      41.471  35.266  36.823  1.00  0.00    -0.206 F 
ATOM     89  C   UNL A   1      40.259  35.614  38.802  1.00  0.00     0.059 A 
ATOM     90  C   UNL A   1      38.596  33.986  39.502  1.00  0.00     0.059 A 
ATOM     91  F   UNL A   1      38.232  32.065  38.206  1.00  0.00    -0.206 F 
ATOM     92  C   UNL A   1      39.287  35.181  39.707  1.00  0.00     0.060 A 
BRANCH  92  93
ATOM     93  S   UNL A   1      38.915  36.217  41.137  1.00  0.00     0.124 S 
ATOM     94  O   UNL A   1      38.559  37.481  40.501  1.00  0.00    -0.237 OA
ATOM     95  O   UNL A   1      37.817  35.495  41.771  1.00  0.00    -0.237 OA
ATOM     96  O   UNL A   1      40.168  36.224  41.887  1.00  0.00    -0.744 OA
ENDBRANCH  92  93
ENDBRANCH  60  85
ENDBRANCH  34  35
ENDBRANCH  26  29
ENDBRANCH  24  25
ENDBRANCH  23  24
ENDBRANCH   1  23
TORSDOF 18
ENDMDL
