MODEL 1
REMARK VINA RESULT:     -11.1      0.000      0.000
REMARK SMILES COC(CNS(=O)(=O)c1ccc(Cl)c(C(=O)NCCCNC(=O)c2ccc(-c3c4nc(c(-c5c(F)cc(S(=O)(=O)[O-])cc5F)c5ccc([nH]5)c(-c5c(F)cc(S(=O)(=O)[O-])cc5F)c5nc(c(-c6c(F)cc(S(=O)(=O)[O-])cc6F)c6ccc3[nH]6)C=C5)C=C4)cc2)c1Cl)OC
REMARK SMILES IDX 18 1 17 2 15 3 16 4 14 6 9 7 10 8 90 9 11 10 91 11 12 12
REMARK SMILES IDX 13 13 6 14 7 15 8 16 5 17 4 19 3 20 2 21 1 22 92 23 93 24
REMARK SMILES IDX 19 25 20 26 21 27 22 28 23 30 24 31 25 32 89 33 26 34 88 35
REMARK SMILES IDX 27 36 28 37 29 38 82 39 30 40 87 41 81 42 83 43 31 44 86 45
REMARK SMILES IDX 80 46 79 47 32 49 66 50 45 51 65 52 46 53 49 54 64 55 84 56
REMARK SMILES IDX 47 57 48 58 63 60 85 61 50 62 33 63 34 64 43 65 35 66 36 67
REMARK SMILES IDX 42 68 44 69 37 70 38 71 39 72 40 73 41 74 67 75 68 76 77 77
REMARK SMILES IDX 69 78 70 79 76 80 78 81 71 82 72 83 73 84 74 85 75 86 51 87
REMARK SMILES IDX 52 88 61 89 53 90 54 91 60 92 62 93 55 94 56 95 57 96 58 97
REMARK SMILES IDX 59 98
REMARK H PARENT 17 5 5 18 21 29 83 48 49 59
REMARK Flexibility Score: inf
ROOT
ATOM      1  C   UNL A   1      33.191  29.623  26.471  1.00  0.00     0.118 C 
ENDROOT
BRANCH   1   2
ATOM      2  N   UNL A   1      33.600  29.514  25.085  1.00  0.00    -0.352 N 
ATOM      3  C   UNL A   1      33.361  28.705  24.013  1.00  0.00     0.254 C 
ATOM      4  O   UNL A   1      33.868  29.169  22.985  1.00  0.00    -0.269 OA
ATOM      5  H   UNL A   1      34.231  30.231  24.849  1.00  0.00     0.163 HD
BRANCH   3   6
ATOM      6  C   UNL A   1      32.474  27.487  23.895  1.00  0.00     0.078 A 
ATOM      7  C   UNL A   1      32.675  25.075  23.463  1.00  0.00     0.101 A 
ATOM      8  C   UNL A   1      31.432  25.085  22.828  1.00  0.00     0.025 A 
ATOM      9  C   UNL A   1      33.133  26.235  24.094  1.00  0.00     0.075 A 
ATOM     10  C   UNL A   1      30.645  26.226  22.894  1.00  0.00     0.023 A 
ATOM     11  Cl  UNL A   1      34.170  26.075  25.493  1.00  0.00    -0.082 Cl
ATOM     12  C   UNL A   1      31.152  27.418  23.438  1.00  0.00     0.055 A 
ATOM     13  Cl  UNL A   1      29.924  28.582  23.755  1.00  0.00    -0.083 Cl
BRANCH   7  14
ATOM     14  S   UNL A   1      33.561  23.548  23.330  1.00  0.00     0.242 S 
ATOM     15  O   UNL A   1      34.884  23.882  22.840  1.00  0.00    -0.207 OA
ATOM     16  O   UNL A   1      32.706  22.642  22.600  1.00  0.00    -0.207 OA
BRANCH  14  17
ATOM     17  N   UNL A   1      33.760  22.852  24.824  1.00  0.00    -0.206 NA
ATOM     18  H   UNL A   1      34.760  22.878  25.025  1.00  0.00     0.141 HD
BRANCH  17  19
ATOM     19  C   UNL A   1      33.316  21.471  25.082  1.00  0.00     0.161 C 
BRANCH  19  20
ATOM     20  C   UNL A   1      34.463  20.415  25.051  1.00  0.00     0.263 C 
BRANCH  20  21
ATOM     21  O   UNL A   1      35.752  20.843  24.601  1.00  0.00    -0.355 OA
ATOM     22  C   UNL A   1      36.875  20.087  25.008  1.00  0.00     0.198 C 
ENDBRANCH  20  21
BRANCH  20  23
ATOM     23  O   UNL A   1      34.068  19.121  24.595  1.00  0.00    -0.355 OA
ATOM     24  C   UNL A   1      32.687  18.827  24.613  1.00  0.00     0.198 C 
ENDBRANCH  20  23
ENDBRANCH  19  20
ENDBRANCH  17  19
ENDBRANCH  14  17
ENDBRANCH   7  14
ENDBRANCH   3   6
ENDBRANCH   1   2
BRANCH   1  25
ATOM     25  C   UNL A   1      34.338  29.259  27.413  1.00  0.00     0.042 C 
BRANCH  25  26
ATOM     26  C   UNL A   1      35.288  30.421  27.691  1.00  0.00     0.118 C 
BRANCH  26  27
ATOM     27  N   UNL A   1      35.305  30.779  29.101  1.00  0.00    -0.352 N 
ATOM     28  C   UNL A   1      36.249  30.527  30.066  1.00  0.00     0.251 C 
ATOM     29  H   UNL A   1      34.516  31.281  29.412  1.00  0.00     0.163 HD
ATOM     30  O   UNL A   1      35.946  30.667  31.249  1.00  0.00    -0.269 OA
BRANCH  28  31
ATOM     31  C   UNL A   1      37.618  30.093  29.702  1.00  0.00     0.039 A 
ATOM     32  C   UNL A   1      38.531  29.807  30.723  1.00  0.00     0.014 A 
ATOM     33  C   UNL A   1      38.033  30.037  28.368  1.00  0.00     0.014 A 
ATOM     34  C   UNL A   1      39.837  29.424  30.407  1.00  0.00     0.010 A 
ATOM     35  C   UNL A   1      39.315  29.590  28.051  1.00  0.00     0.010 A 
ATOM     36  C   UNL A   1      40.234  29.292  29.067  1.00  0.00    -0.014 A 
BRANCH  36  37
ATOM     37  C   UNL A   1      41.615  28.877  28.704  1.00  0.00     0.031 A 
ATOM     38  C   UNL A   1      42.719  29.900  28.665  1.00  0.00     0.074 A 
ATOM     39  C   UNL A   1      41.863  27.598  28.357  1.00  0.00     0.049 A 
ATOM     40  N   UNL A   1      43.957  29.767  28.261  1.00  0.00    -0.248 NA
ATOM     41  C   UNL A   1      42.380  31.260  29.116  1.00  0.00     0.031 C 
ATOM     42  C   UNL A   1      40.870  26.522  28.322  1.00  0.00     0.029 A 
ATOM     43  N   UNL A   1      43.025  26.990  27.952  1.00  0.00    -0.354 N 
ATOM     44  C   UNL A   1      44.538  31.023  28.397  1.00  0.00     0.074 A 
ATOM     45  C   UNL A   1      43.505  31.917  28.877  1.00  0.00     0.031 C 
ATOM     46  C   UNL A   1      41.468  25.385  27.927  1.00  0.00     0.029 A 
ATOM     47  C   UNL A   1      42.874  25.657  27.649  1.00  0.00     0.049 A 
ATOM     48  H   UNL A   1      43.885  27.464  27.885  1.00  0.00     0.167 HD
ATOM     49  C   UNL A   1      45.821  31.393  28.167  1.00  0.00     0.037 A 
ATOM     50  C   UNL A   1      43.768  24.760  27.188  1.00  0.00     0.037 A 
ATOM     51  C   UNL A   1      46.852  30.496  27.718  1.00  0.00     0.049 A 
ATOM     52  C   UNL A   1      45.189  25.194  26.953  1.00  0.00     0.074 A 
ATOM     53  C   UNL A   1      48.185  30.770  27.467  1.00  0.00     0.029 A 
ATOM     54  N   UNL A   1      46.669  29.144  27.470  1.00  0.00    -0.354 N 
ATOM     55  N   UNL A   1      45.722  26.384  27.103  1.00  0.00    -0.248 NA
ATOM     56  C   UNL A   1      46.132  24.166  26.493  1.00  0.00     0.031 C 
ATOM     57  C   UNL A   1      48.806  29.586  27.053  1.00  0.00     0.029 A 
ATOM     58  C   UNL A   1      47.865  28.569  27.075  1.00  0.00     0.049 A 
ATOM     59  H   UNL A   1      45.813  28.663  27.561  1.00  0.00     0.167 HD
ATOM     60  C   UNL A   1      47.067  26.240  26.780  1.00  0.00     0.074 A 
ATOM     61  C   UNL A   1      47.269  24.846  26.438  1.00  0.00     0.031 C 
ATOM     62  C   UNL A   1      48.046  27.175  26.763  1.00  0.00     0.037 A 
BRANCH  49  63
ATOM     63  C   UNL A   1      46.187  32.829  28.422  1.00  0.00     0.058 A 
ATOM     64  C   UNL A   1      46.619  33.256  29.687  1.00  0.00     0.135 A 
ATOM     65  C   UNL A   1      46.147  33.778  27.388  1.00  0.00     0.135 A 
ATOM     66  F   UNL A   1      46.658  32.393  30.715  1.00  0.00    -0.206 F 
ATOM     67  C   UNL A   1      46.981  34.577  29.925  1.00  0.00     0.059 A 
ATOM     68  C   UNL A   1      46.527  35.102  27.598  1.00  0.00     0.059 A 
ATOM     69  F   UNL A   1      45.741  33.424  26.159  1.00  0.00    -0.206 F 
ATOM     70  C   UNL A   1      46.931  35.493  28.873  1.00  0.00     0.060 A 
BRANCH  70  71
ATOM     71  S   UNL A   1      47.418  37.202  29.195  1.00  0.00     0.124 S 
ATOM     72  O   UNL A   1      46.515  37.933  28.313  1.00  0.00    -0.237 OA
ATOM     73  O   UNL A   1      47.157  37.339  30.624  1.00  0.00    -0.237 OA
ATOM     74  O   UNL A   1      48.827  37.230  28.813  1.00  0.00    -0.744 OA
ENDBRANCH  70  71
ENDBRANCH  49  63
BRANCH  50  75
ATOM     75  C   UNL A   1      43.354  23.357  26.925  1.00  0.00     0.058 A 
ATOM     76  C   UNL A   1      43.160  22.453  27.980  1.00  0.00     0.135 A 
ATOM     77  C   UNL A   1      43.165  22.886  25.618  1.00  0.00     0.135 A 
ATOM     78  F   UNL A   1      43.334  22.856  29.249  1.00  0.00    -0.206 F 
ATOM     79  C   UNL A   1      42.824  21.124  27.749  1.00  0.00     0.059 A 
ATOM     80  C   UNL A   1      42.806  21.566  25.361  1.00  0.00     0.059 A 
ATOM     81  F   UNL A   1      43.318  23.716  24.574  1.00  0.00    -0.206 F 
ATOM     82  C   UNL A   1      42.655  20.688  26.434  1.00  0.00     0.060 A 
BRANCH  82  83
ATOM     83  S   UNL A   1      42.202  18.965  26.137  1.00  0.00     0.124 S 
ATOM     84  O   UNL A   1      43.107  18.608  25.052  1.00  0.00    -0.237 OA
ATOM     85  O   UNL A   1      42.476  18.343  27.429  1.00  0.00    -0.237 OA
ATOM     86  O   UNL A   1      40.788  19.051  25.781  1.00  0.00    -0.744 OA
ENDBRANCH  82  83
ENDBRANCH  50  75
BRANCH  62  87
ATOM     87  C   UNL A   1      49.430  26.716  26.404  1.00  0.00     0.058 A 
ATOM     88  C   UNL A   1      50.262  26.087  27.341  1.00  0.00     0.135 A 
ATOM     89  C   UNL A   1      49.909  26.868  25.093  1.00  0.00     0.135 A 
ATOM     90  F   UNL A   1      49.850  25.924  28.608  1.00  0.00    -0.206 F 
ATOM     91  C   UNL A   1      51.532  25.640  26.997  1.00  0.00     0.059 A 
ATOM     92  C   UNL A   1      51.168  26.411  24.721  1.00  0.00     0.059 A 
ATOM     93  F   UNL A   1      49.146  27.457  24.158  1.00  0.00    -0.206 F 
ATOM     94  C   UNL A   1      51.978  25.807  25.683  1.00  0.00     0.060 A 
BRANCH  94  95
ATOM     95  S   UNL A   1      53.616  25.193  25.236  1.00  0.00     0.124 S 
ATOM     96  O   UNL A   1      53.440  23.753  25.387  1.00  0.00    -0.237 OA
ATOM     97  O   UNL A   1      53.770  25.674  23.867  1.00  0.00    -0.237 OA
ATOM     98  O   UNL A   1      54.493  25.826  26.219  1.00  0.00    -0.744 OA
ENDBRANCH  94  95
ENDBRANCH  62  87
ENDBRANCH  36  37
ENDBRANCH  28  31
ENDBRANCH  26  27
ENDBRANCH  25  26
ENDBRANCH   1  25
TORSDOF 19
ENDMDL
MODEL 2
REMARK VINA RESULT:     -11.0      6.270     10.984
REMARK SMILES COC(CNS(=O)(=O)c1ccc(Cl)c(C(=O)NCCCNC(=O)c2ccc(-c3c4nc(c(-c5c(F)cc(S(=O)(=O)[O-])cc5F)c5ccc([nH]5)c(-c5c(F)cc(S(=O)(=O)[O-])cc5F)c5nc(c(-c6c(F)cc(S(=O)(=O)[O-])cc6F)c6ccc3[nH]6)C=C5)C=C4)cc2)c1Cl)OC
REMARK SMILES IDX 18 1 17 2 15 3 16 4 14 6 9 7 10 8 90 9 11 10 91 11 12 12
REMARK SMILES IDX 13 13 6 14 7 15 8 16 5 17 4 19 3 20 2 21 1 22 92 23 93 24
REMARK SMILES IDX 19 25 20 26 21 27 22 28 23 30 24 31 25 32 89 33 26 34 88 35
REMARK SMILES IDX 27 36 28 37 29 38 82 39 30 40 87 41 81 42 83 43 31 44 86 45
REMARK SMILES IDX 80 46 79 47 32 49 66 50 45 51 65 52 46 53 49 54 64 55 84 56
REMARK SMILES IDX 47 57 48 58 63 60 85 61 50 62 33 63 34 64 43 65 35 66 36 67
REMARK SMILES IDX 42 68 44 69 37 70 38 71 39 72 40 73 41 74 67 75 68 76 77 77
REMARK SMILES IDX 69 78 70 79 76 80 78 81 71 82 72 83 73 84 74 85 75 86 51 87
REMARK SMILES IDX 52 88 61 89 53 90 54 91 60 92 62 93 55 94 56 95 57 96 58 97
REMARK SMILES IDX 59 98
REMARK H PARENT 17 5 5 18 21 29 83 48 49 59
REMARK Flexibility Score: inf
ROOT
ATOM      1  C   UNL A   1      31.548  30.772  26.366  1.00  0.00     0.118 C 
ENDROOT
BRANCH   1   2
ATOM      2  N   UNL A   1      31.061  30.452  25.039  1.00  0.00    -0.352 N 
ATOM      3  C   UNL A   1      31.146  29.427  24.143  1.00  0.00     0.254 C 
ATOM      4  O   UNL A   1      30.384  29.610  23.186  1.00  0.00    -0.269 OA
ATOM      5  H   UNL A   1      30.509  31.185  24.682  1.00  0.00     0.163 HD
BRANCH   3   6
ATOM      6  C   UNL A   1      31.875  28.107  24.244  1.00  0.00     0.078 A 
ATOM      7  C   UNL A   1      31.640  25.933  25.370  1.00  0.00     0.101 A 
ATOM      8  C   UNL A   1      33.029  25.824  25.449  1.00  0.00     0.025 A 
ATOM      9  C   UNL A   1      31.074  27.003  24.668  1.00  0.00     0.075 A 
ATOM     10  C   UNL A   1      33.821  26.741  24.773  1.00  0.00     0.023 A 
ATOM     11  Cl  UNL A   1      29.532  26.765  23.879  1.00  0.00    -0.082 Cl
ATOM     12  C   UNL A   1      33.252  27.868  24.158  1.00  0.00     0.055 A 
ATOM     13  Cl  UNL A   1      34.338  28.663  23.085  1.00  0.00    -0.083 Cl
BRANCH   7  14
ATOM     14  S   UNL A   1      30.747  24.683  26.250  1.00  0.00     0.242 S 
ATOM     15  O   UNL A   1      29.453  25.252  26.572  1.00  0.00    -0.207 OA
ATOM     16  O   UNL A   1      31.630  24.209  27.290  1.00  0.00    -0.207 OA
BRANCH  14  17
ATOM     17  N   UNL A   1      30.469  23.366  25.278  1.00  0.00    -0.206 NA
ATOM     18  H   UNL A   1      30.909  22.569  25.739  1.00  0.00     0.141 HD
BRANCH  17  19
ATOM     19  C   UNL A   1      30.927  23.347  23.878  1.00  0.00     0.161 C 
BRANCH  19  20
ATOM     20  C   UNL A   1      32.263  22.575  23.654  1.00  0.00     0.263 C 
BRANCH  20  21
ATOM     21  O   UNL A   1      33.097  22.984  22.566  1.00  0.00    -0.355 OA
ATOM     22  C   UNL A   1      32.940  24.301  22.076  1.00  0.00     0.198 C 
ENDBRANCH  20  21
BRANCH  20  23
ATOM     23  O   UNL A   1      32.173  21.161  23.840  1.00  0.00    -0.355 OA
ATOM     24  C   UNL A   1      32.159  20.360  22.678  1.00  0.00     0.198 C 
ENDBRANCH  20  23
ENDBRANCH  19  20
ENDBRANCH  17  19
ENDBRANCH  14  17
ENDBRANCH   7  14
ENDBRANCH   3   6
ENDBRANCH   1   2
BRANCH   1  25
ATOM     25  C   UNL A   1      31.495  32.278  26.622  1.00  0.00     0.042 C 
BRANCH  25  26
ATOM     26  C   UNL A   1      32.740  32.818  27.321  1.00  0.00     0.118 C 
BRANCH  26  27
ATOM     27  N   UNL A   1      32.572  34.206  27.727  1.00  0.00    -0.352 N 
ATOM     28  C   UNL A   1      33.119  34.889  28.785  1.00  0.00     0.251 C 
ATOM     29  H   UNL A   1      31.973  34.737  27.153  1.00  0.00     0.163 HD
ATOM     30  O   UNL A   1      32.632  35.970  29.112  1.00  0.00    -0.269 OA
BRANCH  28  31
ATOM     31  C   UNL A   1      34.278  34.347  29.530  1.00  0.00     0.039 A 
ATOM     32  C   UNL A   1      35.564  34.533  29.009  1.00  0.00     0.014 A 
ATOM     33  C   UNL A   1      34.107  33.593  30.695  1.00  0.00     0.014 A 
ATOM     34  C   UNL A   1      36.672  34.006  29.677  1.00  0.00     0.010 A 
ATOM     35  C   UNL A   1      35.217  33.125  31.396  1.00  0.00     0.010 A 
ATOM     36  C   UNL A   1      36.510  33.315  30.888  1.00  0.00    -0.014 A 
BRANCH  36  37
ATOM     37  C   UNL A   1      37.673  32.753  31.623  1.00  0.00     0.031 A 
ATOM     38  C   UNL A   1      38.382  31.536  31.088  1.00  0.00     0.074 A 
ATOM     39  C   UNL A   1      38.056  33.299  32.795  1.00  0.00     0.049 A 
ATOM     40  N   UNL A   1      39.335  30.826  31.634  1.00  0.00    -0.248 NA
ATOM     41  C   UNL A   1      37.942  31.039  29.773  1.00  0.00     0.031 C 
ATOM     42  C   UNL A   1      37.428  34.457  33.435  1.00  0.00     0.029 A 
ATOM     43  N   UNL A   1      39.057  32.943  33.664  1.00  0.00    -0.354 N 
ATOM     44  C   UNL A   1      39.600  29.794  30.741  1.00  0.00     0.074 A 
ATOM     45  C   UNL A   1      38.675  29.943  29.637  1.00  0.00     0.031 C 
ATOM     46  C   UNL A   1      38.064  34.720  34.589  1.00  0.00     0.029 A 
ATOM     47  C   UNL A   1      39.120  33.733  34.788  1.00  0.00     0.049 A 
ATOM     48  H   UNL A   1      39.670  32.191  33.499  1.00  0.00     0.167 HD
ATOM     49  C   UNL A   1      40.543  28.825  30.820  1.00  0.00     0.037 A 
ATOM     50  C   UNL A   1      39.931  33.661  35.861  1.00  0.00     0.037 A 
ATOM     51  C   UNL A   1      41.480  28.697  31.905  1.00  0.00     0.049 A 
ATOM     52  C   UNL A   1      40.978  32.582  35.918  1.00  0.00     0.074 A 
ATOM     53  C   UNL A   1      42.483  27.758  32.073  1.00  0.00     0.029 A 
ATOM     54  N   UNL A   1      41.542  29.547  32.998  1.00  0.00    -0.354 N 
ATOM     55  N   UNL A   1      41.223  31.624  35.055  1.00  0.00    -0.248 NA
ATOM     56  C   UNL A   1      41.865  32.576  37.090  1.00  0.00     0.031 C 
ATOM     57  C   UNL A   1      43.142  28.031  33.276  1.00  0.00     0.029 A 
ATOM     58  C   UNL A   1      42.569  29.158  33.842  1.00  0.00     0.049 A 
ATOM     59  H   UNL A   1      40.944  30.314  33.153  1.00  0.00     0.167 HD
ATOM     60  C   UNL A   1      42.306  30.920  35.568  1.00  0.00     0.074 A 
ATOM     61  C   UNL A   1      42.678  31.567  36.809  1.00  0.00     0.031 C 
ATOM     62  C   UNL A   1      42.935  29.832  35.061  1.00  0.00     0.037 A 
BRANCH  49  63
ATOM     63  C   UNL A   1      40.624  27.839  29.688  1.00  0.00     0.058 A 
ATOM     64  C   UNL A   1      39.697  26.792  29.568  1.00  0.00     0.135 A 
ATOM     65  C   UNL A   1      41.606  27.963  28.692  1.00  0.00     0.135 A 
ATOM     66  F   UNL A   1      38.749  26.618  30.502  1.00  0.00    -0.206 F 
ATOM     67  C   UNL A   1      39.751  25.889  28.511  1.00  0.00     0.059 A 
ATOM     68  C   UNL A   1      41.665  27.084  27.613  1.00  0.00     0.059 A 
ATOM     69  F   UNL A   1      42.518  28.946  28.759  1.00  0.00    -0.206 F 
ATOM     70  C   UNL A   1      40.740  26.044  27.538  1.00  0.00     0.060 A 
BRANCH  70  71
ATOM     71  S   UNL A   1      40.788  24.872  26.165  1.00  0.00     0.124 S 
ATOM     72  O   UNL A   1      41.283  25.715  25.081  1.00  0.00    -0.237 OA
ATOM     73  O   UNL A   1      41.715  23.856  26.651  1.00  0.00    -0.237 OA
ATOM     74  O   UNL A   1      39.399  24.440  26.040  1.00  0.00    -0.744 OA
ENDBRANCH  70  71
ENDBRANCH  49  63
BRANCH  50  75
ATOM     75  C   UNL A   1      39.797  34.641  36.970  1.00  0.00     0.058 A 
ATOM     76  C   UNL A   1      40.543  35.829  36.976  1.00  0.00     0.135 A 
ATOM     77  C   UNL A   1      38.937  34.404  38.053  1.00  0.00     0.135 A 
ATOM     78  F   UNL A   1      41.383  36.098  35.964  1.00  0.00    -0.206 F 
ATOM     79  C   UNL A   1      40.469  36.732  38.031  1.00  0.00     0.059 A 
ATOM     80  C   UNL A   1      38.827  35.304  39.109  1.00  0.00     0.059 A 
ATOM     81  F   UNL A   1      38.185  33.293  38.084  1.00  0.00    -0.206 F 
ATOM     82  C   UNL A   1      39.611  36.457  39.097  1.00  0.00     0.060 A 
BRANCH  82  83
ATOM     83  S   UNL A   1      39.503  37.640  40.457  1.00  0.00     0.124 S 
ATOM     84  O   UNL A   1      40.895  38.051  40.597  1.00  0.00    -0.237 OA
ATOM     85  O   UNL A   1      38.590  38.647  39.924  1.00  0.00    -0.237 OA
ATOM     86  O   UNL A   1      38.966  36.838  41.553  1.00  0.00    -0.744 OA
ENDBRANCH  82  83
ENDBRANCH  50  75
BRANCH  62  87
ATOM     87  C   UNL A   1      44.113  29.301  35.824  1.00  0.00     0.058 A 
ATOM     88  C   UNL A   1      45.394  29.853  35.677  1.00  0.00     0.135 A 
ATOM     89  C   UNL A   1      43.946  28.256  36.747  1.00  0.00     0.135 A 
ATOM     90  F   UNL A   1      45.604  30.849  34.802  1.00  0.00    -0.206 F 
ATOM     91  C   UNL A   1      46.477  29.374  36.406  1.00  0.00     0.059 A 
ATOM     92  C   UNL A   1      45.011  27.775  37.501  1.00  0.00     0.059 A 
ATOM     93  F   UNL A   1      42.737  27.701  36.930  1.00  0.00    -0.206 F 
ATOM     94  C   UNL A   1      46.276  28.333  37.316  1.00  0.00     0.060 A 
BRANCH  94  95
ATOM     95  S   UNL A   1      47.681  27.741  38.282  1.00  0.00     0.124 S 
ATOM     96  O   UNL A   1      48.210  28.988  38.824  1.00  0.00    -0.237 OA
ATOM     97  O   UNL A   1      47.046  26.849  39.248  1.00  0.00    -0.237 OA
ATOM     98  O   UNL A   1      48.521  27.081  37.287  1.00  0.00    -0.744 OA
ENDBRANCH  94  95
ENDBRANCH  62  87
ENDBRANCH  36  37
ENDBRANCH  28  31
ENDBRANCH  26  27
ENDBRANCH  25  26
ENDBRANCH   1  25
TORSDOF 19
ENDMDL
MODEL 3
REMARK VINA RESULT:     -10.8      1.187      1.973
REMARK SMILES COC(CNS(=O)(=O)c1ccc(Cl)c(C(=O)NCCCNC(=O)c2ccc(-c3c4nc(c(-c5c(F)cc(S(=O)(=O)[O-])cc5F)c5ccc([nH]5)c(-c5c(F)cc(S(=O)(=O)[O-])cc5F)c5nc(c(-c6c(F)cc(S(=O)(=O)[O-])cc6F)c6ccc3[nH]6)C=C5)C=C4)cc2)c1Cl)OC
REMARK SMILES IDX 18 1 17 2 15 3 16 4 14 6 9 7 10 8 90 9 11 10 91 11 12 12
REMARK SMILES IDX 13 13 6 14 7 15 8 16 5 17 4 19 3 20 2 21 1 22 92 23 93 24
REMARK SMILES IDX 19 25 20 26 21 27 22 28 23 30 24 31 25 32 89 33 26 34 88 35
REMARK SMILES IDX 27 36 28 37 29 38 82 39 30 40 87 41 81 42 83 43 31 44 86 45
REMARK SMILES IDX 80 46 79 47 32 49 66 50 45 51 65 52 46 53 49 54 64 55 84 56
REMARK SMILES IDX 47 57 48 58 63 60 85 61 50 62 33 63 34 64 43 65 35 66 36 67
REMARK SMILES IDX 42 68 44 69 37 70 38 71 39 72 40 73 41 74 67 75 68 76 77 77
REMARK SMILES IDX 69 78 70 79 76 80 78 81 71 82 72 83 73 84 74 85 75 86 51 87
REMARK SMILES IDX 52 88 61 89 53 90 54 91 60 92 62 93 55 94 56 95 57 96 58 97
REMARK SMILES IDX 59 98
REMARK H PARENT 17 5 5 18 21 29 83 48 49 59
REMARK Flexibility Score: inf
ROOT
ATOM      1  C   UNL A   1      33.408  30.259  26.648  1.00  0.00     0.118 C 
ENDROOT
BRANCH   1   2
ATOM      2  N   UNL A   1      33.569  29.724  25.311  1.00  0.00    -0.352 N 
ATOM      3  C   UNL A   1      32.879  28.930  24.442  1.00  0.00     0.254 C 
ATOM      4  O   UNL A   1      33.420  28.916  23.330  1.00  0.00    -0.269 OA
ATOM      5  H   UNL A   1      34.420  30.020  24.916  1.00  0.00     0.163 HD
BRANCH   3   6
ATOM      6  C   UNL A   1      31.540  28.249  24.603  1.00  0.00     0.078 A 
ATOM      7  C   UNL A   1      30.632  26.071  25.294  1.00  0.00     0.101 A 
ATOM      8  C   UNL A   1      29.575  26.226  24.396  1.00  0.00     0.025 A 
ATOM      9  C   UNL A   1      31.534  27.123  25.481  1.00  0.00     0.075 A 
ATOM     10  C   UNL A   1      29.401  27.446  23.758  1.00  0.00     0.023 A 
ATOM     11  Cl  UNL A   1      32.293  27.306  27.046  1.00  0.00    -0.082 Cl
ATOM     12  C   UNL A   1      30.366  28.460  23.871  1.00  0.00     0.055 A 
ATOM     13  Cl  UNL A   1      29.796  29.988  23.317  1.00  0.00    -0.083 Cl
BRANCH   7  14
ATOM     14  S   UNL A   1      30.722  24.479  26.063  1.00  0.00     0.242 S 
ATOM     15  O   UNL A   1      29.521  24.341  26.864  1.00  0.00    -0.207 OA
ATOM     16  O   UNL A   1      32.031  24.391  26.667  1.00  0.00    -0.207 OA
BRANCH  14  17
ATOM     17  N   UNL A   1      30.685  23.272  24.923  1.00  0.00    -0.206 NA
ATOM     18  H   UNL A   1      31.251  22.508  25.293  1.00  0.00     0.141 HD
BRANCH  17  19
ATOM     19  C   UNL A   1      31.154  23.515  23.548  1.00  0.00     0.161 C 
BRANCH  19  20
ATOM     20  C   UNL A   1      32.283  22.547  23.078  1.00  0.00     0.263 C 
BRANCH  20  21
ATOM     21  O   UNL A   1      32.060  21.142  23.223  1.00  0.00    -0.355 OA
ATOM     22  C   UNL A   1      32.845  20.445  24.169  1.00  0.00     0.198 C 
ENDBRANCH  20  21
BRANCH  20  23
ATOM     23  O   UNL A   1      33.607  22.980  23.392  1.00  0.00    -0.355 OA
ATOM     24  C   UNL A   1      33.811  24.370  23.538  1.00  0.00     0.198 C 
ENDBRANCH  20  23
ENDBRANCH  19  20
ENDBRANCH  17  19
ENDBRANCH  14  17
ENDBRANCH   7  14
ENDBRANCH   3   6
ENDBRANCH   1   2
BRANCH   1  25
ATOM     25  C   UNL A   1      34.568  29.842  27.551  1.00  0.00     0.042 C 
BRANCH  25  26
ATOM     26  C   UNL A   1      35.442  31.012  27.995  1.00  0.00     0.118 C 
BRANCH  26  27
ATOM     27  N   UNL A   1      35.443  31.167  29.442  1.00  0.00    -0.352 N 
ATOM     28  C   UNL A   1      36.349  30.732  30.377  1.00  0.00     0.251 C 
ATOM     29  H   UNL A   1      34.673  31.661  29.807  1.00  0.00     0.163 HD
ATOM     30  O   UNL A   1      36.024  30.720  31.563  1.00  0.00    -0.269 OA
BRANCH  28  31
ATOM     31  C   UNL A   1      37.703  30.281  29.979  1.00  0.00     0.039 A 
ATOM     32  C   UNL A   1      38.621  29.936  30.977  1.00  0.00     0.014 A 
ATOM     33  C   UNL A   1      38.100  30.266  28.639  1.00  0.00     0.014 A 
ATOM     34  C   UNL A   1      39.914  29.536  30.630  1.00  0.00     0.010 A 
ATOM     35  C   UNL A   1      39.367  29.804  28.289  1.00  0.00     0.010 A 
ATOM     36  C   UNL A   1      40.292  29.446  29.281  1.00  0.00    -0.014 A 
BRANCH  36  37
ATOM     37  C   UNL A   1      41.658  29.013  28.884  1.00  0.00     0.031 A 
ATOM     38  C   UNL A   1      42.780  30.018  28.844  1.00  0.00     0.074 A 
ATOM     39  C   UNL A   1      41.877  27.738  28.508  1.00  0.00     0.049 A 
ATOM     40  N   UNL A   1      44.007  29.871  28.415  1.00  0.00    -0.248 NA
ATOM     41  C   UNL A   1      42.473  31.374  29.327  1.00  0.00     0.031 C 
ATOM     42  C   UNL A   1      40.864  26.680  28.471  1.00  0.00     0.029 A 
ATOM     43  N   UNL A   1      43.020  27.117  28.070  1.00  0.00    -0.354 N 
ATOM     44  C   UNL A   1      44.613  31.114  28.564  1.00  0.00     0.074 A 
ATOM     45  C   UNL A   1      43.606  32.016  29.080  1.00  0.00     0.031 C 
ATOM     46  C   UNL A   1      41.434  25.540  28.043  1.00  0.00     0.029 A 
ATOM     47  C   UNL A   1      42.840  25.793  27.745  1.00  0.00     0.049 A 
ATOM     48  H   UNL A   1      43.887  27.577  27.996  1.00  0.00     0.167 HD
ATOM     49  C   UNL A   1      45.898  31.466  28.317  1.00  0.00     0.037 A 
ATOM     50  C   UNL A   1      43.709  24.890  27.251  1.00  0.00     0.037 A 
ATOM     51  C   UNL A   1      46.905  30.560  27.831  1.00  0.00     0.049 A 
ATOM     52  C   UNL A   1      45.133  25.303  26.997  1.00  0.00     0.074 A 
ATOM     53  C   UNL A   1      48.238  30.814  27.562  1.00  0.00     0.029 A 
ATOM     54  N   UNL A   1      46.693  29.216  27.562  1.00  0.00    -0.354 N 
ATOM     55  N   UNL A   1      45.690  26.481  27.160  1.00  0.00    -0.248 NA
ATOM     56  C   UNL A   1      46.049  24.268  26.500  1.00  0.00     0.031 C 
ATOM     57  C   UNL A   1      48.829  29.628  27.114  1.00  0.00     0.029 A 
ATOM     58  C   UNL A   1      47.870  28.628  27.134  1.00  0.00     0.049 A 
ATOM     59  H   UNL A   1      45.831  28.748  27.660  1.00  0.00     0.167 HD
ATOM     60  C   UNL A   1      47.026  26.319  26.809  1.00  0.00     0.074 A 
ATOM     61  C   UNL A   1      47.196  24.929  26.437  1.00  0.00     0.031 C 
ATOM     62  C   UNL A   1      48.022  27.237  26.791  1.00  0.00     0.037 A 
BRANCH  49  63
ATOM     63  C   UNL A   1      46.294  32.890  28.592  1.00  0.00     0.058 A 
ATOM     64  C   UNL A   1      46.785  33.278  29.848  1.00  0.00     0.135 A 
ATOM     65  C   UNL A   1      46.224  33.865  27.585  1.00  0.00     0.135 A 
ATOM     66  F   UNL A   1      46.856  32.388  30.851  1.00  0.00    -0.206 F 
ATOM     67  C   UNL A   1      47.175  34.588  30.104  1.00  0.00     0.059 A 
ATOM     68  C   UNL A   1      46.631  35.179  27.812  1.00  0.00     0.059 A 
ATOM     69  F   UNL A   1      45.761  33.548  26.366  1.00  0.00    -0.206 F 
ATOM     70  C   UNL A   1      47.094  35.532  29.079  1.00  0.00     0.060 A 
BRANCH  70  71
ATOM     71  S   UNL A   1      47.618  37.225  29.423  1.00  0.00     0.124 S 
ATOM     72  O   UNL A   1      48.820  37.330  28.602  1.00  0.00    -0.237 OA
ATOM     73  O   UNL A   1      46.472  38.007  28.971  1.00  0.00    -0.237 OA
ATOM     74  O   UNL A   1      47.842  37.224  30.866  1.00  0.00    -0.744 OA
ENDBRANCH  70  71
ENDBRANCH  49  63
BRANCH  50  75
ATOM     75  C   UNL A   1      43.266  23.499  26.968  1.00  0.00     0.058 A 
ATOM     76  C   UNL A   1      43.059  22.584  28.010  1.00  0.00     0.135 A 
ATOM     77  C   UNL A   1      43.059  23.052  25.655  1.00  0.00     0.135 A 
ATOM     78  F   UNL A   1      43.248  22.964  29.284  1.00  0.00    -0.206 F 
ATOM     79  C   UNL A   1      42.695  21.265  27.761  1.00  0.00     0.059 A 
ATOM     80  C   UNL A   1      42.672  21.744  25.380  1.00  0.00     0.059 A 
ATOM     81  F   UNL A   1      43.224  23.896  24.624  1.00  0.00    -0.206 F 
ATOM     82  C   UNL A   1      42.510  20.853  26.440  1.00  0.00     0.060 A 
BRANCH  82  83
ATOM     83  S   UNL A   1      42.020  19.144  26.120  1.00  0.00     0.124 S 
ATOM     84  O   UNL A   1      40.586  19.289  25.900  1.00  0.00    -0.237 OA
ATOM     85  O   UNL A   1      42.815  18.806  24.944  1.00  0.00    -0.237 OA
ATOM     86  O   UNL A   1      42.407  18.453  27.347  1.00  0.00    -0.744 OA
ENDBRANCH  82  83
ENDBRANCH  50  75
BRANCH  62  87
ATOM     87  C   UNL A   1      49.390  26.761  26.398  1.00  0.00     0.058 A 
ATOM     88  C   UNL A   1      49.839  26.830  25.071  1.00  0.00     0.135 A 
ATOM     89  C   UNL A   1      50.276  26.272  27.370  1.00  0.00     0.135 A 
ATOM     90  F   UNL A   1      49.025  27.285  24.105  1.00  0.00    -0.206 F 
ATOM     91  C   UNL A   1      51.116  26.412  24.716  1.00  0.00     0.059 A 
ATOM     92  C   UNL A   1      51.565  25.867  27.042  1.00  0.00     0.059 A 
ATOM     93  F   UNL A   1      49.895  26.194  28.656  1.00  0.00    -0.206 F 
ATOM     94  C   UNL A   1      51.973  25.930  25.709  1.00  0.00     0.060 A 
BRANCH  94  95
ATOM     95  S   UNL A   1      53.642  25.421  25.245  1.00  0.00     0.124 S 
ATOM     96  O   UNL A   1      54.440  26.030  26.303  1.00  0.00    -0.237 OA
ATOM     97  O   UNL A   1      53.548  23.965  25.279  1.00  0.00    -0.237 OA
ATOM     98  O   UNL A   1      53.814  26.001  23.915  1.00  0.00    -0.744 OA
ENDBRANCH  94  95
ENDBRANCH  62  87
ENDBRANCH  36  37
ENDBRANCH  28  31
ENDBRANCH  26  27
ENDBRANCH  25  26
ENDBRANCH   1  25
TORSDOF 19
ENDMDL
