MODEL 1
REMARK VINA RESULT:     -12.5      0.000      0.000
REMARK SMILES CCCOC(=O)c1c(NC(=O)[C@@H]2CC=CC[C@H]2C(=O)NCCCNC(=O)c2ccc(-c3c4nc(c(-c5c(F)cc(S(=O)(=O)[O-])cc5F)c5ccc([nH]5)c(-c5c(F)cc(S(=O)(=O)[O-])cc5F)c5nc(c(-c6c(F)cc(S(=O)(=O)[O-])cc6F)c6ccc3[nH]6)C=C5)C=C4)cc2)sc2c1CCCC2
REMARK SMILES IDX 18 1 19 2 20 3 17 5 12 6 13 7 14 8 16 9 15 10 10 11 9 12
REMARK SMILES IDX 11 14 8 15 7 16 95 17 93 18 94 19 96 20 99 21 97 22 98 23
REMARK SMILES IDX 5 24 6 25 4 26 3 27 2 28 1 29 21 30 22 31 23 32 24 33 25 34
REMARK SMILES IDX 26 36 27 37 28 38 92 39 29 40 91 41 30 42 31 43 32 44 85 45
REMARK SMILES IDX 33 46 90 47 84 48 86 49 34 50 89 51 83 52 82 53 35 55 69 56
REMARK SMILES IDX 48 57 68 58 49 59 52 60 67 61 87 62 50 63 51 64 66 66 88 67
REMARK SMILES IDX 53 68 36 69 37 70 46 71 38 72 39 73 45 74 47 75 40 76 41 77
REMARK SMILES IDX 42 78 43 79 44 80 70 81 71 82 80 83 72 84 73 85 79 86 81 87
REMARK SMILES IDX 74 88 75 89 76 90 77 91 78 92 54 93 55 94 64 95 56 96 57 97
REMARK SMILES IDX 63 98 65 99 58 100 59 101 60 102 61 103 62 104
REMARK H PARENT 20 4 9 13 24 35 86 54 52 65
REMARK Flexibility Score: inf
ROOT
ATOM      1  C   UNL A   1      32.149  29.657  26.647  1.00  0.00     0.224 C 
ATOM      2  O   UNL A   1      31.500  28.904  27.417  1.00  0.00    -0.275 OA
ATOM      3  N   UNL A   1      33.088  30.400  27.443  1.00  0.00    -0.356 N 
ATOM      4  H   UNL A   1      32.654  30.479  28.324  1.00  0.00     0.163 HD
ENDROOT
BRANCH   1   5
ATOM      5  C   UNL A   1      31.521  29.570  24.917  1.00  0.00     0.095 C 
ATOM      6  C   UNL A   1      32.004  28.406  23.987  1.00  0.00     0.095 C 
ATOM      7  C   UNL A   1      31.810  28.517  22.447  1.00  0.00     0.041 C 
ATOM      8  C   UNL A   1      30.616  29.265  21.992  1.00  0.00    -0.030 C 
ATOM      9  C   UNL A   1      30.074  29.774  24.339  1.00  0.00     0.041 C 
ATOM     10  C   UNL A   1      29.837  29.888  22.868  1.00  0.00    -0.030 C 
BRANCH   6  11
ATOM     11  C   UNL A   1      33.447  28.242  24.194  1.00  0.00     0.229 C 
ATOM     12  N   UNL A   1      33.847  26.993  24.404  1.00  0.00    -0.317 N 
ATOM     13  H   UNL A   1      34.810  26.916  24.591  1.00  0.00     0.170 HD
ATOM     14  O   UNL A   1      34.270  29.149  24.197  1.00  0.00    -0.274 OA
BRANCH  12  15
ATOM     15  C   UNL A   1      33.195  25.799  24.412  1.00  0.00     0.110 A 
ATOM     16  C   UNL A   1      32.298  24.952  25.111  1.00  0.00     0.098 A 
ATOM     17  C   UNL A   1      32.049  23.854  24.107  1.00  0.00    -0.017 A 
ATOM     18  S   UNL A   1      33.852  25.220  22.953  1.00  0.00    -0.122 S 
ATOM     19  C   UNL A   1      32.854  23.916  22.965  1.00  0.00     0.011 A 
ATOM     20  C   UNL A   1      31.214  22.621  24.161  1.00  0.00     0.038 C 
ATOM     21  C   UNL A   1      33.048  22.911  21.860  1.00  0.00     0.047 C 
ATOM     22  C   UNL A   1      32.156  21.489  23.668  1.00  0.00     0.005 C 
ATOM     23  C   UNL A   1      32.348  21.606  22.165  1.00  0.00     0.006 C 
BRANCH  16  24
ATOM     24  C   UNL A   1      31.623  25.059  26.607  1.00  0.00     0.341 C 
ATOM     25  O   UNL A   1      30.800  25.922  26.864  1.00  0.00    -0.246 OA
BRANCH  24  26
ATOM     26  O   UNL A   1      31.915  24.046  27.566  1.00  0.00    -0.462 OA
BRANCH  26  27
ATOM     27  C   UNL A   1      32.455  22.574  27.912  1.00  0.00     0.233 C 
BRANCH  27  28
ATOM     28  C   UNL A   1      33.982  22.104  27.386  1.00  0.00     0.038 C 
ATOM     29  C   UNL A   1      34.913  22.713  26.277  1.00  0.00     0.007 C 
ENDBRANCH  27  28
ENDBRANCH  26  27
ENDBRANCH  24  26
ENDBRANCH  16  24
ENDBRANCH  12  15
ENDBRANCH   6  11
ENDBRANCH   1   5
BRANCH   3  30
ATOM     30  C   UNL A   1      34.550  31.201  27.625  1.00  0.00     0.117 C 
BRANCH  30  31
ATOM     31  C   UNL A   1      34.966  32.532  28.513  1.00  0.00     0.042 C 
BRANCH  31  32
ATOM     32  C   UNL A   1      34.753  32.549  30.098  1.00  0.00     0.118 C 
BRANCH  32  33
ATOM     33  N   UNL A   1      35.294  31.392  30.935  1.00  0.00    -0.352 N 
ATOM     34  C   UNL A   1      36.422  30.640  31.290  1.00  0.00     0.251 C 
ATOM     35  H   UNL A   1      34.532  31.018  31.433  1.00  0.00     0.163 HD
ATOM     36  O   UNL A   1      36.279  30.008  32.349  1.00  0.00    -0.269 OA
BRANCH  34  37
ATOM     37  C   UNL A   1      37.745  30.376  30.603  1.00  0.00     0.039 A 
ATOM     38  C   UNL A   1      38.841  29.974  31.390  1.00  0.00     0.014 A 
ATOM     39  C   UNL A   1      38.095  30.730  29.310  1.00  0.00     0.014 A 
ATOM     40  C   UNL A   1      40.149  29.773  30.851  1.00  0.00     0.010 A 
ATOM     41  C   UNL A   1      39.345  30.343  28.731  1.00  0.00     0.010 A 
ATOM     42  C   UNL A   1      40.423  29.842  29.473  1.00  0.00    -0.014 A 
BRANCH  42  43
ATOM     43  C   UNL A   1      41.789  29.435  28.880  1.00  0.00     0.031 A 
ATOM     44  C   UNL A   1      42.987  30.398  28.743  1.00  0.00     0.074 A 
ATOM     45  C   UNL A   1      41.993  28.183  28.384  1.00  0.00     0.049 A 
ATOM     46  N   UNL A   1      44.196  30.168  28.267  1.00  0.00    -0.248 NA
ATOM     47  C   UNL A   1      42.797  31.803  29.126  1.00  0.00     0.031 C 
ATOM     48  C   UNL A   1      40.969  27.144  28.244  1.00  0.00     0.029 A 
ATOM     49  N   UNL A   1      43.134  27.551  27.908  1.00  0.00    -0.354 N 
ATOM     50  C   UNL A   1      44.866  31.397  28.250  1.00  0.00     0.074 A 
ATOM     51  C   UNL A   1      43.901  32.383  28.678  1.00  0.00     0.031 C 
ATOM     52  C   UNL A   1      41.531  26.000  27.823  1.00  0.00     0.029 A 
ATOM     53  C   UNL A   1      42.955  26.215  27.594  1.00  0.00     0.049 A 
ATOM     54  H   UNL A   1      43.995  28.014  27.801  1.00  0.00     0.167 HD
ATOM     55  C   UNL A   1      46.165  31.698  27.972  1.00  0.00     0.037 A 
ATOM     56  C   UNL A   1      43.812  25.253  27.181  1.00  0.00     0.037 A 
ATOM     57  C   UNL A   1      47.181  30.727  27.647  1.00  0.00     0.049 A 
ATOM     58  C   UNL A   1      45.274  25.573  26.987  1.00  0.00     0.074 A 
ATOM     59  C   UNL A   1      48.545  30.927  27.499  1.00  0.00     0.029 A 
ATOM     60  N   UNL A   1      46.954  29.379  27.427  1.00  0.00    -0.354 N 
ATOM     61  N   UNL A   1      45.890  26.721  27.123  1.00  0.00    -0.248 NA
ATOM     62  C   UNL A   1      46.159  24.464  26.592  1.00  0.00     0.031 C 
ATOM     63  C   UNL A   1      49.135  29.710  27.139  1.00  0.00     0.029 A 
ATOM     64  C   UNL A   1      48.148  28.741  27.123  1.00  0.00     0.049 A 
ATOM     65  H   UNL A   1      46.075  28.939  27.479  1.00  0.00     0.167 HD
ATOM     66  C   UNL A   1      47.234  26.465  26.858  1.00  0.00     0.074 A 
ATOM     67  C   UNL A   1      47.346  25.053  26.575  1.00  0.00     0.031 C 
ATOM     68  C   UNL A   1      48.276  27.332  26.852  1.00  0.00     0.037 A 
BRANCH  55  69
ATOM     69  C   UNL A   1      46.607  33.147  28.060  1.00  0.00     0.058 A 
ATOM     70  C   UNL A   1      47.164  33.683  29.234  1.00  0.00     0.135 A 
ATOM     71  C   UNL A   1      46.553  33.989  26.933  1.00  0.00     0.135 A 
ATOM     72  F   UNL A   1      47.252  32.932  30.344  1.00  0.00    -0.206 F 
ATOM     73  C   UNL A   1      47.602  35.003  29.305  1.00  0.00     0.059 A 
ATOM     74  C   UNL A   1      47.022  35.303  26.970  1.00  0.00     0.059 A 
ATOM     75  F   UNL A   1      46.055  33.535  25.773  1.00  0.00    -0.206 F 
ATOM     76  C   UNL A   1      47.529  35.806  28.167  1.00  0.00     0.060 A 
BRANCH  76  77
ATOM     77  S   UNL A   1      48.110  37.512  28.279  1.00  0.00     0.124 S 
ATOM     78  O   UNL A   1      47.708  38.042  26.978  1.00  0.00    -0.237 OA
ATOM     79  O   UNL A   1      47.364  38.022  29.426  1.00  0.00    -0.237 OA
ATOM     80  O   UNL A   1      49.549  37.372  28.480  1.00  0.00    -0.744 OA
ENDBRANCH  76  77
ENDBRANCH  55  69
BRANCH  56  81
ATOM     81  C   UNL A   1      43.329  23.852  26.969  1.00  0.00     0.058 A 
ATOM     82  C   UNL A   1      43.081  23.359  25.677  1.00  0.00     0.135 A 
ATOM     83  C   UNL A   1      43.098  22.981  28.046  1.00  0.00     0.135 A 
ATOM     84  F   UNL A   1      43.266  24.153  24.610  1.00  0.00    -0.206 F 
ATOM     85  C   UNL A   1      42.611  22.066  25.460  1.00  0.00     0.059 A 
ATOM     86  C   UNL A   1      42.659  21.672  27.853  1.00  0.00     0.059 A 
ATOM     87  F   UNL A   1      43.325  23.393  29.302  1.00  0.00    -0.206 F 
ATOM     88  C   UNL A   1      42.407  21.228  26.555  1.00  0.00     0.060 A 
BRANCH  88  89
ATOM     89  S   UNL A   1      41.849  19.534  26.258  1.00  0.00     0.124 S 
ATOM     90  O   UNL A   1      42.555  19.203  25.025  1.00  0.00    -0.237 OA
ATOM     91  O   UNL A   1      42.309  18.845  27.461  1.00  0.00    -0.237 OA
ATOM     92  O   UNL A   1      40.401  19.673  26.139  1.00  0.00    -0.744 OA
ENDBRANCH  88  89
ENDBRANCH  56  81
BRANCH  68  93
ATOM     93  C   UNL A   1      49.651  26.784  26.572  1.00  0.00     0.058 A 
ATOM     94  C   UNL A   1      50.511  26.374  27.603  1.00  0.00     0.135 A 
ATOM     95  C   UNL A   1      50.094  26.621  25.250  1.00  0.00     0.135 A 
ATOM     96  F   UNL A   1      50.140  26.509  28.886  1.00  0.00    -0.206 F 
ATOM     97  C   UNL A   1      51.772  25.849  27.334  1.00  0.00     0.059 A 
ATOM     98  C   UNL A   1      51.338  26.070  24.955  1.00  0.00     0.059 A 
ATOM     99  F   UNL A   1      49.309  26.985  24.223  1.00  0.00    -0.206 F 
ATOM    100  C   UNL A   1      52.176  25.699  26.005  1.00  0.00     0.060 A 
BRANCH 100 101
ATOM    101  S   UNL A   1      53.804  24.992  25.670  1.00  0.00     0.124 S 
ATOM    102  O   UNL A   1      54.316  25.902  24.651  1.00  0.00    -0.237 OA
ATOM    103  O   UNL A   1      54.453  25.071  26.975  1.00  0.00    -0.237 OA
ATOM    104  O   UNL A   1      53.499  23.641  25.209  1.00  0.00    -0.744 OA
ENDBRANCH 100 101
ENDBRANCH  68  93
ENDBRANCH  42  43
ENDBRANCH  34  37
ENDBRANCH  32  33
ENDBRANCH  31  32
ENDBRANCH  30  31
ENDBRANCH   3  30
TORSDOF 19
ENDMDL
MODEL 2
REMARK VINA RESULT:     -12.0      0.999      2.216
REMARK SMILES CCCOC(=O)c1c(NC(=O)[C@@H]2CC=CC[C@H]2C(=O)NCCCNC(=O)c2ccc(-c3c4nc(c(-c5c(F)cc(S(=O)(=O)[O-])cc5F)c5ccc([nH]5)c(-c5c(F)cc(S(=O)(=O)[O-])cc5F)c5nc(c(-c6c(F)cc(S(=O)(=O)[O-])cc6F)c6ccc3[nH]6)C=C5)C=C4)cc2)sc2c1CCCC2
REMARK SMILES IDX 18 1 19 2 20 3 17 5 12 6 13 7 14 8 16 9 15 10 10 11 9 12
REMARK SMILES IDX 11 14 8 15 7 16 95 17 93 18 94 19 96 20 99 21 97 22 98 23
REMARK SMILES IDX 5 24 6 25 4 26 3 27 2 28 1 29 21 30 22 31 23 32 24 33 25 34
REMARK SMILES IDX 26 36 27 37 28 38 92 39 29 40 91 41 30 42 31 43 32 44 85 45
REMARK SMILES IDX 33 46 90 47 84 48 86 49 34 50 89 51 83 52 82 53 35 55 69 56
REMARK SMILES IDX 48 57 68 58 49 59 52 60 67 61 87 62 50 63 51 64 66 66 88 67
REMARK SMILES IDX 53 68 36 69 37 70 46 71 38 72 39 73 45 74 47 75 40 76 41 77
REMARK SMILES IDX 42 78 43 79 44 80 70 81 71 82 80 83 72 84 73 85 79 86 81 87
REMARK SMILES IDX 74 88 75 89 76 90 77 91 78 92 54 93 55 94 64 95 56 96 57 97
REMARK SMILES IDX 63 98 65 99 58 100 59 101 60 102 61 103 62 104
REMARK H PARENT 20 4 9 13 24 35 86 54 52 65
REMARK Flexibility Score: inf
ROOT
ATOM      1  C   UNL A   1      32.548  29.417  26.850  1.00  0.00     0.224 C 
ATOM      2  O   UNL A   1      32.085  28.530  27.611  1.00  0.00    -0.275 OA
ATOM      3  N   UNL A   1      33.409  30.264  27.631  1.00  0.00    -0.356 N 
ATOM      4  H   UNL A   1      33.031  30.226  28.539  1.00  0.00     0.163 HD
ENDROOT
BRANCH   1   5
ATOM      5  C   UNL A   1      31.822  29.314  25.160  1.00  0.00     0.095 C 
ATOM      6  C   UNL A   1      32.288  28.169  24.197  1.00  0.00     0.095 C 
ATOM      7  C   UNL A   1      31.999  28.278  22.672  1.00  0.00     0.041 C 
ATOM      8  C   UNL A   1      30.756  28.987  22.292  1.00  0.00    -0.030 C 
ATOM      9  C   UNL A   1      30.337  29.471  24.669  1.00  0.00     0.041 C 
ATOM     10  C   UNL A   1      30.010  29.582  23.215  1.00  0.00    -0.030 C 
BRANCH   6  11
ATOM     11  C   UNL A   1      33.745  28.053  24.318  1.00  0.00     0.229 C 
ATOM     12  N   UNL A   1      34.174  26.950  24.921  1.00  0.00    -0.317 N 
ATOM     13  H   UNL A   1      35.151  26.920  25.035  1.00  0.00     0.170 HD
ATOM     14  O   UNL A   1      34.557  28.881  23.923  1.00  0.00    -0.274 OA
BRANCH  12  15
ATOM     15  C   UNL A   1      33.535  25.854  25.413  1.00  0.00     0.110 A 
ATOM     16  C   UNL A   1      32.286  25.251  25.703  1.00  0.00     0.098 A 
ATOM     17  C   UNL A   1      32.688  23.844  26.069  1.00  0.00    -0.017 A 
ATOM     18  S   UNL A   1      34.943  24.983  25.808  1.00  0.00    -0.122 S 
ATOM     19  C   UNL A   1      34.068  23.641  26.173  1.00  0.00     0.011 A 
ATOM     20  C   UNL A   1      31.895  22.656  26.493  1.00  0.00     0.038 C 
ATOM     21  C   UNL A   1      34.838  22.462  26.708  1.00  0.00     0.047 C 
ATOM     22  C   UNL A   1      32.629  22.125  27.754  1.00  0.00     0.005 C 
ATOM     23  C   UNL A   1      33.920  21.440  27.341  1.00  0.00     0.006 C 
BRANCH  16  24
ATOM     24  C   UNL A   1      30.747  25.830  25.657  1.00  0.00     0.341 C 
ATOM     25  O   UNL A   1      30.288  26.468  26.591  1.00  0.00    -0.246 OA
BRANCH  24  26
ATOM     26  O   UNL A   1      29.995  25.689  24.455  1.00  0.00    -0.462 OA
BRANCH  26  27
ATOM     27  C   UNL A   1      28.818  26.194  23.485  1.00  0.00     0.233 C 
BRANCH  27  28
ATOM     28  C   UNL A   1      27.526  27.059  24.127  1.00  0.00     0.038 C 
ATOM     29  C   UNL A   1      26.675  28.229  23.516  1.00  0.00     0.007 C 
ENDBRANCH  27  28
ENDBRANCH  26  27
ENDBRANCH  24  26
ENDBRANCH  16  24
ENDBRANCH  12  15
ENDBRANCH   6  11
ENDBRANCH   1   5
BRANCH   3  30
ATOM     30  C   UNL A   1      34.731  31.285  27.771  1.00  0.00     0.117 C 
BRANCH  30  31
ATOM     31  C   UNL A   1      34.953  32.678  28.633  1.00  0.00     0.042 C 
BRANCH  31  32
ATOM     32  C   UNL A   1      34.853  32.669  30.229  1.00  0.00     0.118 C 
BRANCH  32  33
ATOM     33  N   UNL A   1      35.347  31.447  31.000  1.00  0.00    -0.352 N 
ATOM     34  C   UNL A   1      36.445  30.636  31.315  1.00  0.00     0.251 C 
ATOM     35  H   UNL A   1      34.569  31.074  31.473  1.00  0.00     0.163 HD
ATOM     36  O   UNL A   1      36.274  29.949  32.336  1.00  0.00    -0.269 OA
BRANCH  34  37
ATOM     37  C   UNL A   1      37.761  30.364  30.619  1.00  0.00     0.039 A 
ATOM     38  C   UNL A   1      38.880  30.028  31.405  1.00  0.00     0.014 A 
ATOM     39  C   UNL A   1      38.081  30.655  29.302  1.00  0.00     0.014 A 
ATOM     40  C   UNL A   1      40.182  29.826  30.854  1.00  0.00     0.010 A 
ATOM     41  C   UNL A   1      39.329  30.265  28.722  1.00  0.00     0.010 A 
ATOM     42  C   UNL A   1      40.431  29.827  29.469  1.00  0.00    -0.014 A 
BRANCH  42  43
ATOM     43  C   UNL A   1      41.795  29.418  28.873  1.00  0.00     0.031 A 
ATOM     44  C   UNL A   1      42.992  30.381  28.726  1.00  0.00     0.074 A 
ATOM     45  C   UNL A   1      41.999  28.163  28.384  1.00  0.00     0.049 A 
ATOM     46  N   UNL A   1      44.199  30.150  28.247  1.00  0.00    -0.248 NA
ATOM     47  C   UNL A   1      42.801  31.789  29.103  1.00  0.00     0.031 C 
ATOM     48  C   UNL A   1      40.975  27.123  28.253  1.00  0.00     0.029 A 
ATOM     49  N   UNL A   1      43.138  27.530  27.907  1.00  0.00    -0.354 N 
ATOM     50  C   UNL A   1      44.867  31.380  28.221  1.00  0.00     0.074 A 
ATOM     51  C   UNL A   1      43.904  32.367  28.647  1.00  0.00     0.031 C 
ATOM     52  C   UNL A   1      41.536  25.977  27.836  1.00  0.00     0.029 A 
ATOM     53  C   UNL A   1      42.960  26.192  27.601  1.00  0.00     0.049 A 
ATOM     54  H   UNL A   1      43.999  27.994  27.794  1.00  0.00     0.167 HD
ATOM     55  C   UNL A   1      46.165  31.681  27.937  1.00  0.00     0.037 A 
ATOM     56  C   UNL A   1      43.816  25.228  27.190  1.00  0.00     0.037 A 
ATOM     57  C   UNL A   1      47.181  30.709  27.613  1.00  0.00     0.049 A 
ATOM     58  C   UNL A   1      45.276  25.549  26.988  1.00  0.00     0.074 A 
ATOM     59  C   UNL A   1      48.545  30.909  27.459  1.00  0.00     0.029 A 
ATOM     60  N   UNL A   1      46.955  29.359  27.402  1.00  0.00    -0.354 N 
ATOM     61  N   UNL A   1      45.892  26.698  27.116  1.00  0.00    -0.248 NA
ATOM     62  C   UNL A   1      46.162  24.438  26.597  1.00  0.00     0.031 C 
ATOM     63  C   UNL A   1      49.134  29.691  27.103  1.00  0.00     0.029 A 
ATOM     64  C   UNL A   1      48.148  28.720  27.097  1.00  0.00     0.049 A 
ATOM     65  H   UNL A   1      46.077  28.918  27.459  1.00  0.00     0.167 HD
ATOM     66  C   UNL A   1      47.235  26.442  26.848  1.00  0.00     0.074 A 
ATOM     67  C   UNL A   1      47.348  25.029  26.572  1.00  0.00     0.031 C 
ATOM     68  C   UNL A   1      48.277  27.311  26.833  1.00  0.00     0.037 A 
BRANCH  55  69
ATOM     69  C   UNL A   1      46.607  33.131  28.015  1.00  0.00     0.058 A 
ATOM     70  C   UNL A   1      46.531  33.990  26.906  1.00  0.00     0.135 A 
ATOM     71  C   UNL A   1      47.032  33.692  29.233  1.00  0.00     0.135 A 
ATOM     72  F   UNL A   1      46.127  33.520  25.714  1.00  0.00    -0.206 F 
ATOM     73  C   UNL A   1      46.903  35.329  26.985  1.00  0.00     0.059 A 
ATOM     74  C   UNL A   1      47.373  35.041  29.346  1.00  0.00     0.059 A 
ATOM     75  F   UNL A   1      47.106  32.934  30.338  1.00  0.00    -0.206 F 
ATOM     76  C   UNL A   1      47.322  35.847  28.211  1.00  0.00     0.060 A 
BRANCH  76  77
ATOM     77  S   UNL A   1      47.792  37.589  28.293  1.00  0.00     0.124 S 
ATOM     78  O   UNL A   1      48.684  37.594  29.450  1.00  0.00    -0.237 OA
ATOM     79  O   UNL A   1      48.436  37.800  27.000  1.00  0.00    -0.237 OA
ATOM     80  O   UNL A   1      46.521  38.280  28.479  1.00  0.00    -0.744 OA
ENDBRANCH  76  77
ENDBRANCH  55  69
BRANCH  56  81
ATOM     81  C   UNL A   1      43.333  23.826  26.987  1.00  0.00     0.058 A 
ATOM     82  C   UNL A   1      43.079  23.326  25.699  1.00  0.00     0.135 A 
ATOM     83  C   UNL A   1      43.110  22.960  28.070  1.00  0.00     0.135 A 
ATOM     84  F   UNL A   1      43.257  24.116  24.628  1.00  0.00    -0.206 F 
ATOM     85  C   UNL A   1      42.609  22.032  25.491  1.00  0.00     0.059 A 
ATOM     86  C   UNL A   1      42.671  21.650  27.886  1.00  0.00     0.059 A 
ATOM     87  F   UNL A   1      43.344  23.378  29.323  1.00  0.00    -0.206 F 
ATOM     88  C   UNL A   1      42.412  21.198  26.592  1.00  0.00     0.060 A 
BRANCH  88  89
ATOM     89  S   UNL A   1      41.856  19.503  26.306  1.00  0.00     0.124 S 
ATOM     90  O   UNL A   1      42.318  18.833  27.516  1.00  0.00    -0.237 OA
ATOM     91  O   UNL A   1      40.411  19.671  26.183  1.00  0.00    -0.237 OA
ATOM     92  O   UNL A   1      42.543  19.126  25.074  1.00  0.00    -0.744 OA
ENDBRANCH  88  89
ENDBRANCH  56  81
BRANCH  68  93
ATOM     93  C   UNL A   1      49.651  26.762  26.551  1.00  0.00     0.058 A 
ATOM     94  C   UNL A   1      50.496  26.310  27.577  1.00  0.00     0.135 A 
ATOM     95  C   UNL A   1      50.109  26.641  25.229  1.00  0.00     0.135 A 
ATOM     96  F   UNL A   1      50.110  26.404  28.860  1.00  0.00    -0.206 F 
ATOM     97  C   UNL A   1      51.756  25.786  27.305  1.00  0.00     0.059 A 
ATOM     98  C   UNL A   1      51.353  26.091  24.931  1.00  0.00     0.059 A 
ATOM     99  F   UNL A   1      49.339  27.046  24.206  1.00  0.00    -0.206 F 
ATOM    100  C   UNL A   1      52.176  25.679  25.977  1.00  0.00     0.060 A 
BRANCH 100 101
ATOM    101  S   UNL A   1      53.802  24.972  25.638  1.00  0.00     0.124 S 
ATOM    102  O   UNL A   1      54.477  25.158  26.918  1.00  0.00    -0.237 OA
ATOM    103  O   UNL A   1      53.476  23.593  25.288  1.00  0.00    -0.237 OA
ATOM    104  O   UNL A   1      54.305  25.790  24.538  1.00  0.00    -0.744 OA
ENDBRANCH 100 101
ENDBRANCH  68  93
ENDBRANCH  42  43
ENDBRANCH  34  37
ENDBRANCH  32  33
ENDBRANCH  31  32
ENDBRANCH  30  31
ENDBRANCH   3  30
TORSDOF 19
ENDMDL
MODEL 3
REMARK VINA RESULT:     -11.3      5.812      8.243
REMARK SMILES CCCOC(=O)c1c(NC(=O)[C@@H]2CC=CC[C@H]2C(=O)NCCCNC(=O)c2ccc(-c3c4nc(c(-c5c(F)cc(S(=O)(=O)[O-])cc5F)c5ccc([nH]5)c(-c5c(F)cc(S(=O)(=O)[O-])cc5F)c5nc(c(-c6c(F)cc(S(=O)(=O)[O-])cc6F)c6ccc3[nH]6)C=C5)C=C4)cc2)sc2c1CCCC2
REMARK SMILES IDX 18 1 19 2 20 3 17 5 12 6 13 7 14 8 16 9 15 10 10 11 9 12
REMARK SMILES IDX 11 14 8 15 7 16 95 17 93 18 94 19 96 20 99 21 97 22 98 23
REMARK SMILES IDX 5 24 6 25 4 26 3 27 2 28 1 29 21 30 22 31 23 32 24 33 25 34
REMARK SMILES IDX 26 36 27 37 28 38 92 39 29 40 91 41 30 42 31 43 32 44 85 45
REMARK SMILES IDX 33 46 90 47 84 48 86 49 34 50 89 51 83 52 82 53 35 55 69 56
REMARK SMILES IDX 48 57 68 58 49 59 52 60 67 61 87 62 50 63 51 64 66 66 88 67
REMARK SMILES IDX 53 68 36 69 37 70 46 71 38 72 39 73 45 74 47 75 40 76 41 77
REMARK SMILES IDX 42 78 43 79 44 80 70 81 71 82 80 83 72 84 73 85 79 86 81 87
REMARK SMILES IDX 74 88 75 89 76 90 77 91 78 92 54 93 55 94 64 95 56 96 57 97
REMARK SMILES IDX 63 98 65 99 58 100 59 101 60 102 61 103 62 104
REMARK H PARENT 20 4 9 13 24 35 86 54 52 65
REMARK Flexibility Score: inf
ROOT
ATOM      1  C   UNL A   1      31.027  26.773  25.814  1.00  0.00     0.224 C 
ATOM      2  O   UNL A   1      30.134  25.960  26.163  1.00  0.00    -0.275 OA
ATOM      3  N   UNL A   1      31.072  27.827  26.792  1.00  0.00    -0.356 N 
ATOM      4  H   UNL A   1      30.151  27.879  27.137  1.00  0.00     0.163 HD
ENDROOT
BRANCH   1   5
ATOM      5  C   UNL A   1      31.754  26.330  24.180  1.00  0.00     0.095 C 
ATOM      6  C   UNL A   1      33.041  25.438  24.133  1.00  0.00     0.095 C 
ATOM      7  C   UNL A   1      33.886  25.370  22.829  1.00  0.00     0.041 C 
ATOM      8  C   UNL A   1      33.138  25.506  21.558  1.00  0.00    -0.030 C 
ATOM      9  C   UNL A   1      31.069  25.861  22.845  1.00  0.00     0.041 C 
ATOM     10  C   UNL A   1      31.840  25.782  21.567  1.00  0.00    -0.030 C 
BRANCH   6  11
ATOM     11  C   UNL A   1      33.955  25.921  25.174  1.00  0.00     0.229 C 
ATOM     12  N   UNL A   1      34.737  24.993  25.712  1.00  0.00    -0.317 N 
ATOM     13  H   UNL A   1      35.304  25.331  26.442  1.00  0.00     0.170 HD
ATOM     14  O   UNL A   1      34.029  27.078  25.570  1.00  0.00    -0.274 OA
BRANCH  12  15
ATOM     15  C   UNL A   1      34.914  23.667  25.457  1.00  0.00     0.110 A 
ATOM     16  C   UNL A   1      34.285  22.421  25.214  1.00  0.00     0.098 A 
ATOM     17  C   UNL A   1      35.451  21.545  24.828  1.00  0.00    -0.017 A 
ATOM     18  S   UNL A   1      36.615  23.695  25.514  1.00  0.00    -0.122 S 
ATOM     19  C   UNL A   1      36.706  22.140  24.992  1.00  0.00     0.011 A 
ATOM     20  C   UNL A   1      35.538  20.107  24.447  1.00  0.00     0.038 C 
ATOM     21  C   UNL A   1      38.083  21.536  24.918  1.00  0.00     0.047 C 
ATOM     22  C   UNL A   1      36.689  19.540  25.320  1.00  0.00     0.005 C 
ATOM     23  C   UNL A   1      38.024  20.031  24.783  1.00  0.00     0.006 C 
BRANCH  16  24
ATOM     24  C   UNL A   1      32.710  21.953  25.277  1.00  0.00     0.341 C 
ATOM     25  O   UNL A   1      31.832  22.742  25.586  1.00  0.00    -0.246 OA
BRANCH  24  26
ATOM     26  O   UNL A   1      32.364  20.641  24.839  1.00  0.00    -0.462 OA
BRANCH  26  27
ATOM     27  C   UNL A   1      32.105  19.597  23.646  1.00  0.00     0.233 C 
BRANCH  27  28
ATOM     28  C   UNL A   1      32.526  17.982  23.850  1.00  0.00     0.038 C 
ATOM     29  C   UNL A   1      33.674  17.134  23.192  1.00  0.00     0.007 C 
ENDBRANCH  27  28
ENDBRANCH  26  27
ENDBRANCH  24  26
ENDBRANCH  16  24
ENDBRANCH  12  15
ENDBRANCH   6  11
ENDBRANCH   1   5
BRANCH   3  30
ATOM     30  C   UNL A   1      31.903  29.012  27.638  1.00  0.00     0.117 C 
BRANCH  30  31
ATOM     31  C   UNL A   1      32.677  30.381  27.129  1.00  0.00     0.042 C 
BRANCH  31  32
ATOM     32  C   UNL A   1      31.840  31.675  26.702  1.00  0.00     0.118 C 
BRANCH  32  33
ATOM     33  N   UNL A   1      32.117  33.006  27.398  1.00  0.00    -0.352 N 
ATOM     34  C   UNL A   1      33.063  33.795  28.067  1.00  0.00     0.251 C 
ATOM     35  H   UNL A   1      31.283  33.526  27.363  1.00  0.00     0.163 HD
ATOM     36  O   UNL A   1      32.768  35.001  28.092  1.00  0.00    -0.269 OA
BRANCH  34  37
ATOM     37  C   UNL A   1      34.325  33.465  28.834  1.00  0.00     0.039 A 
ATOM     38  C   UNL A   1      34.273  32.449  29.808  1.00  0.00     0.014 A 
ATOM     39  C   UNL A   1      35.487  34.219  28.886  1.00  0.00     0.014 A 
ATOM     40  C   UNL A   1      35.386  32.113  30.638  1.00  0.00     0.010 A 
ATOM     41  C   UNL A   1      36.657  33.761  29.571  1.00  0.00     0.010 A 
ATOM     42  C   UNL A   1      36.660  32.686  30.470  1.00  0.00    -0.014 A 
BRANCH  42  43
ATOM     43  C   UNL A   1      37.902  32.181  31.237  1.00  0.00     0.031 A 
ATOM     44  C   UNL A   1      38.309  32.685  32.637  1.00  0.00     0.074 A 
ATOM     45  C   UNL A   1      38.754  31.278  30.676  1.00  0.00     0.049 A 
ATOM     46  N   UNL A   1      39.331  32.328  33.392  1.00  0.00    -0.248 NA
ATOM     47  C   UNL A   1      37.517  33.762  33.246  1.00  0.00     0.031 C 
ATOM     48  C   UNL A   1      38.682  30.779  29.300  1.00  0.00     0.029 A 
ATOM     49  N   UNL A   1      39.853  30.603  31.187  1.00  0.00    -0.354 N 
ATOM     50  C   UNL A   1      39.322  33.167  34.512  1.00  0.00     0.074 A 
ATOM     51  C   UNL A   1      38.248  34.108  34.296  1.00  0.00     0.031 C 
ATOM     52  C   UNL A   1      39.606  29.825  29.110  1.00  0.00     0.029 A 
ATOM     53  C   UNL A   1      40.398  29.668  30.324  1.00  0.00     0.049 A 
ATOM     54  H   UNL A   1      40.215  30.775  32.086  1.00  0.00     0.167 HD
ATOM     55  C   UNL A   1      40.073  33.142  35.647  1.00  0.00     0.037 A 
ATOM     56  C   UNL A   1      41.402  28.772  30.467  1.00  0.00     0.037 A 
ATOM     57  C   UNL A   1      41.080  32.152  35.944  1.00  0.00     0.049 A 
ATOM     58  C   UNL A   1      42.154  28.677  31.771  1.00  0.00     0.074 A 
ATOM     59  C   UNL A   1      41.780  31.965  37.127  1.00  0.00     0.029 A 
ATOM     60  N   UNL A   1      41.526  31.180  35.065  1.00  0.00    -0.354 N 
ATOM     61  N   UNL A   1      42.012  29.397  32.857  1.00  0.00    -0.248 NA
ATOM     62  C   UNL A   1      43.196  27.641  31.875  1.00  0.00     0.031 C 
ATOM     63  C   UNL A   1      42.685  30.914  36.945  1.00  0.00     0.029 A 
ATOM     64  C   UNL A   1      42.505  30.407  35.670  1.00  0.00     0.049 A 
ATOM     65  H   UNL A   1      41.196  31.056  34.146  1.00  0.00     0.167 HD
ATOM     66  C   UNL A   1      42.924  28.883  33.776  1.00  0.00     0.074 A 
ATOM     67  C   UNL A   1      43.598  27.780  33.130  1.00  0.00     0.031 C 
ATOM     68  C   UNL A   1      43.175  29.297  35.043  1.00  0.00     0.037 A 
BRANCH  55  69
ATOM     69  C   UNL A   1      39.811  34.191  36.713  1.00  0.00     0.058 A 
ATOM     70  C   UNL A   1      38.990  33.931  37.824  1.00  0.00     0.135 A 
ATOM     71  C   UNL A   1      40.453  35.442  36.668  1.00  0.00     0.135 A 
ATOM     72  F   UNL A   1      38.353  32.753  37.932  1.00  0.00    -0.206 F 
ATOM     73  C   UNL A   1      38.777  34.880  38.819  1.00  0.00     0.059 A 
ATOM     74  C   UNL A   1      40.284  36.395  37.675  1.00  0.00     0.059 A 
ATOM     75  F   UNL A   1      41.269  35.748  35.648  1.00  0.00    -0.206 F 
ATOM     76  C   UNL A   1      39.429  36.110  38.738  1.00  0.00     0.060 A 
BRANCH  76  77
ATOM     77  S   UNL A   1      39.144  37.324  40.044  1.00  0.00     0.124 S 
ATOM     78  O   UNL A   1      38.348  38.327  39.340  1.00  0.00    -0.237 OA
ATOM     79  O   UNL A   1      38.428  36.541  41.047  1.00  0.00    -0.237 OA
ATOM     80  O   UNL A   1      40.489  37.745  40.422  1.00  0.00    -0.744 OA
ENDBRANCH  76  77
ENDBRANCH  55  69
BRANCH  56  81
ATOM     81  C   UNL A   1      41.738  27.832  29.352  1.00  0.00     0.058 A 
ATOM     82  C   UNL A   1      40.913  26.734  29.055  1.00  0.00     0.135 A 
ATOM     83  C   UNL A   1      42.888  28.004  28.565  1.00  0.00     0.135 A 
ATOM     84  F   UNL A   1      39.809  26.510  29.786  1.00  0.00    -0.206 F 
ATOM     85  C   UNL A   1      41.219  25.837  28.035  1.00  0.00     0.059 A 
ATOM     86  C   UNL A   1      43.200  27.138  27.517  1.00  0.00     0.059 A 
ATOM     87  F   UNL A   1      43.710  29.039  28.795  1.00  0.00    -0.206 F 
ATOM     88  C   UNL A   1      42.364  26.050  27.267  1.00  0.00     0.060 A 
BRANCH  88  89
ATOM     89  S   UNL A   1      42.722  24.910  25.911  1.00  0.00     0.124 S 
ATOM     90  O   UNL A   1      41.637  23.944  26.042  1.00  0.00    -0.237 OA
ATOM     91  O   UNL A   1      42.657  25.789  24.747  1.00  0.00    -0.237 OA
ATOM     92  O   UNL A   1      44.055  24.410  26.235  1.00  0.00    -0.744 OA
ENDBRANCH  88  89
ENDBRANCH  56  81
BRANCH  68  93
ATOM     93  C   UNL A   1      44.194  28.534  35.848  1.00  0.00     0.058 A 
ATOM     94  C   UNL A   1      43.836  27.444  36.658  1.00  0.00     0.135 A 
ATOM     95  C   UNL A   1      45.556  28.866  35.768  1.00  0.00     0.135 A 
ATOM     96  F   UNL A   1      42.548  27.083  36.773  1.00  0.00    -0.206 F 
ATOM     97  C   UNL A   1      44.787  26.731  37.382  1.00  0.00     0.059 A 
ATOM     98  C   UNL A   1      46.529  28.148  36.458  1.00  0.00     0.059 A 
ATOM     99  F   UNL A   1      45.958  29.891  34.999  1.00  0.00    -0.206 F 
ATOM    100  C   UNL A   1      46.133  27.090  37.275  1.00  0.00     0.060 A 
BRANCH 100 101
ATOM    101  S   UNL A   1      47.359  26.140  38.199  1.00  0.00     0.124 S 
ATOM    102  O   UNL A   1      46.557  25.614  39.297  1.00  0.00    -0.237 OA
ATOM    103  O   UNL A   1      47.803  25.161  37.212  1.00  0.00    -0.237 OA
ATOM    104  O   UNL A   1      48.354  27.141  38.572  1.00  0.00    -0.744 OA
ENDBRANCH 100 101
ENDBRANCH  68  93
ENDBRANCH  42  43
ENDBRANCH  34  37
ENDBRANCH  32  33
ENDBRANCH  31  32
ENDBRANCH  30  31
ENDBRANCH   3  30
TORSDOF 19
ENDMDL
