MODEL 1
REMARK VINA RESULT:     -11.8      0.000      0.000
REMARK SMILES C[C@H]1[C@H](C(=O)NCCCNC(=O)c2ccc(-c3c4nc(c(-c5c(F)cc(S(=O)(=O)[O-])cc5F)c5ccc([nH]5)c(-c5c(F)cc(S(=O)(=O)[O-])cc5F)c5nc(c(-c6c(F)cc(S(=O)(=O)[O-])cc6F)c6ccc3[nH]6)C=C5)C=C4)cc2)CCN1C(=O)COc1ccc(F)cc1Br
REMARK SMILES IDX 7 1 6 2 4 3 5 4 3 6 1 7 2 8 81 9 79 10 80 11 82 12 83 13
REMARK SMILES IDX 84 14 85 15 86 16 87 17 92 18 88 19 91 20 93 21 89 22 90 23
REMARK SMILES IDX 8 24 9 25 10 26 11 27 12 29 13 30 14 31 78 32 15 33 77 34
REMARK SMILES IDX 16 35 17 36 18 37 71 38 19 39 76 40 70 41 72 42 20 43 75 44
REMARK SMILES IDX 69 45 68 46 21 48 55 49 34 50 54 51 35 52 38 53 53 54 73 55
REMARK SMILES IDX 36 56 37 57 52 59 74 60 39 61 22 62 23 63 32 64 24 65 25 66
REMARK SMILES IDX 31 67 33 68 26 69 27 70 28 71 29 72 30 73 56 74 57 75 66 76
REMARK SMILES IDX 58 77 59 78 65 79 67 80 60 81 61 82 62 83 63 84 64 85 40 86
REMARK SMILES IDX 41 87 50 88 42 89 43 90 49 91 51 92 44 93 45 94 46 95 47 96
REMARK SMILES IDX 48 97
REMARK H PARENT 6 5 10 28 72 47 38 58
REMARK Flexibility Score: inf
ROOT
ATOM      1  C   UNL A   1      33.244  29.799  27.267  1.00  0.00     0.117 C 
ENDROOT
BRANCH   1   2
ATOM      2  N   UNL A   1      32.423  28.630  27.535  1.00  0.00    -0.356 N 
ATOM      3  C   UNL A   1      31.781  27.773  26.701  1.00  0.00     0.225 C 
ATOM      4  O   UNL A   1      31.132  26.858  27.217  1.00  0.00    -0.275 OA
ATOM      5  H   UNL A   1      32.314  28.423  28.491  1.00  0.00     0.163 HD
BRANCH   3   6
ATOM      6  C   UNL A   1      31.837  27.898  25.190  1.00  0.00     0.102 C 
ATOM      7  C   UNL A   1      33.909  28.463  23.910  1.00  0.00     0.032 C 
ATOM      8  C   UNL A   1      33.135  27.326  24.581  1.00  0.00     0.094 C 
ATOM      9  N   UNL A   1      32.674  26.288  23.654  1.00  0.00    -0.336 N 
ATOM     10  C   UNL A   1      30.657  27.242  24.473  1.00  0.00     0.037 C 
ATOM     11  C   UNL A   1      31.268  26.450  23.337  1.00  0.00     0.121 C 
BRANCH   9  12
ATOM     12  C   UNL A   1      33.296  25.086  23.366  1.00  0.00     0.260 C 
ATOM     13  O   UNL A   1      34.117  25.004  22.446  1.00  0.00    -0.271 OA
BRANCH  12  14
ATOM     14  C   UNL A   1      32.988  23.842  24.210  1.00  0.00     0.329 C 
BRANCH  14  15
ATOM     15  O   UNL A   1      33.682  23.629  25.415  1.00  0.00    -0.483 OA
BRANCH  15  16
ATOM     16  C   UNL A   1      34.872  22.968  25.499  1.00  0.00     0.134 A 
ATOM     17  C   UNL A   1      35.926  23.874  25.732  1.00  0.00     0.050 A 
ATOM     18  C   UNL A   1      35.196  21.623  25.272  1.00  0.00     0.062 A 
ATOM     19  C   UNL A   1      37.262  23.471  25.713  1.00  0.00     0.043 A 
ATOM     20  C   UNL A   1      36.545  21.228  25.227  1.00  0.00     0.058 A 
ATOM     21  Br  UNL A   1      33.990  20.200  24.958  1.00  0.00    -0.047 Br
ATOM     22  C   UNL A   1      37.558  22.150  25.438  1.00  0.00     0.124 A 
ATOM     23  F   UNL A   1      38.836  21.754  25.365  1.00  0.00    -0.207 F 
ENDBRANCH  15  16
ENDBRANCH  14  15
ENDBRANCH  12  14
ENDBRANCH   9  12
ENDBRANCH   3   6
ENDBRANCH   1   2
BRANCH   1  24
ATOM     24  C   UNL A   1      34.717  29.549  27.556  1.00  0.00     0.042 C 
BRANCH  24  25
ATOM     25  C   UNL A   1      35.480  30.799  27.974  1.00  0.00     0.118 C 
BRANCH  25  26
ATOM     26  N   UNL A   1      35.469  31.005  29.415  1.00  0.00    -0.352 N 
ATOM     27  C   UNL A   1      36.399  30.661  30.365  1.00  0.00     0.251 C 
ATOM     28  H   UNL A   1      34.670  31.463  29.762  1.00  0.00     0.163 HD
ATOM     29  O   UNL A   1      36.106  30.750  31.554  1.00  0.00    -0.269 OA
BRANCH  27  30
ATOM     30  C   UNL A   1      37.736  30.174  29.964  1.00  0.00     0.039 A 
ATOM     31  C   UNL A   1      38.087  30.206  28.611  1.00  0.00     0.014 A 
ATOM     32  C   UNL A   1      38.631  29.661  30.907  1.00  0.00     0.014 A 
ATOM     33  C   UNL A   1      39.357  29.779  28.216  1.00  0.00     0.010 A 
ATOM     34  C   UNL A   1      39.924  29.315  30.522  1.00  0.00     0.010 A 
ATOM     35  C   UNL A   1      40.296  29.361  29.172  1.00  0.00    -0.014 A 
BRANCH  35  36
ATOM     36  C   UNL A   1      41.671  28.964  28.773  1.00  0.00     0.031 A 
ATOM     37  C   UNL A   1      42.775  29.986  28.736  1.00  0.00     0.074 A 
ATOM     38  C   UNL A   1      41.908  27.694  28.389  1.00  0.00     0.049 A 
ATOM     39  N   UNL A   1      44.021  29.841  28.365  1.00  0.00    -0.248 NA
ATOM     40  C   UNL A   1      42.425  31.358  29.138  1.00  0.00     0.031 C 
ATOM     41  C   UNL A   1      40.906  26.628  28.322  1.00  0.00     0.029 A 
ATOM     42  N   UNL A   1      43.066  27.086  27.973  1.00  0.00    -0.354 N 
ATOM     43  C   UNL A   1      44.600  31.100  28.480  1.00  0.00     0.074 A 
ATOM     44  C   UNL A   1      43.554  32.008  28.896  1.00  0.00     0.031 C 
ATOM     45  C   UNL A   1      41.495  25.494  27.913  1.00  0.00     0.029 A 
ATOM     46  C   UNL A   1      42.908  25.757  27.657  1.00  0.00     0.049 A 
ATOM     47  H   UNL A   1      43.928  27.557  27.906  1.00  0.00     0.167 HD
ATOM     48  C   UNL A   1      45.890  31.462  28.283  1.00  0.00     0.037 A 
ATOM     49  C   UNL A   1      43.800  24.853  27.210  1.00  0.00     0.037 A 
ATOM     50  C   UNL A   1      46.932  30.547  27.891  1.00  0.00     0.049 A 
ATOM     51  C   UNL A   1      45.232  25.270  27.023  1.00  0.00     0.074 A 
ATOM     52  C   UNL A   1      48.281  30.801  27.715  1.00  0.00     0.029 A 
ATOM     53  N   UNL A   1      46.741  29.200  27.617  1.00  0.00    -0.354 N 
ATOM     54  N   UNL A   1      45.775  26.452  27.194  1.00  0.00    -0.248 NA
ATOM     55  C   UNL A   1      46.176  24.230  26.593  1.00  0.00     0.031 C 
ATOM     56  C   UNL A   1      48.899  29.616  27.302  1.00  0.00     0.029 A 
ATOM     57  C   UNL A   1      47.944  28.613  27.260  1.00  0.00     0.049 A 
ATOM     58  H   UNL A   1      45.876  28.731  27.668  1.00  0.00     0.167 HD
ATOM     59  C   UNL A   1      47.127  26.295  26.911  1.00  0.00     0.074 A 
ATOM     60  C   UNL A   1      47.322  24.898  26.576  1.00  0.00     0.031 C 
ATOM     61  C   UNL A   1      48.117  27.222  26.925  1.00  0.00     0.037 A 
BRANCH  48  62
ATOM     62  C   UNL A   1      46.246  32.907  28.500  1.00  0.00     0.058 A 
ATOM     63  C   UNL A   1      46.195  33.842  27.453  1.00  0.00     0.135 A 
ATOM     64  C   UNL A   1      46.626  33.370  29.770  1.00  0.00     0.135 A 
ATOM     65  F   UNL A   1      45.854  33.451  26.214  1.00  0.00    -0.206 F 
ATOM     66  C   UNL A   1      46.540  35.175  27.647  1.00  0.00     0.059 A 
ATOM     67  C   UNL A   1      46.949  34.706  29.994  1.00  0.00     0.059 A 
ATOM     68  F   UNL A   1      46.693  32.521  30.808  1.00  0.00    -0.206 F 
ATOM     69  C   UNL A   1      46.919  35.598  28.922  1.00  0.00     0.060 A 
BRANCH  69  70
ATOM     70  S   UNL A   1      47.369  37.330  29.158  1.00  0.00     0.124 S 
ATOM     71  O   UNL A   1      48.334  37.529  28.080  1.00  0.00    -0.237 OA
ATOM     72  O   UNL A   1      46.089  38.011  28.997  1.00  0.00    -0.237 OA
ATOM     73  O   UNL A   1      47.924  37.356  30.509  1.00  0.00    -0.744 OA
ENDBRANCH  69  70
ENDBRANCH  48  62
BRANCH  49  74
ATOM     74  C   UNL A   1      43.364  23.458  26.937  1.00  0.00     0.058 A 
ATOM     75  C   UNL A   1      43.136  23.016  25.625  1.00  0.00     0.135 A 
ATOM     76  C   UNL A   1      43.196  22.532  27.978  1.00  0.00     0.135 A 
ATOM     77  F   UNL A   1      43.280  23.867  24.597  1.00  0.00    -0.206 F 
ATOM     78  C   UNL A   1      42.746  21.710  25.354  1.00  0.00     0.059 A 
ATOM     79  C   UNL A   1      42.829  21.213  27.731  1.00  0.00     0.059 A 
ATOM     80  F   UNL A   1      43.422  22.902  29.248  1.00  0.00    -0.206 F 
ATOM     81  C   UNL A   1      42.597  20.814  26.415  1.00  0.00     0.060 A 
BRANCH  81  82
ATOM     82  S   UNL A   1      42.147  19.103  26.050  1.00  0.00     0.124 S 
ATOM     83  O   UNL A   1      42.450  18.444  27.315  1.00  0.00    -0.237 OA
ATOM     84  O   UNL A   1      40.731  19.223  25.715  1.00  0.00    -0.237 OA
ATOM     85  O   UNL A   1      43.020  18.759  24.932  1.00  0.00    -0.744 OA
ENDBRANCH  81  82
ENDBRANCH  49  74
BRANCH  61  86
ATOM     86  C   UNL A   1      49.503  26.748  26.586  1.00  0.00     0.058 A 
ATOM     87  C   UNL A   1      50.369  26.243  27.568  1.00  0.00     0.135 A 
ATOM     88  C   UNL A   1      49.959  26.774  25.258  1.00  0.00     0.135 A 
ATOM     89  F   UNL A   1      49.982  26.203  28.854  1.00  0.00    -0.206 F 
ATOM     90  C   UNL A   1      51.651  25.808  27.252  1.00  0.00     0.059 A 
ATOM     91  C   UNL A   1      51.229  26.319  24.915  1.00  0.00     0.059 A 
ATOM     92  F   UNL A   1      49.167  27.237  24.279  1.00  0.00    -0.206 F 
ATOM     93  C   UNL A   1      52.073  25.853  25.921  1.00  0.00     0.060 A 
BRANCH  93  94
ATOM     94  S   UNL A   1      53.734  25.273  25.520  1.00  0.00     0.124 S 
ATOM     95  O   UNL A   1      54.283  26.426  24.812  1.00  0.00    -0.237 OA
ATOM     96  O   UNL A   1      54.303  25.010  26.838  1.00  0.00    -0.237 OA
ATOM     97  O   UNL A   1      53.492  24.090  24.700  1.00  0.00    -0.744 OA
ENDBRANCH  93  94
ENDBRANCH  61  86
ENDBRANCH  35  36
ENDBRANCH  27  30
ENDBRANCH  25  26
ENDBRANCH  24  25
ENDBRANCH   1  24
TORSDOF 17
ENDMDL
MODEL 2
REMARK VINA RESULT:     -11.6      6.553     11.949
REMARK SMILES C[C@H]1[C@H](C(=O)NCCCNC(=O)c2ccc(-c3c4nc(c(-c5c(F)cc(S(=O)(=O)[O-])cc5F)c5ccc([nH]5)c(-c5c(F)cc(S(=O)(=O)[O-])cc5F)c5nc(c(-c6c(F)cc(S(=O)(=O)[O-])cc6F)c6ccc3[nH]6)C=C5)C=C4)cc2)CCN1C(=O)COc1ccc(F)cc1Br
REMARK SMILES IDX 7 1 6 2 4 3 5 4 3 6 1 7 2 8 81 9 79 10 80 11 82 12 83 13
REMARK SMILES IDX 84 14 85 15 86 16 87 17 92 18 88 19 91 20 93 21 89 22 90 23
REMARK SMILES IDX 8 24 9 25 10 26 11 27 12 29 13 30 14 31 78 32 15 33 77 34
REMARK SMILES IDX 16 35 17 36 18 37 71 38 19 39 76 40 70 41 72 42 20 43 75 44
REMARK SMILES IDX 69 45 68 46 21 48 55 49 34 50 54 51 35 52 38 53 53 54 73 55
REMARK SMILES IDX 36 56 37 57 52 59 74 60 39 61 22 62 23 63 32 64 24 65 25 66
REMARK SMILES IDX 31 67 33 68 26 69 27 70 28 71 29 72 30 73 56 74 57 75 66 76
REMARK SMILES IDX 58 77 59 78 65 79 67 80 60 81 61 82 62 83 63 84 64 85 40 86
REMARK SMILES IDX 41 87 50 88 42 89 43 90 49 91 51 92 44 93 45 94 46 95 47 96
REMARK SMILES IDX 48 97
REMARK H PARENT 6 5 10 28 72 47 38 58
REMARK Flexibility Score: inf
ROOT
ATOM      1  C   UNL A   1      38.466  23.642  26.281  1.00  0.00     0.117 C 
ENDROOT
BRANCH   1   2
ATOM      2  N   UNL A   1      37.781  23.361  25.032  1.00  0.00    -0.356 N 
ATOM      3  C   UNL A   1      36.461  23.226  24.741  1.00  0.00     0.225 C 
ATOM      4  O   UNL A   1      36.162  22.968  23.571  1.00  0.00    -0.275 OA
ATOM      5  H   UNL A   1      38.379  23.249  24.258  1.00  0.00     0.163 HD
BRANCH   3   6
ATOM      6  C   UNL A   1      35.369  23.382  25.782  1.00  0.00     0.102 C 
ATOM      7  C   UNL A   1      33.637  25.185  25.732  1.00  0.00     0.032 C 
ATOM      8  C   UNL A   1      34.013  23.808  25.180  1.00  0.00     0.094 C 
ATOM      9  N   UNL A   1      33.092  22.735  25.569  1.00  0.00    -0.336 N 
ATOM     10  C   UNL A   1      35.134  22.126  26.621  1.00  0.00     0.037 C 
ATOM     11  C   UNL A   1      33.631  21.944  26.658  1.00  0.00     0.121 C 
BRANCH   9  12
ATOM     12  C   UNL A   1      32.029  22.238  24.836  1.00  0.00     0.260 C 
ATOM     13  O   UNL A   1      31.273  21.386  25.317  1.00  0.00    -0.271 OA
BRANCH  12  14
ATOM     14  C   UNL A   1      31.763  22.762  23.419  1.00  0.00     0.329 C 
BRANCH  14  15
ATOM     15  O   UNL A   1      30.711  23.671  23.199  1.00  0.00    -0.483 OA
BRANCH  15  16
ATOM     16  C   UNL A   1      30.830  25.021  23.348  1.00  0.00     0.134 A 
ATOM     17  C   UNL A   1      30.039  25.472  24.424  1.00  0.00     0.050 A 
ATOM     18  C   UNL A   1      31.478  25.981  22.558  1.00  0.00     0.062 A 
ATOM     19  C   UNL A   1      29.868  26.830  24.694  1.00  0.00     0.043 A 
ATOM     20  C   UNL A   1      31.281  27.348  22.819  1.00  0.00     0.058 A 
ATOM     21  Br  UNL A   1      32.612  25.659  21.078  1.00  0.00    -0.047 Br
ATOM     22  C   UNL A   1      30.478  27.758  23.871  1.00  0.00     0.124 A 
ATOM     23  F   UNL A   1      30.284  29.066  24.084  1.00  0.00    -0.207 F 
ENDBRANCH  15  16
ENDBRANCH  14  15
ENDBRANCH  12  14
ENDBRANCH   9  12
ENDBRANCH   3   6
ENDBRANCH   1   2
BRANCH   1  24
ATOM     24  C   UNL A   1      39.549  22.616  26.589  1.00  0.00     0.042 C 
BRANCH  24  25
ATOM     25  C   UNL A   1      40.854  23.232  27.077  1.00  0.00     0.118 C 
BRANCH  25  26
ATOM     26  N   UNL A   1      41.525  24.010  26.046  1.00  0.00    -0.352 N 
ATOM     27  C   UNL A   1      41.814  25.351  25.998  1.00  0.00     0.251 C 
ATOM     28  H   UNL A   1      41.818  23.493  25.261  1.00  0.00     0.163 HD
ATOM     29  O   UNL A   1      42.212  25.844  24.947  1.00  0.00    -0.269 OA
BRANCH  27  30
ATOM     30  C   UNL A   1      41.635  26.201  27.195  1.00  0.00     0.039 A 
ATOM     31  C   UNL A   1      42.535  27.246  27.420  1.00  0.00     0.014 A 
ATOM     32  C   UNL A   1      40.606  25.956  28.109  1.00  0.00     0.014 A 
ATOM     33  C   UNL A   1      42.367  28.078  28.528  1.00  0.00     0.010 A 
ATOM     34  C   UNL A   1      40.389  26.837  29.165  1.00  0.00     0.010 A 
ATOM     35  C   UNL A   1      41.273  27.900  29.392  1.00  0.00    -0.014 A 
BRANCH  35  36
ATOM     36  C   UNL A   1      41.045  28.816  30.538  1.00  0.00     0.031 A 
ATOM     37  C   UNL A   1      41.872  28.687  31.789  1.00  0.00     0.074 A 
ATOM     38  C   UNL A   1      40.053  29.726  30.472  1.00  0.00     0.049 A 
ATOM     39  N   UNL A   1      41.786  29.358  32.909  1.00  0.00    -0.248 NA
ATOM     40  C   UNL A   1      42.913  27.646  31.793  1.00  0.00     0.031 C 
ATOM     41  C   UNL A   1      39.142  29.904  29.338  1.00  0.00     0.029 A 
ATOM     42  N   UNL A   1      39.637  30.665  31.381  1.00  0.00    -0.354 N 
ATOM     43  C   UNL A   1      42.749  28.817  33.751  1.00  0.00     0.074 A 
ATOM     44  C   UNL A   1      43.368  27.722  33.035  1.00  0.00     0.031 C 
ATOM     45  C   UNL A   1      38.291  30.906  29.610  1.00  0.00     0.029 A 
ATOM     46  C   UNL A   1      38.573  31.419  30.947  1.00  0.00     0.049 A 
ATOM     47  H   UNL A   1      40.060  30.787  32.261  1.00  0.00     0.167 HD
ATOM     48  C   UNL A   1      43.106  29.211  34.997  1.00  0.00     0.037 A 
ATOM     49  C   UNL A   1      37.897  32.411  31.558  1.00  0.00     0.037 A 
ATOM     50  C   UNL A   1      42.502  30.317  35.694  1.00  0.00     0.049 A 
ATOM     51  C   UNL A   1      38.326  32.851  32.930  1.00  0.00     0.074 A 
ATOM     52  C   UNL A   1      42.824  30.832  36.938  1.00  0.00     0.029 A 
ATOM     53  N   UNL A   1      41.451  31.081  35.207  1.00  0.00    -0.354 N 
ATOM     54  N   UNL A   1      39.281  32.366  33.689  1.00  0.00    -0.248 NA
ATOM     55  C   UNL A   1      37.596  33.978  33.526  1.00  0.00     0.031 C 
ATOM     56  C   UNL A   1      41.947  31.885  37.217  1.00  0.00     0.029 A 
ATOM     57  C   UNL A   1      41.104  32.054  36.130  1.00  0.00     0.049 A 
ATOM     58  H   UNL A   1      41.015  30.950  34.333  1.00  0.00     0.167 HD
ATOM     59  C   UNL A   1      39.278  33.140  34.844  1.00  0.00     0.074 A 
ATOM     60  C   UNL A   1      38.240  34.136  34.675  1.00  0.00     0.031 C 
ATOM     61  C   UNL A   1      40.063  33.035  35.946  1.00  0.00     0.037 A 
BRANCH  48  62
ATOM     62  C   UNL A   1      44.208  28.448  35.678  1.00  0.00     0.058 A 
ATOM     63  C   UNL A   1      45.560  28.789  35.497  1.00  0.00     0.135 A 
ATOM     64  C   UNL A   1      43.916  27.374  36.534  1.00  0.00     0.135 A 
ATOM     65  F   UNL A   1      45.898  29.797  34.677  1.00  0.00    -0.206 F 
ATOM     66  C   UNL A   1      46.582  28.074  36.112  1.00  0.00     0.059 A 
ATOM     67  C   UNL A   1      44.922  26.661  37.182  1.00  0.00     0.059 A 
ATOM     68  F   UNL A   1      42.643  27.003  36.743  1.00  0.00    -0.206 F 
ATOM     69  C   UNL A   1      46.252  27.009  36.951  1.00  0.00     0.060 A 
BRANCH  69  70
ATOM     70  S   UNL A   1      47.590  26.087  37.739  1.00  0.00     0.124 S 
ATOM     71  O   UNL A   1      47.397  26.438  39.143  1.00  0.00    -0.237 OA
ATOM     72  O   UNL A   1      47.273  24.708  37.382  1.00  0.00    -0.237 OA
ATOM     73  O   UNL A   1      48.792  26.632  37.116  1.00  0.00    -0.744 OA
ENDBRANCH  69  70
ENDBRANCH  48  62
BRANCH  49  74
ATOM     74  C   UNL A   1      36.763  33.071  30.860  1.00  0.00     0.058 A 
ATOM     75  C   UNL A   1      35.434  32.778  31.202  1.00  0.00     0.135 A 
ATOM     76  C   UNL A   1      36.984  34.030  29.859  1.00  0.00     0.135 A 
ATOM     77  F   UNL A   1      35.173  31.865  32.151  1.00  0.00    -0.206 F 
ATOM     78  C   UNL A   1      34.365  33.401  30.570  1.00  0.00     0.059 A 
ATOM     79  C   UNL A   1      35.931  34.685  29.229  1.00  0.00     0.059 A 
ATOM     80  F   UNL A   1      38.238  34.360  29.511  1.00  0.00    -0.206 F 
ATOM     81  C   UNL A   1      34.623  34.357  29.585  1.00  0.00     0.060 A 
BRANCH  81  82
ATOM     82  S   UNL A   1      33.230  35.204  28.810  1.00  0.00     0.124 S 
ATOM     83  O   UNL A   1      32.649  34.137  28.003  1.00  0.00    -0.237 OA
ATOM     84  O   UNL A   1      32.447  35.630  29.966  1.00  0.00    -0.237 OA
ATOM     85  O   UNL A   1      33.869  36.284  28.064  1.00  0.00    -0.744 OA
ENDBRANCH  81  82
ENDBRANCH  49  74
BRANCH  61  86
ATOM     86  C   UNL A   1      39.839  34.036  37.044  1.00  0.00     0.058 A 
ATOM     87  C   UNL A   1      38.964  33.776  38.111  1.00  0.00     0.135 A 
ATOM     88  C   UNL A   1      40.528  35.259  37.044  1.00  0.00     0.135 A 
ATOM     89  F   UNL A   1      38.277  32.623  38.154  1.00  0.00    -0.206 F 
ATOM     90  C   UNL A   1      38.757  34.705  39.124  1.00  0.00     0.059 A 
ATOM     91  C   UNL A   1      40.356  36.193  38.061  1.00  0.00     0.059 A 
ATOM     92  F   UNL A   1      41.384  35.554  36.053  1.00  0.00    -0.206 F 
ATOM     93  C   UNL A   1      39.457  35.913  39.088  1.00  0.00     0.060 A 
BRANCH  93  94
ATOM     94  S   UNL A   1      39.191  37.108  40.415  1.00  0.00     0.124 S 
ATOM     95  O   UNL A   1      38.576  36.272  41.443  1.00  0.00    -0.237 OA
ATOM     96  O   UNL A   1      40.546  37.569  40.700  1.00  0.00    -0.237 OA
ATOM     97  O   UNL A   1      38.312  38.101  39.805  1.00  0.00    -0.744 OA
ENDBRANCH  93  94
ENDBRANCH  61  86
ENDBRANCH  35  36
ENDBRANCH  27  30
ENDBRANCH  25  26
ENDBRANCH  24  25
ENDBRANCH   1  24
TORSDOF 17
ENDMDL
MODEL 3
REMARK VINA RESULT:     -11.4      1.117      2.177
REMARK SMILES C[C@H]1[C@H](C(=O)NCCCNC(=O)c2ccc(-c3c4nc(c(-c5c(F)cc(S(=O)(=O)[O-])cc5F)c5ccc([nH]5)c(-c5c(F)cc(S(=O)(=O)[O-])cc5F)c5nc(c(-c6c(F)cc(S(=O)(=O)[O-])cc6F)c6ccc3[nH]6)C=C5)C=C4)cc2)CCN1C(=O)COc1ccc(F)cc1Br
REMARK SMILES IDX 7 1 6 2 4 3 5 4 3 6 1 7 2 8 81 9 79 10 80 11 82 12 83 13
REMARK SMILES IDX 84 14 85 15 86 16 87 17 92 18 88 19 91 20 93 21 89 22 90 23
REMARK SMILES IDX 8 24 9 25 10 26 11 27 12 29 13 30 14 31 78 32 15 33 77 34
REMARK SMILES IDX 16 35 17 36 18 37 71 38 19 39 76 40 70 41 72 42 20 43 75 44
REMARK SMILES IDX 69 45 68 46 21 48 55 49 34 50 54 51 35 52 38 53 53 54 73 55
REMARK SMILES IDX 36 56 37 57 52 59 74 60 39 61 22 62 23 63 32 64 24 65 25 66
REMARK SMILES IDX 31 67 33 68 26 69 27 70 28 71 29 72 30 73 56 74 57 75 66 76
REMARK SMILES IDX 58 77 59 78 65 79 67 80 60 81 61 82 62 83 63 84 64 85 40 86
REMARK SMILES IDX 41 87 50 88 42 89 43 90 49 91 51 92 44 93 45 94 46 95 47 96
REMARK SMILES IDX 48 97
REMARK H PARENT 6 5 10 28 72 47 38 58
REMARK Flexibility Score: inf
ROOT
ATOM      1  C   UNL A   1      34.494  28.949  26.455  1.00  0.00     0.117 C 
ENDROOT
BRANCH   1   2
ATOM      2  N   UNL A   1      33.718  27.727  26.571  1.00  0.00    -0.356 N 
ATOM      3  C   UNL A   1      32.796  27.166  25.746  1.00  0.00     0.225 C 
ATOM      4  O   UNL A   1      32.276  26.108  26.114  1.00  0.00    -0.275 OA
ATOM      5  H   UNL A   1      33.890  27.214  27.393  1.00  0.00     0.163 HD
BRANCH   3   6
ATOM      6  C   UNL A   1      32.398  27.780  24.418  1.00  0.00     0.102 C 
ATOM      7  C   UNL A   1      34.028  28.703  22.760  1.00  0.00     0.032 C 
ATOM      8  C   UNL A   1      33.364  27.421  23.269  1.00  0.00     0.094 C 
ATOM      9  N   UNL A   1      32.516  26.753  22.278  1.00  0.00    -0.336 N 
ATOM     10  C   UNL A   1      30.984  27.416  23.969  1.00  0.00     0.037 C 
ATOM     11  C   UNL A   1      31.111  27.033  22.510  1.00  0.00     0.121 C 
BRANCH   9  12
ATOM     12  C   UNL A   1      32.865  25.704  21.446  1.00  0.00     0.260 C 
ATOM     13  O   UNL A   1      33.195  25.909  20.273  1.00  0.00    -0.271 OA
BRANCH  12  14
ATOM     14  C   UNL A   1      32.873  24.268  21.987  1.00  0.00     0.329 C 
BRANCH  14  15
ATOM     15  O   UNL A   1      32.942  24.046  23.374  1.00  0.00    -0.483 OA
BRANCH  15  16
ATOM     16  C   UNL A   1      33.193  22.829  23.937  1.00  0.00     0.134 A 
ATOM     17  C   UNL A   1      32.002  22.254  24.424  1.00  0.00     0.050 A 
ATOM     18  C   UNL A   1      34.401  22.169  24.202  1.00  0.00     0.062 A 
ATOM     19  C   UNL A   1      32.005  21.078  25.176  1.00  0.00     0.043 A 
ATOM     20  C   UNL A   1      34.400  20.999  24.982  1.00  0.00     0.058 A 
ATOM     21  Br  UNL A   1      36.132  22.699  23.653  1.00  0.00    -0.047 Br
ATOM     22  C   UNL A   1      33.213  20.473  25.465  1.00  0.00     0.124 A 
ATOM     23  F   UNL A   1      33.240  19.372  26.228  1.00  0.00    -0.207 F 
ENDBRANCH  15  16
ENDBRANCH  14  15
ENDBRANCH  12  14
ENDBRANCH   9  12
ENDBRANCH   3   6
ENDBRANCH   1   2
BRANCH   1  24
ATOM     24  C   UNL A   1      34.221  29.917  27.598  1.00  0.00     0.042 C 
BRANCH  24  25
ATOM     25  C   UNL A   1      35.479  30.543  28.184  1.00  0.00     0.118 C 
BRANCH  25  26
ATOM     26  N   UNL A   1      35.462  30.578  29.639  1.00  0.00    -0.352 N 
ATOM     27  C   UNL A   1      36.436  30.235  30.543  1.00  0.00     0.251 C 
ATOM     28  H   UNL A   1      34.619  30.896  30.036  1.00  0.00     0.163 HD
ATOM     29  O   UNL A   1      36.150  30.151  31.734  1.00  0.00    -0.269 OA
BRANCH  27  30
ATOM     30  C   UNL A   1      37.816  29.956  30.091  1.00  0.00     0.039 A 
ATOM     31  C   UNL A   1      38.792  29.659  31.046  1.00  0.00     0.014 A 
ATOM     32  C   UNL A   1      38.158  30.014  28.736  1.00  0.00     0.014 A 
ATOM     33  C   UNL A   1      40.094  29.363  30.637  1.00  0.00     0.010 A 
ATOM     34  C   UNL A   1      39.434  29.638  28.325  1.00  0.00     0.010 A 
ATOM     35  C   UNL A   1      40.417  29.319  29.271  1.00  0.00    -0.014 A 
BRANCH  35  36
ATOM     36  C   UNL A   1      41.781  28.944  28.818  1.00  0.00     0.031 A 
ATOM     37  C   UNL A   1      42.867  29.983  28.741  1.00  0.00     0.074 A 
ATOM     38  C   UNL A   1      42.023  27.679  28.422  1.00  0.00     0.049 A 
ATOM     39  N   UNL A   1      44.100  29.859  28.323  1.00  0.00    -0.248 NA
ATOM     40  C   UNL A   1      42.511  31.349  29.161  1.00  0.00     0.031 C 
ATOM     41  C   UNL A   1      41.035  26.598  28.391  1.00  0.00     0.029 A 
ATOM     42  N   UNL A   1      43.174  27.090  27.960  1.00  0.00    -0.354 N 
ATOM     43  C   UNL A   1      44.663  31.126  28.419  1.00  0.00     0.074 A 
ATOM     44  C   UNL A   1      43.620  32.017  28.878  1.00  0.00     0.031 C 
ATOM     45  C   UNL A   1      41.627  25.474  27.956  1.00  0.00     0.029 A 
ATOM     46  C   UNL A   1      43.024  25.760  27.647  1.00  0.00     0.049 A 
ATOM     47  H   UNL A   1      44.024  27.574  27.862  1.00  0.00     0.167 HD
ATOM     48  C   UNL A   1      45.939  31.508  28.173  1.00  0.00     0.037 A 
ATOM     49  C   UNL A   1      43.912  24.870  27.164  1.00  0.00     0.037 A 
ATOM     50  C   UNL A   1      46.979  30.611  27.740  1.00  0.00     0.049 A 
ATOM     51  C   UNL A   1      45.330  25.310  26.923  1.00  0.00     0.074 A 
ATOM     52  C   UNL A   1      48.316  30.886  27.513  1.00  0.00     0.029 A 
ATOM     53  N   UNL A   1      46.798  29.262  27.469  1.00  0.00    -0.354 N 
ATOM     54  N   UNL A   1      45.860  26.500  27.077  1.00  0.00    -0.248 NA
ATOM     55  C   UNL A   1      46.272  24.285  26.455  1.00  0.00     0.031 C 
ATOM     56  C   UNL A   1      48.936  29.712  27.073  1.00  0.00     0.029 A 
ATOM     57  C   UNL A   1      47.996  28.695  27.065  1.00  0.00     0.049 A 
ATOM     58  H   UNL A   1      45.944  28.779  27.552  1.00  0.00     0.167 HD
ATOM     59  C   UNL A   1      47.202  26.365  26.741  1.00  0.00     0.074 A 
ATOM     60  C   UNL A   1      47.406  24.972  26.395  1.00  0.00     0.031 C 
ATOM     61  C   UNL A   1      48.178  27.307  26.719  1.00  0.00     0.037 A 
BRANCH  48  62
ATOM     62  C   UNL A   1      46.281  32.958  28.381  1.00  0.00     0.058 A 
ATOM     63  C   UNL A   1      46.722  33.439  29.626  1.00  0.00     0.135 A 
ATOM     64  C   UNL A   1      46.186  33.877  27.323  1.00  0.00     0.135 A 
ATOM     65  F   UNL A   1      46.816  32.608  30.676  1.00  0.00    -0.206 F 
ATOM     66  C   UNL A   1      47.022  34.783  29.824  1.00  0.00     0.059 A 
ATOM     67  C   UNL A   1      46.509  35.222  27.492  1.00  0.00     0.059 A 
ATOM     68  F   UNL A   1      45.771  33.475  26.112  1.00  0.00    -0.206 F 
ATOM     69  C   UNL A   1      46.910  35.668  28.751  1.00  0.00     0.060 A 
BRANCH  69  70
ATOM     70  S   UNL A   1      47.298  37.409  29.026  1.00  0.00     0.124 S 
ATOM     71  O   UNL A   1      45.979  37.956  29.330  1.00  0.00    -0.237 OA
ATOM     72  O   UNL A   1      48.232  37.349  30.144  1.00  0.00    -0.237 OA
ATOM     73  O   UNL A   1      47.874  37.833  27.753  1.00  0.00    -0.744 OA
ENDBRANCH  69  70
ENDBRANCH  48  62
BRANCH  49  74
ATOM     74  C   UNL A   1      43.487  23.470  26.904  1.00  0.00     0.058 A 
ATOM     75  C   UNL A   1      43.273  22.571  27.960  1.00  0.00     0.135 A 
ATOM     76  C   UNL A   1      43.259  23.011  25.597  1.00  0.00     0.135 A 
ATOM     77  F   UNL A   1      43.482  22.963  29.226  1.00  0.00    -0.206 F 
ATOM     78  C   UNL A   1      42.859  21.264  27.731  1.00  0.00     0.059 A 
ATOM     79  C   UNL A   1      42.821  21.715  25.344  1.00  0.00     0.059 A 
ATOM     80  F   UNL A   1      43.431  23.838  24.555  1.00  0.00    -0.206 F 
ATOM     81  C   UNL A   1      42.633  20.845  26.418  1.00  0.00     0.060 A 
BRANCH  81  82
ATOM     82  S   UNL A   1      42.039  19.164  26.133  1.00  0.00     0.124 S 
ATOM     83  O   UNL A   1      42.394  18.510  27.387  1.00  0.00    -0.237 OA
ATOM     84  O   UNL A   1      40.613  19.376  25.905  1.00  0.00    -0.237 OA
ATOM     85  O   UNL A   1      42.796  18.736  24.960  1.00  0.00    -0.744 OA
ENDBRANCH  81  82
ENDBRANCH  49  74
BRANCH  61  86
ATOM     86  C   UNL A   1      49.557  26.855  26.327  1.00  0.00     0.058 A 
ATOM     87  C   UNL A   1      50.025  26.981  25.009  1.00  0.00     0.135 A 
ATOM     88  C   UNL A   1      50.430  26.317  27.285  1.00  0.00     0.135 A 
ATOM     89  F   UNL A   1      49.226  27.484  24.054  1.00  0.00    -0.206 F 
ATOM     90  C   UNL A   1      51.300  26.560  24.649  1.00  0.00     0.059 A 
ATOM     91  C   UNL A   1      51.719  25.914  26.952  1.00  0.00     0.059 A 
ATOM     92  F   UNL A   1      50.036  26.185  28.562  1.00  0.00    -0.206 F 
ATOM     93  C   UNL A   1      52.140  26.025  25.628  1.00  0.00     0.060 A 
BRANCH  93  94
ATOM     94  S   UNL A   1      53.797  25.494  25.152  1.00  0.00     0.124 S 
ATOM     95  O   UNL A   1      54.631  26.313  26.028  1.00  0.00    -0.237 OA
ATOM     96  O   UNL A   1      53.770  24.067  25.455  1.00  0.00    -0.237 OA
ATOM     97  O   UNL A   1      53.865  25.826  23.731  1.00  0.00    -0.744 OA
ENDBRANCH  93  94
ENDBRANCH  61  86
ENDBRANCH  35  36
ENDBRANCH  27  30
ENDBRANCH  25  26
ENDBRANCH  24  25
ENDBRANCH   1  24
TORSDOF 17
ENDMDL
