MODEL 1
REMARK VINA RESULT:     -13.4      0.000      0.000
REMARK SMILES CCc1c(C(=O)NCC(=O)NCCCNC(=O)c2ccc(-c3c4nc(c(-c5c(F)cc(S(=O)(=O)[O-])cc5F)c5ccc([nH]5)c(-c5c(F)cc(S(=O)(=O)[O-])cc5F)c5nc(c(-c6c(F)cc(S(=O)(=O)[O-])cc6F)c6ccc3[nH]6)C=C5)C=C4)cc2)nnn1-c1ccc(C)cc1
REMARK SMILES IDX 13 1 12 2 11 3 9 4 10 5 8 7 7 8 5 9 6 10 4 12 3 13 86 14
REMARK SMILES IDX 84 15 85 16 2 17 1 18 87 19 88 20 93 21 89 22 92 23 90 24
REMARK SMILES IDX 91 25 14 26 15 27 16 28 17 30 18 31 19 32 83 33 20 34 82 35
REMARK SMILES IDX 21 36 22 37 23 38 76 39 24 40 81 41 75 42 77 43 25 44 80 45
REMARK SMILES IDX 74 46 73 47 26 49 60 50 39 51 59 52 40 53 43 54 58 55 78 56
REMARK SMILES IDX 41 57 42 58 57 60 79 61 44 62 27 63 28 64 37 65 29 66 30 67
REMARK SMILES IDX 36 68 38 69 31 70 32 71 33 72 34 73 35 74 61 75 62 76 71 77
REMARK SMILES IDX 63 78 64 79 70 80 72 81 65 82 66 83 67 84 68 85 69 86 45 87
REMARK SMILES IDX 46 88 55 89 47 90 48 91 54 92 56 93 49 94 50 95 51 96 52 97
REMARK SMILES IDX 53 98
REMARK H PARENT 11 6 7 11 15 29 77 48 43 59
REMARK Flexibility Score: inf
ROOT
ATOM      1  C   UNL A   1      37.419  21.454  24.948  1.00  0.00     0.042 C 
ENDROOT
BRANCH   1   2
ATOM      2  C   UNL A   1      36.111  21.118  25.660  1.00  0.00     0.117 C 
BRANCH   2   3
ATOM      3  N   UNL A   1      35.391  20.004  25.084  1.00  0.00    -0.355 N 
ATOM      4  C   UNL A   1      34.058  19.780  24.945  1.00  0.00     0.239 C 
ATOM      5  O   UNL A   1      33.727  18.835  24.222  1.00  0.00    -0.273 OA
ATOM      6  H   UNL A   1      35.964  19.284  24.732  1.00  0.00     0.163 HD
BRANCH   4   7
ATOM      7  C   UNL A   1      32.978  20.739  25.463  1.00  0.00     0.216 C 
BRANCH   7   8
ATOM      8  N   UNL A   1      33.088  21.407  26.740  1.00  0.00    -0.342 N 
ATOM      9  C   UNL A   1      32.577  22.523  27.342  1.00  0.00     0.274 C 
ATOM     10  O   UNL A   1      32.834  22.586  28.550  1.00  0.00    -0.267 OA
ATOM     11  H   UNL A   1      33.700  20.926  27.344  1.00  0.00     0.164 HD
BRANCH   9  12
ATOM     12  C   UNL A   1      31.889  23.648  26.689  1.00  0.00     0.174 A 
ATOM     13  C   UNL A   1      32.223  24.713  25.844  1.00  0.00     0.077 A 
ATOM     14  N   UNL A   1      31.029  25.433  25.728  1.00  0.00    -0.217 N 
ATOM     15  N   UNL A   1      30.563  23.810  27.057  1.00  0.00    -0.124 NA
ATOM     16  N   UNL A   1      30.103  24.941  26.566  1.00  0.00    -0.061 NA
BRANCH  13  17
ATOM     17  C   UNL A   1      33.505  25.245  25.290  1.00  0.00     0.055 C 
ATOM     18  C   UNL A   1      33.975  24.522  24.038  1.00  0.00     0.011 C 
ENDBRANCH  13  17
BRANCH  14  19
ATOM     19  C   UNL A   1      30.744  26.583  24.958  1.00  0.00     0.067 A 
ATOM     20  C   UNL A   1      29.827  26.498  23.903  1.00  0.00     0.029 A 
ATOM     21  C   UNL A   1      31.356  27.803  25.257  1.00  0.00     0.029 A 
ATOM     22  C   UNL A   1      29.458  27.657  23.218  1.00  0.00     0.005 A 
ATOM     23  C   UNL A   1      31.000  28.952  24.555  1.00  0.00     0.005 A 
ATOM     24  C   UNL A   1      30.031  28.893  23.547  1.00  0.00    -0.051 A 
ATOM     25  C   UNL A   1      29.600  30.137  22.831  1.00  0.00     0.044 C 
ENDBRANCH  14  19
ENDBRANCH   9  12
ENDBRANCH   7   8
ENDBRANCH   4   7
ENDBRANCH   2   3
ENDBRANCH   1   2
BRANCH   1  26
ATOM     26  C   UNL A   1      38.253  22.432  25.750  1.00  0.00     0.118 C 
BRANCH  26  27
ATOM     27  N   UNL A   1      39.459  21.816  26.337  1.00  0.00    -0.352 N 
ATOM     28  C   UNL A   1      40.580  22.432  26.866  1.00  0.00     0.251 C 
ATOM     29  H   UNL A   1      39.467  20.831  26.354  1.00  0.00     0.163 HD
ATOM     30  O   UNL A   1      41.639  21.806  26.995  1.00  0.00    -0.269 OA
BRANCH  28  31
ATOM     31  C   UNL A   1      40.483  23.839  27.277  1.00  0.00     0.039 A 
ATOM     32  C   UNL A   1      39.319  24.608  27.204  1.00  0.00     0.014 A 
ATOM     33  C   UNL A   1      41.628  24.362  27.851  1.00  0.00     0.014 A 
ATOM     34  C   UNL A   1      39.351  25.890  27.752  1.00  0.00     0.010 A 
ATOM     35  C   UNL A   1      41.497  25.374  28.742  1.00  0.00     0.010 A 
ATOM     36  C   UNL A   1      40.467  26.257  28.519  1.00  0.00    -0.014 A 
BRANCH  36  37
ATOM     37  C   UNL A   1      40.654  27.555  29.134  1.00  0.00     0.031 A 
ATOM     38  C   UNL A   1      41.681  28.388  28.485  1.00  0.00     0.074 A 
ATOM     39  C   UNL A   1      39.796  28.048  30.057  1.00  0.00     0.049 A 
ATOM     40  N   UNL A   1      42.882  28.588  28.904  1.00  0.00    -0.248 NA
ATOM     41  C   UNL A   1      41.424  28.895  27.131  1.00  0.00     0.031 C 
ATOM     42  C   UNL A   1      38.529  27.501  30.564  1.00  0.00     0.029 A 
ATOM     43  N   UNL A   1      39.876  29.238  30.704  1.00  0.00    -0.354 N 
ATOM     44  C   UNL A   1      43.472  29.437  27.978  1.00  0.00     0.074 A 
ATOM     45  C   UNL A   1      42.616  29.413  26.821  1.00  0.00     0.031 C 
ATOM     46  C   UNL A   1      37.874  28.445  31.279  1.00  0.00     0.029 A 
ATOM     47  C   UNL A   1      38.741  29.600  31.420  1.00  0.00     0.049 A 
ATOM     48  H   UNL A   1      40.681  29.804  30.670  1.00  0.00     0.167 HD
ATOM     49  C   UNL A   1      44.506  30.248  28.337  1.00  0.00     0.037 A 
ATOM     50  C   UNL A   1      38.547  30.784  32.057  1.00  0.00     0.037 A 
ATOM     51  C   UNL A   1      44.978  29.909  29.661  1.00  0.00     0.049 A 
ATOM     52  C   UNL A   1      39.909  31.350  32.301  1.00  0.00     0.074 A 
ATOM     53  C   UNL A   1      45.553  28.783  30.220  1.00  0.00     0.029 A 
ATOM     54  N   UNL A   1      44.482  30.641  30.718  1.00  0.00    -0.354 N 
ATOM     55  N   UNL A   1      40.786  30.789  33.094  1.00  0.00    -0.248 NA
ATOM     56  C   UNL A   1      40.472  32.220  31.278  1.00  0.00     0.031 C 
ATOM     57  C   UNL A   1      44.945  28.659  31.504  1.00  0.00     0.029 A 
ATOM     58  C   UNL A   1      44.101  29.755  31.697  1.00  0.00     0.049 A 
ATOM     59  H   UNL A   1      44.412  31.622  30.763  1.00  0.00     0.167 HD
ATOM     60  C   UNL A   1      42.001  30.890  32.426  1.00  0.00     0.074 A 
ATOM     61  C   UNL A   1      41.754  31.842  31.341  1.00  0.00     0.031 C 
ATOM     62  C   UNL A   1      43.004  29.979  32.619  1.00  0.00     0.037 A 
BRANCH  49  63
ATOM     63  C   UNL A   1      44.889  31.541  27.666  1.00  0.00     0.058 A 
ATOM     64  C   UNL A   1      46.098  31.598  26.941  1.00  0.00     0.135 A 
ATOM     65  C   UNL A   1      44.265  32.783  27.908  1.00  0.00     0.135 A 
ATOM     66  F   UNL A   1      46.771  30.476  26.639  1.00  0.00    -0.206 F 
ATOM     67  C   UNL A   1      46.687  32.803  26.563  1.00  0.00     0.059 A 
ATOM     68  C   UNL A   1      44.808  33.994  27.493  1.00  0.00     0.059 A 
ATOM     69  F   UNL A   1      43.150  32.896  28.639  1.00  0.00    -0.206 F 
ATOM     70  C   UNL A   1      46.041  33.998  26.862  1.00  0.00     0.060 A 
BRANCH  70  71
ATOM     71  S   UNL A   1      46.858  35.556  26.479  1.00  0.00     0.124 S 
ATOM     72  O   UNL A   1      45.718  36.430  26.231  1.00  0.00    -0.237 OA
ATOM     73  O   UNL A   1      47.608  35.812  27.705  1.00  0.00    -0.237 OA
ATOM     74  O   UNL A   1      47.670  35.230  25.310  1.00  0.00    -0.744 OA
ENDBRANCH  70  71
ENDBRANCH  49  63
BRANCH  50  75
ATOM     75  C   UNL A   1      37.303  31.604  32.073  1.00  0.00     0.058 A 
ATOM     76  C   UNL A   1      36.732  32.055  33.279  1.00  0.00     0.135 A 
ATOM     77  C   UNL A   1      36.804  32.202  30.897  1.00  0.00     0.135 A 
ATOM     78  F   UNL A   1      37.152  31.553  34.451  1.00  0.00    -0.206 F 
ATOM     79  C   UNL A   1      35.773  33.076  33.319  1.00  0.00     0.059 A 
ATOM     80  C   UNL A   1      35.845  33.215  30.912  1.00  0.00     0.059 A 
ATOM     81  F   UNL A   1      37.304  31.887  29.694  1.00  0.00    -0.206 F 
ATOM     82  C   UNL A   1      35.354  33.670  32.128  1.00  0.00     0.060 A 
BRANCH  82  83
ATOM     83  S   UNL A   1      34.273  35.122  32.179  1.00  0.00     0.124 S 
ATOM     84  O   UNL A   1      34.151  35.460  30.766  1.00  0.00    -0.237 OA
ATOM     85  O   UNL A   1      33.072  34.590  32.815  1.00  0.00    -0.237 OA
ATOM     86  O   UNL A   1      35.028  36.077  32.987  1.00  0.00    -0.744 OA
ENDBRANCH  82  83
ENDBRANCH  50  75
BRANCH  62  87
ATOM     87  C   UNL A   1      42.861  28.982  33.748  1.00  0.00     0.058 A 
ATOM     88  C   UNL A   1      43.121  29.270  35.102  1.00  0.00     0.135 A 
ATOM     89  C   UNL A   1      42.269  27.741  33.471  1.00  0.00     0.135 A 
ATOM     90  F   UNL A   1      43.584  30.468  35.474  1.00  0.00    -0.206 F 
ATOM     91  C   UNL A   1      42.845  28.356  36.122  1.00  0.00     0.059 A 
ATOM     92  C   UNL A   1      41.957  26.826  34.474  1.00  0.00     0.059 A 
ATOM     93  F   UNL A   1      41.931  27.427  32.209  1.00  0.00    -0.206 F 
ATOM     94  C   UNL A   1      42.261  27.134  35.798  1.00  0.00     0.060 A 
BRANCH  94  95
ATOM     95  S   UNL A   1      41.847  25.976  37.121  1.00  0.00     0.124 S 
ATOM     96  O   UNL A   1      41.986  24.686  36.454  1.00  0.00    -0.237 OA
ATOM     97  O   UNL A   1      42.853  26.276  38.135  1.00  0.00    -0.237 OA
ATOM     98  O   UNL A   1      40.481  26.346  37.483  1.00  0.00    -0.744 OA
ENDBRANCH  94  95
ENDBRANCH  62  87
ENDBRANCH  36  37
ENDBRANCH  28  31
ENDBRANCH  26  27
ENDBRANCH   1  26
TORSDOF 17
ENDMDL
MODEL 2
REMARK VINA RESULT:     -13.2      1.517      2.085
REMARK SMILES CCc1c(C(=O)NCC(=O)NCCCNC(=O)c2ccc(-c3c4nc(c(-c5c(F)cc(S(=O)(=O)[O-])cc5F)c5ccc([nH]5)c(-c5c(F)cc(S(=O)(=O)[O-])cc5F)c5nc(c(-c6c(F)cc(S(=O)(=O)[O-])cc6F)c6ccc3[nH]6)C=C5)C=C4)cc2)nnn1-c1ccc(C)cc1
REMARK SMILES IDX 13 1 12 2 11 3 9 4 10 5 8 7 7 8 5 9 6 10 4 12 3 13 86 14
REMARK SMILES IDX 84 15 85 16 2 17 1 18 87 19 88 20 93 21 89 22 92 23 90 24
REMARK SMILES IDX 91 25 14 26 15 27 16 28 17 30 18 31 19 32 83 33 20 34 82 35
REMARK SMILES IDX 21 36 22 37 23 38 76 39 24 40 81 41 75 42 77 43 25 44 80 45
REMARK SMILES IDX 74 46 73 47 26 49 60 50 39 51 59 52 40 53 43 54 58 55 78 56
REMARK SMILES IDX 41 57 42 58 57 60 79 61 44 62 27 63 28 64 37 65 29 66 30 67
REMARK SMILES IDX 36 68 38 69 31 70 32 71 33 72 34 73 35 74 61 75 62 76 71 77
REMARK SMILES IDX 63 78 64 79 70 80 72 81 65 82 66 83 67 84 68 85 69 86 45 87
REMARK SMILES IDX 46 88 55 89 47 90 48 91 54 92 56 93 49 94 50 95 51 96 52 97
REMARK SMILES IDX 53 98
REMARK H PARENT 11 6 7 11 15 29 77 48 43 59
REMARK Flexibility Score: inf
ROOT
ATOM      1  C   UNL A   1      38.914  22.533  26.131  1.00  0.00     0.042 C 
ENDROOT
BRANCH   1   2
ATOM      2  C   UNL A   1      37.946  21.649  25.348  1.00  0.00     0.117 C 
BRANCH   2   3
ATOM      3  N   UNL A   1      37.377  22.282  24.178  1.00  0.00    -0.355 N 
ATOM      4  C   UNL A   1      36.085  22.443  23.792  1.00  0.00     0.239 C 
ATOM      5  O   UNL A   1      35.881  23.212  22.847  1.00  0.00    -0.273 OA
ATOM      6  H   UNL A   1      38.040  22.661  23.555  1.00  0.00     0.163 HD
BRANCH   4   7
ATOM      7  C   UNL A   1      34.889  21.893  24.580  1.00  0.00     0.216 C 
BRANCH   7   8
ATOM      8  N   UNL A   1      34.720  22.136  25.995  1.00  0.00    -0.342 N 
ATOM      9  C   UNL A   1      33.870  22.840  26.802  1.00  0.00     0.274 C 
ATOM     10  O   UNL A   1      34.021  22.588  28.004  1.00  0.00    -0.267 OA
ATOM     11  H   UNL A   1      35.405  21.665  26.523  1.00  0.00     0.164 HD
BRANCH   9  12
ATOM     12  C   UNL A   1      32.929  23.895  26.396  1.00  0.00     0.174 A 
ATOM     13  C   UNL A   1      32.900  24.959  25.488  1.00  0.00     0.077 A 
ATOM     14  N   UNL A   1      31.679  25.589  25.751  1.00  0.00    -0.217 N 
ATOM     15  N   UNL A   1      31.776  23.971  27.162  1.00  0.00    -0.124 NA
ATOM     16  N   UNL A   1      31.101  25.053  26.838  1.00  0.00    -0.061 NA
BRANCH  13  17
ATOM     17  C   UNL A   1      33.900  25.568  24.558  1.00  0.00     0.055 C 
ATOM     18  C   UNL A   1      33.473  25.539  23.100  1.00  0.00     0.011 C 
ENDBRANCH  13  17
BRANCH  14  19
ATOM     19  C   UNL A   1      31.080  26.696  25.107  1.00  0.00     0.067 A 
ATOM     20  C   UNL A   1      31.569  27.984  25.353  1.00  0.00     0.029 A 
ATOM     21  C   UNL A   1      30.022  26.506  24.214  1.00  0.00     0.029 A 
ATOM     22  C   UNL A   1      31.056  29.063  24.631  1.00  0.00     0.005 A 
ATOM     23  C   UNL A   1      29.500  27.590  23.512  1.00  0.00     0.005 A 
ATOM     24  C   UNL A   1      30.029  28.872  23.696  1.00  0.00    -0.051 A 
ATOM     25  C   UNL A   1      29.512  30.031  22.899  1.00  0.00     0.044 C 
ENDBRANCH  14  19
ENDBRANCH   9  12
ENDBRANCH   7   8
ENDBRANCH   4   7
ENDBRANCH   2   3
ENDBRANCH   1   2
BRANCH   1  26
ATOM     26  C   UNL A   1      40.051  21.725  26.720  1.00  0.00     0.118 C 
BRANCH  26  27
ATOM     27  N   UNL A   1      41.304  21.842  25.948  1.00  0.00    -0.352 N 
ATOM     28  C   UNL A   1      42.096  22.958  25.741  1.00  0.00     0.251 C 
ATOM     29  H   UNL A   1      41.619  21.012  25.523  1.00  0.00     0.163 HD
ATOM     30  O   UNL A   1      42.905  22.989  24.806  1.00  0.00    -0.269 OA
BRANCH  28  31
ATOM     31  C   UNL A   1      41.962  24.098  26.658  1.00  0.00     0.039 A 
ATOM     32  C   UNL A   1      42.604  24.199  27.895  1.00  0.00     0.014 A 
ATOM     33  C   UNL A   1      41.211  25.154  26.174  1.00  0.00     0.014 A 
ATOM     34  C   UNL A   1      42.481  25.400  28.594  1.00  0.00     0.010 A 
ATOM     35  C   UNL A   1      41.482  26.400  26.631  1.00  0.00     0.010 A 
ATOM     36  C   UNL A   1      41.903  26.496  27.937  1.00  0.00    -0.014 A 
BRANCH  36  37
ATOM     37  C   UNL A   1      41.689  27.797  28.535  1.00  0.00     0.031 A 
ATOM     38  C   UNL A   1      42.728  28.789  28.209  1.00  0.00     0.074 A 
ATOM     39  C   UNL A   1      40.522  28.137  29.130  1.00  0.00     0.049 A 
ATOM     40  N   UNL A   1      43.694  29.167  28.973  1.00  0.00    -0.248 NA
ATOM     41  C   UNL A   1      42.831  29.272  26.826  1.00  0.00     0.031 C 
ATOM     42  C   UNL A   1      39.259  27.391  29.237  1.00  0.00     0.029 A 
ATOM     43  N   UNL A   1      40.215  29.314  29.730  1.00  0.00    -0.354 N 
ATOM     44  C   UNL A   1      44.406  30.112  28.248  1.00  0.00     0.074 A 
ATOM     45  C   UNL A   1      43.967  29.973  26.884  1.00  0.00     0.031 C 
ATOM     46  C   UNL A   1      38.279  28.212  29.682  1.00  0.00     0.029 A 
ATOM     47  C   UNL A   1      38.872  29.484  30.046  1.00  0.00     0.049 A 
ATOM     48  H   UNL A   1      40.894  29.999  29.928  1.00  0.00     0.167 HD
ATOM     49  C   UNL A   1      45.141  31.067  28.883  1.00  0.00     0.037 A 
ATOM     50  C   UNL A   1      38.312  30.614  30.552  1.00  0.00     0.037 A 
ATOM     51  C   UNL A   1      45.223  30.785  30.298  1.00  0.00     0.049 A 
ATOM     52  C   UNL A   1      39.427  31.380  31.188  1.00  0.00     0.074 A 
ATOM     53  C   UNL A   1      45.760  29.752  31.044  1.00  0.00     0.029 A 
ATOM     54  N   UNL A   1      44.317  31.414  31.124  1.00  0.00    -0.354 N 
ATOM     55  N   UNL A   1      40.088  30.949  32.231  1.00  0.00    -0.248 NA
ATOM     56  C   UNL A   1      40.141  32.343  30.361  1.00  0.00     0.031 C 
ATOM     57  C   UNL A   1      44.808  29.515  32.080  1.00  0.00     0.029 A 
ATOM     58  C   UNL A   1      43.790  30.464  31.966  1.00  0.00     0.049 A 
ATOM     59  H   UNL A   1      44.088  32.371  31.113  1.00  0.00     0.167 HD
ATOM     60  C   UNL A   1      41.420  31.248  31.970  1.00  0.00     0.074 A 
ATOM     61  C   UNL A   1      41.381  32.167  30.831  1.00  0.00     0.031 C 
ATOM     62  C   UNL A   1      42.439  30.501  32.494  1.00  0.00     0.037 A 
BRANCH  49  63
ATOM     63  C   UNL A   1      45.512  32.415  28.321  1.00  0.00     0.058 A 
ATOM     64  C   UNL A   1      46.878  32.753  28.213  1.00  0.00     0.135 A 
ATOM     65  C   UNL A   1      44.604  33.476  28.122  1.00  0.00     0.135 A 
ATOM     66  F   UNL A   1      47.830  31.819  28.367  1.00  0.00    -0.206 F 
ATOM     67  C   UNL A   1      47.310  34.062  28.013  1.00  0.00     0.059 A 
ATOM     68  C   UNL A   1      45.013  34.781  27.868  1.00  0.00     0.059 A 
ATOM     69  F   UNL A   1      43.282  33.325  28.259  1.00  0.00    -0.206 F 
ATOM     70  C   UNL A   1      46.367  35.073  27.861  1.00  0.00     0.060 A 
BRANCH  70  71
ATOM     71  S   UNL A   1      46.925  36.779  27.721  1.00  0.00     0.124 S 
ATOM     72  O   UNL A   1      46.070  37.446  28.695  1.00  0.00    -0.237 OA
ATOM     73  O   UNL A   1      48.335  36.665  28.078  1.00  0.00    -0.237 OA
ATOM     74  O   UNL A   1      46.662  37.104  26.322  1.00  0.00    -0.744 OA
ENDBRANCH  70  71
ENDBRANCH  49  63
BRANCH  50  75
ATOM     75  C   UNL A   1      37.014  31.230  30.154  1.00  0.00     0.058 A 
ATOM     76  C   UNL A   1      36.160  31.827  31.101  1.00  0.00     0.135 A 
ATOM     77  C   UNL A   1      36.715  31.501  28.802  1.00  0.00     0.135 A 
ATOM     78  F   UNL A   1      36.373  31.637  32.413  1.00  0.00    -0.206 F 
ATOM     79  C   UNL A   1      35.114  32.685  30.733  1.00  0.00     0.059 A 
ATOM     80  C   UNL A   1      35.676  32.346  28.412  1.00  0.00     0.059 A 
ATOM     81  F   UNL A   1      37.487  31.025  27.814  1.00  0.00    -0.206 F 
ATOM     82  C   UNL A   1      34.897  32.959  29.383  1.00  0.00     0.060 A 
BRANCH  82  83
ATOM     83  S   UNL A   1      33.687  34.219  28.905  1.00  0.00     0.124 S 
ATOM     84  O   UNL A   1      34.536  35.252  28.325  1.00  0.00    -0.237 OA
ATOM     85  O   UNL A   1      32.836  33.491  27.969  1.00  0.00    -0.237 OA
ATOM     86  O   UNL A   1      33.050  34.573  30.172  1.00  0.00    -0.744 OA
ENDBRANCH  82  83
ENDBRANCH  50  75
BRANCH  62  87
ATOM     87  C   UNL A   1      42.106  29.476  33.556  1.00  0.00     0.058 A 
ATOM     88  C   UNL A   1      41.809  28.125  33.294  1.00  0.00     0.135 A 
ATOM     89  C   UNL A   1      42.269  29.835  34.903  1.00  0.00     0.135 A 
ATOM     90  F   UNL A   1      41.741  27.666  32.039  1.00  0.00    -0.206 F 
ATOM     91  C   UNL A   1      41.640  27.189  34.317  1.00  0.00     0.059 A 
ATOM     92  C   UNL A   1      42.136  28.912  35.939  1.00  0.00     0.059 A 
ATOM     93  F   UNL A   1      42.620  31.091  35.223  1.00  0.00    -0.206 F 
ATOM     94  C   UNL A   1      41.807  27.592  35.639  1.00  0.00     0.060 A 
BRANCH  94  95
ATOM     95  S   UNL A   1      41.652  26.370  36.961  1.00  0.00     0.124 S 
ATOM     96  O   UNL A   1      41.654  25.114  36.218  1.00  0.00    -0.237 OA
ATOM     97  O   UNL A   1      42.837  26.627  37.774  1.00  0.00    -0.237 OA
ATOM     98  O   UNL A   1      40.384  26.716  37.598  1.00  0.00    -0.744 OA
ENDBRANCH  94  95
ENDBRANCH  62  87
ENDBRANCH  36  37
ENDBRANCH  28  31
ENDBRANCH  26  27
ENDBRANCH   1  26
TORSDOF 17
ENDMDL
MODEL 3
REMARK VINA RESULT:     -13.2      1.512      2.292
REMARK SMILES CCc1c(C(=O)NCC(=O)NCCCNC(=O)c2ccc(-c3c4nc(c(-c5c(F)cc(S(=O)(=O)[O-])cc5F)c5ccc([nH]5)c(-c5c(F)cc(S(=O)(=O)[O-])cc5F)c5nc(c(-c6c(F)cc(S(=O)(=O)[O-])cc6F)c6ccc3[nH]6)C=C5)C=C4)cc2)nnn1-c1ccc(C)cc1
REMARK SMILES IDX 13 1 12 2 11 3 9 4 10 5 8 7 7 8 5 9 6 10 4 12 3 13 86 14
REMARK SMILES IDX 84 15 85 16 2 17 1 18 87 19 88 20 93 21 89 22 92 23 90 24
REMARK SMILES IDX 91 25 14 26 15 27 16 28 17 30 18 31 19 32 83 33 20 34 82 35
REMARK SMILES IDX 21 36 22 37 23 38 76 39 24 40 81 41 75 42 77 43 25 44 80 45
REMARK SMILES IDX 74 46 73 47 26 49 60 50 39 51 59 52 40 53 43 54 58 55 78 56
REMARK SMILES IDX 41 57 42 58 57 60 79 61 44 62 27 63 28 64 37 65 29 66 30 67
REMARK SMILES IDX 36 68 38 69 31 70 32 71 33 72 34 73 35 74 61 75 62 76 71 77
REMARK SMILES IDX 63 78 64 79 70 80 72 81 65 82 66 83 67 84 68 85 69 86 45 87
REMARK SMILES IDX 46 88 55 89 47 90 48 91 54 92 56 93 49 94 50 95 51 96 52 97
REMARK SMILES IDX 53 98
REMARK H PARENT 11 6 7 11 15 29 77 48 43 59
REMARK Flexibility Score: inf
ROOT
ATOM      1  C   UNL A   1      39.186  21.454  26.036  1.00  0.00     0.042 C 
ENDROOT
BRANCH   1   2
ATOM      2  C   UNL A   1      38.077  22.297  25.411  1.00  0.00     0.117 C 
BRANCH   2   3
ATOM      3  N   UNL A   1      36.861  22.352  26.194  1.00  0.00    -0.355 N 
ATOM      4  C   UNL A   1      35.709  21.639  26.102  1.00  0.00     0.239 C 
ATOM      5  O   UNL A   1      34.911  21.751  27.039  1.00  0.00    -0.273 OA
ATOM      6  H   UNL A   1      36.870  23.022  26.917  1.00  0.00     0.163 HD
BRANCH   4   7
ATOM      7  C   UNL A   1      35.451  20.578  25.023  1.00  0.00     0.216 C 
BRANCH   7   8
ATOM      8  N   UNL A   1      34.206  19.848  24.941  1.00  0.00    -0.342 N 
ATOM      9  C   UNL A   1      32.884  20.130  24.736  1.00  0.00     0.274 C 
ATOM     10  O   UNL A   1      32.192  19.119  24.565  1.00  0.00    -0.267 OA
ATOM     11  H   UNL A   1      34.349  18.882  25.065  1.00  0.00     0.164 HD
BRANCH   9  12
ATOM     12  C   UNL A   1      32.235  21.448  24.816  1.00  0.00     0.174 A 
ATOM     13  C   UNL A   1      32.364  22.702  24.207  1.00  0.00     0.077 A 
ATOM     14  N   UNL A   1      31.438  23.500  24.887  1.00  0.00    -0.217 N 
ATOM     15  N   UNL A   1      31.297  21.573  25.829  1.00  0.00    -0.124 NA
ATOM     16  N   UNL A   1      30.920  22.829  25.929  1.00  0.00    -0.061 NA
BRANCH  13  17
ATOM     17  C   UNL A   1      33.328  23.295  23.231  1.00  0.00     0.055 C 
ATOM     18  C   UNL A   1      34.479  24.041  23.887  1.00  0.00     0.011 C 
ENDBRANCH  13  17
BRANCH  14  19
ATOM     19  C   UNL A   1      31.087  24.852  24.673  1.00  0.00     0.067 A 
ATOM     20  C   UNL A   1      31.551  25.833  25.557  1.00  0.00     0.029 A 
ATOM     21  C   UNL A   1      30.301  25.212  23.575  1.00  0.00     0.029 A 
ATOM     22  C   UNL A   1      31.302  27.180  25.281  1.00  0.00     0.005 A 
ATOM     23  C   UNL A   1      30.038  26.556  23.318  1.00  0.00     0.005 A 
ATOM     24  C   UNL A   1      30.557  27.551  24.154  1.00  0.00    -0.051 A 
ATOM     25  C   UNL A   1      30.328  28.999  23.846  1.00  0.00     0.044 C 
ENDBRANCH  14  19
ENDBRANCH   9  12
ENDBRANCH   7   8
ENDBRANCH   4   7
ENDBRANCH   2   3
ENDBRANCH   1   2
BRANCH   1  26
ATOM     26  C   UNL A   1      40.075  22.286  26.937  1.00  0.00     0.118 C 
BRANCH  26  27
ATOM     27  N   UNL A   1      41.513  22.078  26.681  1.00  0.00    -0.352 N 
ATOM     28  C   UNL A   1      42.484  23.012  26.365  1.00  0.00     0.251 C 
ATOM     29  H   UNL A   1      41.824  21.145  26.744  1.00  0.00     0.163 HD
ATOM     30  O   UNL A   1      43.550  22.659  25.843  1.00  0.00    -0.269 OA
BRANCH  28  31
ATOM     31  C   UNL A   1      42.228  24.426  26.669  1.00  0.00     0.039 A 
ATOM     32  C   UNL A   1      41.431  25.271  25.893  1.00  0.00     0.014 A 
ATOM     33  C   UNL A   1      42.762  24.875  27.863  1.00  0.00     0.014 A 
ATOM     34  C   UNL A   1      41.177  26.553  26.379  1.00  0.00     0.010 A 
ATOM     35  C   UNL A   1      42.147  25.903  28.498  1.00  0.00     0.010 A 
ATOM     36  C   UNL A   1      41.556  26.851  27.697  1.00  0.00    -0.014 A 
BRANCH  36  37
ATOM     37  C   UNL A   1      41.378  28.139  28.334  1.00  0.00     0.031 A 
ATOM     38  C   UNL A   1      42.415  29.129  27.996  1.00  0.00     0.074 A 
ATOM     39  C   UNL A   1      40.237  28.476  28.979  1.00  0.00     0.049 A 
ATOM     40  N   UNL A   1      43.412  29.477  28.732  1.00  0.00    -0.248 NA
ATOM     41  C   UNL A   1      42.474  29.644  26.622  1.00  0.00     0.031 C 
ATOM     42  C   UNL A   1      38.970  27.740  29.114  1.00  0.00     0.029 A 
ATOM     43  N   UNL A   1      39.964  29.640  29.619  1.00  0.00    -0.354 N 
ATOM     44  C   UNL A   1      44.108  30.433  28.006  1.00  0.00     0.074 A 
ATOM     45  C   UNL A   1      43.619  30.332  26.655  1.00  0.00     0.031 C 
ATOM     46  C   UNL A   1      38.016  28.559  29.614  1.00  0.00     0.029 A 
ATOM     47  C   UNL A   1      38.635  29.816  29.987  1.00  0.00     0.049 A 
ATOM     48  H   UNL A   1      40.657  30.313  29.809  1.00  0.00     0.167 HD
ATOM     49  C   UNL A   1      44.875  31.365  28.637  1.00  0.00     0.037 A 
ATOM     50  C   UNL A   1      38.106  30.939  30.541  1.00  0.00     0.037 A 
ATOM     51  C   UNL A   1      45.005  31.046  30.041  1.00  0.00     0.049 A 
ATOM     52  C   UNL A   1      39.252  31.678  31.154  1.00  0.00     0.074 A 
ATOM     53  C   UNL A   1      45.557  29.990  30.742  1.00  0.00     0.029 A 
ATOM     54  N   UNL A   1      44.137  31.663  30.914  1.00  0.00    -0.354 N 
ATOM     55  N   UNL A   1      39.945  31.214  32.162  1.00  0.00    -0.248 NA
ATOM     56  C   UNL A   1      39.946  32.654  30.326  1.00  0.00     0.031 C 
ATOM     57  C   UNL A   1      44.641  29.737  31.805  1.00  0.00     0.029 A 
ATOM     58  C   UNL A   1      43.630  30.699  31.751  1.00  0.00     0.049 A 
ATOM     59  H   UNL A   1      43.918  32.623  30.935  1.00  0.00     0.167 HD
ATOM     60  C   UNL A   1      41.270  31.506  31.860  1.00  0.00     0.074 A 
ATOM     61  C   UNL A   1      41.200  32.453  30.746  1.00  0.00     0.031 C 
ATOM     62  C   UNL A   1      42.299  30.736  32.329  1.00  0.00     0.037 A 
BRANCH  49  63
ATOM     63  C   UNL A   1      45.241  32.722  28.095  1.00  0.00     0.058 A 
ATOM     64  C   UNL A   1      46.596  32.999  27.814  1.00  0.00     0.135 A 
ATOM     65  C   UNL A   1      44.375  33.836  28.078  1.00  0.00     0.135 A 
ATOM     66  F   UNL A   1      47.507  32.012  27.787  1.00  0.00    -0.206 F 
ATOM     67  C   UNL A   1      47.069  34.295  27.620  1.00  0.00     0.059 A 
ATOM     68  C   UNL A   1      44.818  35.131  27.833  1.00  0.00     0.059 A 
ATOM     69  F   UNL A   1      43.078  33.741  28.390  1.00  0.00    -0.206 F 
ATOM     70  C   UNL A   1      46.172  35.357  27.651  1.00  0.00     0.060 A 
BRANCH  70  71
ATOM     71  S   UNL A   1      46.800  37.039  27.517  1.00  0.00     0.124 S 
ATOM     72  O   UNL A   1      47.406  37.020  26.191  1.00  0.00    -0.237 OA
ATOM     73  O   UNL A   1      45.580  37.828  27.653  1.00  0.00    -0.237 OA
ATOM     74  O   UNL A   1      47.733  37.139  28.636  1.00  0.00    -0.744 OA
ENDBRANCH  70  71
ENDBRANCH  49  63
BRANCH  50  75
ATOM     75  C   UNL A   1      36.802  31.578  30.205  1.00  0.00     0.058 A 
ATOM     76  C   UNL A   1      35.968  32.119  31.202  1.00  0.00     0.135 A 
ATOM     77  C   UNL A   1      36.476  31.926  28.877  1.00  0.00     0.135 A 
ATOM     78  F   UNL A   1      36.206  31.853  32.496  1.00  0.00    -0.206 F 
ATOM     79  C   UNL A   1      34.917  32.997  30.905  1.00  0.00     0.059 A 
ATOM     80  C   UNL A   1      35.431  32.793  28.557  1.00  0.00     0.059 A 
ATOM     81  F   UNL A   1      37.227  31.508  27.848  1.00  0.00    -0.206 F 
ATOM     82  C   UNL A   1      34.673  33.350  29.577  1.00  0.00     0.060 A 
BRANCH  82  83
ATOM     83  S   UNL A   1      33.455  34.635  29.198  1.00  0.00     0.124 S 
ATOM     84  O   UNL A   1      34.293  35.695  28.650  1.00  0.00    -0.237 OA
ATOM     85  O   UNL A   1      32.577  33.959  28.248  1.00  0.00    -0.237 OA
ATOM     86  O   UNL A   1      32.853  34.925  30.498  1.00  0.00    -0.744 OA
ENDBRANCH  82  83
ENDBRANCH  50  75
BRANCH  62  87
ATOM     87  C   UNL A   1      41.993  29.688  33.377  1.00  0.00     0.058 A 
ATOM     88  C   UNL A   1      41.710  28.338  33.094  1.00  0.00     0.135 A 
ATOM     89  C   UNL A   1      42.170  30.025  34.727  1.00  0.00     0.135 A 
ATOM     90  F   UNL A   1      41.631  27.900  31.833  1.00  0.00    -0.206 F 
ATOM     91  C   UNL A   1      41.567  27.382  34.103  1.00  0.00     0.059 A 
ATOM     92  C   UNL A   1      42.062  29.083  35.748  1.00  0.00     0.059 A 
ATOM     93  F   UNL A   1      42.509  31.280  35.065  1.00  0.00    -0.206 F 
ATOM     94  C   UNL A   1      41.746  27.764  35.430  1.00  0.00     0.060 A 
BRANCH  94  95
ATOM     95  S   UNL A   1      41.624  26.517  36.731  1.00  0.00     0.124 S 
ATOM     96  O   UNL A   1      42.900  26.669  37.421  1.00  0.00    -0.237 OA
ATOM     97  O   UNL A   1      40.446  26.949  37.477  1.00  0.00    -0.237 OA
ATOM     98  O   UNL A   1      41.459  25.268  35.992  1.00  0.00    -0.744 OA
ENDBRANCH  94  95
ENDBRANCH  62  87
ENDBRANCH  36  37
ENDBRANCH  28  31
ENDBRANCH  26  27
ENDBRANCH   1  26
TORSDOF 17
ENDMDL
