MODEL 1
REMARK VINA RESULT:     -11.9      0.000      0.000
REMARK SMILES O=C(NCCCNC(=O)c1nc2c(F)cccc2s1)c1ccc(-c2c3nc(c(-c4c(F)cc(S(=O)(=O)[O-])cc4F)c4ccc([nH]4)c(-c4c(F)cc(S(=O)(=O)[O-])cc4F)c4nc(c(-c5c(F)cc(S(=O)(=O)[O-])cc5F)c5ccc2[nH]5)C=C4)C=C3)cc1
REMARK SMILES IDX 1 1 2 2 3 3 20 5 21 6 85 7 22 8 84 9 23 10 24 11 25 12 78 13
REMARK SMILES IDX 26 14 83 15 77 16 79 17 27 18 82 19 76 20 75 21 28 23 62 24
REMARK SMILES IDX 41 25 61 26 42 27 45 28 60 29 80 30 43 31 44 32 59 34 81 35
REMARK SMILES IDX 46 36 29 37 30 38 39 39 31 40 32 41 38 42 40 43 33 44 34 45
REMARK SMILES IDX 35 46 36 47 37 48 63 49 64 50 73 51 65 52 66 53 72 54 74 55
REMARK SMILES IDX 67 56 68 57 69 58 70 59 71 60 47 61 48 62 57 63 49 64 50 65
REMARK SMILES IDX 56 66 58 67 51 68 52 69 53 70 54 71 55 72 4 73 5 74 6 75
REMARK SMILES IDX 7 76 8 77 9 79 10 80 11 81 19 82 12 83 18 84 13 85 17 86
REMARK SMILES IDX 14 87 15 88 16 89
REMARK H PARENT 3 4 79 22 45 33 7 78
REMARK Flexibility Score: inf
ROOT
ATOM      1  O   UNL A   1      38.864  22.117  25.933  1.00  0.00    -0.269 OA
ATOM      2  C   UNL A   1      39.898  22.271  26.586  1.00  0.00     0.251 C 
ATOM      3  N   UNL A   1      40.654  21.151  26.810  1.00  0.00    -0.352 N 
ATOM      4  H   UNL A   1      40.201  20.322  26.534  1.00  0.00     0.163 HD
ENDROOT
BRANCH   2   5
ATOM      5  C   UNL A   1      40.198  23.614  27.148  1.00  0.00     0.039 A 
ATOM      6  C   UNL A   1      41.367  23.960  27.825  1.00  0.00     0.014 A 
ATOM      7  C   UNL A   1      39.196  24.589  26.986  1.00  0.00     0.014 A 
ATOM      8  C   UNL A   1      41.481  25.206  28.434  1.00  0.00     0.010 A 
ATOM      9  C   UNL A   1      39.316  25.847  27.569  1.00  0.00     0.010 A 
ATOM     10  C   UNL A   1      40.443  26.137  28.331  1.00  0.00    -0.014 A 
BRANCH  10  11
ATOM     11  C   UNL A   1      40.630  27.437  28.968  1.00  0.00     0.031 A 
ATOM     12  C   UNL A   1      41.741  28.270  28.425  1.00  0.00     0.074 A 
ATOM     13  C   UNL A   1      39.811  27.926  29.920  1.00  0.00     0.049 A 
ATOM     14  N   UNL A   1      42.817  28.668  29.024  1.00  0.00    -0.248 NA
ATOM     15  C   UNL A   1      41.682  28.636  27.002  1.00  0.00     0.031 C 
ATOM     16  C   UNL A   1      38.522  27.402  30.377  1.00  0.00     0.029 A 
ATOM     17  N   UNL A   1      39.946  29.078  30.633  1.00  0.00    -0.354 N 
ATOM     18  C   UNL A   1      43.502  29.472  28.111  1.00  0.00     0.074 A 
ATOM     19  C   UNL A   1      42.814  29.325  26.852  1.00  0.00     0.031 C 
ATOM     20  C   UNL A   1      37.906  28.338  31.136  1.00  0.00     0.029 A 
ATOM     21  C   UNL A   1      38.810  29.459  31.332  1.00  0.00     0.049 A 
ATOM     22  H   UNL A   1      40.782  29.599  30.650  1.00  0.00     0.167 HD
ATOM     23  C   UNL A   1      44.505  30.317  28.482  1.00  0.00     0.037 A 
ATOM     24  C   UNL A   1      38.616  30.640  31.971  1.00  0.00     0.037 A 
ATOM     25  C   UNL A   1      45.000  30.013  29.797  1.00  0.00     0.049 A 
ATOM     26  C   UNL A   1      39.956  31.214  32.256  1.00  0.00     0.074 A 
ATOM     27  C   UNL A   1      45.656  28.939  30.365  1.00  0.00     0.029 A 
ATOM     28  N   UNL A   1      44.552  30.771  30.851  1.00  0.00    -0.354 N 
ATOM     29  N   UNL A   1      40.814  30.692  33.089  1.00  0.00    -0.248 NA
ATOM     30  C   UNL A   1      40.517  32.151  31.294  1.00  0.00     0.031 C 
ATOM     31  C   UNL A   1      45.144  28.853  31.694  1.00  0.00     0.029 A 
ATOM     32  C   UNL A   1      44.236  29.899  31.862  1.00  0.00     0.049 A 
ATOM     33  H   UNL A   1      44.473  31.752  30.876  1.00  0.00     0.167 HD
ATOM     34  C   UNL A   1      42.056  30.901  32.505  1.00  0.00     0.074 A 
ATOM     35  C   UNL A   1      41.817  31.886  31.453  1.00  0.00     0.031 C 
ATOM     36  C   UNL A   1      43.108  30.066  32.753  1.00  0.00     0.037 A 
BRANCH  23  37
ATOM     37  C   UNL A   1      44.866  31.597  27.768  1.00  0.00     0.058 A 
ATOM     38  C   UNL A   1      46.054  31.670  27.010  1.00  0.00     0.135 A 
ATOM     39  C   UNL A   1      44.231  32.831  28.026  1.00  0.00     0.135 A 
ATOM     40  F   UNL A   1      46.745  30.559  26.711  1.00  0.00    -0.206 F 
ATOM     41  C   UNL A   1      46.606  32.885  26.598  1.00  0.00     0.059 A 
ATOM     42  C   UNL A   1      44.736  34.049  27.580  1.00  0.00     0.059 A 
ATOM     43  F   UNL A   1      43.144  32.917  28.803  1.00  0.00    -0.206 F 
ATOM     44  C   UNL A   1      45.946  34.072  26.906  1.00  0.00     0.060 A 
BRANCH  44  45
ATOM     45  S   UNL A   1      46.725  35.645  26.494  1.00  0.00     0.124 S 
ATOM     46  O   UNL A   1      47.476  35.926  27.711  1.00  0.00    -0.237 OA
ATOM     47  O   UNL A   1      47.518  35.294  25.320  1.00  0.00    -0.237 OA
ATOM     48  O   UNL A   1      45.589  36.524  26.236  1.00  0.00    -0.744 OA
ENDBRANCH  44  45
ENDBRANCH  23  37
BRANCH  24  49
ATOM     49  C   UNL A   1      37.375  31.456  32.013  1.00  0.00     0.058 A 
ATOM     50  C   UNL A   1      36.822  31.882  33.234  1.00  0.00     0.135 A 
ATOM     51  C   UNL A   1      36.875  32.082  30.852  1.00  0.00     0.135 A 
ATOM     52  F   UNL A   1      37.255  31.355  34.390  1.00  0.00    -0.206 F 
ATOM     53  C   UNL A   1      35.871  32.905  33.305  1.00  0.00     0.059 A 
ATOM     54  C   UNL A   1      35.921  33.096  30.898  1.00  0.00     0.059 A 
ATOM     55  F   UNL A   1      37.372  31.793  29.641  1.00  0.00    -0.206 F 
ATOM     56  C   UNL A   1      35.444  33.524  32.130  1.00  0.00     0.060 A 
BRANCH  56  57
ATOM     57  S   UNL A   1      34.358  34.966  32.230  1.00  0.00     0.124 S 
ATOM     58  O   UNL A   1      33.174  34.409  32.874  1.00  0.00    -0.237 OA
ATOM     59  O   UNL A   1      35.148  35.890  33.035  1.00  0.00    -0.237 OA
ATOM     60  O   UNL A   1      34.182  35.355  30.832  1.00  0.00    -0.744 OA
ENDBRANCH  56  57
ENDBRANCH  24  49
BRANCH  36  61
ATOM     61  C   UNL A   1      42.972  29.071  33.878  1.00  0.00     0.058 A 
ATOM     62  C   UNL A   1      43.238  29.369  35.227  1.00  0.00     0.135 A 
ATOM     63  C   UNL A   1      42.417  27.812  33.602  1.00  0.00     0.135 A 
ATOM     64  F   UNL A   1      43.664  30.585  35.593  1.00  0.00    -0.206 F 
ATOM     65  C   UNL A   1      43.011  28.444  36.246  1.00  0.00     0.059 A 
ATOM     66  C   UNL A   1      42.150  26.884  34.606  1.00  0.00     0.059 A 
ATOM     67  F   UNL A   1      42.077  27.489  32.342  1.00  0.00    -0.206 F 
ATOM     68  C   UNL A   1      42.464  27.202  35.926  1.00  0.00     0.060 A 
BRANCH  68  69
ATOM     69  S   UNL A   1      42.101  26.039  37.260  1.00  0.00     0.124 S 
ATOM     70  O   UNL A   1      40.690  26.301  37.523  1.00  0.00    -0.237 OA
ATOM     71  O   UNL A   1      42.400  24.748  36.645  1.00  0.00    -0.237 OA
ATOM     72  O   UNL A   1      43.020  26.440  38.323  1.00  0.00    -0.744 OA
ENDBRANCH  68  69
ENDBRANCH  36  61
ENDBRANCH  10  11
ENDBRANCH   2   5
BRANCH   3  73
ATOM     73  C   UNL A   1      41.973  20.916  27.365  1.00  0.00     0.118 C 
BRANCH  73  74
ATOM     74  C   UNL A   1      42.647  19.616  26.935  1.00  0.00     0.042 C 
BRANCH  74  75
ATOM     75  C   UNL A   1      43.123  19.584  25.484  1.00  0.00     0.118 C 
BRANCH  75  76
ATOM     76  N   UNL A   1      44.569  19.463  25.357  1.00  0.00    -0.350 N 
ATOM     77  C   UNL A   1      45.554  20.434  25.336  1.00  0.00     0.280 C 
ATOM     78  H   UNL A   1      44.899  18.540  25.270  1.00  0.00     0.163 HD
ATOM     79  O   UNL A   1      46.698  20.037  25.104  1.00  0.00    -0.267 OA
BRANCH  77  80
ATOM     80  C   UNL A   1      45.218  21.832  25.569  1.00  0.00     0.182 A 
ATOM     81  N   UNL A   1      45.336  22.408  26.748  1.00  0.00    -0.228 NA
ATOM     82  S   UNL A   1      44.502  22.796  24.344  1.00  0.00    -0.109 S 
ATOM     83  C   UNL A   1      45.028  23.760  26.642  1.00  0.00     0.118 A 
ATOM     84  C   UNL A   1      44.602  24.169  25.375  1.00  0.00     0.058 A 
ATOM     85  C   UNL A   1      45.118  24.740  27.653  1.00  0.00     0.150 A 
ATOM     86  C   UNL A   1      44.316  25.513  25.079  1.00  0.00     0.021 A 
ATOM     87  F   UNL A   1      45.483  24.403  28.900  1.00  0.00    -0.205 F 
ATOM     88  C   UNL A   1      44.840  26.080  27.375  1.00  0.00     0.041 A 
ATOM     89  C   UNL A   1      44.457  26.462  26.094  1.00  0.00     0.005 A 
ENDBRANCH  77  80
ENDBRANCH  75  76
ENDBRANCH  74  75
ENDBRANCH  73  74
ENDBRANCH   3  73
TORSDOF 13
ENDMDL
MODEL 2
REMARK VINA RESULT:     -11.7      2.582     11.730
REMARK SMILES O=C(NCCCNC(=O)c1nc2c(F)cccc2s1)c1ccc(-c2c3nc(c(-c4c(F)cc(S(=O)(=O)[O-])cc4F)c4ccc([nH]4)c(-c4c(F)cc(S(=O)(=O)[O-])cc4F)c4nc(c(-c5c(F)cc(S(=O)(=O)[O-])cc5F)c5ccc2[nH]5)C=C4)C=C3)cc1
REMARK SMILES IDX 1 1 2 2 3 3 20 5 21 6 85 7 22 8 84 9 23 10 24 11 25 12 78 13
REMARK SMILES IDX 26 14 83 15 77 16 79 17 27 18 82 19 76 20 75 21 28 23 62 24
REMARK SMILES IDX 41 25 61 26 42 27 45 28 60 29 80 30 43 31 44 32 59 34 81 35
REMARK SMILES IDX 46 36 29 37 30 38 39 39 31 40 32 41 38 42 40 43 33 44 34 45
REMARK SMILES IDX 35 46 36 47 37 48 63 49 64 50 73 51 65 52 66 53 72 54 74 55
REMARK SMILES IDX 67 56 68 57 69 58 70 59 71 60 47 61 48 62 57 63 49 64 50 65
REMARK SMILES IDX 56 66 58 67 51 68 52 69 53 70 54 71 55 72 4 73 5 74 6 75
REMARK SMILES IDX 7 76 8 77 9 79 10 80 11 81 19 82 12 83 18 84 13 85 17 86
REMARK SMILES IDX 14 87 15 88 16 89
REMARK H PARENT 3 4 79 22 45 33 7 78
REMARK Flexibility Score: inf
ROOT
ATOM      1  O   UNL A   1      33.758  31.416  27.675  1.00  0.00    -0.269 OA
ATOM      2  C   UNL A   1      34.541  32.081  28.356  1.00  0.00     0.251 C 
ATOM      3  N   UNL A   1      34.150  33.355  28.671  1.00  0.00    -0.352 N 
ATOM      4  H   UNL A   1      33.337  33.635  28.192  1.00  0.00     0.163 HD
ENDROOT
BRANCH   2   5
ATOM      5  C   UNL A   1      35.864  31.498  28.703  1.00  0.00     0.039 A 
ATOM      6  C   UNL A   1      37.009  32.230  29.014  1.00  0.00     0.014 A 
ATOM      7  C   UNL A   1      35.941  30.092  28.690  1.00  0.00     0.014 A 
ATOM      8  C   UNL A   1      38.229  31.583  29.183  1.00  0.00     0.010 A 
ATOM      9  C   UNL A   1      37.154  29.438  28.885  1.00  0.00     0.010 A 
ATOM     10  C   UNL A   1      38.306  30.190  29.088  1.00  0.00    -0.014 A 
BRANCH  10  11
ATOM     11  C   UNL A   1      39.608  29.565  29.300  1.00  0.00     0.031 A 
ATOM     12  C   UNL A   1      40.007  29.366  30.724  1.00  0.00     0.074 A 
ATOM     13  C   UNL A   1      40.382  29.096  28.302  1.00  0.00     0.049 A 
ATOM     14  N   UNL A   1      41.000  29.894  31.363  1.00  0.00    -0.248 NA
ATOM     15  C   UNL A   1      39.131  28.536  31.564  1.00  0.00     0.031 C 
ATOM     16  C   UNL A   1      40.051  28.933  26.885  1.00  0.00     0.029 A 
ATOM     17  N   UNL A   1      41.639  28.579  28.386  1.00  0.00    -0.354 N 
ATOM     18  C   UNL A   1      40.980  29.343  32.645  1.00  0.00     0.074 A 
ATOM     19  C   UNL A   1      39.748  28.602  32.745  1.00  0.00     0.031 C 
ATOM     20  C   UNL A   1      41.001  28.174  26.291  1.00  0.00     0.029 A 
ATOM     21  C   UNL A   1      42.068  27.919  27.244  1.00  0.00     0.049 A 
ATOM     22  H   UNL A   1      42.197  28.666  29.192  1.00  0.00     0.167 HD
ATOM     23  C   UNL A   1      42.046  29.413  33.493  1.00  0.00     0.037 A 
ATOM     24  C   UNL A   1      43.193  27.171  27.121  1.00  0.00     0.037 A 
ATOM     25  C   UNL A   1      43.000  30.401  33.071  1.00  0.00     0.049 A 
ATOM     26  C   UNL A   1      44.129  27.599  28.192  1.00  0.00     0.074 A 
ATOM     27  C   UNL A   1      42.982  31.775  32.933  1.00  0.00     0.029 A 
ATOM     28  N   UNL A   1      44.116  29.977  32.391  1.00  0.00    -0.354 N 
ATOM     29  N   UNL A   1      44.694  28.774  28.243  1.00  0.00    -0.248 NA
ATOM     30  C   UNL A   1      44.115  26.861  29.446  1.00  0.00     0.031 C 
ATOM     31  C   UNL A   1      43.788  32.043  31.788  1.00  0.00     0.029 A 
ATOM     32  C   UNL A   1      44.275  30.822  31.321  1.00  0.00     0.049 A 
ATOM     33  H   UNL A   1      44.691  29.215  32.627  1.00  0.00     0.167 HD
ATOM     34  C   UNL A   1      44.731  29.097  29.592  1.00  0.00     0.074 A 
ATOM     35  C   UNL A   1      44.450  27.843  30.288  1.00  0.00     0.031 C 
ATOM     36  C   UNL A   1      44.724  30.396  30.013  1.00  0.00     0.037 A 
BRANCH  23  37
ATOM     37  C   UNL A   1      42.365  28.401  34.567  1.00  0.00     0.058 A 
ATOM     38  C   UNL A   1      42.382  28.793  35.922  1.00  0.00     0.135 A 
ATOM     39  C   UNL A   1      42.922  27.133  34.292  1.00  0.00     0.135 A 
ATOM     40  F   UNL A   1      41.884  29.981  36.297  1.00  0.00    -0.206 F 
ATOM     41  C   UNL A   1      42.970  28.012  36.920  1.00  0.00     0.059 A 
ATOM     42  C   UNL A   1      43.467  26.316  35.279  1.00  0.00     0.059 A 
ATOM     43  F   UNL A   1      43.048  26.673  33.041  1.00  0.00    -0.206 F 
ATOM     44  C   UNL A   1      43.528  26.782  36.583  1.00  0.00     0.060 A 
BRANCH  44  45
ATOM     45  S   UNL A   1      44.405  25.837  37.843  1.00  0.00     0.124 S 
ATOM     46  O   UNL A   1      45.782  26.259  37.616  1.00  0.00    -0.237 OA
ATOM     47  O   UNL A   1      43.783  26.319  39.072  1.00  0.00    -0.237 OA
ATOM     48  O   UNL A   1      44.104  24.453  37.495  1.00  0.00    -0.744 OA
ENDBRANCH  44  45
ENDBRANCH  23  37
BRANCH  24  49
ATOM     49  C   UNL A   1      43.353  25.886  26.390  1.00  0.00     0.058 A 
ATOM     50  C   UNL A   1      44.397  25.696  25.468  1.00  0.00     0.135 A 
ATOM     51  C   UNL A   1      42.666  24.725  26.799  1.00  0.00     0.135 A 
ATOM     52  F   UNL A   1      45.118  26.745  25.041  1.00  0.00    -0.206 F 
ATOM     53  C   UNL A   1      44.775  24.426  25.020  1.00  0.00     0.059 A 
ATOM     54  C   UNL A   1      43.017  23.451  26.360  1.00  0.00     0.059 A 
ATOM     55  F   UNL A   1      41.691  24.785  27.719  1.00  0.00    -0.206 F 
ATOM     56  C   UNL A   1      44.092  23.305  25.493  1.00  0.00     0.060 A 
BRANCH  56  57
ATOM     57  S   UNL A   1      44.692  21.654  25.064  1.00  0.00     0.124 S 
ATOM     58  O   UNL A   1      44.617  21.674  23.607  1.00  0.00    -0.237 OA
ATOM     59  O   UNL A   1      46.035  21.658  25.634  1.00  0.00    -0.237 OA
ATOM     60  O   UNL A   1      43.739  20.765  25.726  1.00  0.00    -0.744 OA
ENDBRANCH  56  57
ENDBRANCH  24  49
BRANCH  36  61
ATOM     61  C   UNL A   1      44.947  31.475  28.983  1.00  0.00     0.058 A 
ATOM     62  C   UNL A   1      46.218  31.921  28.576  1.00  0.00     0.135 A 
ATOM     63  C   UNL A   1      43.841  31.974  28.279  1.00  0.00     0.135 A 
ATOM     64  F   UNL A   1      47.333  31.414  29.117  1.00  0.00    -0.206 F 
ATOM     65  C   UNL A   1      46.379  32.857  27.553  1.00  0.00     0.059 A 
ATOM     66  C   UNL A   1      43.980  32.884  27.232  1.00  0.00     0.059 A 
ATOM     67  F   UNL A   1      42.605  31.538  28.572  1.00  0.00    -0.206 F 
ATOM     68  C   UNL A   1      45.252  33.332  26.884  1.00  0.00     0.060 A 
BRANCH  68  69
ATOM     69  S   UNL A   1      45.474  34.484  25.511  1.00  0.00     0.124 S 
ATOM     70  O   UNL A   1      44.955  35.730  26.065  1.00  0.00    -0.237 OA
ATOM     71  O   UNL A   1      46.918  34.442  25.293  1.00  0.00    -0.237 OA
ATOM     72  O   UNL A   1      44.674  33.897  24.438  1.00  0.00    -0.744 OA
ENDBRANCH  68  69
ENDBRANCH  36  61
ENDBRANCH  10  11
ENDBRANCH   2   5
BRANCH   3  73
ATOM     73  C   UNL A   1      34.668  34.383  29.554  1.00  0.00     0.118 C 
BRANCH  73  74
ATOM     74  C   UNL A   1      33.797  35.627  29.699  1.00  0.00     0.042 C 
BRANCH  74  75
ATOM     75  C   UNL A   1      32.768  35.567  30.827  1.00  0.00     0.118 C 
BRANCH  75  76
ATOM     76  N   UNL A   1      33.093  36.438  31.948  1.00  0.00    -0.350 N 
ATOM     77  C   UNL A   1      34.035  36.298  32.951  1.00  0.00     0.280 C 
ATOM     78  H   UNL A   1      32.553  37.259  32.001  1.00  0.00     0.163 HD
ATOM     79  O   UNL A   1      34.009  37.154  33.839  1.00  0.00    -0.267 OA
BRANCH  77  80
ATOM     80  C   UNL A   1      34.977  35.187  32.930  1.00  0.00     0.182 A 
ATOM     81  N   UNL A   1      36.232  35.323  32.552  1.00  0.00    -0.228 NA
ATOM     82  S   UNL A   1      34.475  33.581  33.262  1.00  0.00    -0.109 S 
ATOM     83  C   UNL A   1      36.905  34.118  32.721  1.00  0.00     0.118 A 
ATOM     84  C   UNL A   1      36.109  33.056  33.161  1.00  0.00     0.058 A 
ATOM     85  C   UNL A   1      38.279  33.869  32.517  1.00  0.00     0.150 A 
ATOM     86  C   UNL A   1      36.644  31.788  33.446  1.00  0.00     0.021 A 
ATOM     87  F   UNL A   1      39.087  34.837  32.059  1.00  0.00    -0.205 F 
ATOM     88  C   UNL A   1      38.826  32.616  32.799  1.00  0.00     0.041 A 
ATOM     89  C   UNL A   1      38.016  31.590  33.273  1.00  0.00     0.005 A 
ENDBRANCH  77  80
ENDBRANCH  75  76
ENDBRANCH  74  75
ENDBRANCH  73  74
ENDBRANCH   3  73
TORSDOF 13
ENDMDL
MODEL 3
REMARK VINA RESULT:     -11.7      3.292      5.203
REMARK SMILES O=C(NCCCNC(=O)c1nc2c(F)cccc2s1)c1ccc(-c2c3nc(c(-c4c(F)cc(S(=O)(=O)[O-])cc4F)c4ccc([nH]4)c(-c4c(F)cc(S(=O)(=O)[O-])cc4F)c4nc(c(-c5c(F)cc(S(=O)(=O)[O-])cc5F)c5ccc2[nH]5)C=C4)C=C3)cc1
REMARK SMILES IDX 1 1 2 2 3 3 20 5 21 6 85 7 22 8 84 9 23 10 24 11 25 12 78 13
REMARK SMILES IDX 26 14 83 15 77 16 79 17 27 18 82 19 76 20 75 21 28 23 62 24
REMARK SMILES IDX 41 25 61 26 42 27 45 28 60 29 80 30 43 31 44 32 59 34 81 35
REMARK SMILES IDX 46 36 29 37 30 38 39 39 31 40 32 41 38 42 40 43 33 44 34 45
REMARK SMILES IDX 35 46 36 47 37 48 63 49 64 50 73 51 65 52 66 53 72 54 74 55
REMARK SMILES IDX 67 56 68 57 69 58 70 59 71 60 47 61 48 62 57 63 49 64 50 65
REMARK SMILES IDX 56 66 58 67 51 68 52 69 53 70 54 71 55 72 4 73 5 74 6 75
REMARK SMILES IDX 7 76 8 77 9 79 10 80 11 81 19 82 12 83 18 84 13 85 17 86
REMARK SMILES IDX 14 87 15 88 16 89
REMARK H PARENT 3 4 79 22 45 33 7 78
REMARK Flexibility Score: inf
ROOT
ATOM      1  O   UNL A   1      41.284  21.896  26.132  1.00  0.00    -0.269 OA
ATOM      2  C   UNL A   1      40.228  22.508  26.304  1.00  0.00     0.251 C 
ATOM      3  N   UNL A   1      39.108  21.970  25.729  1.00  0.00    -0.352 N 
ATOM      4  H   UNL A   1      39.310  21.220  25.123  1.00  0.00     0.163 HD
ENDROOT
BRANCH   2   5
ATOM      5  C   UNL A   1      40.259  23.804  27.031  1.00  0.00     0.039 A 
ATOM      6  C   UNL A   1      39.305  24.815  26.916  1.00  0.00     0.014 A 
ATOM      7  C   UNL A   1      41.363  24.009  27.881  1.00  0.00     0.014 A 
ATOM      8  C   UNL A   1      39.509  26.045  27.533  1.00  0.00     0.010 A 
ATOM      9  C   UNL A   1      41.558  25.228  28.523  1.00  0.00     0.010 A 
ATOM     10  C   UNL A   1      40.651  26.261  28.311  1.00  0.00    -0.014 A 
BRANCH  10  11
ATOM     11  C   UNL A   1      40.798  27.562  28.955  1.00  0.00     0.031 A 
ATOM     12  C   UNL A   1      41.909  28.416  28.444  1.00  0.00     0.074 A 
ATOM     13  C   UNL A   1      39.946  28.034  29.885  1.00  0.00     0.049 A 
ATOM     14  N   UNL A   1      42.962  28.830  29.073  1.00  0.00    -0.248 NA
ATOM     15  C   UNL A   1      41.882  28.784  27.021  1.00  0.00     0.031 C 
ATOM     16  C   UNL A   1      38.654  27.487  30.306  1.00  0.00     0.029 A 
ATOM     17  N   UNL A   1      40.042  29.187  30.604  1.00  0.00    -0.354 N 
ATOM     18  C   UNL A   1      43.657  29.648  28.181  1.00  0.00     0.074 A 
ATOM     19  C   UNL A   1      43.006  29.493  26.904  1.00  0.00     0.031 C 
ATOM     20  C   UNL A   1      38.001  28.411  31.051  1.00  0.00     0.029 A 
ATOM     21  C   UNL A   1      38.881  29.547  31.273  1.00  0.00     0.049 A 
ATOM     22  H   UNL A   1      40.867  29.721  30.645  1.00  0.00     0.167 HD
ATOM     23  C   UNL A   1      44.635  30.509  28.581  1.00  0.00     0.037 A 
ATOM     24  C   UNL A   1      38.649  30.722  31.910  1.00  0.00     0.037 A 
ATOM     25  C   UNL A   1      45.099  30.210  29.908  1.00  0.00     0.049 A 
ATOM     26  C   UNL A   1      39.971  31.318  32.232  1.00  0.00     0.074 A 
ATOM     27  C   UNL A   1      45.758  29.145  30.491  1.00  0.00     0.029 A 
ATOM     28  N   UNL A   1      44.610  30.958  30.951  1.00  0.00    -0.354 N 
ATOM     29  N   UNL A   1      40.815  30.809  33.087  1.00  0.00    -0.248 NA
ATOM     30  C   UNL A   1      40.542  32.267  31.287  1.00  0.00     0.031 C 
ATOM     31  C   UNL A   1      45.212  29.048  31.805  1.00  0.00     0.029 A 
ATOM     32  C   UNL A   1      44.282  30.078  31.951  1.00  0.00     0.049 A 
ATOM     33  H   UNL A   1      44.514  31.936  30.976  1.00  0.00     0.167 HD
ATOM     34  C   UNL A   1      42.068  31.041  32.537  1.00  0.00     0.074 A 
ATOM     35  C   UNL A   1      41.841  32.024  31.481  1.00  0.00     0.031 C 
ATOM     36  C   UNL A   1      43.127  30.223  32.811  1.00  0.00     0.037 A 
BRANCH  23  37
ATOM     37  C   UNL A   1      44.994  31.797  27.880  1.00  0.00     0.058 A 
ATOM     38  C   UNL A   1      46.264  31.945  27.283  1.00  0.00     0.135 A 
ATOM     39  C   UNL A   1      44.240  32.983  28.011  1.00  0.00     0.135 A 
ATOM     40  F   UNL A   1      47.068  30.883  27.114  1.00  0.00    -0.206 F 
ATOM     41  C   UNL A   1      46.775  33.189  26.908  1.00  0.00     0.059 A 
ATOM     42  C   UNL A   1      44.709  34.227  27.596  1.00  0.00     0.059 A 
ATOM     43  F   UNL A   1      43.055  33.003  28.634  1.00  0.00    -0.206 F 
ATOM     44  C   UNL A   1      45.994  34.328  27.088  1.00  0.00     0.060 A 
BRANCH  44  45
ATOM     45  S   UNL A   1      46.703  35.947  26.731  1.00  0.00     0.124 S 
ATOM     46  O   UNL A   1      47.266  35.732  25.404  1.00  0.00    -0.237 OA
ATOM     47  O   UNL A   1      45.529  36.813  26.794  1.00  0.00    -0.237 OA
ATOM     48  O   UNL A   1      47.671  36.134  27.806  1.00  0.00    -0.744 OA
ENDBRANCH  44  45
ENDBRANCH  23  37
BRANCH  24  49
ATOM     49  C   UNL A   1      37.393  31.517  31.919  1.00  0.00     0.058 A 
ATOM     50  C   UNL A   1      36.783  31.902  33.126  1.00  0.00     0.135 A 
ATOM     51  C   UNL A   1      36.932  32.164  30.755  1.00  0.00     0.135 A 
ATOM     52  F   UNL A   1      37.176  31.352  34.286  1.00  0.00    -0.206 F 
ATOM     53  C   UNL A   1      35.812  32.908  33.184  1.00  0.00     0.059 A 
ATOM     54  C   UNL A   1      35.960  33.161  30.785  1.00  0.00     0.059 A 
ATOM     55  F   UNL A   1      37.484  31.914  29.558  1.00  0.00    -0.206 F 
ATOM     56  C   UNL A   1      35.424  33.549  32.007  1.00  0.00     0.060 A 
BRANCH  56  57
ATOM     57  S   UNL A   1      34.310  34.971  32.097  1.00  0.00     0.124 S 
ATOM     58  O   UNL A   1      35.102  35.927  32.863  1.00  0.00    -0.237 OA
ATOM     59  O   UNL A   1      34.107  35.292  30.689  1.00  0.00    -0.237 OA
ATOM     60  O   UNL A   1      33.137  34.438  32.787  1.00  0.00    -0.744 OA
ENDBRANCH  56  57
ENDBRANCH  24  49
BRANCH  36  61
ATOM     61  C   UNL A   1      42.979  29.222  33.930  1.00  0.00     0.058 A 
ATOM     62  C   UNL A   1      43.221  29.517  35.284  1.00  0.00     0.135 A 
ATOM     63  C   UNL A   1      42.434  27.962  33.640  1.00  0.00     0.135 A 
ATOM     64  F   UNL A   1      43.634  30.733  35.662  1.00  0.00    -0.206 F 
ATOM     65  C   UNL A   1      42.982  28.586  36.296  1.00  0.00     0.059 A 
ATOM     66  C   UNL A   1      42.156  27.029  34.637  1.00  0.00     0.059 A 
ATOM     67  F   UNL A   1      42.117  27.643  32.374  1.00  0.00    -0.206 F 
ATOM     68  C   UNL A   1      42.446  27.342  35.963  1.00  0.00     0.060 A 
BRANCH  68  69
ATOM     69  S   UNL A   1      42.068  26.173  37.285  1.00  0.00     0.124 S 
ATOM     70  O   UNL A   1      43.098  26.479  38.272  1.00  0.00    -0.237 OA
ATOM     71  O   UNL A   1      40.705  26.545  37.657  1.00  0.00    -0.237 OA
ATOM     72  O   UNL A   1      42.193  24.870  36.636  1.00  0.00    -0.744 OA
ENDBRANCH  68  69
ENDBRANCH  36  61
ENDBRANCH  10  11
ENDBRANCH   2   5
BRANCH   3  73
ATOM     73  C   UNL A   1      37.689  22.259  25.814  1.00  0.00     0.118 C 
BRANCH  73  74
ATOM     74  C   UNL A   1      37.070  22.897  24.573  1.00  0.00     0.042 C 
BRANCH  74  75
ATOM     75  C   UNL A   1      35.784  23.681  24.824  1.00  0.00     0.118 C 
BRANCH  75  76
ATOM     76  N   UNL A   1      35.177  23.391  26.116  1.00  0.00    -0.350 N 
ATOM     77  C   UNL A   1      34.329  22.370  26.502  1.00  0.00     0.280 C 
ATOM     78  H   UNL A   1      35.407  24.028  26.831  1.00  0.00     0.163 HD
ATOM     79  O   UNL A   1      33.883  22.442  27.650  1.00  0.00    -0.267 OA
BRANCH  77  80
ATOM     80  C   UNL A   1      33.997  21.295  25.575  1.00  0.00     0.182 A 
ATOM     81  N   UNL A   1      34.733  20.210  25.448  1.00  0.00    -0.228 NA
ATOM     82  S   UNL A   1      32.693  21.437  24.471  1.00  0.00    -0.109 S 
ATOM     83  C   UNL A   1      34.123  19.331  24.560  1.00  0.00     0.118 A 
ATOM     84  C   UNL A   1      32.954  19.815  23.964  1.00  0.00     0.058 A 
ATOM     85  C   UNL A   1      34.543  18.028  24.221  1.00  0.00     0.150 A 
ATOM     86  C   UNL A   1      32.178  19.030  23.093  1.00  0.00     0.021 A 
ATOM     87  F   UNL A   1      35.677  17.522  24.729  1.00  0.00    -0.205 F 
ATOM     88  C   UNL A   1      33.782  17.234  23.360  1.00  0.00     0.041 A 
ATOM     89  C   UNL A   1      32.602  17.729  22.814  1.00  0.00     0.005 A 
ENDBRANCH  77  80
ENDBRANCH  75  76
ENDBRANCH  74  75
ENDBRANCH  73  74
ENDBRANCH   3  73
TORSDOF 13
ENDMDL
