MODEL 1
REMARK VINA RESULT:     -11.4      0.000      0.000
REMARK SMILES CC(C)CN(C)c1ccc([N+](=O)[O-])cc1C(=O)NCCCNC(=O)c1ccc(-c2c3nc(c(-c4c(F)cc(S(=O)(=O)[O-])cc4F)c4ccc([nH]4)c(-c4c(F)cc(S(=O)(=O)[O-])cc4F)c4nc(c(-c5c(F)cc(S(=O)(=O)[O-])cc5F)c5ccc2[nH]5)C=C4)C=C3)cc1
REMARK SMILES IDX 20 1 19 2 18 3 16 4 17 5 15 7 7 8 8 9 9 10 14 11 10 12 5 13
REMARK SMILES IDX 6 14 4 15 2 16 1 17 3 18 11 19 12 20 13 21 21 22 22 23 23 24
REMARK SMILES IDX 24 26 25 27 26 28 90 29 27 30 89 31 28 32 29 33 30 34 83 35
REMARK SMILES IDX 31 36 88 37 82 38 84 39 32 40 87 41 81 42 80 43 33 45 67 46
REMARK SMILES IDX 46 47 66 48 47 49 50 50 65 51 85 52 48 53 49 54 64 56 86 57
REMARK SMILES IDX 51 58 34 59 35 60 44 61 36 62 37 63 43 64 45 65 38 66 39 67
REMARK SMILES IDX 40 68 41 69 42 70 68 71 69 72 78 73 70 74 71 75 77 76 79 77
REMARK SMILES IDX 72 78 73 79 74 80 75 81 76 82 52 83 53 84 62 85 54 86 55 87
REMARK SMILES IDX 61 88 63 89 56 90 57 91 58 92 59 93 60 94
REMARK H PARENT 18 6 22 25 84 44 50 55
REMARK Flexibility Score: inf
ROOT
ATOM      1  C   UNL A   1      33.654  30.353  27.011  1.00  0.00     0.042 C 
ENDROOT
BRANCH   1   2
ATOM      2  C   UNL A   1      33.097  29.204  26.189  1.00  0.00     0.118 C 
BRANCH   2   3
ATOM      3  N   UNL A   1      33.484  29.252  24.796  1.00  0.00    -0.352 N 
ATOM      4  C   UNL A   1      32.786  28.906  23.670  1.00  0.00     0.253 C 
ATOM      5  O   UNL A   1      33.322  29.143  22.583  1.00  0.00    -0.269 OA
ATOM      6  H   UNL A   1      34.395  29.585  24.631  1.00  0.00     0.163 HD
BRANCH   4   7
ATOM      7  C   UNL A   1      31.476  28.186  23.669  1.00  0.00     0.069 A 
ATOM      8  C   UNL A   1      31.213  26.846  24.053  1.00  0.00     0.050 A 
ATOM      9  C   UNL A   1      29.882  26.378  23.924  1.00  0.00     0.034 A 
ATOM     10  C   UNL A   1      28.831  27.203  23.520  1.00  0.00     0.088 A 
ATOM     11  C   UNL A   1      30.399  29.029  23.303  1.00  0.00     0.101 A 
ATOM     12  C   UNL A   1      29.092  28.541  23.249  1.00  0.00     0.270 A 
BRANCH   8  13
ATOM     13  N   UNL A   1      32.160  25.975  24.599  1.00  0.00    -0.374 N 
ATOM     14  C   UNL A   1      32.912  25.156  23.634  1.00  0.00     0.143 C 
BRANCH  13  15
ATOM     15  C   UNL A   1      31.877  25.319  25.898  1.00  0.00     0.119 C 
BRANCH  15  16
ATOM     16  C   UNL A   1      31.962  23.780  25.864  1.00  0.00     0.002 C 
ATOM     17  C   UNL A   1      32.952  23.247  26.904  1.00  0.00     0.009 C 
ATOM     18  C   UNL A   1      30.593  23.138  26.111  1.00  0.00     0.009 C 
ENDBRANCH  15  16
ENDBRANCH  13  15
ENDBRANCH   8  13
BRANCH  12  19
ATOM     19  N   UNL A   1      27.984  29.449  22.943  1.00  0.00     0.062 N 
ATOM     20  O   UNL A   1      26.845  29.095  23.278  1.00  0.00    -0.258 OA
ATOM     21  O   UNL A   1      28.254  30.524  22.390  1.00  0.00    -0.258 OA
ENDBRANCH  12  19
ENDBRANCH   4   7
ENDBRANCH   2   3
ENDBRANCH   1   2
BRANCH   1  22
ATOM     22  C   UNL A   1      34.912  29.959  27.786  1.00  0.00     0.118 C 
BRANCH  22  23
ATOM     23  N   UNL A   1      35.274  30.873  28.870  1.00  0.00    -0.352 N 
ATOM     24  C   UNL A   1      36.430  31.052  29.597  1.00  0.00     0.251 C 
ATOM     25  H   UNL A   1      34.545  31.481  29.132  1.00  0.00     0.163 HD
ATOM     26  O   UNL A   1      36.443  31.881  30.506  1.00  0.00    -0.269 OA
BRANCH  24  27
ATOM     27  C   UNL A   1      37.622  30.209  29.352  1.00  0.00     0.039 A 
ATOM     28  C   UNL A   1      37.966  29.882  28.036  1.00  0.00     0.014 A 
ATOM     29  C   UNL A   1      38.441  29.792  30.394  1.00  0.00     0.014 A 
ATOM     30  C   UNL A   1      39.204  29.289  27.769  1.00  0.00     0.010 A 
ATOM     31  C   UNL A   1      39.729  29.353  30.120  1.00  0.00     0.010 A 
ATOM     32  C   UNL A   1      40.140  29.111  28.801  1.00  0.00    -0.014 A 
BRANCH  32  33
ATOM     33  C   UNL A   1      41.551  28.716  28.536  1.00  0.00     0.031 A 
ATOM     34  C   UNL A   1      42.644  29.757  28.528  1.00  0.00     0.074 A 
ATOM     35  C   UNL A   1      41.833  27.447  28.172  1.00  0.00     0.049 A 
ATOM     36  N   UNL A   1      43.891  29.642  28.151  1.00  0.00    -0.248 NA
ATOM     37  C   UNL A   1      42.271  31.119  28.945  1.00  0.00     0.031 C 
ATOM     38  C   UNL A   1      40.858  26.359  28.044  1.00  0.00     0.029 A 
ATOM     39  N   UNL A   1      43.024  26.855  27.828  1.00  0.00    -0.354 N 
ATOM     40  C   UNL A   1      44.432  30.921  28.233  1.00  0.00     0.074 A 
ATOM     41  C   UNL A   1      43.363  31.805  28.643  1.00  0.00     0.031 C 
ATOM     42  C   UNL A   1      41.493  25.230  27.691  1.00  0.00     0.029 A 
ATOM     43  C   UNL A   1      42.912  25.518  27.520  1.00  0.00     0.049 A 
ATOM     44  H   UNL A   1      43.879  27.342  27.804  1.00  0.00     0.167 HD
ATOM     45  C   UNL A   1      45.708  31.320  28.019  1.00  0.00     0.037 A 
ATOM     46  C   UNL A   1      43.843  24.623  27.137  1.00  0.00     0.037 A 
ATOM     47  C   UNL A   1      46.786  30.424  27.698  1.00  0.00     0.049 A 
ATOM     48  C   UNL A   1      45.272  25.071  26.999  1.00  0.00     0.074 A 
ATOM     49  C   UNL A   1      48.133  30.711  27.564  1.00  0.00     0.029 A 
ATOM     50  N   UNL A   1      46.643  29.062  27.479  1.00  0.00    -0.354 N 
ATOM     51  N   UNL A   1      45.775  26.272  27.148  1.00  0.00    -0.248 NA
ATOM     52  C   UNL A   1      46.261  24.043  26.646  1.00  0.00     0.031 C 
ATOM     53  C   UNL A   1      48.802  29.525  27.245  1.00  0.00     0.029 A 
ATOM     54  C   UNL A   1      47.877  28.495  27.210  1.00  0.00     0.049 A 
ATOM     55  H   UNL A   1      45.790  28.571  27.511  1.00  0.00     0.167 HD
ATOM     56  C   UNL A   1      47.140  26.142  26.928  1.00  0.00     0.074 A 
ATOM     57  C   UNL A   1      47.387  24.742  26.650  1.00  0.00     0.031 C 
ATOM     58  C   UNL A   1      48.103  27.096  26.950  1.00  0.00     0.037 A 
BRANCH  45  59
ATOM     59  C   UNL A   1      46.012  32.787  28.157  1.00  0.00     0.058 A 
ATOM     60  C   UNL A   1      46.455  33.336  29.372  1.00  0.00     0.135 A 
ATOM     61  C   UNL A   1      45.882  33.651  27.058  1.00  0.00     0.135 A 
ATOM     62  F   UNL A   1      46.581  32.558  30.459  1.00  0.00    -0.206 F 
ATOM     63  C   UNL A   1      46.720  34.694  29.504  1.00  0.00     0.059 A 
ATOM     64  C   UNL A   1      46.172  35.010  27.159  1.00  0.00     0.059 A 
ATOM     65  F   UNL A   1      45.466  33.180  25.872  1.00  0.00    -0.206 F 
ATOM     66  C   UNL A   1      46.572  35.524  28.392  1.00  0.00     0.060 A 
BRANCH  66  67
ATOM     67  S   UNL A   1      46.920  37.285  28.579  1.00  0.00     0.124 S 
ATOM     68  O   UNL A   1      47.658  37.303  29.838  1.00  0.00    -0.237 OA
ATOM     69  O   UNL A   1      47.701  37.580  27.382  1.00  0.00    -0.237 OA
ATOM     70  O   UNL A   1      45.593  37.891  28.620  1.00  0.00    -0.744 OA
ENDBRANCH  66  67
ENDBRANCH  45  59
BRANCH  46  71
ATOM     71  C   UNL A   1      43.462  23.205  26.899  1.00  0.00     0.058 A 
ATOM     72  C   UNL A   1      43.428  22.683  25.598  1.00  0.00     0.135 A 
ATOM     73  C   UNL A   1      43.143  22.343  27.958  1.00  0.00     0.135 A 
ATOM     74  F   UNL A   1      43.722  23.469  24.552  1.00  0.00    -0.206 F 
ATOM     75  C   UNL A   1      43.073  21.361  25.352  1.00  0.00     0.059 A 
ATOM     76  C   UNL A   1      42.807  21.010  27.739  1.00  0.00     0.059 A 
ATOM     77  F   UNL A   1      43.182  22.788  29.224  1.00  0.00    -0.206 F 
ATOM     78  C   UNL A   1      42.764  20.531  26.431  1.00  0.00     0.060 A 
BRANCH  78  79
ATOM     79  S   UNL A   1      42.353  18.802  26.107  1.00  0.00     0.124 S 
ATOM     80  O   UNL A   1      40.950  18.900  25.725  1.00  0.00    -0.237 OA
ATOM     81  O   UNL A   1      43.284  18.459  25.035  1.00  0.00    -0.237 OA
ATOM     82  O   UNL A   1      42.617  18.151  27.386  1.00  0.00    -0.744 OA
ENDBRANCH  78  79
ENDBRANCH  46  71
BRANCH  58  83
ATOM     83  C   UNL A   1      49.515  26.654  26.701  1.00  0.00     0.058 A 
ATOM     84  C   UNL A   1      50.359  26.266  27.754  1.00  0.00     0.135 A 
ATOM     85  C   UNL A   1      50.010  26.564  25.390  1.00  0.00     0.135 A 
ATOM     86  F   UNL A   1      49.933  26.341  29.024  1.00  0.00    -0.206 F 
ATOM     87  C   UNL A   1      51.653  25.819  27.515  1.00  0.00     0.059 A 
ATOM     88  C   UNL A   1      51.294  26.097  25.128  1.00  0.00     0.059 A 
ATOM     89  F   UNL A   1      49.238  26.915  24.350  1.00  0.00    -0.206 F 
ATOM     90  C   UNL A   1      52.112  25.736  26.199  1.00  0.00     0.060 A 
BRANCH  90  91
ATOM     91  S   UNL A   1      53.780  25.116  25.898  1.00  0.00     0.124 S 
ATOM     92  O   UNL A   1      54.383  25.245  27.220  1.00  0.00    -0.237 OA
ATOM     93  O   UNL A   1      53.531  23.750  25.446  1.00  0.00    -0.237 OA
ATOM     94  O   UNL A   1      54.300  26.022  24.878  1.00  0.00    -0.744 OA
ENDBRANCH  90  91
ENDBRANCH  58  83
ENDBRANCH  32  33
ENDBRANCH  24  27
ENDBRANCH  22  23
ENDBRANCH   1  22
TORSDOF 17
ENDMDL
MODEL 2
REMARK VINA RESULT:     -10.7      3.093      9.274
REMARK SMILES CC(C)CN(C)c1ccc([N+](=O)[O-])cc1C(=O)NCCCNC(=O)c1ccc(-c2c3nc(c(-c4c(F)cc(S(=O)(=O)[O-])cc4F)c4ccc([nH]4)c(-c4c(F)cc(S(=O)(=O)[O-])cc4F)c4nc(c(-c5c(F)cc(S(=O)(=O)[O-])cc5F)c5ccc2[nH]5)C=C4)C=C3)cc1
REMARK SMILES IDX 20 1 19 2 18 3 16 4 17 5 15 7 7 8 8 9 9 10 14 11 10 12 5 13
REMARK SMILES IDX 6 14 4 15 2 16 1 17 3 18 11 19 12 20 13 21 21 22 22 23 23 24
REMARK SMILES IDX 24 26 25 27 26 28 90 29 27 30 89 31 28 32 29 33 30 34 83 35
REMARK SMILES IDX 31 36 88 37 82 38 84 39 32 40 87 41 81 42 80 43 33 45 67 46
REMARK SMILES IDX 46 47 66 48 47 49 50 50 65 51 85 52 48 53 49 54 64 56 86 57
REMARK SMILES IDX 51 58 34 59 35 60 44 61 36 62 37 63 43 64 45 65 38 66 39 67
REMARK SMILES IDX 40 68 41 69 42 70 68 71 69 72 78 73 70 74 71 75 77 76 79 77
REMARK SMILES IDX 72 78 73 79 74 80 75 81 76 82 52 83 53 84 62 85 54 86 55 87
REMARK SMILES IDX 61 88 63 89 56 90 57 91 58 92 59 93 60 94
REMARK H PARENT 18 6 22 25 84 44 50 55
REMARK Flexibility Score: inf
ROOT
ATOM      1  C   UNL A   1      35.955  22.980  25.784  1.00  0.00     0.042 C 
ENDROOT
BRANCH   1   2
ATOM      2  C   UNL A   1      34.872  23.807  25.113  1.00  0.00     0.118 C 
BRANCH   2   3
ATOM      3  N   UNL A   1      33.697  23.992  25.935  1.00  0.00    -0.352 N 
ATOM      4  C   UNL A   1      32.863  25.070  26.060  1.00  0.00     0.253 C 
ATOM      5  O   UNL A   1      31.861  24.926  26.767  1.00  0.00    -0.269 OA
ATOM      6  H   UNL A   1      33.459  23.219  26.496  1.00  0.00     0.163 HD
BRANCH   4   7
ATOM      7  C   UNL A   1      33.129  26.422  25.480  1.00  0.00     0.069 A 
ATOM      8  C   UNL A   1      32.959  26.848  24.138  1.00  0.00     0.050 A 
ATOM      9  C   UNL A   1      33.320  28.182  23.824  1.00  0.00     0.034 A 
ATOM     10  C   UNL A   1      33.748  29.091  24.793  1.00  0.00     0.088 A 
ATOM     11  C   UNL A   1      33.520  27.362  26.464  1.00  0.00     0.101 A 
ATOM     12  C   UNL A   1      33.806  28.684  26.120  1.00  0.00     0.270 A 
BRANCH   8  13
ATOM     13  N   UNL A   1      32.412  26.064  23.118  1.00  0.00    -0.374 N 
ATOM     14  C   UNL A   1      33.004  26.242  21.782  1.00  0.00     0.143 C 
BRANCH  13  15
ATOM     15  C   UNL A   1      30.959  25.771  23.131  1.00  0.00     0.119 C 
BRANCH  15  16
ATOM     16  C   UNL A   1      30.082  26.932  23.640  1.00  0.00     0.002 C 
ATOM     17  C   UNL A   1      29.954  28.042  22.594  1.00  0.00     0.009 C 
ATOM     18  C   UNL A   1      28.678  26.447  24.020  1.00  0.00     0.009 C 
ENDBRANCH  15  16
ENDBRANCH  13  15
ENDBRANCH   8  13
BRANCH  12  19
ATOM     19  N   UNL A   1      34.133  29.658  27.164  1.00  0.00     0.062 N 
ATOM     20  O   UNL A   1      34.944  29.313  28.035  1.00  0.00    -0.258 OA
ATOM     21  O   UNL A   1      33.599  30.774  27.101  1.00  0.00    -0.258 OA
ENDBRANCH  12  19
ENDBRANCH   4   7
ENDBRANCH   2   3
ENDBRANCH   1   2
BRANCH   1  22
ATOM     22  C   UNL A   1      37.266  22.987  24.996  1.00  0.00     0.118 C 
BRANCH  22  23
ATOM     23  N   UNL A   1      38.279  22.052  25.488  1.00  0.00    -0.352 N 
ATOM     24  C   UNL A   1      39.328  22.188  26.371  1.00  0.00     0.251 C 
ATOM     25  H   UNL A   1      38.195  21.146  25.113  1.00  0.00     0.163 HD
ATOM     26  O   UNL A   1      40.070  21.228  26.570  1.00  0.00    -0.269 OA
BRANCH  24  27
ATOM     27  C   UNL A   1      39.617  23.490  27.015  1.00  0.00     0.039 A 
ATOM     28  C   UNL A   1      40.563  23.545  28.043  1.00  0.00     0.014 A 
ATOM     29  C   UNL A   1      39.020  24.664  26.574  1.00  0.00     0.014 A 
ATOM     30  C   UNL A   1      41.018  24.786  28.501  1.00  0.00     0.010 A 
ATOM     31  C   UNL A   1      39.582  25.888  26.912  1.00  0.00     0.010 A 
ATOM     32  C   UNL A   1      40.603  25.968  27.868  1.00  0.00    -0.014 A 
BRANCH  32  33
ATOM     33  C   UNL A   1      41.238  27.286  28.151  1.00  0.00     0.031 A 
ATOM     34  C   UNL A   1      42.722  27.476  27.950  1.00  0.00     0.074 A 
ATOM     35  C   UNL A   1      40.508  28.274  28.712  1.00  0.00     0.049 A 
ATOM     36  N   UNL A   1      43.481  28.481  28.301  1.00  0.00    -0.248 NA
ATOM     37  C   UNL A   1      43.457  26.364  27.323  1.00  0.00     0.031 C 
ATOM     38  C   UNL A   1      39.083  28.195  29.052  1.00  0.00     0.029 A 
ATOM     39  N   UNL A   1      40.864  29.538  29.112  1.00  0.00    -0.354 N 
ATOM     40  C   UNL A   1      44.782  28.100  27.989  1.00  0.00     0.074 A 
ATOM     41  C   UNL A   1      44.715  26.751  27.472  1.00  0.00     0.031 C 
ATOM     42  C   UNL A   1      38.682  29.366  29.568  1.00  0.00     0.029 A 
ATOM     43  C   UNL A   1      39.824  30.268  29.643  1.00  0.00     0.049 A 
ATOM     44  H   UNL A   1      41.780  29.891  29.027  1.00  0.00     0.167 HD
ATOM     45  C   UNL A   1      45.926  28.817  28.093  1.00  0.00     0.037 A 
ATOM     46  C   UNL A   1      39.793  31.519  30.139  1.00  0.00     0.037 A 
ATOM     47  C   UNL A   1      45.978  30.188  28.524  1.00  0.00     0.049 A 
ATOM     48  C   UNL A   1      41.059  32.331  30.155  1.00  0.00     0.074 A 
ATOM     49  C   UNL A   1      47.069  31.038  28.565  1.00  0.00     0.029 A 
ATOM     50  N   UNL A   1      44.885  30.917  28.972  1.00  0.00    -0.354 N 
ATOM     51  N   UNL A   1      42.267  31.975  29.791  1.00  0.00    -0.248 NA
ATOM     52  C   UNL A   1      40.958  33.713  30.643  1.00  0.00     0.031 C 
ATOM     53  C   UNL A   1      46.641  32.276  29.056  1.00  0.00     0.029 A 
ATOM     54  C   UNL A   1      45.277  32.206  29.292  1.00  0.00     0.049 A 
ATOM     55  H   UNL A   1      43.968  30.569  29.049  1.00  0.00     0.167 HD
ATOM     56  C   UNL A   1      43.067  33.095  29.986  1.00  0.00     0.074 A 
ATOM     57  C   UNL A   1      42.202  34.144  30.486  1.00  0.00     0.031 C 
ATOM     58  C   UNL A   1      44.398  33.240  29.774  1.00  0.00     0.037 A 
BRANCH  45  59
ATOM     59  C   UNL A   1      47.212  28.141  27.701  1.00  0.00     0.058 A 
ATOM     60  C   UNL A   1      47.989  27.439  28.637  1.00  0.00     0.135 A 
ATOM     61  C   UNL A   1      47.661  28.174  26.371  1.00  0.00     0.135 A 
ATOM     62  F   UNL A   1      47.614  27.389  29.925  1.00  0.00    -0.206 F 
ATOM     63  C   UNL A   1      49.185  26.828  28.278  1.00  0.00     0.059 A 
ATOM     64  C   UNL A   1      48.841  27.544  25.983  1.00  0.00     0.059 A 
ATOM     65  F   UNL A   1      46.957  28.828  25.435  1.00  0.00    -0.206 F 
ATOM     66  C   UNL A   1      49.605  26.889  26.949  1.00  0.00     0.060 A 
BRANCH  66  67
ATOM     67  S   UNL A   1      51.160  26.092  26.498  1.00  0.00     0.124 S 
ATOM     68  O   UNL A   1      52.133  26.968  27.145  1.00  0.00    -0.237 OA
ATOM     69  O   UNL A   1      51.015  24.764  27.086  1.00  0.00    -0.237 OA
ATOM     70  O   UNL A   1      51.152  26.131  25.040  1.00  0.00    -0.744 OA
ENDBRANCH  66  67
ENDBRANCH  45  59
BRANCH  46  71
ATOM     71  C   UNL A   1      38.511  32.098  30.623  1.00  0.00     0.058 A 
ATOM     72  C   UNL A   1      37.725  32.899  29.782  1.00  0.00     0.135 A 
ATOM     73  C   UNL A   1      38.039  31.852  31.921  1.00  0.00     0.135 A 
ATOM     74  F   UNL A   1      38.136  33.166  28.533  1.00  0.00    -0.206 F 
ATOM     75  C   UNL A   1      36.524  33.452  30.215  1.00  0.00     0.059 A 
ATOM     76  C   UNL A   1      36.830  32.376  32.370  1.00  0.00     0.059 A 
ATOM     77  F   UNL A   1      38.743  31.074  32.758  1.00  0.00    -0.206 F 
ATOM     78  C   UNL A   1      36.084  33.184  31.512  1.00  0.00     0.060 A 
BRANCH  78  79
ATOM     79  S   UNL A   1      34.499  33.864  32.049  1.00  0.00     0.124 S 
ATOM     80  O   UNL A   1      33.945  32.750  32.808  1.00  0.00    -0.237 OA
ATOM     81  O   UNL A   1      34.911  35.026  32.831  1.00  0.00    -0.237 OA
ATOM     82  O   UNL A   1      33.825  34.172  30.792  1.00  0.00    -0.744 OA
ENDBRANCH  78  79
ENDBRANCH  46  71
BRANCH  58  83
ATOM     83  C   UNL A   1      44.995  34.589  30.048  1.00  0.00     0.058 A 
ATOM     84  C   UNL A   1      45.600  34.887  31.279  1.00  0.00     0.135 A 
ATOM     85  C   UNL A   1      45.015  35.573  29.047  1.00  0.00     0.135 A 
ATOM     86  F   UNL A   1      45.600  33.981  32.269  1.00  0.00    -0.206 F 
ATOM     87  C   UNL A   1      46.188  36.124  31.515  1.00  0.00     0.059 A 
ATOM     88  C   UNL A   1      45.618  36.809  29.254  1.00  0.00     0.059 A 
ATOM     89  F   UNL A   1      44.458  35.332  27.850  1.00  0.00    -0.206 F 
ATOM     90  C   UNL A   1      46.194  37.079  30.496  1.00  0.00     0.060 A 
BRANCH  90  91
ATOM     91  S   UNL A   1      46.996  38.667  30.799  1.00  0.00     0.124 S 
ATOM     92  O   UNL A   1      47.894  38.336  31.900  1.00  0.00    -0.237 OA
ATOM     93  O   UNL A   1      47.640  38.943  29.518  1.00  0.00    -0.237 OA
ATOM     94  O   UNL A   1      45.884  39.549  31.138  1.00  0.00    -0.744 OA
ENDBRANCH  90  91
ENDBRANCH  58  83
ENDBRANCH  32  33
ENDBRANCH  24  27
ENDBRANCH  22  23
ENDBRANCH   1  22
TORSDOF 17
ENDMDL
MODEL 3
REMARK VINA RESULT:     -10.7      5.073     12.116
REMARK SMILES CC(C)CN(C)c1ccc([N+](=O)[O-])cc1C(=O)NCCCNC(=O)c1ccc(-c2c3nc(c(-c4c(F)cc(S(=O)(=O)[O-])cc4F)c4ccc([nH]4)c(-c4c(F)cc(S(=O)(=O)[O-])cc4F)c4nc(c(-c5c(F)cc(S(=O)(=O)[O-])cc5F)c5ccc2[nH]5)C=C4)C=C3)cc1
REMARK SMILES IDX 20 1 19 2 18 3 16 4 17 5 15 7 7 8 8 9 9 10 14 11 10 12 5 13
REMARK SMILES IDX 6 14 4 15 2 16 1 17 3 18 11 19 12 20 13 21 21 22 22 23 23 24
REMARK SMILES IDX 24 26 25 27 26 28 90 29 27 30 89 31 28 32 29 33 30 34 83 35
REMARK SMILES IDX 31 36 88 37 82 38 84 39 32 40 87 41 81 42 80 43 33 45 67 46
REMARK SMILES IDX 46 47 66 48 47 49 50 50 65 51 85 52 48 53 49 54 64 56 86 57
REMARK SMILES IDX 51 58 34 59 35 60 44 61 36 62 37 63 43 64 45 65 38 66 39 67
REMARK SMILES IDX 40 68 41 69 42 70 68 71 69 72 78 73 70 74 71 75 77 76 79 77
REMARK SMILES IDX 72 78 73 79 74 80 75 81 76 82 52 83 53 84 62 85 54 86 55 87
REMARK SMILES IDX 61 88 63 89 56 90 57 91 58 92 59 93 60 94
REMARK H PARENT 18 6 22 25 84 44 50 55
REMARK Flexibility Score: inf
ROOT
ATOM      1  C   UNL A   1      44.065  37.537  27.215  1.00  0.00     0.042 C 
ENDROOT
BRANCH   1   2
ATOM      2  C   UNL A   1      44.064  39.022  26.901  1.00  0.00     0.118 C 
BRANCH   2   3
ATOM      3  N   UNL A   1      42.786  39.659  27.130  1.00  0.00    -0.352 N 
ATOM      4  C   UNL A   1      42.212  40.740  26.517  1.00  0.00     0.253 C 
ATOM      5  O   UNL A   1      41.053  41.018  26.841  1.00  0.00    -0.269 OA
ATOM      6  H   UNL A   1      42.241  39.250  27.841  1.00  0.00     0.163 HD
BRANCH   4   7
ATOM      7  C   UNL A   1      42.916  41.651  25.563  1.00  0.00     0.069 A 
ATOM      8  C   UNL A   1      44.132  42.354  25.760  1.00  0.00     0.050 A 
ATOM      9  C   UNL A   1      44.579  43.193  24.710  1.00  0.00     0.034 A 
ATOM     10  C   UNL A   1      43.917  43.280  23.484  1.00  0.00     0.088 A 
ATOM     11  C   UNL A   1      42.274  41.709  24.302  1.00  0.00     0.101 A 
ATOM     12  C   UNL A   1      42.785  42.502  23.274  1.00  0.00     0.270 A 
BRANCH   8  13
ATOM     13  N   UNL A   1      44.945  42.235  26.891  1.00  0.00    -0.374 N 
ATOM     14  C   UNL A   1      44.565  43.064  28.047  1.00  0.00     0.143 C 
BRANCH  13  15
ATOM     15  C   UNL A   1      46.402  42.026  26.717  1.00  0.00     0.119 C 
BRANCH  15  16
ATOM     16  C   UNL A   1      46.802  40.566  26.424  1.00  0.00     0.002 C 
ATOM     17  C   UNL A   1      46.964  40.316  24.923  1.00  0.00     0.009 C 
ATOM     18  C   UNL A   1      48.110  40.192  27.131  1.00  0.00     0.009 C 
ENDBRANCH  15  16
ENDBRANCH  13  15
ENDBRANCH   8  13
BRANCH  12  19
ATOM     19  N   UNL A   1      42.150  42.488  21.954  1.00  0.00     0.062 N 
ATOM     20  O   UNL A   1      42.659  41.770  21.081  1.00  0.00    -0.258 OA
ATOM     21  O   UNL A   1      41.131  43.174  21.796  1.00  0.00    -0.258 OA
ENDBRANCH  12  19
ENDBRANCH   4   7
ENDBRANCH   2   3
ENDBRANCH   1   2
BRANCH   1  22
ATOM     22  C   UNL A   1      44.540  37.242  28.638  1.00  0.00     0.118 C 
BRANCH  22  23
ATOM     23  N   UNL A   1      45.930  37.613  28.907  1.00  0.00    -0.352 N 
ATOM     24  C   UNL A   1      47.103  36.892  28.937  1.00  0.00     0.251 C 
ATOM     25  H   UNL A   1      46.051  38.570  29.106  1.00  0.00     0.163 HD
ATOM     26  O   UNL A   1      48.148  37.461  29.247  1.00  0.00    -0.269 OA
BRANCH  24  27
ATOM     27  C   UNL A   1      47.105  35.433  28.684  1.00  0.00     0.039 A 
ATOM     28  C   UNL A   1      47.084  34.552  29.771  1.00  0.00     0.014 A 
ATOM     29  C   UNL A   1      47.062  34.922  27.393  1.00  0.00     0.014 A 
ATOM     30  C   UNL A   1      46.852  33.190  29.556  1.00  0.00     0.010 A 
ATOM     31  C   UNL A   1      46.675  33.604  27.189  1.00  0.00     0.010 A 
ATOM     32  C   UNL A   1      46.546  32.720  28.269  1.00  0.00    -0.014 A 
BRANCH  32  33
ATOM     33  C   UNL A   1      46.054  31.335  28.024  1.00  0.00     0.031 A 
ATOM     34  C   UNL A   1      44.616  30.977  28.307  1.00  0.00     0.074 A 
ATOM     35  C   UNL A   1      46.929  30.367  27.675  1.00  0.00     0.049 A 
ATOM     36  N   UNL A   1      44.046  29.800  28.325  1.00  0.00    -0.248 NA
ATOM     37  C   UNL A   1      43.713  32.081  28.674  1.00  0.00     0.031 C 
ATOM     38  C   UNL A   1      48.368  30.552  27.463  1.00  0.00     0.029 A 
ATOM     39  N   UNL A   1      46.740  29.025  27.448  1.00  0.00    -0.354 N 
ATOM     40  C   UNL A   1      42.741  30.017  28.755  1.00  0.00     0.074 A 
ATOM     41  C   UNL A   1      42.620  31.430  29.040  1.00  0.00     0.031 C 
ATOM     42  C   UNL A   1      48.919  29.384  27.100  1.00  0.00     0.029 A 
ATOM     43  C   UNL A   1      47.889  28.353  27.098  1.00  0.00     0.049 A 
ATOM     44  H   UNL A   1      45.863  28.585  27.530  1.00  0.00     0.167 HD
ATOM     45  C   UNL A   1      41.725  29.129  28.872  1.00  0.00     0.037 A 
ATOM     46  C   UNL A   1      48.093  27.053  26.813  1.00  0.00     0.037 A 
ATOM     47  C   UNL A   1      41.825  27.742  28.504  1.00  0.00     0.049 A 
ATOM     48  C   UNL A   1      46.929  26.103  26.857  1.00  0.00     0.074 A 
ATOM     49  C   UNL A   1      40.828  26.782  28.484  1.00  0.00     0.029 A 
ATOM     50  N   UNL A   1      42.988  27.121  28.071  1.00  0.00    -0.354 N 
ATOM     51  N   UNL A   1      45.686  26.342  27.201  1.00  0.00    -0.248 NA
ATOM     52  C   UNL A   1      47.190  24.709  26.472  1.00  0.00     0.031 C 
ATOM     53  C   UNL A   1      41.393  25.575  28.058  1.00  0.00     0.029 A 
ATOM     54  C   UNL A   1      42.734  25.791  27.783  1.00  0.00     0.049 A 
ATOM     55  H   UNL A   1      43.863  27.562  27.982  1.00  0.00     0.167 HD
ATOM     56  C   UNL A   1      45.013  25.136  27.053  1.00  0.00     0.074 A 
ATOM     57  C   UNL A   1      45.982  24.172  26.574  1.00  0.00     0.031 C 
ATOM     58  C   UNL A   1      43.710  24.851  27.295  1.00  0.00     0.037 A 
BRANCH  45  59
ATOM     59  C   UNL A   1      40.408  29.639  29.391  1.00  0.00     0.058 A 
ATOM     60  C   UNL A   1      39.318  29.867  28.535  1.00  0.00     0.135 A 
ATOM     61  C   UNL A   1      40.226  29.883  30.762  1.00  0.00     0.135 A 
ATOM     62  F   UNL A   1      39.443  29.666  27.214  1.00  0.00    -0.206 F 
ATOM     63  C   UNL A   1      38.107  30.354  29.013  1.00  0.00     0.059 A 
ATOM     64  C   UNL A   1      39.012  30.343  31.266  1.00  0.00     0.059 A 
ATOM     65  F   UNL A   1      41.233  29.680  31.625  1.00  0.00    -0.206 F 
ATOM     66  C   UNL A   1      37.965  30.592  30.380  1.00  0.00     0.060 A 
BRANCH  66  67
ATOM     67  S   UNL A   1      36.386  31.226  30.985  1.00  0.00     0.124 S 
ATOM     68  O   UNL A   1      36.036  30.224  31.986  1.00  0.00    -0.237 OA
ATOM     69  O   UNL A   1      36.754  32.539  31.506  1.00  0.00    -0.237 OA
ATOM     70  O   UNL A   1      35.548  31.243  29.792  1.00  0.00    -0.744 OA
ENDBRANCH  66  67
ENDBRANCH  45  59
BRANCH  46  71
ATOM     71  C   UNL A   1      49.447  26.580  26.418  1.00  0.00     0.058 A 
ATOM     72  C   UNL A   1      49.910  26.748  25.105  1.00  0.00     0.135 A 
ATOM     73  C   UNL A   1      50.309  25.969  27.342  1.00  0.00     0.135 A 
ATOM     74  F   UNL A   1      49.121  27.324  24.185  1.00  0.00    -0.206 F 
ATOM     75  C   UNL A   1      51.171  26.311  24.714  1.00  0.00     0.059 A 
ATOM     76  C   UNL A   1      51.584  25.544  26.981  1.00  0.00     0.059 A 
ATOM     77  F   UNL A   1      49.922  25.804  28.617  1.00  0.00    -0.206 F 
ATOM     78  C   UNL A   1      52.003  25.710  25.661  1.00  0.00     0.060 A 
BRANCH  78  79
ATOM     79  S   UNL A   1      53.658  25.191  25.158  1.00  0.00     0.124 S 
ATOM     80  O   UNL A   1      53.706  25.659  23.778  1.00  0.00    -0.237 OA
ATOM     81  O   UNL A   1      54.507  25.909  26.105  1.00  0.00    -0.237 OA
ATOM     82  O   UNL A   1      53.622  23.743  25.334  1.00  0.00    -0.744 OA
ENDBRANCH  78  79
ENDBRANCH  46  71
BRANCH  58  83
ATOM     83  C   UNL A   1      43.248  23.451  27.014  1.00  0.00     0.058 A 
ATOM     84  C   UNL A   1      43.047  22.994  25.702  1.00  0.00     0.135 A 
ATOM     85  C   UNL A   1      43.061  22.541  28.066  1.00  0.00     0.135 A 
ATOM     86  F   UNL A   1      43.207  23.829  24.664  1.00  0.00    -0.206 F 
ATOM     87  C   UNL A   1      42.658  21.685  25.445  1.00  0.00     0.059 A 
ATOM     88  C   UNL A   1      42.694  21.220  27.830  1.00  0.00     0.059 A 
ATOM     89  F   UNL A   1      43.249  22.929  29.338  1.00  0.00    -0.206 F 
ATOM     90  C   UNL A   1      42.486  20.804  26.514  1.00  0.00     0.060 A 
BRANCH  90  91
ATOM     91  S   UNL A   1      42.021  19.096  26.166  1.00  0.00     0.124 S 
ATOM     92  O   UNL A   1      42.451  18.421  27.386  1.00  0.00    -0.237 OA
ATOM     93  O   UNL A   1      40.578  19.195  25.973  1.00  0.00    -0.237 OA
ATOM     94  O   UNL A   1      42.787  18.774  24.966  1.00  0.00    -0.744 OA
ENDBRANCH  90  91
ENDBRANCH  58  83
ENDBRANCH  32  33
ENDBRANCH  24  27
ENDBRANCH  22  23
ENDBRANCH   1  22
TORSDOF 17
ENDMDL
