MODEL 1
REMARK VINA RESULT:     -12.0      0.000      0.000
REMARK SMILES COc1cc(OC)cc(-c2cnc(Cl)c(C(=O)NCCCNC(=O)c3ccc(-c4c5nc(c(-c6c(F)cc(S(=O)(=O)[O-])cc6F)c6ccc([nH]6)c(-c6c(F)cc(S(=O)(=O)[O-])cc6F)c6nc(c(-c7c(F)cc(S(=O)(=O)[O-])cc7F)c7ccc4[nH]7)C=C6)C=C5)cc3)c2)c1
REMARK SMILES IDX 20 1 19 2 18 3 16 4 17 5 15 7 10 8 11 9 91 10 12 11 13 12
REMARK SMILES IDX 14 13 9 14 3 15 4 16 92 17 5 18 8 19 2 20 1 21 6 22 7 23
REMARK SMILES IDX 21 24 22 25 23 26 24 28 25 29 26 30 90 31 27 32 89 33 28 34
REMARK SMILES IDX 29 35 30 36 83 37 31 38 88 39 82 40 84 41 32 42 87 43 81 44
REMARK SMILES IDX 80 45 33 47 67 48 46 49 66 50 47 51 50 52 65 53 85 54 48 55
REMARK SMILES IDX 49 56 64 58 86 59 51 60 34 61 35 62 44 63 36 64 37 65 43 66
REMARK SMILES IDX 45 67 38 68 39 69 40 70 41 71 42 72 68 73 69 74 78 75 70 76
REMARK SMILES IDX 71 77 77 78 79 79 72 80 73 81 74 82 75 83 76 84 52 85 53 86
REMARK SMILES IDX 62 87 54 88 55 89 61 90 63 91 56 92 57 93 58 94 59 95 60 96
REMARK H PARENT 18 6 22 27 84 46 50 57
REMARK Flexibility Score: inf
ROOT
ATOM      1  C   UNL A   1      34.447  30.994  27.605  1.00  0.00     0.042 C 
ENDROOT
BRANCH   1   2
ATOM      2  C   UNL A   1      34.596  29.503  27.296  1.00  0.00     0.118 C 
BRANCH   2   3
ATOM      3  N   UNL A   1      34.390  29.269  25.882  1.00  0.00    -0.352 N 
ATOM      4  C   UNL A   1      33.948  28.211  25.140  1.00  0.00     0.254 C 
ATOM      5  O   UNL A   1      34.019  28.368  23.915  1.00  0.00    -0.269 OA
ATOM      6  H   UNL A   1      34.622  30.050  25.330  1.00  0.00     0.163 HD
BRANCH   4   7
ATOM      7  C   UNL A   1      33.302  26.965  25.633  1.00  0.00     0.077 A 
ATOM      8  C   UNL A   1      33.603  24.521  25.712  1.00  0.00     0.001 A 
ATOM      9  C   UNL A   1      32.445  24.463  26.468  1.00  0.00     0.121 A 
ATOM     10  C   UNL A   1      33.998  25.789  25.270  1.00  0.00     0.027 A 
ATOM     11  N   UNL A   1      31.741  25.547  26.840  1.00  0.00    -0.243 NA
ATOM     12  C   UNL A   1      32.208  26.769  26.464  1.00  0.00     0.141 A 
ATOM     13  Cl  UNL A   1      31.348  27.953  27.349  1.00  0.00    -0.061 Cl
BRANCH   8  14
ATOM     14  C   UNL A   1      34.390  23.322  25.430  1.00  0.00    -0.009 A 
ATOM     15  C   UNL A   1      36.548  22.245  25.113  1.00  0.00     0.123 A 
ATOM     16  C   UNL A   1      35.895  21.022  24.948  1.00  0.00     0.092 A 
ATOM     17  C   UNL A   1      35.793  23.394  25.342  1.00  0.00     0.055 A 
ATOM     18  C   UNL A   1      34.504  20.930  25.024  1.00  0.00     0.123 A 
ATOM     19  C   UNL A   1      33.758  22.080  25.274  1.00  0.00     0.055 A 
BRANCH  15  20
ATOM     20  O   UNL A   1      37.913  22.192  25.011  1.00  0.00    -0.497 OA
ATOM     21  C   UNL A   1      38.655  22.546  26.173  1.00  0.00     0.278 C 
ENDBRANCH  15  20
BRANCH  18  22
ATOM     22  O   UNL A   1      33.991  19.674  24.850  1.00  0.00    -0.497 OA
ATOM     23  C   UNL A   1      32.584  19.585  24.652  1.00  0.00     0.278 C 
ENDBRANCH  18  22
ENDBRANCH   8  14
ENDBRANCH   4   7
ENDBRANCH   2   3
ENDBRANCH   1   2
BRANCH   1  24
ATOM     24  C   UNL A   1      35.612  31.584  28.387  1.00  0.00     0.118 C 
BRANCH  24  25
ATOM     25  N   UNL A   1      35.496  31.308  29.810  1.00  0.00    -0.352 N 
ATOM     26  C   UNL A   1      36.313  30.564  30.623  1.00  0.00     0.251 C 
ATOM     27  H   UNL A   1      34.719  31.714  30.254  1.00  0.00     0.163 HD
ATOM     28  O   UNL A   1      35.896  30.213  31.729  1.00  0.00    -0.269 OA
BRANCH  26  29
ATOM     29  C   UNL A   1      37.676  30.180  30.190  1.00  0.00     0.039 A 
ATOM     30  C   UNL A   1      38.651  29.927  31.161  1.00  0.00     0.014 A 
ATOM     31  C   UNL A   1      38.016  30.120  28.835  1.00  0.00     0.014 A 
ATOM     32  C   UNL A   1      39.946  29.574  30.773  1.00  0.00     0.010 A 
ATOM     33  C   UNL A   1      39.283  29.691  28.450  1.00  0.00     0.010 A 
ATOM     34  C   UNL A   1      40.267  29.427  29.413  1.00  0.00    -0.014 A 
BRANCH  34  35
ATOM     35  C   UNL A   1      41.628  29.022  28.978  1.00  0.00     0.031 A 
ATOM     36  C   UNL A   1      42.727  30.049  28.885  1.00  0.00     0.074 A 
ATOM     37  C   UNL A   1      41.856  27.747  28.602  1.00  0.00     0.049 A 
ATOM     38  N   UNL A   1      43.950  29.914  28.443  1.00  0.00    -0.248 NA
ATOM     39  C   UNL A   1      42.397  31.417  29.320  1.00  0.00     0.031 C 
ATOM     40  C   UNL A   1      40.859  26.676  28.600  1.00  0.00     0.029 A 
ATOM     41  N   UNL A   1      42.995  27.141  28.134  1.00  0.00    -0.354 N 
ATOM     42  C   UNL A   1      44.527  31.177  28.526  1.00  0.00     0.074 A 
ATOM     43  C   UNL A   1      43.505  32.076  29.015  1.00  0.00     0.031 C 
ATOM     44  C   UNL A   1      41.433  25.540  28.170  1.00  0.00     0.029 A 
ATOM     45  C   UNL A   1      42.826  25.810  27.829  1.00  0.00     0.049 A 
ATOM     46  H   UNL A   1      43.852  27.612  28.028  1.00  0.00     0.167 HD
ATOM     47  C   UNL A   1      45.797  31.548  28.241  1.00  0.00     0.037 A 
ATOM     48  C   UNL A   1      43.693  24.913  27.322  1.00  0.00     0.037 A 
ATOM     49  C   UNL A   1      46.818  30.636  27.791  1.00  0.00     0.049 A 
ATOM     50  C   UNL A   1      45.105  25.345  27.032  1.00  0.00     0.074 A 
ATOM     51  C   UNL A   1      48.153  30.898  27.536  1.00  0.00     0.029 A 
ATOM     52  N   UNL A   1      46.617  29.288  27.532  1.00  0.00    -0.354 N 
ATOM     53  N   UNL A   1      45.649  26.531  27.174  1.00  0.00    -0.248 NA
ATOM     54  C   UNL A   1      46.024  24.319  26.519  1.00  0.00     0.031 C 
ATOM     55  C   UNL A   1      48.750  29.716  27.085  1.00  0.00     0.029 A 
ATOM     56  C   UNL A   1      47.799  28.708  27.105  1.00  0.00     0.049 A 
ATOM     57  H   UNL A   1      45.760  28.815  27.635  1.00  0.00     0.167 HD
ATOM     58  C   UNL A   1      46.980  26.386  26.798  1.00  0.00     0.074 A 
ATOM     59  C   UNL A   1      47.160  24.996  26.432  1.00  0.00     0.031 C 
ATOM     60  C   UNL A   1      47.963  27.318  26.759  1.00  0.00     0.037 A 
BRANCH  47  61
ATOM     61  C   UNL A   1      46.164  32.996  28.417  1.00  0.00     0.058 A 
ATOM     62  C   UNL A   1      46.651  33.491  29.637  1.00  0.00     0.135 A 
ATOM     63  C   UNL A   1      46.074  33.892  27.339  1.00  0.00     0.135 A 
ATOM     64  F   UNL A   1      46.742  32.684  30.706  1.00  0.00    -0.206 F 
ATOM     65  C   UNL A   1      47.013  34.826  29.790  1.00  0.00     0.059 A 
ATOM     66  C   UNL A   1      46.457  35.226  27.461  1.00  0.00     0.059 A 
ATOM     67  F   UNL A   1      45.614  33.474  26.149  1.00  0.00    -0.206 F 
ATOM     68  C   UNL A   1      46.914  35.685  28.695  1.00  0.00     0.060 A 
BRANCH  68  69
ATOM     69  S   UNL A   1      47.405  37.409  28.906  1.00  0.00     0.124 S 
ATOM     70  O   UNL A   1      46.397  38.099  28.108  1.00  0.00    -0.237 OA
ATOM     71  O   UNL A   1      47.301  37.590  30.351  1.00  0.00    -0.237 OA
ATOM     72  O   UNL A   1      48.763  37.445  28.369  1.00  0.00    -0.744 OA
ENDBRANCH  68  69
ENDBRANCH  47  61
BRANCH  48  73
ATOM     73  C   UNL A   1      43.257  23.511  27.075  1.00  0.00     0.058 A 
ATOM     74  C   UNL A   1      42.941  23.071  25.780  1.00  0.00     0.135 A 
ATOM     75  C   UNL A   1      43.153  22.584  28.124  1.00  0.00     0.135 A 
ATOM     76  F   UNL A   1      43.023  23.921  24.745  1.00  0.00    -0.206 F 
ATOM     77  C   UNL A   1      42.517  21.769  25.536  1.00  0.00     0.059 A 
ATOM     78  C   UNL A   1      42.755  21.270  27.900  1.00  0.00     0.059 A 
ATOM     79  F   UNL A   1      43.461  22.949  29.377  1.00  0.00    -0.206 F 
ATOM     80  C   UNL A   1      42.426  20.875  26.604  1.00  0.00     0.060 A 
BRANCH  80  81
ATOM     81  S   UNL A   1      41.905  19.178  26.272  1.00  0.00     0.124 S 
ATOM     82  O   UNL A   1      42.052  18.564  27.585  1.00  0.00    -0.237 OA
ATOM     83  O   UNL A   1      40.535  19.364  25.804  1.00  0.00    -0.237 OA
ATOM     84  O   UNL A   1      42.852  18.731  25.254  1.00  0.00    -0.744 OA
ENDBRANCH  80  81
ENDBRANCH  48  73
BRANCH  60  85
ATOM     85  C   UNL A   1      49.333  26.862  26.346  1.00  0.00     0.058 A 
ATOM     86  C   UNL A   1      50.213  26.250  27.252  1.00  0.00     0.135 A 
ATOM     87  C   UNL A   1      49.748  26.987  25.010  1.00  0.00     0.135 A 
ATOM     88  F   UNL A   1      49.867  26.112  28.541  1.00  0.00    -0.206 F 
ATOM     89  C   UNL A   1      51.466  25.798  26.853  1.00  0.00     0.059 A 
ATOM     90  C   UNL A   1      50.985  26.516  24.583  1.00  0.00     0.059 A 
ATOM     91  F   UNL A   1      48.939  27.555  24.101  1.00  0.00    -0.206 F 
ATOM     92  C   UNL A   1      51.842  25.933  25.515  1.00  0.00     0.060 A 
BRANCH  92  93
ATOM     93  S   UNL A   1      53.455  25.305  25.001  1.00  0.00     0.124 S 
ATOM     94  O   UNL A   1      53.440  25.594  23.571  1.00  0.00    -0.237 OA
ATOM     95  O   UNL A   1      54.373  26.111  25.800  1.00  0.00    -0.237 OA
ATOM     96  O   UNL A   1      53.398  23.891  25.357  1.00  0.00    -0.744 OA
ENDBRANCH  92  93
ENDBRANCH  60  85
ENDBRANCH  34  35
ENDBRANCH  26  29
ENDBRANCH  24  25
ENDBRANCH   1  24
TORSDOF 16
ENDMDL
MODEL 2
REMARK VINA RESULT:     -12.0      2.724      3.556
REMARK SMILES COc1cc(OC)cc(-c2cnc(Cl)c(C(=O)NCCCNC(=O)c3ccc(-c4c5nc(c(-c6c(F)cc(S(=O)(=O)[O-])cc6F)c6ccc([nH]6)c(-c6c(F)cc(S(=O)(=O)[O-])cc6F)c6nc(c(-c7c(F)cc(S(=O)(=O)[O-])cc7F)c7ccc4[nH]7)C=C6)C=C5)cc3)c2)c1
REMARK SMILES IDX 20 1 19 2 18 3 16 4 17 5 15 7 10 8 11 9 91 10 12 11 13 12
REMARK SMILES IDX 14 13 9 14 3 15 4 16 92 17 5 18 8 19 2 20 1 21 6 22 7 23
REMARK SMILES IDX 21 24 22 25 23 26 24 28 25 29 26 30 90 31 27 32 89 33 28 34
REMARK SMILES IDX 29 35 30 36 83 37 31 38 88 39 82 40 84 41 32 42 87 43 81 44
REMARK SMILES IDX 80 45 33 47 67 48 46 49 66 50 47 51 50 52 65 53 85 54 48 55
REMARK SMILES IDX 49 56 64 58 86 59 51 60 34 61 35 62 44 63 36 64 37 65 43 66
REMARK SMILES IDX 45 67 38 68 39 69 40 70 41 71 42 72 68 73 69 74 78 75 70 76
REMARK SMILES IDX 71 77 77 78 79 79 72 80 73 81 74 82 75 83 76 84 52 85 53 86
REMARK SMILES IDX 62 87 54 88 55 89 61 90 63 91 56 92 57 93 58 94 59 95 60 96
REMARK H PARENT 18 6 22 27 84 46 50 57
REMARK Flexibility Score: inf
ROOT
ATOM      1  C   UNL A   1      33.941  28.064  25.756  1.00  0.00     0.042 C 
ENDROOT
BRANCH   1   2
ATOM      2  C   UNL A   1      33.300  29.122  24.856  1.00  0.00     0.118 C 
BRANCH   2   3
ATOM      3  N   UNL A   1      33.742  28.940  23.489  1.00  0.00    -0.352 N 
ATOM      4  C   UNL A   1      33.696  27.907  22.596  1.00  0.00     0.254 C 
ATOM      5  O   UNL A   1      34.293  28.111  21.533  1.00  0.00    -0.269 OA
ATOM      6  H   UNL A   1      34.174  29.743  23.119  1.00  0.00     0.163 HD
BRANCH   4   7
ATOM      7  C   UNL A   1      32.929  26.638  22.717  1.00  0.00     0.077 A 
ATOM      8  C   UNL A   1      33.186  24.263  23.319  1.00  0.00     0.001 A 
ATOM      9  C   UNL A   1      31.821  24.129  23.132  1.00  0.00     0.121 A 
ATOM     10  C   UNL A   1      33.731  25.528  23.069  1.00  0.00     0.027 A 
ATOM     11  N   UNL A   1      31.011  25.149  22.794  1.00  0.00    -0.243 NA
ATOM     12  C   UNL A   1      31.567  26.383  22.647  1.00  0.00     0.141 A 
ATOM     13  Cl  UNL A   1      30.296  27.524  22.574  1.00  0.00    -0.061 Cl
BRANCH   8  14
ATOM     14  C   UNL A   1      34.003  23.148  23.794  1.00  0.00    -0.009 A 
ATOM     15  C   UNL A   1      36.184  22.211  24.328  1.00  0.00     0.123 A 
ATOM     16  C   UNL A   1      35.558  21.039  24.756  1.00  0.00     0.092 A 
ATOM     17  C   UNL A   1      35.405  23.258  23.838  1.00  0.00     0.055 A 
ATOM     18  C   UNL A   1      34.168  20.905  24.713  1.00  0.00     0.123 A 
ATOM     19  C   UNL A   1      33.396  21.965  24.241  1.00  0.00     0.055 A 
BRANCH  15  20
ATOM     20  O   UNL A   1      37.550  22.205  24.421  1.00  0.00    -0.497 OA
ATOM     21  C   UNL A   1      38.102  21.975  25.713  1.00  0.00     0.278 C 
ENDBRANCH  15  20
BRANCH  18  22
ATOM     22  O   UNL A   1      33.682  19.709  25.165  1.00  0.00    -0.497 OA
ATOM     23  C   UNL A   1      32.541  19.192  24.488  1.00  0.00     0.278 C 
ENDBRANCH  18  22
ENDBRANCH   8  14
ENDBRANCH   4   7
ENDBRANCH   2   3
ENDBRANCH   1   2
BRANCH   1  24
ATOM     24  C   UNL A   1      33.740  28.313  27.245  1.00  0.00     0.118 C 
BRANCH  24  25
ATOM     25  N   UNL A   1      33.603  29.731  27.537  1.00  0.00    -0.352 N 
ATOM     26  C   UNL A   1      34.461  30.571  28.201  1.00  0.00     0.251 C 
ATOM     27  H   UNL A   1      32.774  30.148  27.212  1.00  0.00     0.163 HD
ATOM     28  O   UNL A   1      34.043  31.662  28.596  1.00  0.00    -0.269 OA
BRANCH  26  29
ATOM     29  C   UNL A   1      35.870  30.186  28.447  1.00  0.00     0.039 A 
ATOM     30  C   UNL A   1      36.783  30.241  27.389  1.00  0.00     0.014 A 
ATOM     31  C   UNL A   1      36.284  29.717  29.698  1.00  0.00     0.014 A 
ATOM     32  C   UNL A   1      38.114  29.870  27.598  1.00  0.00     0.010 A 
ATOM     33  C   UNL A   1      37.627  29.426  29.924  1.00  0.00     0.010 A 
ATOM     34  C   UNL A   1      38.554  29.484  28.875  1.00  0.00    -0.014 A 
BRANCH  34  35
ATOM     35  C   UNL A   1      39.970  29.117  29.129  1.00  0.00     0.031 A 
ATOM     36  C   UNL A   1      40.927  30.139  29.685  1.00  0.00     0.074 A 
ATOM     37  C   UNL A   1      40.410  27.886  28.796  1.00  0.00     0.049 A 
ATOM     38  N   UNL A   1      42.215  30.042  29.890  1.00  0.00    -0.248 NA
ATOM     39  C   UNL A   1      40.366  31.458  30.027  1.00  0.00     0.031 C 
ATOM     40  C   UNL A   1      39.590  26.827  28.203  1.00  0.00     0.029 A 
ATOM     41  N   UNL A   1      41.658  27.322  28.894  1.00  0.00    -0.354 N 
ATOM     42  C   UNL A   1      42.620  31.285  30.364  1.00  0.00     0.074 A 
ATOM     43  C   UNL A   1      41.451  32.137  30.369  1.00  0.00     0.031 C 
ATOM     44  C   UNL A   1      40.352  25.738  28.007  1.00  0.00     0.029 A 
ATOM     45  C   UNL A   1      41.719  26.032  28.422  1.00  0.00     0.049 A 
ATOM     46  H   UNL A   1      42.435  27.796  29.267  1.00  0.00     0.167 HD
ATOM     47  C   UNL A   1      43.849  31.674  30.777  1.00  0.00     0.037 A 
ATOM     48  C   UNL A   1      42.763  25.186  28.325  1.00  0.00     0.037 A 
ATOM     49  C   UNL A   1      44.999  30.807  30.803  1.00  0.00     0.049 A 
ATOM     50  C   UNL A   1      44.115  25.636  28.808  1.00  0.00     0.074 A 
ATOM     51  C   UNL A   1      46.275  31.084  31.263  1.00  0.00     0.029 A 
ATOM     52  N   UNL A   1      45.012  29.495  30.354  1.00  0.00    -0.354 N 
ATOM     53  N   UNL A   1      44.466  26.796  29.310  1.00  0.00    -0.248 NA
ATOM     54  C   UNL A   1      45.212  24.661  28.720  1.00  0.00     0.031 C 
ATOM     55  C   UNL A   1      47.068  29.951  31.056  1.00  0.00     0.029 A 
ATOM     56  C   UNL A   1      46.276  28.953  30.511  1.00  0.00     0.049 A 
ATOM     57  H   UNL A   1      44.236  29.019  29.978  1.00  0.00     0.167 HD
ATOM     58  C   UNL A   1      45.816  26.681  29.625  1.00  0.00     0.074 A 
ATOM     59  C   UNL A   1      46.214  25.336  29.266  1.00  0.00     0.031 C 
ATOM     60  C   UNL A   1      46.649  27.605  30.162  1.00  0.00     0.037 A 
BRANCH  47  61
ATOM     61  C   UNL A   1      44.018  33.094  31.244  1.00  0.00     0.058 A 
ATOM     62  C   UNL A   1      43.896  33.444  32.599  1.00  0.00     0.135 A 
ATOM     63  C   UNL A   1      44.354  34.111  30.336  1.00  0.00     0.135 A 
ATOM     64  F   UNL A   1      43.560  32.516  33.509  1.00  0.00    -0.206 F 
ATOM     65  C   UNL A   1      44.076  34.754  33.033  1.00  0.00     0.059 A 
ATOM     66  C   UNL A   1      44.567  35.423  30.751  1.00  0.00     0.059 A 
ATOM     67  F   UNL A   1      44.483  33.835  29.029  1.00  0.00    -0.206 F 
ATOM     68  C   UNL A   1      44.414  35.736  32.101  1.00  0.00     0.060 A 
BRANCH  68  69
ATOM     69  S   UNL A   1      44.664  37.427  32.684  1.00  0.00     0.124 S 
ATOM     70  O   UNL A   1      43.373  37.716  33.300  1.00  0.00    -0.237 OA
ATOM     71  O   UNL A   1      45.785  37.277  33.606  1.00  0.00    -0.237 OA
ATOM     72  O   UNL A   1      44.957  38.169  31.461  1.00  0.00    -0.744 OA
ENDBRANCH  68  69
ENDBRANCH  47  61
BRANCH  48  73
ATOM     73  C   UNL A   1      42.566  23.821  27.765  1.00  0.00     0.058 A 
ATOM     74  C   UNL A   1      42.392  22.713  28.609  1.00  0.00     0.135 A 
ATOM     75  C   UNL A   1      42.543  23.597  26.380  1.00  0.00     0.135 A 
ATOM     76  F   UNL A   1      42.409  22.875  29.940  1.00  0.00    -0.206 F 
ATOM     77  C   UNL A   1      42.223  21.429  28.101  1.00  0.00     0.059 A 
ATOM     78  C   UNL A   1      42.350  22.326  25.848  1.00  0.00     0.059 A 
ATOM     79  F   UNL A   1      42.686  24.625  25.530  1.00  0.00    -0.206 F 
ATOM     80  C   UNL A   1      42.205  21.245  26.717  1.00  0.00     0.060 A 
BRANCH  80  81
ATOM     81  S   UNL A   1      41.954  19.579  26.067  1.00  0.00     0.124 S 
ATOM     82  O   UNL A   1      42.786  19.602  24.871  1.00  0.00    -0.237 OA
ATOM     83  O   UNL A   1      42.435  18.745  27.164  1.00  0.00    -0.237 OA
ATOM     84  O   UNL A   1      40.513  19.525  25.834  1.00  0.00    -0.744 OA
ENDBRANCH  80  81
ENDBRANCH  48  73
BRANCH  60  85
ATOM     85  C   UNL A   1      48.065  27.184  30.435  1.00  0.00     0.058 A 
ATOM     86  C   UNL A   1      49.093  27.399  29.504  1.00  0.00     0.135 A 
ATOM     87  C   UNL A   1      48.407  26.609  31.670  1.00  0.00     0.135 A 
ATOM     88  F   UNL A   1      48.818  27.940  28.307  1.00  0.00    -0.206 F 
ATOM     89  C   UNL A   1      50.408  27.039  29.780  1.00  0.00     0.059 A 
ATOM     90  C   UNL A   1      49.720  26.267  31.978  1.00  0.00     0.059 A 
ATOM     91  F   UNL A   1      47.462  26.391  32.600  1.00  0.00    -0.206 F 
ATOM     92  C   UNL A   1      50.712  26.477  31.021  1.00  0.00     0.060 A 
BRANCH  92  93
ATOM     93  S   UNL A   1      52.428  26.050  31.382  1.00  0.00     0.124 S 
ATOM     94  O   UNL A   1      52.822  27.141  32.268  1.00  0.00    -0.237 OA
ATOM     95  O   UNL A   1      52.300  24.739  32.010  1.00  0.00    -0.237 OA
ATOM     96  O   UNL A   1      53.062  26.049  30.067  1.00  0.00    -0.744 OA
ENDBRANCH  92  93
ENDBRANCH  60  85
ENDBRANCH  34  35
ENDBRANCH  26  29
ENDBRANCH  24  25
ENDBRANCH   1  24
TORSDOF 16
ENDMDL
MODEL 3
REMARK VINA RESULT:     -11.7      4.954      6.335
REMARK SMILES COc1cc(OC)cc(-c2cnc(Cl)c(C(=O)NCCCNC(=O)c3ccc(-c4c5nc(c(-c6c(F)cc(S(=O)(=O)[O-])cc6F)c6ccc([nH]6)c(-c6c(F)cc(S(=O)(=O)[O-])cc6F)c6nc(c(-c7c(F)cc(S(=O)(=O)[O-])cc7F)c7ccc4[nH]7)C=C6)C=C5)cc3)c2)c1
REMARK SMILES IDX 20 1 19 2 18 3 16 4 17 5 15 7 10 8 11 9 91 10 12 11 13 12
REMARK SMILES IDX 14 13 9 14 3 15 4 16 92 17 5 18 8 19 2 20 1 21 6 22 7 23
REMARK SMILES IDX 21 24 22 25 23 26 24 28 25 29 26 30 90 31 27 32 89 33 28 34
REMARK SMILES IDX 29 35 30 36 83 37 31 38 88 39 82 40 84 41 32 42 87 43 81 44
REMARK SMILES IDX 80 45 33 47 67 48 46 49 66 50 47 51 50 52 65 53 85 54 48 55
REMARK SMILES IDX 49 56 64 58 86 59 51 60 34 61 35 62 44 63 36 64 37 65 43 66
REMARK SMILES IDX 45 67 38 68 39 69 40 70 41 71 42 72 68 73 69 74 78 75 70 76
REMARK SMILES IDX 71 77 77 78 79 79 72 80 73 81 74 82 75 83 76 84 52 85 53 86
REMARK SMILES IDX 62 87 54 88 55 89 61 90 63 91 56 92 57 93 58 94 59 95 60 96
REMARK H PARENT 18 6 22 27 84 46 50 57
REMARK Flexibility Score: inf
ROOT
ATOM      1  C   UNL A   1      33.252  27.574  26.526  1.00  0.00     0.042 C 
ENDROOT
BRANCH   1   2
ATOM      2  C   UNL A   1      31.769  27.946  26.474  1.00  0.00     0.118 C 
BRANCH   2   3
ATOM      3  N   UNL A   1      30.958  26.783  26.770  1.00  0.00    -0.352 N 
ATOM      4  C   UNL A   1      30.692  25.610  26.124  1.00  0.00     0.254 C 
ATOM      5  O   UNL A   1      29.840  24.897  26.667  1.00  0.00    -0.269 OA
ATOM      6  H   UNL A   1      30.491  26.855  27.634  1.00  0.00     0.163 HD
BRANCH   4   7
ATOM      7  C   UNL A   1      31.382  25.058  24.928  1.00  0.00     0.077 A 
ATOM      8  C   UNL A   1      32.615  23.077  24.136  1.00  0.00     0.001 A 
ATOM      9  C   UNL A   1      32.671  23.682  22.892  1.00  0.00     0.121 A 
ATOM     10  C   UNL A   1      31.993  23.804  25.158  1.00  0.00     0.027 A 
ATOM     11  N   UNL A   1      32.112  24.875  22.617  1.00  0.00    -0.243 NA
ATOM     12  C   UNL A   1      31.439  25.508  23.616  1.00  0.00     0.141 A 
ATOM     13  Cl  UNL A   1      30.548  26.790  22.916  1.00  0.00    -0.061 Cl
BRANCH   8  14
ATOM     14  C   UNL A   1      33.143  21.731  24.353  1.00  0.00    -0.009 A 
ATOM     15  C   UNL A   1      35.021  20.253  24.808  1.00  0.00     0.123 A 
ATOM     16  C   UNL A   1      34.141  19.168  24.824  1.00  0.00     0.092 A 
ATOM     17  C   UNL A   1      34.520  21.530  24.561  1.00  0.00     0.055 A 
ATOM     18  C   UNL A   1      32.773  19.345  24.612  1.00  0.00     0.123 A 
ATOM     19  C   UNL A   1      32.278  20.628  24.386  1.00  0.00     0.055 A 
BRANCH  15  20
ATOM     20  O   UNL A   1      36.334  19.937  25.027  1.00  0.00    -0.497 OA
ATOM     21  C   UNL A   1      37.287  20.971  24.807  1.00  0.00     0.278 C 
ENDBRANCH  15  20
BRANCH  18  22
ATOM     22  O   UNL A   1      32.022  18.202  24.658  1.00  0.00    -0.497 OA
ATOM     23  C   UNL A   1      32.668  17.037  25.157  1.00  0.00     0.278 C 
ENDBRANCH  18  22
ENDBRANCH   8  14
ENDBRANCH   4   7
ENDBRANCH   2   3
ENDBRANCH   1   2
BRANCH   1  24
ATOM     24  C   UNL A   1      34.167  28.577  25.837  1.00  0.00     0.118 C 
BRANCH  24  25
ATOM     25  N   UNL A   1      33.855  29.942  26.229  1.00  0.00    -0.352 N 
ATOM     26  C   UNL A   1      34.366  30.692  27.258  1.00  0.00     0.251 C 
ATOM     27  H   UNL A   1      33.179  30.394  25.675  1.00  0.00     0.163 HD
ATOM     28  O   UNL A   1      33.774  31.718  27.601  1.00  0.00    -0.269 OA
BRANCH  26  29
ATOM     29  C   UNL A   1      35.608  30.287  27.955  1.00  0.00     0.039 A 
ATOM     30  C   UNL A   1      36.838  30.473  27.315  1.00  0.00     0.014 A 
ATOM     31  C   UNL A   1      35.567  29.673  29.211  1.00  0.00     0.014 A 
ATOM     32  C   UNL A   1      38.021  30.087  27.951  1.00  0.00     0.010 A 
ATOM     33  C   UNL A   1      36.749  29.363  29.876  1.00  0.00     0.010 A 
ATOM     34  C   UNL A   1      37.988  29.552  29.249  1.00  0.00    -0.014 A 
BRANCH  34  35
ATOM     35  C   UNL A   1      39.234  29.163  29.958  1.00  0.00     0.031 A 
ATOM     36  C   UNL A   1      39.664  29.912  31.193  1.00  0.00     0.074 A 
ATOM     37  C   UNL A   1      40.012  28.183  29.453  1.00  0.00     0.049 A 
ATOM     38  N   UNL A   1      40.758  29.785  31.899  1.00  0.00    -0.248 NA
ATOM     39  C   UNL A   1      38.756  30.963  31.683  1.00  0.00     0.031 C 
ATOM     40  C   UNL A   1      39.726  27.421  28.236  1.00  0.00     0.029 A 
ATOM     41  N   UNL A   1      41.207  27.671  29.891  1.00  0.00    -0.354 N 
ATOM     42  C   UNL A   1      40.680  30.750  32.898  1.00  0.00     0.074 A 
ATOM     43  C   UNL A   1      39.455  31.487  32.679  1.00  0.00     0.031 C 
ATOM     44  C   UNL A   1      40.709  26.528  28.035  1.00  0.00     0.029 A 
ATOM     45  C   UNL A   1      41.712  26.679  29.083  1.00  0.00     0.049 A 
ATOM     46  H   UNL A   1      41.661  27.984  30.707  1.00  0.00     0.167 HD
ATOM     47  C   UNL A   1      41.541  30.984  33.916  1.00  0.00     0.037 A 
ATOM     48  C   UNL A   1      42.859  25.979  29.172  1.00  0.00     0.037 A 
ATOM     49  C   UNL A   1      42.740  30.219  34.148  1.00  0.00     0.049 A 
ATOM     50  C   UNL A   1      43.790  26.245  30.324  1.00  0.00     0.074 A 
ATOM     51  C   UNL A   1      43.646  30.333  35.187  1.00  0.00     0.029 A 
ATOM     52  N   UNL A   1      43.196  29.196  33.329  1.00  0.00    -0.354 N 
ATOM     53  N   UNL A   1      43.670  27.121  31.295  1.00  0.00    -0.248 NA
ATOM     54  C   UNL A   1      45.008  25.426  30.400  1.00  0.00     0.031 C 
ATOM     55  C   UNL A   1      44.671  29.406  34.975  1.00  0.00     0.029 A 
ATOM     56  C   UNL A   1      44.379  28.681  33.831  1.00  0.00     0.049 A 
ATOM     57  H   UNL A   1      42.745  28.883  32.511  1.00  0.00     0.167 HD
ATOM     58  C   UNL A   1      44.780  26.937  32.112  1.00  0.00     0.074 A 
ATOM     59  C   UNL A   1      45.554  25.861  31.527  1.00  0.00     0.031 C 
ATOM     60  C   UNL A   1      45.127  27.598  33.243  1.00  0.00     0.037 A 
BRANCH  47  61
ATOM     61  C   UNL A   1      41.217  32.104  34.867  1.00  0.00     0.058 A 
ATOM     62  C   UNL A   1      40.373  31.913  35.972  1.00  0.00     0.135 A 
ATOM     63  C   UNL A   1      41.797  33.373  34.701  1.00  0.00     0.135 A 
ATOM     64  F   UNL A   1      39.778  30.726  36.171  1.00  0.00    -0.206 F 
ATOM     65  C   UNL A   1      40.094  32.944  36.864  1.00  0.00     0.059 A 
ATOM     66  C   UNL A   1      41.555  34.411  35.597  1.00  0.00     0.059 A 
ATOM     67  F   UNL A   1      42.612  33.613  33.662  1.00  0.00    -0.206 F 
ATOM     68  C   UNL A   1      40.693  34.189  36.669  1.00  0.00     0.060 A 
BRANCH  68  69
ATOM     69  S   UNL A   1      40.336  35.511  37.846  1.00  0.00     0.124 S 
ATOM     70  O   UNL A   1      39.296  34.898  38.666  1.00  0.00    -0.237 OA
ATOM     71  O   UNL A   1      41.627  35.703  38.501  1.00  0.00    -0.237 OA
ATOM     72  O   UNL A   1      39.897  36.614  36.997  1.00  0.00    -0.744 OA
ENDBRANCH  68  69
ENDBRANCH  47  61
BRANCH  48  73
ATOM     73  C   UNL A   1      43.182  24.944  28.152  1.00  0.00     0.058 A 
ATOM     74  C   UNL A   1      43.855  25.284  26.969  1.00  0.00     0.135 A 
ATOM     75  C   UNL A   1      42.832  23.599  28.342  1.00  0.00     0.135 A 
ATOM     76  F   UNL A   1      44.209  26.557  26.740  1.00  0.00    -0.206 F 
ATOM     77  C   UNL A   1      44.150  24.331  25.998  1.00  0.00     0.059 A 
ATOM     78  C   UNL A   1      43.140  22.624  27.398  1.00  0.00     0.059 A 
ATOM     79  F   UNL A   1      42.205  23.218  29.465  1.00  0.00    -0.206 F 
ATOM     80  C   UNL A   1      43.787  23.002  26.223  1.00  0.00     0.060 A 
BRANCH  80  81
ATOM     81  S   UNL A   1      44.203  21.767  24.972  1.00  0.00     0.124 S 
ATOM     82  O   UNL A   1      43.218  20.728  25.247  1.00  0.00    -0.237 OA
ATOM     83  O   UNL A   1      44.016  22.512  23.731  1.00  0.00    -0.237 OA
ATOM     84  O   UNL A   1      45.587  21.426  25.287  1.00  0.00    -0.744 OA
ENDBRANCH  80  81
ENDBRANCH  48  73
BRANCH  60  85
ATOM     85  C   UNL A   1      46.376  27.153  33.949  1.00  0.00     0.058 A 
ATOM     86  C   UNL A   1      47.628  27.716  33.662  1.00  0.00     0.135 A 
ATOM     87  C   UNL A   1      46.306  26.189  34.969  1.00  0.00     0.135 A 
ATOM     88  F   UNL A   1      47.749  28.636  32.692  1.00  0.00    -0.206 F 
ATOM     89  C   UNL A   1      48.774  27.323  34.346  1.00  0.00     0.059 A 
ATOM     90  C   UNL A   1      47.434  25.802  35.685  1.00  0.00     0.059 A 
ATOM     91  F   UNL A   1      45.130  25.627  35.290  1.00  0.00    -0.206 F 
ATOM     92  C   UNL A   1      48.666  26.368  35.358  1.00  0.00     0.060 A 
BRANCH  92  93
ATOM     93  S   UNL A   1      50.153  25.896  36.266  1.00  0.00     0.124 S 
ATOM     94  O   UNL A   1      50.042  24.441  36.277  1.00  0.00    -0.237 OA
ATOM     95  O   UNL A   1      51.217  26.443  35.430  1.00  0.00    -0.237 OA
ATOM     96  O   UNL A   1      49.983  26.549  37.560  1.00  0.00    -0.744 OA
ENDBRANCH  92  93
ENDBRANCH  60  85
ENDBRANCH  34  35
ENDBRANCH  26  29
ENDBRANCH  24  25
ENDBRANCH   1  24
TORSDOF 16
ENDMDL
