MODEL 1
REMARK VINA RESULT:     -12.9      0.000      0.000
REMARK SMILES O=C(NCCCNC(=O)c1cccc(NC(=O)c2cc3ccccc3[nH]2)c1)c1ccc(-c2c3nc(c(-c4c(F)cc(S(=O)(=O)[O-])cc4F)c4ccc([nH]4)c(-c4c(F)cc(S(=O)(=O)[O-])cc4F)c4nc(c(-c5c(F)cc(S(=O)(=O)[O-])cc5F)c5ccc2[nH]5)C=C4)C=C3)cc1
REMARK SMILES IDX 4 1 3 2 1 3 2 4 28 6 29 7 93 8 30 9 92 10 31 11 32 12 33 13
REMARK SMILES IDX 86 14 34 15 91 16 85 17 87 18 35 19 90 20 84 21 83 22 36 24
REMARK SMILES IDX 70 25 49 26 69 27 50 28 53 29 68 30 88 31 51 32 52 33 67 35
REMARK SMILES IDX 89 36 54 37 37 38 38 39 47 40 39 41 40 42 46 43 48 44 41 45
REMARK SMILES IDX 42 46 43 47 44 48 45 49 71 50 72 51 81 52 73 53 74 54 80 55
REMARK SMILES IDX 82 56 75 57 76 58 77 59 78 60 79 61 55 62 56 63 65 64 57 65
REMARK SMILES IDX 58 66 64 67 66 68 59 69 60 70 61 71 62 72 63 73 5 74 6 75
REMARK SMILES IDX 7 76 8 77 9 79 10 80 11 81 27 82 12 83 14 84 13 85 15 86
REMARK SMILES IDX 16 87 17 89 18 90 19 91 26 92 20 93 25 94 21 96 24 97 22 98
REMARK SMILES IDX 23 99
REMARK H PARENT 3 5 87 23 53 34 7 78 15 88 26 95
REMARK Flexibility Score: inf
ROOT
ATOM      1  C   UNL A   1      38.106  24.196  26.448  1.00  0.00     0.118 C 
ENDROOT
BRANCH   1   2
ATOM      2  N   UNL A   1      39.515  24.124  26.083  1.00  0.00    -0.352 N 
ATOM      3  O   UNL A   1      41.666  24.755  25.929  1.00  0.00    -0.269 OA
ATOM      4  C   UNL A   1      40.585  24.883  26.497  1.00  0.00     0.251 C 
ATOM      5  H   UNL A   1      39.737  23.418  25.434  1.00  0.00     0.163 HD
BRANCH   4   6
ATOM      6  C   UNL A   1      40.436  25.861  27.598  1.00  0.00     0.039 A 
ATOM      7  C   UNL A   1      41.205  27.023  27.636  1.00  0.00     0.014 A 
ATOM      8  C   UNL A   1      39.487  25.625  28.599  1.00  0.00     0.014 A 
ATOM      9  C   UNL A   1      41.159  27.850  28.751  1.00  0.00     0.010 A 
ATOM     10  C   UNL A   1      39.364  26.516  29.671  1.00  0.00     0.010 A 
ATOM     11  C   UNL A   1      40.226  27.618  29.774  1.00  0.00    -0.014 A 
BRANCH  11  12
ATOM     12  C   UNL A   1      40.140  28.583  30.902  1.00  0.00     0.031 A 
ATOM     13  C   UNL A   1      41.074  28.497  32.078  1.00  0.00     0.074 A 
ATOM     14  C   UNL A   1      39.231  29.576  30.831  1.00  0.00     0.049 A 
ATOM     15  N   UNL A   1      41.154  29.282  33.122  1.00  0.00    -0.248 NA
ATOM     16  C   UNL A   1      42.036  27.384  32.094  1.00  0.00     0.031 C 
ATOM     17  C   UNL A   1      38.259  29.749  29.745  1.00  0.00     0.029 A 
ATOM     18  N   UNL A   1      38.985  30.635  31.665  1.00  0.00    -0.354 N 
ATOM     19  C   UNL A   1      42.155  28.752  33.928  1.00  0.00     0.074 A 
ATOM     20  C   UNL A   1      42.640  27.562  33.261  1.00  0.00     0.031 C 
ATOM     21  C   UNL A   1      37.566  30.878  29.951  1.00  0.00     0.029 A 
ATOM     22  C   UNL A   1      37.994  31.473  31.212  1.00  0.00     0.049 A 
ATOM     23  H   UNL A   1      39.473  30.782  32.508  1.00  0.00     0.167 HD
ATOM     24  C   UNL A   1      42.630  29.220  35.107  1.00  0.00     0.037 A 
ATOM     25  C   UNL A   1      37.474  32.590  31.753  1.00  0.00     0.037 A 
ATOM     26  C   UNL A   1      42.154  30.418  35.753  1.00  0.00     0.049 A 
ATOM     27  C   UNL A   1      38.018  33.086  33.061  1.00  0.00     0.074 A 
ATOM     28  C   UNL A   1      42.592  30.992  36.934  1.00  0.00     0.029 A 
ATOM     29  N   UNL A   1      41.132  31.226  35.274  1.00  0.00    -0.354 N 
ATOM     30  N   UNL A   1      38.982  32.581  33.793  1.00  0.00    -0.248 NA
ATOM     31  C   UNL A   1      37.402  34.295  33.619  1.00  0.00     0.031 C 
ATOM     32  C   UNL A   1      41.812  32.124  37.188  1.00  0.00     0.029 A 
ATOM     33  C   UNL A   1      40.915  32.282  36.145  1.00  0.00     0.049 A 
ATOM     34  H   UNL A   1      40.635  31.070  34.439  1.00  0.00     0.167 HD
ATOM     35  C   UNL A   1      39.095  33.419  34.896  1.00  0.00     0.074 A 
ATOM     36  C   UNL A   1      38.115  34.472  34.722  1.00  0.00     0.031 C 
ATOM     37  C   UNL A   1      39.932  33.320  35.957  1.00  0.00     0.037 A 
BRANCH  24  38
ATOM     38  C   UNL A   1      43.713  28.429  35.791  1.00  0.00     0.058 A 
ATOM     39  C   UNL A   1      43.415  27.391  36.688  1.00  0.00     0.135 A 
ATOM     40  C   UNL A   1      45.065  28.683  35.510  1.00  0.00     0.135 A 
ATOM     41  F   UNL A   1      42.141  27.114  37.004  1.00  0.00    -0.206 F 
ATOM     42  C   UNL A   1      44.421  26.649  37.301  1.00  0.00     0.059 A 
ATOM     43  C   UNL A   1      46.087  27.939  36.093  1.00  0.00     0.059 A 
ATOM     44  F   UNL A   1      45.405  29.663  34.658  1.00  0.00    -0.206 F 
ATOM     45  C   UNL A   1      45.754  26.932  36.998  1.00  0.00     0.060 A 
BRANCH  45  46
ATOM     46  S   UNL A   1      47.048  25.959  37.799  1.00  0.00     0.124 S 
ATOM     47  O   UNL A   1      46.530  24.603  37.644  1.00  0.00    -0.237 OA
ATOM     48  O   UNL A   1      48.225  26.281  36.998  1.00  0.00    -0.237 OA
ATOM     49  O   UNL A   1      47.064  26.472  39.165  1.00  0.00    -0.744 OA
ENDBRANCH  45  46
ENDBRANCH  24  38
BRANCH  25  50
ATOM     50  C   UNL A   1      36.379  33.306  31.050  1.00  0.00     0.058 A 
ATOM     51  C   UNL A   1      35.074  33.317  31.564  1.00  0.00     0.135 A 
ATOM     52  C   UNL A   1      36.626  34.028  29.872  1.00  0.00     0.135 A 
ATOM     53  F   UNL A   1      34.789  32.639  32.686  1.00  0.00    -0.206 F 
ATOM     54  C   UNL A   1      34.049  34.011  30.929  1.00  0.00     0.059 A 
ATOM     55  C   UNL A   1      35.624  34.750  29.234  1.00  0.00     0.059 A 
ATOM     56  F   UNL A   1      37.863  34.065  29.353  1.00  0.00    -0.206 F 
ATOM     57  C   UNL A   1      34.335  34.728  29.766  1.00  0.00     0.060 A 
BRANCH  57  58
ATOM     58  S   UNL A   1      33.015  35.676  28.981  1.00  0.00     0.124 S 
ATOM     59  O   UNL A   1      32.382  34.661  28.148  1.00  0.00    -0.237 OA
ATOM     60  O   UNL A   1      32.240  36.135  30.129  1.00  0.00    -0.237 OA
ATOM     61  O   UNL A   1      33.736  36.724  28.264  1.00  0.00    -0.744 OA
ENDBRANCH  57  58
ENDBRANCH  25  50
BRANCH  37  62
ATOM     62  C   UNL A   1      39.835  34.395  37.003  1.00  0.00     0.058 A 
ATOM     63  C   UNL A   1      40.562  35.591  36.896  1.00  0.00     0.135 A 
ATOM     64  C   UNL A   1      38.984  34.238  38.108  1.00  0.00     0.135 A 
ATOM     65  F   UNL A   1      41.396  35.785  35.862  1.00  0.00    -0.206 F 
ATOM     66  C   UNL A   1      40.470  36.584  37.865  1.00  0.00     0.059 A 
ATOM     67  C   UNL A   1      38.858  35.229  39.076  1.00  0.00     0.059 A 
ATOM     68  F   UNL A   1      38.262  33.116  38.251  1.00  0.00    -0.206 F 
ATOM     69  C   UNL A   1      39.616  36.393  38.953  1.00  0.00     0.060 A 
BRANCH  69  70
ATOM     70  S   UNL A   1      39.488  37.696  40.195  1.00  0.00     0.124 S 
ATOM     71  O   UNL A   1      39.075  36.941  41.372  1.00  0.00    -0.237 OA
ATOM     72  O   UNL A   1      40.845  38.234  40.229  1.00  0.00    -0.237 OA
ATOM     73  O   UNL A   1      38.479  38.595  39.640  1.00  0.00    -0.744 OA
ENDBRANCH  69  70
ENDBRANCH  37  62
ENDBRANCH  11  12
ENDBRANCH   4   6
ENDBRANCH   1   2
BRANCH   1  74
ATOM     74  C   UNL A   1      37.178  23.762  25.324  1.00  0.00     0.042 C 
BRANCH  74  75
ATOM     75  C   UNL A   1      35.849  23.199  25.800  1.00  0.00     0.118 C 
BRANCH  75  76
ATOM     76  N   UNL A   1      35.604  21.839  25.327  1.00  0.00    -0.352 N 
ATOM     77  C   UNL A   1      34.446  21.229  24.896  1.00  0.00     0.251 C 
ATOM     78  H   UNL A   1      36.400  21.260  25.314  1.00  0.00     0.163 HD
ATOM     79  O   UNL A   1      34.419  20.020  24.708  1.00  0.00    -0.269 OA
BRANCH  77  80
ATOM     80  C   UNL A   1      33.230  22.033  24.650  1.00  0.00     0.041 A 
ATOM     81  C   UNL A   1      32.345  22.313  25.688  1.00  0.00     0.014 A 
ATOM     82  C   UNL A   1      32.982  22.533  23.375  1.00  0.00     0.040 A 
ATOM     83  C   UNL A   1      31.259  23.162  25.451  1.00  0.00     0.003 A 
ATOM     84  C   UNL A   1      31.967  23.468  23.162  1.00  0.00     0.042 A 
ATOM     85  C   UNL A   1      31.081  23.762  24.195  1.00  0.00     0.026 A 
BRANCH  84  86
ATOM     86  N   UNL A   1      32.080  24.164  21.956  1.00  0.00    -0.321 N 
ATOM     87  C   UNL A   1      32.843  25.212  21.552  1.00  0.00     0.272 C 
ATOM     88  H   UNL A   1      31.483  23.821  21.252  1.00  0.00     0.170 HD
ATOM     89  O   UNL A   1      33.153  25.237  20.359  1.00  0.00    -0.267 OA
BRANCH  87  90
ATOM     90  C   UNL A   1      33.078  26.350  22.397  1.00  0.00     0.105 A 
ATOM     91  C   UNL A   1      32.189  27.368  22.707  1.00  0.00     0.042 A 
ATOM     92  N   UNL A   1      33.949  26.278  23.468  1.00  0.00    -0.351 N 
ATOM     93  C   UNL A   1      32.154  27.401  24.136  1.00  0.00     0.000 A 
ATOM     94  C   UNL A   1      33.231  26.641  24.591  1.00  0.00     0.046 A 
ATOM     95  H   UNL A   1      34.899  26.018  23.436  1.00  0.00     0.167 HD
ATOM     96  C   UNL A   1      31.207  27.862  25.067  1.00  0.00     0.010 A 
ATOM     97  C   UNL A   1      33.394  26.273  25.929  1.00  0.00     0.026 A 
ATOM     98  C   UNL A   1      31.317  27.450  26.400  1.00  0.00     0.001 A 
ATOM     99  C   UNL A   1      32.387  26.659  26.819  1.00  0.00     0.002 A 
ENDBRANCH  87  90
ENDBRANCH  84  86
ENDBRANCH  77  80
ENDBRANCH  75  76
ENDBRANCH  74  75
ENDBRANCH   1  74
TORSDOF 15
ENDMDL
MODEL 2
REMARK VINA RESULT:     -12.9      4.923      9.771
REMARK SMILES O=C(NCCCNC(=O)c1cccc(NC(=O)c2cc3ccccc3[nH]2)c1)c1ccc(-c2c3nc(c(-c4c(F)cc(S(=O)(=O)[O-])cc4F)c4ccc([nH]4)c(-c4c(F)cc(S(=O)(=O)[O-])cc4F)c4nc(c(-c5c(F)cc(S(=O)(=O)[O-])cc5F)c5ccc2[nH]5)C=C4)C=C3)cc1
REMARK SMILES IDX 4 1 3 2 1 3 2 4 28 6 29 7 93 8 30 9 92 10 31 11 32 12 33 13
REMARK SMILES IDX 86 14 34 15 91 16 85 17 87 18 35 19 90 20 84 21 83 22 36 24
REMARK SMILES IDX 70 25 49 26 69 27 50 28 53 29 68 30 88 31 51 32 52 33 67 35
REMARK SMILES IDX 89 36 54 37 37 38 38 39 47 40 39 41 40 42 46 43 48 44 41 45
REMARK SMILES IDX 42 46 43 47 44 48 45 49 71 50 72 51 81 52 73 53 74 54 80 55
REMARK SMILES IDX 82 56 75 57 76 58 77 59 78 60 79 61 55 62 56 63 65 64 57 65
REMARK SMILES IDX 58 66 64 67 66 68 59 69 60 70 61 71 62 72 63 73 5 74 6 75
REMARK SMILES IDX 7 76 8 77 9 79 10 80 11 81 27 82 12 83 14 84 13 85 15 86
REMARK SMILES IDX 16 87 17 89 18 90 19 91 26 92 20 93 25 94 21 96 24 97 22 98
REMARK SMILES IDX 23 99
REMARK H PARENT 3 5 87 23 53 34 7 78 15 88 26 95
REMARK Flexibility Score: inf
ROOT
ATOM      1  C   UNL A   1      34.187  27.926  26.620  1.00  0.00     0.118 C 
ENDROOT
BRANCH   1   2
ATOM      2  N   UNL A   1      33.846  29.262  27.091  1.00  0.00    -0.352 N 
ATOM      3  O   UNL A   1      34.016  31.166  28.273  1.00  0.00    -0.269 OA
ATOM      4  C   UNL A   1      34.568  30.154  27.849  1.00  0.00     0.251 C 
ATOM      5  H   UNL A   1      32.953  29.577  26.823  1.00  0.00     0.163 HD
BRANCH   4   6
ATOM      6  C   UNL A   1      35.988  29.892  28.174  1.00  0.00     0.039 A 
ATOM      7  C   UNL A   1      36.996  30.143  27.244  1.00  0.00     0.014 A 
ATOM      8  C   UNL A   1      36.322  29.410  29.445  1.00  0.00     0.014 A 
ATOM      9  C   UNL A   1      38.301  29.750  27.512  1.00  0.00     0.010 A 
ATOM     10  C   UNL A   1      37.655  29.115  29.753  1.00  0.00     0.010 A 
ATOM     11  C   UNL A   1      38.652  29.248  28.775  1.00  0.00    -0.014 A 
BRANCH  11  12
ATOM     12  C   UNL A   1      40.077  28.934  29.054  1.00  0.00     0.031 A 
ATOM     13  C   UNL A   1      40.677  27.610  28.664  1.00  0.00     0.074 A 
ATOM     14  C   UNL A   1      40.844  29.880  29.630  1.00  0.00     0.049 A 
ATOM     15  N   UNL A   1      41.910  27.195  28.803  1.00  0.00    -0.248 NA
ATOM     16  C   UNL A   1      39.780  26.620  28.048  1.00  0.00     0.031 C 
ATOM     17  C   UNL A   1      40.367  31.197  30.069  1.00  0.00     0.029 A 
ATOM     18  N   UNL A   1      42.183  29.902  29.924  1.00  0.00    -0.354 N 
ATOM     19  C   UNL A   1      41.937  25.894  28.313  1.00  0.00     0.074 A 
ATOM     20  C   UNL A   1      40.588  25.579  27.893  1.00  0.00     0.031 C 
ATOM     21  C   UNL A   1      41.405  31.914  30.520  1.00  0.00     0.029 A 
ATOM     22  C   UNL A   1      42.608  31.091  30.466  1.00  0.00     0.049 A 
ATOM     23  H   UNL A   1      42.782  29.138  29.762  1.00  0.00     0.167 HD
ATOM     24  C   UNL A   1      42.990  25.048  28.215  1.00  0.00     0.037 A 
ATOM     25  C   UNL A   1      43.826  31.478  30.887  1.00  0.00     0.037 A 
ATOM     26  C   UNL A   1      44.335  25.378  28.618  1.00  0.00     0.049 A 
ATOM     27  C   UNL A   1      44.975  30.519  30.769  1.00  0.00     0.074 A 
ATOM     28  C   UNL A   1      45.476  24.600  28.530  1.00  0.00     0.029 A 
ATOM     29  N   UNL A   1      44.720  26.585  29.185  1.00  0.00    -0.354 N 
ATOM     30  N   UNL A   1      44.981  29.302  30.280  1.00  0.00    -0.248 NA
ATOM     31  C   UNL A   1      46.276  30.982  31.263  1.00  0.00     0.031 C 
ATOM     32  C   UNL A   1      46.542  25.320  29.077  1.00  0.00     0.029 A 
ATOM     33  C   UNL A   1      46.076  26.565  29.468  1.00  0.00     0.049 A 
ATOM     34  H   UNL A   1      44.117  27.343  29.361  1.00  0.00     0.167 HD
ATOM     35  C   UNL A   1      46.291  28.856  30.398  1.00  0.00     0.074 A 
ATOM     36  C   UNL A   1      47.051  29.941  30.986  1.00  0.00     0.031 C 
ATOM     37  C   UNL A   1      46.815  27.654  30.056  1.00  0.00     0.037 A 
BRANCH  24  38
ATOM     38  C   UNL A   1      42.734  23.670  27.664  1.00  0.00     0.058 A 
ATOM     39  C   UNL A   1      42.772  23.407  26.286  1.00  0.00     0.135 A 
ATOM     40  C   UNL A   1      42.490  22.591  28.529  1.00  0.00     0.135 A 
ATOM     41  F   UNL A   1      42.987  24.403  25.413  1.00  0.00    -0.206 F 
ATOM     42  C   UNL A   1      42.555  22.127  25.784  1.00  0.00     0.059 A 
ATOM     43  C   UNL A   1      42.292  21.300  28.052  1.00  0.00     0.059 A 
ATOM     44  F   UNL A   1      42.443  22.787  29.857  1.00  0.00    -0.206 F 
ATOM     45  C   UNL A   1      42.313  21.080  26.675  1.00  0.00     0.060 A 
BRANCH  45  46
ATOM     46  S   UNL A   1      42.036  19.424  26.009  1.00  0.00     0.124 S 
ATOM     47  O   UNL A   1      42.463  18.587  27.126  1.00  0.00    -0.237 OA
ATOM     48  O   UNL A   1      40.602  19.431  25.736  1.00  0.00    -0.237 OA
ATOM     49  O   UNL A   1      42.894  19.383  24.830  1.00  0.00    -0.744 OA
ENDBRANCH  45  46
ENDBRANCH  24  38
BRANCH  25  50
ATOM     50  C   UNL A   1      44.009  32.836  31.459  1.00  0.00     0.058 A 
ATOM     51  C   UNL A   1      44.282  33.938  30.636  1.00  0.00     0.135 A 
ATOM     52  C   UNL A   1      43.874  33.065  32.838  1.00  0.00     0.135 A 
ATOM     53  F   UNL A   1      44.422  33.769  29.313  1.00  0.00    -0.206 F 
ATOM     54  C   UNL A   1      44.424  35.219  31.160  1.00  0.00     0.059 A 
ATOM     55  C   UNL A   1      43.985  34.339  33.381  1.00  0.00     0.059 A 
ATOM     56  F   UNL A   1      43.593  32.045  33.664  1.00  0.00    -0.206 F 
ATOM     57  C   UNL A   1      44.270  35.410  32.535  1.00  0.00     0.060 A 
BRANCH  57  58
ATOM     58  S   UNL A   1      44.394  37.083  33.201  1.00  0.00     0.124 S 
ATOM     59  O   UNL A   1      44.901  37.819  32.049  1.00  0.00    -0.237 OA
ATOM     60  O   UNL A   1      43.014  37.366  33.583  1.00  0.00    -0.237 OA
ATOM     61  O   UNL A   1      45.325  36.931  34.315  1.00  0.00    -0.744 OA
ENDBRANCH  57  58
ENDBRANCH  25  50
BRANCH  37  62
ATOM     62  C   UNL A   1      48.287  27.461  30.290  1.00  0.00     0.058 A 
ATOM     63  C   UNL A   1      48.776  26.944  31.500  1.00  0.00     0.135 A 
ATOM     64  C   UNL A   1      49.215  27.772  29.284  1.00  0.00     0.135 A 
ATOM     65  F   UNL A   1      47.929  26.639  32.496  1.00  0.00    -0.206 F 
ATOM     66  C   UNL A   1      50.138  26.766  31.714  1.00  0.00     0.059 A 
ATOM     67  C   UNL A   1      50.580  27.579  29.468  1.00  0.00     0.059 A 
ATOM     68  F   UNL A   1      48.796  28.262  28.106  1.00  0.00    -0.206 F 
ATOM     69  C   UNL A   1      51.034  27.089  30.692  1.00  0.00     0.060 A 
BRANCH  69  70
ATOM     70  S   UNL A   1      52.798  26.837  30.972  1.00  0.00     0.124 S 
ATOM     71  O   UNL A   1      52.789  25.753  31.948  1.00  0.00    -0.237 OA
ATOM     72  O   UNL A   1      53.282  26.486  29.639  1.00  0.00    -0.237 OA
ATOM     73  O   UNL A   1      53.250  28.131  31.474  1.00  0.00    -0.744 OA
ENDBRANCH  69  70
ENDBRANCH  37  62
ENDBRANCH  11  12
ENDBRANCH   4   6
ENDBRANCH   1   2
BRANCH   1  74
ATOM     74  C   UNL A   1      33.152  27.348  25.668  1.00  0.00     0.042 C 
BRANCH  74  75
ATOM     75  C   UNL A   1      33.599  27.307  24.216  1.00  0.00     0.118 C 
BRANCH  75  76
ATOM     76  N   UNL A   1      32.506  27.548  23.277  1.00  0.00    -0.352 N 
ATOM     77  C   UNL A   1      31.762  26.673  22.516  1.00  0.00     0.251 C 
ATOM     78  H   UNL A   1      32.261  28.496  23.168  1.00  0.00     0.163 HD
ATOM     79  O   UNL A   1      31.004  27.097  21.653  1.00  0.00    -0.269 OA
BRANCH  77  80
ATOM     80  C   UNL A   1      31.866  25.216  22.745  1.00  0.00     0.041 A 
ATOM     81  C   UNL A   1      32.764  24.448  22.009  1.00  0.00     0.014 A 
ATOM     82  C   UNL A   1      31.076  24.614  23.719  1.00  0.00     0.040 A 
ATOM     83  C   UNL A   1      32.918  23.092  22.317  1.00  0.00     0.003 A 
ATOM     84  C   UNL A   1      31.305  23.291  24.105  1.00  0.00     0.042 A 
ATOM     85  C   UNL A   1      32.208  22.516  23.383  1.00  0.00     0.026 A 
BRANCH  84  86
ATOM     86  N   UNL A   1      30.726  22.949  25.329  1.00  0.00    -0.321 N 
ATOM     87  C   UNL A   1      31.087  23.154  26.622  1.00  0.00     0.272 C 
ATOM     88  H   UNL A   1      29.879  22.456  25.233  1.00  0.00     0.170 HD
ATOM     89  O   UNL A   1      30.168  23.264  27.436  1.00  0.00    -0.267 OA
BRANCH  87  90
ATOM     90  C   UNL A   1      32.447  23.012  27.062  1.00  0.00     0.105 A 
ATOM     91  C   UNL A   1      33.207  21.853  27.090  1.00  0.00     0.042 A 
ATOM     92  N   UNL A   1      33.352  24.048  26.932  1.00  0.00    -0.351 N 
ATOM     93  C   UNL A   1      34.389  22.172  26.353  1.00  0.00     0.000 A 
ATOM     94  C   UNL A   1      34.416  23.558  26.199  1.00  0.00     0.046 A 
ATOM     95  H   UNL A   1      33.258  24.960  27.292  1.00  0.00     0.167 HD
ATOM     96  C   UNL A   1      35.332  21.393  25.659  1.00  0.00     0.010 A 
ATOM     97  C   UNL A   1      35.311  24.215  25.349  1.00  0.00     0.026 A 
ATOM     98  C   UNL A   1      36.194  22.026  24.755  1.00  0.00     0.001 A 
ATOM     99  C   UNL A   1      36.172  23.412  24.596  1.00  0.00     0.002 A 
ENDBRANCH  87  90
ENDBRANCH  84  86
ENDBRANCH  77  80
ENDBRANCH  75  76
ENDBRANCH  74  75
ENDBRANCH   1  74
TORSDOF 15
ENDMDL
MODEL 3
REMARK VINA RESULT:     -12.7      6.767     12.091
REMARK SMILES O=C(NCCCNC(=O)c1cccc(NC(=O)c2cc3ccccc3[nH]2)c1)c1ccc(-c2c3nc(c(-c4c(F)cc(S(=O)(=O)[O-])cc4F)c4ccc([nH]4)c(-c4c(F)cc(S(=O)(=O)[O-])cc4F)c4nc(c(-c5c(F)cc(S(=O)(=O)[O-])cc5F)c5ccc2[nH]5)C=C4)C=C3)cc1
REMARK SMILES IDX 4 1 3 2 1 3 2 4 28 6 29 7 93 8 30 9 92 10 31 11 32 12 33 13
REMARK SMILES IDX 86 14 34 15 91 16 85 17 87 18 35 19 90 20 84 21 83 22 36 24
REMARK SMILES IDX 70 25 49 26 69 27 50 28 53 29 68 30 88 31 51 32 52 33 67 35
REMARK SMILES IDX 89 36 54 37 37 38 38 39 47 40 39 41 40 42 46 43 48 44 41 45
REMARK SMILES IDX 42 46 43 47 44 48 45 49 71 50 72 51 81 52 73 53 74 54 80 55
REMARK SMILES IDX 82 56 75 57 76 58 77 59 78 60 79 61 55 62 56 63 65 64 57 65
REMARK SMILES IDX 58 66 64 67 66 68 59 69 60 70 61 71 62 72 63 73 5 74 6 75
REMARK SMILES IDX 7 76 8 77 9 79 10 80 11 81 27 82 12 83 14 84 13 85 15 86
REMARK SMILES IDX 16 87 17 89 18 90 19 91 26 92 20 93 25 94 21 96 24 97 22 98
REMARK SMILES IDX 23 99
REMARK H PARENT 3 5 87 23 53 34 7 78 15 88 26 95
REMARK Flexibility Score: inf
ROOT
ATOM      1  C   UNL A   1      35.195  29.256  27.453  1.00  0.00     0.118 C 
ENDROOT
BRANCH   1   2
ATOM      2  N   UNL A   1      35.180  29.908  28.756  1.00  0.00    -0.352 N 
ATOM      3  O   UNL A   1      35.919  30.548  30.779  1.00  0.00    -0.269 OA
ATOM      4  C   UNL A   1      36.194  30.120  29.661  1.00  0.00     0.251 C 
ATOM      5  H   UNL A   1      34.301  30.253  29.034  1.00  0.00     0.163 HD
BRANCH   4   6
ATOM      6  C   UNL A   1      37.598  29.817  29.306  1.00  0.00     0.039 A 
ATOM      7  C   UNL A   1      38.037  29.892  27.985  1.00  0.00     0.014 A 
ATOM      8  C   UNL A   1      38.502  29.477  30.319  1.00  0.00     0.014 A 
ATOM      9  C   UNL A   1      39.314  29.458  27.652  1.00  0.00     0.010 A 
ATOM     10  C   UNL A   1      39.823  29.144  29.995  1.00  0.00     0.010 A 
ATOM     11  C   UNL A   1      40.230  29.096  28.653  1.00  0.00    -0.014 A 
BRANCH  11  12
ATOM     12  C   UNL A   1      41.618  28.735  28.263  1.00  0.00     0.031 A 
ATOM     13  C   UNL A   1      42.727  29.750  28.291  1.00  0.00     0.074 A 
ATOM     14  C   UNL A   1      41.878  27.458  27.920  1.00  0.00     0.049 A 
ATOM     15  N   UNL A   1      43.997  29.587  28.017  1.00  0.00    -0.248 NA
ATOM     16  C   UNL A   1      42.371  31.128  28.666  1.00  0.00     0.031 C 
ATOM     17  C   UNL A   1      40.876  26.389  27.839  1.00  0.00     0.029 A 
ATOM     18  N   UNL A   1      43.054  26.831  27.601  1.00  0.00    -0.354 N 
ATOM     19  C   UNL A   1      44.587  30.837  28.165  1.00  0.00     0.074 A 
ATOM     20  C   UNL A   1      43.531  31.756  28.532  1.00  0.00     0.031 C 
ATOM     21  C   UNL A   1      41.488  25.232  27.551  1.00  0.00     0.029 A 
ATOM     22  C   UNL A   1      42.912  25.484  27.362  1.00  0.00     0.049 A 
ATOM     23  H   UNL A   1      43.918  27.300  27.550  1.00  0.00     0.167 HD
ATOM     24  C   UNL A   1      45.889  31.181  28.016  1.00  0.00     0.037 A 
ATOM     25  C   UNL A   1      43.821  24.554  27.016  1.00  0.00     0.037 A 
ATOM     26  C   UNL A   1      46.937  30.253  27.670  1.00  0.00     0.049 A 
ATOM     27  C   UNL A   1      45.256  24.964  26.856  1.00  0.00     0.074 A 
ATOM     28  C   UNL A   1      48.292  30.499  27.527  1.00  0.00     0.029 A 
ATOM     29  N   UNL A   1      46.749  28.903  27.412  1.00  0.00    -0.354 N 
ATOM     30  N   UNL A   1      45.795  26.147  27.024  1.00  0.00    -0.248 NA
ATOM     31  C   UNL A   1      46.202  23.917  26.456  1.00  0.00     0.031 C 
ATOM     32  C   UNL A   1      48.917  29.307  27.146  1.00  0.00     0.029 A 
ATOM     33  C   UNL A   1      47.959  28.308  27.093  1.00  0.00     0.049 A 
ATOM     34  H   UNL A   1      45.883  28.437  27.449  1.00  0.00     0.167 HD
ATOM     35  C   UNL A   1      47.149  25.984  26.760  1.00  0.00     0.074 A 
ATOM     36  C   UNL A   1      47.347  24.585  26.441  1.00  0.00     0.031 C 
ATOM     37  C   UNL A   1      48.137  26.913  26.775  1.00  0.00     0.037 A 
BRANCH  24  38
ATOM     38  C   UNL A   1      46.259  32.627  28.212  1.00  0.00     0.058 A 
ATOM     39  C   UNL A   1      46.728  33.109  29.444  1.00  0.00     0.135 A 
ATOM     40  C   UNL A   1      46.184  33.532  27.141  1.00  0.00     0.135 A 
ATOM     41  F   UNL A   1      46.807  32.292  30.505  1.00  0.00    -0.206 F 
ATOM     42  C   UNL A   1      47.088  34.443  29.613  1.00  0.00     0.059 A 
ATOM     43  C   UNL A   1      46.559  34.865  27.281  1.00  0.00     0.059 A 
ATOM     44  F   UNL A   1      45.742  33.124  25.941  1.00  0.00    -0.206 F 
ATOM     45  C   UNL A   1      46.998  35.314  28.526  1.00  0.00     0.060 A 
BRANCH  45  46
ATOM     46  S   UNL A   1      47.472  37.042  28.760  1.00  0.00     0.124 S 
ATOM     47  O   UNL A   1      46.320  37.737  28.191  1.00  0.00    -0.237 OA
ATOM     48  O   UNL A   1      47.614  37.135  30.209  1.00  0.00    -0.237 OA
ATOM     49  O   UNL A   1      48.713  37.160  28.002  1.00  0.00    -0.744 OA
ENDBRANCH  45  46
ENDBRANCH  24  38
BRANCH  25  50
ATOM     50  C   UNL A   1      43.389  23.150  26.797  1.00  0.00     0.058 A 
ATOM     51  C   UNL A   1      43.344  22.598  25.509  1.00  0.00     0.135 A 
ATOM     52  C   UNL A   1      43.051  22.321  27.879  1.00  0.00     0.135 A 
ATOM     53  F   UNL A   1      43.656  23.352  24.444  1.00  0.00    -0.206 F 
ATOM     54  C   UNL A   1      42.971  21.274  25.299  1.00  0.00     0.059 A 
ATOM     55  C   UNL A   1      42.700  20.989  27.695  1.00  0.00     0.059 A 
ATOM     56  F   UNL A   1      43.098  22.798  29.132  1.00  0.00    -0.206 F 
ATOM     57  C   UNL A   1      42.654  20.476  26.400  1.00  0.00     0.060 A 
BRANCH  57  58
ATOM     58  S   UNL A   1      42.230  18.744  26.125  1.00  0.00     0.124 S 
ATOM     59  O   UNL A   1      42.490  18.167  27.439  1.00  0.00    -0.237 OA
ATOM     60  O   UNL A   1      40.826  18.828  25.731  1.00  0.00    -0.237 OA
ATOM     61  O   UNL A   1      43.146  18.339  25.064  1.00  0.00    -0.744 OA
ENDBRANCH  57  58
ENDBRANCH  25  50
BRANCH  37  62
ATOM     62  C   UNL A   1      49.526  26.434  26.456  1.00  0.00     0.058 A 
ATOM     63  C   UNL A   1      50.047  26.508  25.155  1.00  0.00     0.135 A 
ATOM     64  C   UNL A   1      50.352  25.922  27.469  1.00  0.00     0.135 A 
ATOM     65  F   UNL A   1      49.293  26.982  24.151  1.00  0.00    -0.206 F 
ATOM     66  C   UNL A   1      51.332  26.065  24.864  1.00  0.00     0.059 A 
ATOM     67  C   UNL A   1      51.649  25.496  27.204  1.00  0.00     0.059 A 
ATOM     68  F   UNL A   1      49.902  25.838  28.731  1.00  0.00    -0.206 F 
ATOM     69  C   UNL A   1      52.126  25.558  25.895  1.00  0.00     0.060 A 
BRANCH  69  70
ATOM     70  S   UNL A   1      53.799  25.003  25.510  1.00  0.00     0.124 S 
ATOM     71  O   UNL A   1      54.502  25.309  26.750  1.00  0.00    -0.237 OA
ATOM     72  O   UNL A   1      53.603  23.585  25.225  1.00  0.00    -0.237 OA
ATOM     73  O   UNL A   1      54.171  25.821  24.359  1.00  0.00    -0.744 OA
ENDBRANCH  69  70
ENDBRANCH  37  62
ENDBRANCH  11  12
ENDBRANCH   4   6
ENDBRANCH   1   2
BRANCH   1  74
ATOM     74  C   UNL A   1      33.871  28.595  27.104  1.00  0.00     0.042 C 
BRANCH  74  75
ATOM     75  C   UNL A   1      33.665  28.369  25.615  1.00  0.00     0.118 C 
BRANCH  75  76
ATOM     76  N   UNL A   1      32.455  29.009  25.103  1.00  0.00    -0.352 N 
ATOM     77  C   UNL A   1      31.489  28.547  24.237  1.00  0.00     0.251 C 
ATOM     78  H   UNL A   1      32.305  29.924  25.433  1.00  0.00     0.163 HD
ATOM     79  O   UNL A   1      30.641  29.311  23.794  1.00  0.00    -0.269 OA
BRANCH  77  80
ATOM     80  C   UNL A   1      31.464  27.122  23.843  1.00  0.00     0.041 A 
ATOM     81  C   UNL A   1      32.288  26.657  22.821  1.00  0.00     0.014 A 
ATOM     82  C   UNL A   1      30.627  26.236  24.514  1.00  0.00     0.040 A 
ATOM     83  C   UNL A   1      32.321  25.287  22.538  1.00  0.00     0.003 A 
ATOM     84  C   UNL A   1      30.739  24.859  24.313  1.00  0.00     0.042 A 
ATOM     85  C   UNL A   1      31.567  24.381  23.301  1.00  0.00     0.026 A 
BRANCH  84  86
ATOM     86  N   UNL A   1      30.137  24.089  25.311  1.00  0.00    -0.321 N 
ATOM     87  C   UNL A   1      30.568  23.603  26.504  1.00  0.00     0.272 C 
ATOM     88  H   UNL A   1      29.203  23.849  25.106  1.00  0.00     0.170 HD
ATOM     89  O   UNL A   1      29.715  23.476  27.384  1.00  0.00    -0.267 OA
BRANCH  87  90
ATOM     90  C   UNL A   1      31.881  23.045  26.665  1.00  0.00     0.105 A 
ATOM     91  C   UNL A   1      32.401  21.920  26.043  1.00  0.00     0.042 A 
ATOM     92  N   UNL A   1      32.969  23.846  26.954  1.00  0.00    -0.351 N 
ATOM     93  C   UNL A   1      33.610  22.368  25.426  1.00  0.00     0.000 A 
ATOM     94  C   UNL A   1      33.905  23.622  25.961  1.00  0.00     0.046 A 
ATOM     95  H   UNL A   1      33.061  24.460  27.719  1.00  0.00     0.167 HD
ATOM     96  C   UNL A   1      34.372  21.897  24.342  1.00  0.00     0.010 A 
ATOM     97  C   UNL A   1      34.896  24.460  25.443  1.00  0.00     0.026 A 
ATOM     98  C   UNL A   1      35.325  22.747  23.769  1.00  0.00     0.001 A 
ATOM     99  C   UNL A   1      35.571  24.012  24.305  1.00  0.00     0.002 A 
ENDBRANCH  87  90
ENDBRANCH  84  86
ENDBRANCH  77  80
ENDBRANCH  75  76
ENDBRANCH  74  75
ENDBRANCH   1  74
TORSDOF 15
ENDMDL
