MODEL 1
REMARK VINA RESULT:     -14.3      0.000      0.000
REMARK SMILES Cc1cccc(-n2c(C)cc(/C=N\c3ccc(O)c(C(=O)NCCCNC(=O)c4ccc(-c5c6nc(c(-c7c(F)cc(S(=O)(=O)[O-])cc7F)c7ccc([nH]7)c(-c7c(F)cc(S(=O)(=O)[O-])cc7F)c7nc(c(-c8c(F)cc(S(=O)(=O)[O-])cc8F)c8ccc5[nH]8)C=C7)C=C6)cc4)c3)c2C)c1
REMARK SMILES IDX 24 1 23 2 22 3 20 4 21 5 19 7 14 8 15 9 95 10 16 11 17 12
REMARK SMILES IDX 13 13 12 14 11 15 7 16 8 17 96 18 9 19 10 20 97 21 6 22 1 23
REMARK SMILES IDX 2 24 3 25 98 26 4 27 5 28 18 29 25 31 26 32 27 33 28 35
REMARK SMILES IDX 29 36 30 37 94 38 31 39 93 40 32 41 33 42 34 43 87 44 35 45
REMARK SMILES IDX 92 46 86 47 88 48 36 49 91 50 85 51 84 52 37 54 71 55 50 56
REMARK SMILES IDX 70 57 51 58 54 59 69 60 89 61 52 62 53 63 68 65 90 66 55 67
REMARK SMILES IDX 38 68 39 69 48 70 40 71 41 72 47 73 49 74 42 75 43 76 44 77
REMARK SMILES IDX 45 78 46 79 72 80 73 81 82 82 74 83 75 84 81 85 83 86 76 87
REMARK SMILES IDX 77 88 78 89 79 90 80 91 56 92 57 93 66 94 58 95 59 96 65 97
REMARK SMILES IDX 67 98 60 99 61 100 62 101 63 102 64 103
REMARK H PARENT 22 6 18 30 26 34 88 53 54 64
REMARK Flexibility Score: inf
ROOT
ATOM      1  C   UNL A   1      32.895  29.810  27.251  1.00  0.00     0.042 C 
ENDROOT
BRANCH   1   2
ATOM      2  C   UNL A   1      32.223  30.097  25.913  1.00  0.00     0.118 C 
BRANCH   2   3
ATOM      3  N   UNL A   1      33.090  29.826  24.774  1.00  0.00    -0.352 N 
ATOM      4  C   UNL A   1      33.134  28.941  23.731  1.00  0.00     0.255 C 
ATOM      5  O   UNL A   1      34.057  29.148  22.931  1.00  0.00    -0.269 OA
ATOM      6  H   UNL A   1      33.852  30.448  24.749  1.00  0.00     0.163 HD
BRANCH   4   7
ATOM      7  C   UNL A   1      32.218  27.786  23.440  1.00  0.00     0.083 A 
ATOM      8  C   UNL A   1      30.528  26.309  24.468  1.00  0.00     0.064 A 
ATOM      9  C   UNL A   1      30.373  25.622  23.272  1.00  0.00     0.032 A 
ATOM     10  C   UNL A   1      31.338  27.455  24.498  1.00  0.00     0.046 A 
ATOM     11  C   UNL A   1      31.191  25.943  22.200  1.00  0.00     0.049 A 
ATOM     12  C   UNL A   1      32.160  26.949  22.324  1.00  0.00     0.128 A 
BRANCH   8  13
ATOM     13  N   UNL A   1      29.930  25.866  25.650  1.00  0.00    -0.256 NA
ATOM     14  C   UNL A   1      30.383  24.849  26.328  1.00  0.00     0.121 C 
BRANCH  14  15
ATOM     15  C   UNL A   1      31.521  23.958  26.077  1.00  0.00     0.014 A 
ATOM     16  N   UNL A   1      33.527  23.031  25.580  1.00  0.00    -0.318 N 
ATOM     17  C   UNL A   1      32.641  21.987  25.797  1.00  0.00     0.021 A 
ATOM     18  C   UNL A   1      32.885  24.221  25.938  1.00  0.00     0.029 A 
ATOM     19  C   UNL A   1      33.043  20.553  25.814  1.00  0.00     0.065 C 
ATOM     20  C   UNL A   1      31.403  22.537  26.061  1.00  0.00     0.033 A 
ATOM     21  C   UNL A   1      33.620  25.511  26.047  1.00  0.00     0.065 C 
BRANCH  16  22
ATOM     22  C   UNL A   1      34.830  22.912  25.010  1.00  0.00     0.046 A 
ATOM     23  C   UNL A   1      38.346  21.972  26.164  1.00  0.00     0.044 C 
ATOM     24  C   UNL A   1      37.179  22.342  25.297  1.00  0.00    -0.049 A 
ATOM     25  C   UNL A   1      37.336  22.353  23.905  1.00  0.00     0.003 A 
ATOM     26  C   UNL A   1      35.920  22.626  25.849  1.00  0.00     0.030 A 
ATOM     27  C   UNL A   1      36.266  22.682  23.076  1.00  0.00     0.002 A 
ATOM     28  C   UNL A   1      35.020  22.975  23.627  1.00  0.00     0.026 A 
ENDBRANCH  16  22
ENDBRANCH  14  15
ENDBRANCH   8  13
BRANCH  12  29
ATOM     29  O   UNL A   1      33.106  26.889  21.352  1.00  0.00    -0.507 OA
ATOM     30  H   UNL A   1      33.856  27.449  21.394  1.00  0.00     0.293 HD
ENDBRANCH  12  29
ENDBRANCH   4   7
ENDBRANCH   2   3
ENDBRANCH   1   2
BRANCH   1  31
ATOM     31  C   UNL A   1      34.406  29.720  27.123  1.00  0.00     0.118 C 
BRANCH  31  32
ATOM     32  N   UNL A   1      35.129  30.916  27.565  1.00  0.00    -0.352 N 
ATOM     33  C   UNL A   1      36.313  30.988  28.272  1.00  0.00     0.251 C 
ATOM     34  H   UNL A   1      34.719  31.779  27.327  1.00  0.00     0.163 HD
ATOM     35  O   UNL A   1      36.707  32.050  28.744  1.00  0.00    -0.269 OA
BRANCH  33  36
ATOM     36  C   UNL A   1      37.130  29.758  28.392  1.00  0.00     0.039 A 
ATOM     37  C   UNL A   1      37.242  29.140  29.642  1.00  0.00     0.014 A 
ATOM     38  C   UNL A   1      37.982  29.411  27.350  1.00  0.00     0.014 A 
ATOM     39  C   UNL A   1      38.353  28.339  29.910  1.00  0.00     0.010 A 
ATOM     40  C   UNL A   1      39.147  28.746  27.662  1.00  0.00     0.010 A 
ATOM     41  C   UNL A   1      39.356  28.233  28.951  1.00  0.00    -0.014 A 
BRANCH  41  42
ATOM     42  C   UNL A   1      40.691  27.676  29.182  1.00  0.00     0.031 A 
ATOM     43  C   UNL A   1      40.988  26.282  28.767  1.00  0.00     0.074 A 
ATOM     44  C   UNL A   1      41.701  28.484  29.573  1.00  0.00     0.049 A 
ATOM     45  N   UNL A   1      42.072  25.639  29.038  1.00  0.00    -0.248 NA
ATOM     46  C   UNL A   1      40.033  25.481  28.012  1.00  0.00     0.031 C 
ATOM     47  C   UNL A   1      43.132  28.238  29.423  1.00  0.00     0.029 A 
ATOM     48  N   UNL A   1      41.633  29.631  30.364  1.00  0.00    -0.354 N 
ATOM     49  C   UNL A   1      42.089  24.483  28.288  1.00  0.00     0.074 A 
ATOM     50  C   UNL A   1      40.774  24.418  27.698  1.00  0.00     0.031 C 
ATOM     51  C   UNL A   1      43.803  29.024  30.275  1.00  0.00     0.029 A 
ATOM     52  C   UNL A   1      42.827  29.689  31.116  1.00  0.00     0.049 A 
ATOM     53  H   UNL A   1      40.891  30.278  30.393  1.00  0.00     0.167 HD
ATOM     54  C   UNL A   1      43.254  23.778  28.176  1.00  0.00     0.037 A 
ATOM     55  C   UNL A   1      42.781  29.583  32.479  1.00  0.00     0.037 A 
ATOM     56  C   UNL A   1      44.271  24.305  29.093  1.00  0.00     0.049 A 
ATOM     57  C   UNL A   1      43.376  28.304  33.035  1.00  0.00     0.074 A 
ATOM     58  C   UNL A   1      45.362  25.149  28.963  1.00  0.00     0.029 A 
ATOM     59  N   UNL A   1      44.054  24.175  30.455  1.00  0.00    -0.354 N 
ATOM     60  N   UNL A   1      43.974  27.390  32.321  1.00  0.00    -0.248 NA
ATOM     61  C   UNL A   1      43.272  27.923  34.445  1.00  0.00     0.031 C 
ATOM     62  C   UNL A   1      45.742  25.586  30.268  1.00  0.00     0.029 A 
ATOM     63  C   UNL A   1      44.891  24.997  31.185  1.00  0.00     0.049 A 
ATOM     64  H   UNL A   1      43.386  23.572  30.853  1.00  0.00     0.167 HD
ATOM     65  C   UNL A   1      44.220  26.295  33.105  1.00  0.00     0.074 A 
ATOM     66  C   UNL A   1      43.804  26.689  34.438  1.00  0.00     0.031 C 
ATOM     67  C   UNL A   1      44.685  25.110  32.620  1.00  0.00     0.037 A 
BRANCH  54  68
ATOM     68  C   UNL A   1      43.555  22.743  27.101  1.00  0.00     0.058 A 
ATOM     69  C   UNL A   1      42.815  21.540  27.040  1.00  0.00     0.135 A 
ATOM     70  C   UNL A   1      44.587  22.827  26.144  1.00  0.00     0.135 A 
ATOM     71  F   UNL A   1      41.738  21.342  27.814  1.00  0.00    -0.206 F 
ATOM     72  C   UNL A   1      43.141  20.479  26.189  1.00  0.00     0.059 A 
ATOM     73  C   UNL A   1      44.970  21.762  25.323  1.00  0.00     0.059 A 
ATOM     74  F   UNL A   1      45.237  23.967  25.898  1.00  0.00    -0.206 F 
ATOM     75  C   UNL A   1      44.247  20.583  25.358  1.00  0.00     0.060 A 
BRANCH  75  76
ATOM     76  S   UNL A   1      44.708  19.188  24.317  1.00  0.00     0.124 S 
ATOM     77  O   UNL A   1      46.119  19.013  24.645  1.00  0.00    -0.237 OA
ATOM     78  O   UNL A   1      43.807  18.144  24.793  1.00  0.00    -0.237 OA
ATOM     79  O   UNL A   1      44.443  19.670  22.964  1.00  0.00    -0.744 OA
ENDBRANCH  75  76
ENDBRANCH  54  68
BRANCH  55  80
ATOM     80  C   UNL A   1      41.625  30.328  33.052  1.00  0.00     0.058 A 
ATOM     81  C   UNL A   1      41.760  31.726  33.164  1.00  0.00     0.135 A 
ATOM     82  C   UNL A   1      40.328  29.798  32.998  1.00  0.00     0.135 A 
ATOM     83  F   UNL A   1      42.981  32.278  33.249  1.00  0.00    -0.206 F 
ATOM     84  C   UNL A   1      40.670  32.572  33.010  1.00  0.00     0.059 A 
ATOM     85  C   UNL A   1      39.219  30.631  32.861  1.00  0.00     0.059 A 
ATOM     86  F   UNL A   1      40.142  28.472  32.903  1.00  0.00    -0.206 F 
ATOM     87  C   UNL A   1      39.418  32.009  32.775  1.00  0.00     0.060 A 
BRANCH  87  88
ATOM     88  S   UNL A   1      38.120  33.093  32.133  1.00  0.00     0.124 S 
ATOM     89  O   UNL A   1      38.025  34.110  33.175  1.00  0.00    -0.237 OA
ATOM     90  O   UNL A   1      38.712  33.533  30.872  1.00  0.00    -0.237 OA
ATOM     91  O   UNL A   1      36.971  32.201  32.016  1.00  0.00    -0.744 OA
ENDBRANCH  87  88
ENDBRANCH  55  80
BRANCH  67  92
ATOM     92  C   UNL A   1      44.973  23.948  33.516  1.00  0.00     0.058 A 
ATOM     93  C   UNL A   1      46.283  23.661  33.932  1.00  0.00     0.135 A 
ATOM     94  C   UNL A   1      43.975  23.021  33.873  1.00  0.00     0.135 A 
ATOM     95  F   UNL A   1      47.293  24.489  33.619  1.00  0.00    -0.206 F 
ATOM     96  C   UNL A   1      46.587  22.520  34.670  1.00  0.00     0.059 A 
ATOM     97  C   UNL A   1      44.262  21.856  34.576  1.00  0.00     0.059 A 
ATOM     98  F   UNL A   1      42.688  23.241  33.559  1.00  0.00    -0.206 F 
ATOM     99  C   UNL A   1      45.571  21.620  34.983  1.00  0.00     0.060 A 
BRANCH  99 100
ATOM    100  S   UNL A   1      45.966  20.112  35.892  1.00  0.00     0.124 S 
ATOM    101  O   UNL A   1      45.620  20.462  37.266  1.00  0.00    -0.237 OA
ATOM    102  O   UNL A   1      45.083  19.145  35.247  1.00  0.00    -0.237 OA
ATOM    103  O   UNL A   1      47.392  19.934  35.639  1.00  0.00    -0.744 OA
ENDBRANCH  99 100
ENDBRANCH  67  92
ENDBRANCH  41  42
ENDBRANCH  33  36
ENDBRANCH  31  32
ENDBRANCH   1  31
TORSDOF 17
ENDMDL
MODEL 2
REMARK VINA RESULT:     -13.9      2.082      2.832
REMARK SMILES Cc1cccc(-n2c(C)cc(/C=N\c3ccc(O)c(C(=O)NCCCNC(=O)c4ccc(-c5c6nc(c(-c7c(F)cc(S(=O)(=O)[O-])cc7F)c7ccc([nH]7)c(-c7c(F)cc(S(=O)(=O)[O-])cc7F)c7nc(c(-c8c(F)cc(S(=O)(=O)[O-])cc8F)c8ccc5[nH]8)C=C7)C=C6)cc4)c3)c2C)c1
REMARK SMILES IDX 24 1 23 2 22 3 20 4 21 5 19 7 14 8 15 9 95 10 16 11 17 12
REMARK SMILES IDX 13 13 12 14 11 15 7 16 8 17 96 18 9 19 10 20 97 21 6 22 1 23
REMARK SMILES IDX 2 24 3 25 98 26 4 27 5 28 18 29 25 31 26 32 27 33 28 35
REMARK SMILES IDX 29 36 30 37 94 38 31 39 93 40 32 41 33 42 34 43 87 44 35 45
REMARK SMILES IDX 92 46 86 47 88 48 36 49 91 50 85 51 84 52 37 54 71 55 50 56
REMARK SMILES IDX 70 57 51 58 54 59 69 60 89 61 52 62 53 63 68 65 90 66 55 67
REMARK SMILES IDX 38 68 39 69 48 70 40 71 41 72 47 73 49 74 42 75 43 76 44 77
REMARK SMILES IDX 45 78 46 79 72 80 73 81 82 82 74 83 75 84 81 85 83 86 76 87
REMARK SMILES IDX 77 88 78 89 79 90 80 91 56 92 57 93 66 94 58 95 59 96 65 97
REMARK SMILES IDX 67 98 60 99 61 100 62 101 63 102 64 103
REMARK H PARENT 22 6 18 30 26 34 88 53 54 64
REMARK Flexibility Score: inf
ROOT
ATOM      1  C   UNL A   1      32.706  29.449  25.118  1.00  0.00     0.042 C 
ENDROOT
BRANCH   1   2
ATOM      2  C   UNL A   1      31.333  30.090  24.945  1.00  0.00     0.118 C 
BRANCH   2   3
ATOM      3  N   UNL A   1      30.835  29.999  23.579  1.00  0.00    -0.352 N 
ATOM      4  C   UNL A   1      30.469  29.012  22.705  1.00  0.00     0.255 C 
ATOM      5  O   UNL A   1      30.015  29.429  21.631  1.00  0.00    -0.269 OA
ATOM      6  H   UNL A   1      30.736  30.891  23.173  1.00  0.00     0.163 HD
BRANCH   4   7
ATOM      7  C   UNL A   1      30.539  27.522  22.889  1.00  0.00     0.083 A 
ATOM      8  C   UNL A   1      29.911  25.698  24.431  1.00  0.00     0.064 A 
ATOM      9  C   UNL A   1      30.487  24.760  23.586  1.00  0.00     0.032 A 
ATOM     10  C   UNL A   1      29.825  27.035  24.010  1.00  0.00     0.046 A 
ATOM     11  C   UNL A   1      31.164  25.196  22.457  1.00  0.00     0.049 A 
ATOM     12  C   UNL A   1      31.262  26.565  22.174  1.00  0.00     0.128 A 
BRANCH   8  13
ATOM     13  N   UNL A   1      29.451  25.354  25.703  1.00  0.00    -0.256 NA
ATOM     14  C   UNL A   1      30.118  24.568  26.502  1.00  0.00     0.121 C 
BRANCH  14  15
ATOM     15  C   UNL A   1      31.401  23.881  26.323  1.00  0.00     0.014 A 
ATOM     16  N   UNL A   1      33.544  23.292  25.883  1.00  0.00    -0.318 N 
ATOM     17  C   UNL A   1      32.867  22.132  26.230  1.00  0.00     0.021 A 
ATOM     18  C   UNL A   1      32.692  24.375  26.126  1.00  0.00     0.029 A 
ATOM     19  C   UNL A   1      33.529  20.808  26.391  1.00  0.00     0.065 C 
ATOM     20  C   UNL A   1      31.549  22.470  26.461  1.00  0.00     0.033 A 
ATOM     21  C   UNL A   1      33.174  25.782  26.080  1.00  0.00     0.065 C 
BRANCH  16  22
ATOM     22  C   UNL A   1      34.845  23.353  25.300  1.00  0.00     0.046 A 
ATOM     23  C   UNL A   1      38.457  23.729  26.479  1.00  0.00     0.044 C 
ATOM     24  C   UNL A   1      37.254  23.517  25.608  1.00  0.00    -0.049 A 
ATOM     25  C   UNL A   1      37.435  23.166  24.264  1.00  0.00     0.003 A 
ATOM     26  C   UNL A   1      35.952  23.614  26.124  1.00  0.00     0.030 A 
ATOM     27  C   UNL A   1      36.335  22.954  23.435  1.00  0.00     0.002 A 
ATOM     28  C   UNL A   1      35.043  23.062  23.947  1.00  0.00     0.026 A 
ENDBRANCH  16  22
ENDBRANCH  14  15
ENDBRANCH   8  13
BRANCH  12  29
ATOM     29  O   UNL A   1      32.243  26.847  21.278  1.00  0.00    -0.507 OA
ATOM     30  H   UNL A   1      33.142  26.807  21.540  1.00  0.00     0.293 HD
ENDBRANCH  12  29
ENDBRANCH   4   7
ENDBRANCH   2   3
ENDBRANCH   1   2
BRANCH   1  31
ATOM     31  C   UNL A   1      33.178  29.490  26.561  1.00  0.00     0.118 C 
BRANCH  31  32
ATOM     32  N   UNL A   1      33.442  30.836  27.080  1.00  0.00    -0.352 N 
ATOM     33  C   UNL A   1      34.418  31.232  27.974  1.00  0.00     0.251 C 
ATOM     34  H   UNL A   1      32.848  31.548  26.749  1.00  0.00     0.163 HD
ATOM     35  O   UNL A   1      34.404  32.353  28.472  1.00  0.00    -0.269 OA
BRANCH  33  36
ATOM     36  C   UNL A   1      35.519  30.287  28.268  1.00  0.00     0.039 A 
ATOM     37  C   UNL A   1      35.642  29.774  29.564  1.00  0.00     0.014 A 
ATOM     38  C   UNL A   1      36.555  30.153  27.352  1.00  0.00     0.014 A 
ATOM     39  C   UNL A   1      36.888  29.328  30.007  1.00  0.00     0.010 A 
ATOM     40  C   UNL A   1      37.811  29.856  27.834  1.00  0.00     0.010 A 
ATOM     41  C   UNL A   1      37.992  29.472  29.171  1.00  0.00    -0.014 A 
BRANCH  41  42
ATOM     42  C   UNL A   1      39.389  29.322  29.584  1.00  0.00     0.031 A 
ATOM     43  C   UNL A   1      40.126  28.078  29.247  1.00  0.00     0.074 A 
ATOM     44  C   UNL A   1      40.065  30.383  30.076  1.00  0.00     0.049 A 
ATOM     45  N   UNL A   1      41.305  27.773  29.670  1.00  0.00    -0.248 NA
ATOM     46  C   UNL A   1      39.548  27.043  28.400  1.00  0.00     0.031 C 
ATOM     47  C   UNL A   1      41.514  30.563  30.115  1.00  0.00     0.029 A 
ATOM     48  N   UNL A   1      39.569  31.454  30.821  1.00  0.00    -0.354 N 
ATOM     49  C   UNL A   1      41.751  26.679  28.959  1.00  0.00     0.074 A 
ATOM     50  C   UNL A   1      40.598  26.243  28.210  1.00  0.00     0.031 C 
ATOM     51  C   UNL A   1      41.815  31.500  31.024  1.00  0.00     0.029 A 
ATOM     52  C   UNL A   1      40.588  31.846  31.717  1.00  0.00     0.049 A 
ATOM     53  H   UNL A   1      38.675  31.858  30.739  1.00  0.00     0.167 HD
ATOM     54  C   UNL A   1      43.074  26.342  29.015  1.00  0.00     0.037 A 
ATOM     55  C   UNL A   1      40.400  31.716  33.066  1.00  0.00     0.037 A 
ATOM     56  C   UNL A   1      43.769  27.130  30.038  1.00  0.00     0.049 A 
ATOM     57  C   UNL A   1      41.262  30.658  33.726  1.00  0.00     0.074 A 
ATOM     58  C   UNL A   1      44.578  28.256  30.024  1.00  0.00     0.029 A 
ATOM     59  N   UNL A   1      43.425  26.929  31.364  1.00  0.00    -0.354 N 
ATOM     60  N   UNL A   1      42.185  29.963  33.118  1.00  0.00    -0.248 NA
ATOM     61  C   UNL A   1      41.091  30.248  35.122  1.00  0.00     0.031 C 
ATOM     62  C   UNL A   1      44.645  28.770  31.354  1.00  0.00     0.029 A 
ATOM     63  C   UNL A   1      43.889  27.950  32.172  1.00  0.00     0.049 A 
ATOM     64  H   UNL A   1      42.914  26.154  31.691  1.00  0.00     0.167 HD
ATOM     65  C   UNL A   1      42.632  28.978  33.956  1.00  0.00     0.074 A 
ATOM     66  C   UNL A   1      41.952  29.221  35.215  1.00  0.00     0.031 C 
ATOM     67  C   UNL A   1      43.477  27.983  33.566  1.00  0.00     0.037 A 
BRANCH  54  68
ATOM     68  C   UNL A   1      43.795  25.450  28.014  1.00  0.00     0.058 A 
ATOM     69  C   UNL A   1      43.998  25.886  26.685  1.00  0.00     0.135 A 
ATOM     70  C   UNL A   1      44.253  24.139  28.261  1.00  0.00     0.135 A 
ATOM     71  F   UNL A   1      43.710  27.140  26.308  1.00  0.00    -0.206 F 
ATOM     72  C   UNL A   1      44.502  25.061  25.674  1.00  0.00     0.059 A 
ATOM     73  C   UNL A   1      44.707  23.276  27.260  1.00  0.00     0.059 A 
ATOM     74  F   UNL A   1      44.357  23.644  29.497  1.00  0.00    -0.206 F 
ATOM     75  C   UNL A   1      44.820  23.741  25.962  1.00  0.00     0.060 A 
BRANCH  75  76
ATOM     76  S   UNL A   1      45.399  22.661  24.643  1.00  0.00     0.124 S 
ATOM     77  O   UNL A   1      44.151  22.266  23.999  1.00  0.00    -0.237 OA
ATOM     78  O   UNL A   1      46.259  23.554  23.874  1.00  0.00    -0.237 OA
ATOM     79  O   UNL A   1      46.091  21.591  25.357  1.00  0.00    -0.744 OA
ENDBRANCH  75  76
ENDBRANCH  54  68
BRANCH  55  80
ATOM     80  C   UNL A   1      39.015  32.089  33.468  1.00  0.00     0.058 A 
ATOM     81  C   UNL A   1      38.708  33.464  33.495  1.00  0.00     0.135 A 
ATOM     82  C   UNL A   1      37.954  31.185  33.322  1.00  0.00     0.135 A 
ATOM     83  F   UNL A   1      39.686  34.367  33.663  1.00  0.00    -0.206 F 
ATOM     84  C   UNL A   1      37.439  33.928  33.176  1.00  0.00     0.059 A 
ATOM     85  C   UNL A   1      36.669  31.631  33.017  1.00  0.00     0.059 A 
ATOM     86  F   UNL A   1      38.189  29.863  33.300  1.00  0.00    -0.206 F 
ATOM     87  C   UNL A   1      36.451  32.999  32.857  1.00  0.00     0.060 A 
BRANCH  87  88
ATOM     88  S   UNL A   1      34.970  33.607  32.016  1.00  0.00     0.124 S 
ATOM     89  O   UNL A   1      34.431  34.552  32.987  1.00  0.00    -0.237 OA
ATOM     90  O   UNL A   1      35.548  34.199  30.810  1.00  0.00    -0.237 OA
ATOM     91  O   UNL A   1      34.183  32.396  31.810  1.00  0.00    -0.744 OA
ENDBRANCH  87  88
ENDBRANCH  55  80
BRANCH  67  92
ATOM     92  C   UNL A   1      43.970  26.944  34.522  1.00  0.00     0.058 A 
ATOM     93  C   UNL A   1      45.304  26.938  34.960  1.00  0.00     0.135 A 
ATOM     94  C   UNL A   1      43.163  25.861  34.921  1.00  0.00     0.135 A 
ATOM     95  F   UNL A   1      46.140  27.928  34.611  1.00  0.00    -0.206 F 
ATOM     96  C   UNL A   1      45.810  25.915  35.758  1.00  0.00     0.059 A 
ATOM     97  C   UNL A   1      43.659  24.809  35.684  1.00  0.00     0.059 A 
ATOM     98  F   UNL A   1      41.863  25.811  34.588  1.00  0.00    -0.206 F 
ATOM     99  C   UNL A   1      44.982  24.851  36.110  1.00  0.00     0.060 A 
BRANCH  99 100
ATOM    100  S   UNL A   1      45.647  23.495  37.098  1.00  0.00     0.124 S 
ATOM    101  O   UNL A   1      45.172  22.312  36.385  1.00  0.00    -0.237 OA
ATOM    102  O   UNL A   1      47.081  23.749  37.011  1.00  0.00    -0.237 OA
ATOM    103  O   UNL A   1      45.043  23.711  38.409  1.00  0.00    -0.744 OA
ENDBRANCH  99 100
ENDBRANCH  67  92
ENDBRANCH  41  42
ENDBRANCH  33  36
ENDBRANCH  31  32
ENDBRANCH   1  31
TORSDOF 17
ENDMDL
MODEL 3
REMARK VINA RESULT:     -13.9      1.101      1.812
REMARK SMILES Cc1cccc(-n2c(C)cc(/C=N\c3ccc(O)c(C(=O)NCCCNC(=O)c4ccc(-c5c6nc(c(-c7c(F)cc(S(=O)(=O)[O-])cc7F)c7ccc([nH]7)c(-c7c(F)cc(S(=O)(=O)[O-])cc7F)c7nc(c(-c8c(F)cc(S(=O)(=O)[O-])cc8F)c8ccc5[nH]8)C=C7)C=C6)cc4)c3)c2C)c1
REMARK SMILES IDX 24 1 23 2 22 3 20 4 21 5 19 7 14 8 15 9 95 10 16 11 17 12
REMARK SMILES IDX 13 13 12 14 11 15 7 16 8 17 96 18 9 19 10 20 97 21 6 22 1 23
REMARK SMILES IDX 2 24 3 25 98 26 4 27 5 28 18 29 25 31 26 32 27 33 28 35
REMARK SMILES IDX 29 36 30 37 94 38 31 39 93 40 32 41 33 42 34 43 87 44 35 45
REMARK SMILES IDX 92 46 86 47 88 48 36 49 91 50 85 51 84 52 37 54 71 55 50 56
REMARK SMILES IDX 70 57 51 58 54 59 69 60 89 61 52 62 53 63 68 65 90 66 55 67
REMARK SMILES IDX 38 68 39 69 48 70 40 71 41 72 47 73 49 74 42 75 43 76 44 77
REMARK SMILES IDX 45 78 46 79 72 80 73 81 82 82 74 83 75 84 81 85 83 86 76 87
REMARK SMILES IDX 77 88 78 89 79 90 80 91 56 92 57 93 66 94 58 95 59 96 65 97
REMARK SMILES IDX 67 98 60 99 61 100 62 101 63 102 64 103
REMARK H PARENT 22 6 18 30 26 34 88 53 54 64
REMARK Flexibility Score: inf
ROOT
ATOM      1  C   UNL A   1      32.958  29.687  27.150  1.00  0.00     0.042 C 
ENDROOT
BRANCH   1   2
ATOM      2  C   UNL A   1      32.239  30.071  25.861  1.00  0.00     0.118 C 
BRANCH   2   3
ATOM      3  N   UNL A   1      33.057  29.860  24.673  1.00  0.00    -0.352 N 
ATOM      4  C   UNL A   1      33.082  29.002  23.608  1.00  0.00     0.255 C 
ATOM      5  O   UNL A   1      33.953  29.262  22.768  1.00  0.00    -0.269 OA
ATOM      6  H   UNL A   1      33.792  30.513  24.624  1.00  0.00     0.163 HD
BRANCH   4   7
ATOM      7  C   UNL A   1      32.197  27.818  23.336  1.00  0.00     0.083 A 
ATOM      8  C   UNL A   1      30.545  26.314  24.387  1.00  0.00     0.064 A 
ATOM      9  C   UNL A   1      30.411  25.602  23.204  1.00  0.00     0.032 A 
ATOM     10  C   UNL A   1      31.324  27.482  24.398  1.00  0.00     0.046 A 
ATOM     11  C   UNL A   1      31.223  25.926  22.127  1.00  0.00     0.049 A 
ATOM     12  C   UNL A   1      32.164  26.959  22.235  1.00  0.00     0.128 A 
BRANCH   8  13
ATOM     13  N   UNL A   1      29.956  25.876  25.575  1.00  0.00    -0.256 NA
ATOM     14  C   UNL A   1      30.429  24.877  26.267  1.00  0.00     0.121 C 
BRANCH  14  15
ATOM     15  C   UNL A   1      31.582  24.004  26.027  1.00  0.00     0.014 A 
ATOM     16  N   UNL A   1      33.607  23.108  25.545  1.00  0.00    -0.318 N 
ATOM     17  C   UNL A   1      32.736  22.050  25.762  1.00  0.00     0.021 A 
ATOM     18  C   UNL A   1      32.943  24.289  25.894  1.00  0.00     0.029 A 
ATOM     19  C   UNL A   1      33.163  20.623  25.788  1.00  0.00     0.065 C 
ATOM     20  C   UNL A   1      31.488  22.581  26.016  1.00  0.00     0.033 A 
ATOM     21  C   UNL A   1      33.656  25.591  26.001  1.00  0.00     0.065 C 
BRANCH  16  22
ATOM     22  C   UNL A   1      34.915  23.007  24.983  1.00  0.00     0.046 A 
ATOM     23  C   UNL A   1      38.445  22.166  26.170  1.00  0.00     0.044 C 
ATOM     24  C   UNL A   1      37.275  22.495  25.291  1.00  0.00    -0.049 A 
ATOM     25  C   UNL A   1      37.438  22.485  23.900  1.00  0.00     0.003 A 
ATOM     26  C   UNL A   1      36.007  22.761  25.832  1.00  0.00     0.030 A 
ATOM     27  C   UNL A   1      36.366  22.777  23.060  1.00  0.00     0.002 A 
ATOM     28  C   UNL A   1      35.110  23.052  23.600  1.00  0.00     0.026 A 
ENDBRANCH  16  22
ENDBRANCH  14  15
ENDBRANCH   8  13
BRANCH  12  29
ATOM     29  O   UNL A   1      33.114  26.908  21.266  1.00  0.00    -0.507 OA
ATOM     30  H   UNL A   1      33.542  27.694  20.989  1.00  0.00     0.293 HD
ENDBRANCH  12  29
ENDBRANCH   4   7
ENDBRANCH   2   3
ENDBRANCH   1   2
BRANCH   1  31
ATOM     31  C   UNL A   1      34.467  29.690  26.985  1.00  0.00     0.118 C 
BRANCH  31  32
ATOM     32  N   UNL A   1      35.139  30.876  27.523  1.00  0.00    -0.352 N 
ATOM     33  C   UNL A   1      36.324  30.942  28.230  1.00  0.00     0.251 C 
ATOM     34  H   UNL A   1      34.688  31.737  27.360  1.00  0.00     0.163 HD
ATOM     35  O   UNL A   1      36.672  31.978  28.788  1.00  0.00    -0.269 OA
BRANCH  33  36
ATOM     36  C   UNL A   1      37.196  29.746  28.243  1.00  0.00     0.039 A 
ATOM     37  C   UNL A   1      37.310  29.004  29.425  1.00  0.00     0.014 A 
ATOM     38  C   UNL A   1      38.087  29.549  27.195  1.00  0.00     0.014 A 
ATOM     39  C   UNL A   1      38.452  28.231  29.639  1.00  0.00     0.010 A 
ATOM     40  C   UNL A   1      39.276  28.910  27.468  1.00  0.00     0.010 A 
ATOM     41  C   UNL A   1      39.480  28.273  28.702  1.00  0.00    -0.014 A 
BRANCH  41  42
ATOM     42  C   UNL A   1      40.834  27.757  28.910  1.00  0.00     0.031 A 
ATOM     43  C   UNL A   1      41.155  26.358  28.530  1.00  0.00     0.074 A 
ATOM     44  C   UNL A   1      41.835  28.601  29.245  1.00  0.00     0.049 A 
ATOM     45  N   UNL A   1      42.262  25.750  28.788  1.00  0.00    -0.248 NA
ATOM     46  C   UNL A   1      40.199  25.510  27.829  1.00  0.00     0.031 C 
ATOM     47  C   UNL A   1      43.267  28.385  29.060  1.00  0.00     0.029 A 
ATOM     48  N   UNL A   1      41.761  29.771  30.002  1.00  0.00    -0.354 N 
ATOM     49  C   UNL A   1      42.286  24.571  28.074  1.00  0.00     0.074 A 
ATOM     50  C   UNL A   1      40.957  24.456  27.526  1.00  0.00     0.031 C 
ATOM     51  C   UNL A   1      43.942  29.214  29.868  1.00  0.00     0.029 A 
ATOM     52  C   UNL A   1      42.974  29.882  30.716  1.00  0.00     0.049 A 
ATOM     53  H   UNL A   1      41.004  30.400  30.033  1.00  0.00     0.167 HD
ATOM     54  C   UNL A   1      43.466  23.892  27.950  1.00  0.00     0.037 A 
ATOM     55  C   UNL A   1      42.970  29.817  32.083  1.00  0.00     0.037 A 
ATOM     56  C   UNL A   1      44.494  24.472  28.819  1.00  0.00     0.049 A 
ATOM     57  C   UNL A   1      43.614  28.572  32.660  1.00  0.00     0.074 A 
ATOM     58  C   UNL A   1      45.560  25.339  28.631  1.00  0.00     0.029 A 
ATOM     59  N   UNL A   1      44.320  24.380  30.190  1.00  0.00    -0.354 N 
ATOM     60  N   UNL A   1      44.214  27.650  31.957  1.00  0.00    -0.248 NA
ATOM     61  C   UNL A   1      43.560  28.233  34.084  1.00  0.00     0.031 C 
ATOM     62  C   UNL A   1      45.966  25.826  29.909  1.00  0.00     0.029 A 
ATOM     63  C   UNL A   1      45.157  25.246  30.870  1.00  0.00     0.049 A 
ATOM     64  H   UNL A   1      43.680  23.774  30.627  1.00  0.00     0.167 HD
ATOM     65  C   UNL A   1      44.510  26.586  32.767  1.00  0.00     0.074 A 
ATOM     66  C   UNL A   1      44.122  27.013  34.099  1.00  0.00     0.031 C 
ATOM     67  C   UNL A   1      44.991  25.399  32.305  1.00  0.00     0.037 A 
BRANCH  54  68
ATOM     68  C   UNL A   1      43.761  22.831  26.899  1.00  0.00     0.058 A 
ATOM     69  C   UNL A   1      43.047  21.611  26.895  1.00  0.00     0.135 A 
ATOM     70  C   UNL A   1      44.765  22.908  25.911  1.00  0.00     0.135 A 
ATOM     71  F   UNL A   1      41.996  21.413  27.703  1.00  0.00    -0.206 F 
ATOM     72  C   UNL A   1      43.375  20.531  26.068  1.00  0.00     0.059 A 
ATOM     73  C   UNL A   1      45.150  21.827  25.113  1.00  0.00     0.059 A 
ATOM     74  F   UNL A   1      45.381  24.054  25.613  1.00  0.00    -0.206 F 
ATOM     75  C   UNL A   1      44.456  20.634  25.203  1.00  0.00     0.060 A 
BRANCH  75  76
ATOM     76  S   UNL A   1      44.920  19.218  24.194  1.00  0.00     0.124 S 
ATOM     77  O   UNL A   1      44.173  18.134  24.824  1.00  0.00    -0.237 OA
ATOM     78  O   UNL A   1      44.461  19.624  22.870  1.00  0.00    -0.237 OA
ATOM     79  O   UNL A   1      46.370  19.145  24.356  1.00  0.00    -0.744 OA
ENDBRANCH  75  76
ENDBRANCH  54  68
BRANCH  55  80
ATOM     80  C   UNL A   1      41.813  30.551  32.667  1.00  0.00     0.058 A 
ATOM     81  C   UNL A   1      40.717  29.775  33.095  1.00  0.00     0.135 A 
ATOM     82  C   UNL A   1      41.977  31.821  33.237  1.00  0.00     0.135 A 
ATOM     83  F   UNL A   1      40.501  28.564  32.557  1.00  0.00    -0.206 F 
ATOM     84  C   UNL A   1      39.950  30.149  34.190  1.00  0.00     0.059 A 
ATOM     85  C   UNL A   1      41.206  32.223  34.326  1.00  0.00     0.059 A 
ATOM     86  F   UNL A   1      42.997  32.606  32.858  1.00  0.00    -0.206 F 
ATOM     87  C   UNL A   1      40.262  31.337  34.846  1.00  0.00     0.060 A 
BRANCH  87  88
ATOM     88  S   UNL A   1      39.577  31.584  36.502  1.00  0.00     0.124 S 
ATOM     89  O   UNL A   1      38.908  32.873  36.370  1.00  0.00    -0.237 OA
ATOM     90  O   UNL A   1      38.697  30.423  36.624  1.00  0.00    -0.237 OA
ATOM     91  O   UNL A   1      40.760  31.572  37.356  1.00  0.00    -0.744 OA
ENDBRANCH  87  88
ENDBRANCH  55  80
BRANCH  67  92
ATOM     92  C   UNL A   1      45.334  24.273  33.228  1.00  0.00     0.058 A 
ATOM     93  C   UNL A   1      44.357  23.352  33.641  1.00  0.00     0.135 A 
ATOM     94  C   UNL A   1      46.605  24.162  33.822  1.00  0.00     0.135 A 
ATOM     95  F   UNL A   1      43.116  23.402  33.132  1.00  0.00    -0.206 F 
ATOM     96  C   UNL A   1      44.628  22.368  34.588  1.00  0.00     0.059 A 
ATOM     97  C   UNL A   1      46.887  23.211  34.798  1.00  0.00     0.059 A 
ATOM     98  F   UNL A   1      47.612  24.969  33.451  1.00  0.00    -0.206 F 
ATOM     99  C   UNL A   1      45.895  22.309  35.166  1.00  0.00     0.060 A 
BRANCH  99 100
ATOM    100  S   UNL A   1      46.238  21.071  36.433  1.00  0.00     0.124 S 
ATOM    101  O   UNL A   1      45.606  19.871  35.894  1.00  0.00    -0.237 OA
ATOM    102  O   UNL A   1      47.698  21.064  36.443  1.00  0.00    -0.237 OA
ATOM    103  O   UNL A   1      45.600  21.625  37.623  1.00  0.00    -0.744 OA
ENDBRANCH  99 100
ENDBRANCH  67  92
ENDBRANCH  41  42
ENDBRANCH  33  36
ENDBRANCH  31  32
ENDBRANCH   1  31
TORSDOF 17
ENDMDL
