MODEL 1
REMARK VINA RESULT:     -11.9      0.000      0.000
REMARK SMILES O=C(C[C@H](c1ccc(C2CC2)cc1)[NH+]1CCOCC1)NCCCNC(=O)c1ccc(-c2c3nc(c(-c4c(F)cc(S(=O)(=O)[O-])cc4F)c4ccc([nH]4)c(-c4c(F)cc(S(=O)(=O)[O-])cc4F)c4nc(c(-c5c(F)cc(S(=O)(=O)[O-])cc5F)c5ccc2[nH]5)C=C4)C=C3)cc1
REMARK SMILES IDX 22 1 21 2 20 3 1 4 2 5 3 7 4 8 14 9 15 10 19 11 16 13 18 14
REMARK SMILES IDX 17 15 5 16 6 17 13 18 7 19 12 20 8 21 9 22 10 23 11 24 23 25
REMARK SMILES IDX 24 26 25 27 26 29 27 30 28 31 92 32 29 33 91 34 30 35 31 36
REMARK SMILES IDX 32 37 85 38 33 39 90 40 84 41 86 42 34 43 89 44 83 45 82 46
REMARK SMILES IDX 35 48 69 49 48 50 68 51 49 52 52 53 67 54 87 55 50 56 51 57
REMARK SMILES IDX 66 59 88 60 53 61 36 62 37 63 46 64 38 65 39 66 45 67 47 68
REMARK SMILES IDX 40 69 41 70 42 71 43 72 44 73 70 74 71 75 80 76 72 77 73 78
REMARK SMILES IDX 79 79 81 80 74 81 75 82 76 83 77 84 78 85 54 86 55 87 64 88
REMARK SMILES IDX 56 89 57 90 63 91 65 92 58 93 59 94 60 95 61 96 62 97
REMARK H PARENT 20 6 14 12 24 28 86 47 52 58
REMARK Flexibility Score: inf
ROOT
ATOM      1  C   UNL A   1      40.912  21.910  27.510  1.00  0.00     0.042 C 
ENDROOT
BRANCH   1   2
ATOM      2  C   UNL A   1      40.069  21.578  26.290  1.00  0.00     0.117 C 
BRANCH   2   3
ATOM      3  N   UNL A   1      39.064  22.569  25.958  1.00  0.00    -0.356 N 
ATOM      4  O   UNL A   1      37.614  21.057  25.032  1.00  0.00    -0.275 OA
ATOM      5  C   UNL A   1      37.822  22.170  25.511  1.00  0.00     0.226 C 
ATOM      6  H   UNL A   1      39.268  23.527  26.052  1.00  0.00     0.163 HD
BRANCH   5   7
ATOM      7  C   UNL A   1      36.713  23.174  25.723  1.00  0.00     0.170 C 
BRANCH   7   8
ATOM      8  C   UNL A   1      35.324  22.832  25.101  1.00  0.00     0.224 C 
BRANCH   8   9
ATOM      9  N   UNL A   1      34.568  21.713  25.704  1.00  0.00    -0.324 N 
ATOM     10  C   UNL A   1      34.233  20.607  24.788  1.00  0.00     0.291 C 
ATOM     11  C   UNL A   1      33.420  21.990  26.582  1.00  0.00     0.291 C 
ATOM     12  H   UNL A   1      35.305  21.424  26.347  1.00  0.00     0.348 HD
ATOM     13  C   UNL A   1      32.835  20.691  24.150  1.00  0.00     0.221 C 
ATOM     14  C   UNL A   1      32.030  21.984  25.923  1.00  0.00     0.221 C 
ATOM     15  O   UNL A   1      31.819  20.799  25.153  1.00  0.00    -0.370 OA
ENDBRANCH   8   9
BRANCH   8  16
ATOM     16  C   UNL A   1      34.496  24.052  24.707  1.00  0.00     0.010 A 
ATOM     17  C   UNL A   1      33.840  24.160  23.482  1.00  0.00     0.010 A 
ATOM     18  C   UNL A   1      34.411  25.149  25.580  1.00  0.00     0.010 A 
ATOM     19  C   UNL A   1      33.151  25.325  23.127  1.00  0.00     0.004 A 
ATOM     20  C   UNL A   1      33.723  26.316  25.219  1.00  0.00     0.004 A 
ATOM     21  C   UNL A   1      33.086  26.440  23.975  1.00  0.00    -0.045 A 
BRANCH  21  22
ATOM     22  C   UNL A   1      32.384  27.693  23.497  1.00  0.00     0.019 C 
ATOM     23  C   UNL A   1      31.340  27.723  22.412  1.00  0.00     0.009 C 
ATOM     24  C   UNL A   1      30.922  27.865  23.845  1.00  0.00     0.009 C 
ENDBRANCH  21  22
ENDBRANCH   8  16
ENDBRANCH   7   8
ENDBRANCH   5   7
ENDBRANCH   2   3
ENDBRANCH   1   2
BRANCH   1  25
ATOM     25  C   UNL A   1      41.982  22.976  27.306  1.00  0.00     0.118 C 
BRANCH  25  26
ATOM     26  N   UNL A   1      41.763  23.852  26.163  1.00  0.00    -0.352 N 
ATOM     27  C   UNL A   1      41.511  25.208  26.145  1.00  0.00     0.251 C 
ATOM     28  H   UNL A   1      41.800  23.417  25.282  1.00  0.00     0.163 HD
ATOM     29  O   UNL A   1      41.315  25.775  25.073  1.00  0.00    -0.269 OA
BRANCH  27  30
ATOM     30  C   UNL A   1      41.428  25.970  27.413  1.00  0.00     0.039 A 
ATOM     31  C   UNL A   1      42.474  26.834  27.749  1.00  0.00     0.014 A 
ATOM     32  C   UNL A   1      40.310  25.876  28.246  1.00  0.00     0.014 A 
ATOM     33  C   UNL A   1      42.355  27.670  28.864  1.00  0.00     0.010 A 
ATOM     34  C   UNL A   1      40.156  26.770  29.305  1.00  0.00     0.010 A 
ATOM     35  C   UNL A   1      41.172  27.685  29.622  1.00  0.00    -0.014 A 
BRANCH  35  36
ATOM     36  C   UNL A   1      40.974  28.661  30.727  1.00  0.00     0.031 A 
ATOM     37  C   UNL A   1      41.805  28.577  31.980  1.00  0.00     0.074 A 
ATOM     38  C   UNL A   1      39.996  29.587  30.635  1.00  0.00     0.049 A 
ATOM     39  N   UNL A   1      41.738  29.302  33.067  1.00  0.00    -0.248 NA
ATOM     40  C   UNL A   1      42.826  27.519  32.030  1.00  0.00     0.031 C 
ATOM     41  C   UNL A   1      39.077  29.740  29.504  1.00  0.00     0.029 A 
ATOM     42  N   UNL A   1      39.606  30.572  31.509  1.00  0.00    -0.354 N 
ATOM     43  C   UNL A   1      42.694  28.782  33.932  1.00  0.00     0.074 A 
ATOM     44  C   UNL A   1      43.289  27.644  33.265  1.00  0.00     0.031 C 
ATOM     45  C   UNL A   1      38.251  30.772  29.741  1.00  0.00     0.029 A 
ATOM     46  C   UNL A   1      38.554  31.334  31.053  1.00  0.00     0.049 A 
ATOM     47  H   UNL A   1      40.037  30.719  32.382  1.00  0.00     0.167 HD
ATOM     48  C   UNL A   1      43.064  29.227  35.158  1.00  0.00     0.037 A 
ATOM     49  C   UNL A   1      37.904  32.367  31.625  1.00  0.00     0.037 A 
ATOM     50  C   UNL A   1      42.491  30.378  35.808  1.00  0.00     0.049 A 
ATOM     51  C   UNL A   1      38.343  32.852  32.981  1.00  0.00     0.074 A 
ATOM     52  C   UNL A   1      42.843  30.944  37.021  1.00  0.00     0.029 A 
ATOM     53  N   UNL A   1      41.450  31.140  35.300  1.00  0.00    -0.354 N 
ATOM     54  N   UNL A   1      39.297  32.390  33.752  1.00  0.00    -0.248 NA
ATOM     55  C   UNL A   1      37.622  34.005  33.540  1.00  0.00     0.031 C 
ATOM     56  C   UNL A   1      41.986  32.023  37.266  1.00  0.00     0.029 A 
ATOM     57  C   UNL A   1      41.133  32.159  36.183  1.00  0.00     0.049 A 
ATOM     58  H   UNL A   1      41.001  30.980  34.438  1.00  0.00     0.167 HD
ATOM     59  C   UNL A   1      39.310  33.212  34.874  1.00  0.00     0.074 A 
ATOM     60  C   UNL A   1      38.277  34.207  34.675  1.00  0.00     0.031 C 
ATOM     61  C   UNL A   1      40.107  33.149  35.971  1.00  0.00     0.037 A 
BRANCH  48  62
ATOM     62  C   UNL A   1      44.149  28.471  35.873  1.00  0.00     0.058 A 
ATOM     63  C   UNL A   1      43.855  27.420  36.757  1.00  0.00     0.135 A 
ATOM     64  C   UNL A   1      45.502  28.775  35.647  1.00  0.00     0.135 A 
ATOM     65  F   UNL A   1      42.579  27.096  37.022  1.00  0.00    -0.206 F 
ATOM     66  C   UNL A   1      44.860  26.721  37.417  1.00  0.00     0.059 A 
ATOM     67  C   UNL A   1      46.525  28.068  36.275  1.00  0.00     0.059 A 
ATOM     68  F   UNL A   1      45.842  29.768  34.810  1.00  0.00    -0.206 F 
ATOM     69  C   UNL A   1      46.193  27.053  37.171  1.00  0.00     0.060 A 
BRANCH  69  70
ATOM     70  S   UNL A   1      47.484  26.136  38.037  1.00  0.00     0.124 S 
ATOM     71  O   UNL A   1      46.707  25.084  38.684  1.00  0.00    -0.237 OA
ATOM     72  O   UNL A   1      48.348  25.704  36.943  1.00  0.00    -0.237 OA
ATOM     73  O   UNL A   1      48.063  27.131  38.934  1.00  0.00    -0.744 OA
ENDBRANCH  69  70
ENDBRANCH  48  62
BRANCH  49  74
ATOM     74  C   UNL A   1      36.788  33.035  30.904  1.00  0.00     0.058 A 
ATOM     75  C   UNL A   1      35.452  32.784  31.253  1.00  0.00     0.135 A 
ATOM     76  C   UNL A   1      37.030  33.941  29.860  1.00  0.00     0.135 A 
ATOM     77  F   UNL A   1      35.168  31.920  32.240  1.00  0.00    -0.206 F 
ATOM     78  C   UNL A   1      34.396  33.392  30.583  1.00  0.00     0.059 A 
ATOM     79  C   UNL A   1      35.992  34.582  29.192  1.00  0.00     0.059 A 
ATOM     80  F   UNL A   1      38.291  34.229  29.499  1.00  0.00    -0.206 F 
ATOM     81  C   UNL A   1      34.677  34.292  29.553  1.00  0.00     0.060 A 
BRANCH  81  82
ATOM     82  S   UNL A   1      33.300  35.114  28.721  1.00  0.00     0.124 S 
ATOM     83  O   UNL A   1      32.518  35.596  29.854  1.00  0.00    -0.237 OA
ATOM     84  O   UNL A   1      33.983  36.136  27.934  1.00  0.00    -0.237 OA
ATOM     85  O   UNL A   1      32.690  34.038  27.944  1.00  0.00    -0.744 OA
ENDBRANCH  81  82
ENDBRANCH  49  74
BRANCH  61  86
ATOM     86  C   UNL A   1      39.919  34.204  37.025  1.00  0.00     0.058 A 
ATOM     87  C   UNL A   1      40.555  35.453  36.941  1.00  0.00     0.135 A 
ATOM     88  C   UNL A   1      39.061  33.978  38.113  1.00  0.00     0.135 A 
ATOM     89  F   UNL A   1      41.390  35.720  35.925  1.00  0.00    -0.206 F 
ATOM     90  C   UNL A   1      40.364  36.431  37.913  1.00  0.00     0.059 A 
ATOM     91  C   UNL A   1      38.835  34.951  39.081  1.00  0.00     0.059 A 
ATOM     92  F   UNL A   1      38.419  32.804  38.235  1.00  0.00    -0.206 F 
ATOM     93  C   UNL A   1      39.502  36.170  38.980  1.00  0.00     0.060 A 
BRANCH  93  94
ATOM     94  S   UNL A   1      39.246  37.455  40.221  1.00  0.00     0.124 S 
ATOM     95  O   UNL A   1      38.823  36.670  41.375  1.00  0.00    -0.237 OA
ATOM     96  O   UNL A   1      40.568  38.065  40.319  1.00  0.00    -0.237 OA
ATOM     97  O   UNL A   1      38.215  38.301  39.626  1.00  0.00    -0.744 OA
ENDBRANCH  93  94
ENDBRANCH  61  86
ENDBRANCH  35  36
ENDBRANCH  27  30
ENDBRANCH  25  26
ENDBRANCH   1  25
TORSDOF 17
ENDMDL
MODEL 2
REMARK VINA RESULT:     -11.8      1.166      2.023
REMARK SMILES O=C(C[C@H](c1ccc(C2CC2)cc1)[NH+]1CCOCC1)NCCCNC(=O)c1ccc(-c2c3nc(c(-c4c(F)cc(S(=O)(=O)[O-])cc4F)c4ccc([nH]4)c(-c4c(F)cc(S(=O)(=O)[O-])cc4F)c4nc(c(-c5c(F)cc(S(=O)(=O)[O-])cc5F)c5ccc2[nH]5)C=C4)C=C3)cc1
REMARK SMILES IDX 22 1 21 2 20 3 1 4 2 5 3 7 4 8 14 9 15 10 19 11 16 13 18 14
REMARK SMILES IDX 17 15 5 16 6 17 13 18 7 19 12 20 8 21 9 22 10 23 11 24 23 25
REMARK SMILES IDX 24 26 25 27 26 29 27 30 28 31 92 32 29 33 91 34 30 35 31 36
REMARK SMILES IDX 32 37 85 38 33 39 90 40 84 41 86 42 34 43 89 44 83 45 82 46
REMARK SMILES IDX 35 48 69 49 48 50 68 51 49 52 52 53 67 54 87 55 50 56 51 57
REMARK SMILES IDX 66 59 88 60 53 61 36 62 37 63 46 64 38 65 39 66 45 67 47 68
REMARK SMILES IDX 40 69 41 70 42 71 43 72 44 73 70 74 71 75 80 76 72 77 73 78
REMARK SMILES IDX 79 79 81 80 74 81 75 82 76 83 77 84 78 85 54 86 55 87 64 88
REMARK SMILES IDX 56 89 57 90 63 91 65 92 58 93 59 94 60 95 61 96 62 97
REMARK H PARENT 20 6 14 12 24 28 86 47 52 58
REMARK Flexibility Score: inf
ROOT
ATOM      1  C   UNL A   1      39.564  22.245  26.560  1.00  0.00     0.042 C 
ENDROOT
BRANCH   1   2
ATOM      2  C   UNL A   1      38.250  22.922  26.209  1.00  0.00     0.117 C 
BRANCH   2   3
ATOM      3  N   UNL A   1      37.108  22.031  26.135  1.00  0.00    -0.356 N 
ATOM      4  O   UNL A   1      37.167  21.844  23.853  1.00  0.00    -0.275 OA
ATOM      5  C   UNL A   1      36.784  21.421  24.942  1.00  0.00     0.226 C 
ATOM      6  H   UNL A   1      36.564  21.861  26.938  1.00  0.00     0.163 HD
BRANCH   5   7
ATOM      7  C   UNL A   1      35.985  20.145  25.072  1.00  0.00     0.170 C 
BRANCH   7   8
ATOM      8  C   UNL A   1      34.464  20.229  24.737  1.00  0.00     0.224 C 
BRANCH   8   9
ATOM      9  N   UNL A   1      33.665  18.994  24.892  1.00  0.00    -0.324 N 
ATOM     10  C   UNL A   1      34.416  17.732  24.763  1.00  0.00     0.291 C 
ATOM     11  C   UNL A   1      32.367  18.867  24.210  1.00  0.00     0.291 C 
ATOM     12  H   UNL A   1      33.415  19.154  25.868  1.00  0.00     0.348 HD
ATOM     13  C   UNL A   1      34.393  17.103  23.359  1.00  0.00     0.221 C 
ATOM     14  C   UNL A   1      32.373  18.159  22.844  1.00  0.00     0.221 C 
ATOM     15  O   UNL A   1      33.050  16.902  22.908  1.00  0.00    -0.370 OA
ENDBRANCH   8   9
BRANCH   8  16
ATOM     16  C   UNL A   1      33.789  21.515  25.208  1.00  0.00     0.010 A 
ATOM     17  C   UNL A   1      33.478  21.764  26.543  1.00  0.00     0.010 A 
ATOM     18  C   UNL A   1      33.413  22.489  24.268  1.00  0.00     0.010 A 
ATOM     19  C   UNL A   1      32.793  22.923  26.927  1.00  0.00     0.004 A 
ATOM     20  C   UNL A   1      32.723  23.647  24.656  1.00  0.00     0.004 A 
ATOM     21  C   UNL A   1      32.383  23.887  25.995  1.00  0.00    -0.045 A 
BRANCH  21  22
ATOM     22  C   UNL A   1      31.583  25.081  26.471  1.00  0.00     0.019 C 
ATOM     23  C   UNL A   1      31.345  26.326  25.657  1.00  0.00     0.009 C 
ATOM     24  C   UNL A   1      30.235  25.334  25.835  1.00  0.00     0.009 C 
ENDBRANCH  21  22
ENDBRANCH   8  16
ENDBRANCH   7   8
ENDBRANCH   5   7
ENDBRANCH   2   3
ENDBRANCH   1   2
BRANCH   1  25
ATOM     25  C   UNL A   1      40.696  23.174  26.982  1.00  0.00     0.118 C 
BRANCH  25  26
ATOM     26  N   UNL A   1      41.190  24.054  25.932  1.00  0.00    -0.352 N 
ATOM     27  C   UNL A   1      41.544  25.384  26.011  1.00  0.00     0.251 C 
ATOM     28  H   UNL A   1      41.285  23.643  25.044  1.00  0.00     0.163 HD
ATOM     29  O   UNL A   1      41.909  25.977  24.998  1.00  0.00    -0.269 OA
BRANCH  27  30
ATOM     30  C   UNL A   1      41.440  26.112  27.298  1.00  0.00     0.039 A 
ATOM     31  C   UNL A   1      42.503  26.923  27.701  1.00  0.00     0.014 A 
ATOM     32  C   UNL A   1      40.286  26.037  28.082  1.00  0.00     0.014 A 
ATOM     33  C   UNL A   1      42.372  27.731  28.836  1.00  0.00     0.010 A 
ATOM     34  C   UNL A   1      40.124  26.905  29.162  1.00  0.00     0.010 A 
ATOM     35  C   UNL A   1      41.160  27.769  29.546  1.00  0.00    -0.014 A 
BRANCH  35  36
ATOM     36  C   UNL A   1      40.955  28.720  30.673  1.00  0.00     0.031 A 
ATOM     37  C   UNL A   1      41.787  28.614  31.924  1.00  0.00     0.074 A 
ATOM     38  C   UNL A   1      39.971  29.640  30.601  1.00  0.00     0.049 A 
ATOM     39  N   UNL A   1      41.715  29.315  33.026  1.00  0.00    -0.248 NA
ATOM     40  C   UNL A   1      42.817  27.562  31.950  1.00  0.00     0.031 C 
ATOM     41  C   UNL A   1      39.050  29.811  29.474  1.00  0.00     0.029 A 
ATOM     42  N   UNL A   1      39.573  30.603  31.497  1.00  0.00    -0.354 N 
ATOM     43  C   UNL A   1      42.676  28.783  33.880  1.00  0.00     0.074 A 
ATOM     44  C   UNL A   1      43.279  27.664  33.188  1.00  0.00     0.031 C 
ATOM     45  C   UNL A   1      38.217  30.831  29.733  1.00  0.00     0.029 A 
ATOM     46  C   UNL A   1      38.516  31.367  31.058  1.00  0.00     0.049 A 
ATOM     47  H   UNL A   1      40.003  30.734  32.373  1.00  0.00     0.167 HD
ATOM     48  C   UNL A   1      43.042  29.204  35.115  1.00  0.00     0.037 A 
ATOM     49  C   UNL A   1      37.859  32.382  31.652  1.00  0.00     0.037 A 
ATOM     50  C   UNL A   1      42.461  30.336  35.790  1.00  0.00     0.049 A 
ATOM     51  C   UNL A   1      38.294  32.840  33.018  1.00  0.00     0.074 A 
ATOM     52  C   UNL A   1      42.809  30.878  37.015  1.00  0.00     0.029 A 
ATOM     53  N   UNL A   1      41.414  31.101  35.299  1.00  0.00    -0.354 N 
ATOM     54  N   UNL A   1      39.252  32.369  33.780  1.00  0.00    -0.248 NA
ATOM     55  C   UNL A   1      37.565  33.975  33.603  1.00  0.00     0.031 C 
ATOM     56  C   UNL A   1      41.945  31.944  37.284  1.00  0.00     0.029 A 
ATOM     57  C   UNL A   1      41.090  32.098  36.204  1.00  0.00     0.049 A 
ATOM     58  H   UNL A   1      40.966  30.957  34.434  1.00  0.00     0.167 HD
ATOM     59  C   UNL A   1      39.259  33.166  34.919  1.00  0.00     0.074 A 
ATOM     60  C   UNL A   1      38.218  34.157  34.741  1.00  0.00     0.031 C 
ATOM     61  C   UNL A   1      40.056  33.084  36.014  1.00  0.00     0.037 A 
BRANCH  48  62
ATOM     62  C   UNL A   1      44.134  28.440  35.813  1.00  0.00     0.058 A 
ATOM     63  C   UNL A   1      43.852  27.331  36.626  1.00  0.00     0.135 A 
ATOM     64  C   UNL A   1      45.481  28.798  35.641  1.00  0.00     0.135 A 
ATOM     65  F   UNL A   1      42.581  26.953  36.839  1.00  0.00    -0.206 F 
ATOM     66  C   UNL A   1      44.861  26.625  37.271  1.00  0.00     0.059 A 
ATOM     67  C   UNL A   1      46.510  28.087  36.253  1.00  0.00     0.059 A 
ATOM     68  F   UNL A   1      45.809  29.849  34.872  1.00  0.00    -0.206 F 
ATOM     69  C   UNL A   1      46.189  27.011  37.079  1.00  0.00     0.060 A 
BRANCH  69  70
ATOM     70  S   UNL A   1      47.487  26.085  37.925  1.00  0.00     0.124 S 
ATOM     71  O   UNL A   1      48.642  26.954  37.723  1.00  0.00    -0.237 OA
ATOM     72  O   UNL A   1      46.979  26.011  39.291  1.00  0.00    -0.237 OA
ATOM     73  O   UNL A   1      47.523  24.816  37.203  1.00  0.00    -0.744 OA
ENDBRANCH  69  70
ENDBRANCH  48  62
BRANCH  49  74
ATOM     74  C   UNL A   1      36.736  33.057  30.946  1.00  0.00     0.058 A 
ATOM     75  C   UNL A   1      35.405  32.831  31.328  1.00  0.00     0.135 A 
ATOM     76  C   UNL A   1      36.970  33.945  29.885  1.00  0.00     0.135 A 
ATOM     77  F   UNL A   1      35.130  31.986  32.333  1.00  0.00    -0.206 F 
ATOM     78  C   UNL A   1      34.344  33.446  30.672  1.00  0.00     0.059 A 
ATOM     79  C   UNL A   1      35.927  34.592  29.230  1.00  0.00     0.059 A 
ATOM     80  F   UNL A   1      38.226  34.208  29.492  1.00  0.00    -0.206 F 
ATOM     81  C   UNL A   1      34.616  34.328  29.624  1.00  0.00     0.060 A 
BRANCH  81  82
ATOM     82  S   UNL A   1      33.234  35.159  28.810  1.00  0.00     0.124 S 
ATOM     83  O   UNL A   1      33.921  36.201  28.056  1.00  0.00    -0.237 OA
ATOM     84  O   UNL A   1      32.649  34.080  28.021  1.00  0.00    -0.237 OA
ATOM     85  O   UNL A   1      32.417  35.621  29.929  1.00  0.00    -0.744 OA
ENDBRANCH  81  82
ENDBRANCH  49  74
BRANCH  61  86
ATOM     86  C   UNL A   1      39.861  34.115  37.091  1.00  0.00     0.058 A 
ATOM     87  C   UNL A   1      39.024  33.883  38.194  1.00  0.00     0.135 A 
ATOM     88  C   UNL A   1      40.553  35.336  37.040  1.00  0.00     0.135 A 
ATOM     89  F   UNL A   1      38.336  32.735  38.289  1.00  0.00    -0.206 F 
ATOM     90  C   UNL A   1      38.861  34.836  39.195  1.00  0.00     0.059 A 
ATOM     91  C   UNL A   1      40.426  36.291  38.043  1.00  0.00     0.059 A 
ATOM     92  F   UNL A   1      41.375  35.605  36.012  1.00  0.00    -0.206 F 
ATOM     93  C   UNL A   1      39.566  36.038  39.110  1.00  0.00     0.060 A 
BRANCH  93  94
ATOM     94  S   UNL A   1      39.364  37.256  40.427  1.00  0.00     0.124 S 
ATOM     95  O   UNL A   1      38.583  38.288  39.756  1.00  0.00    -0.237 OA
ATOM     96  O   UNL A   1      38.659  36.494  41.453  1.00  0.00    -0.237 OA
ATOM     97  O   UNL A   1      40.736  37.625  40.762  1.00  0.00    -0.744 OA
ENDBRANCH  93  94
ENDBRANCH  61  86
ENDBRANCH  35  36
ENDBRANCH  27  30
ENDBRANCH  25  26
ENDBRANCH   1  25
TORSDOF 17
ENDMDL
MODEL 3
REMARK VINA RESULT:     -11.6      6.550     12.247
REMARK SMILES O=C(C[C@H](c1ccc(C2CC2)cc1)[NH+]1CCOCC1)NCCCNC(=O)c1ccc(-c2c3nc(c(-c4c(F)cc(S(=O)(=O)[O-])cc4F)c4ccc([nH]4)c(-c4c(F)cc(S(=O)(=O)[O-])cc4F)c4nc(c(-c5c(F)cc(S(=O)(=O)[O-])cc5F)c5ccc2[nH]5)C=C4)C=C3)cc1
REMARK SMILES IDX 22 1 21 2 20 3 1 4 2 5 3 7 4 8 14 9 15 10 19 11 16 13 18 14
REMARK SMILES IDX 17 15 5 16 6 17 13 18 7 19 12 20 8 21 9 22 10 23 11 24 23 25
REMARK SMILES IDX 24 26 25 27 26 29 27 30 28 31 92 32 29 33 91 34 30 35 31 36
REMARK SMILES IDX 32 37 85 38 33 39 90 40 84 41 86 42 34 43 89 44 83 45 82 46
REMARK SMILES IDX 35 48 69 49 48 50 68 51 49 52 52 53 67 54 87 55 50 56 51 57
REMARK SMILES IDX 66 59 88 60 53 61 36 62 37 63 46 64 38 65 39 66 45 67 47 68
REMARK SMILES IDX 40 69 41 70 42 71 43 72 44 73 70 74 71 75 80 76 72 77 73 78
REMARK SMILES IDX 79 79 81 80 74 81 75 82 76 83 77 84 78 85 54 86 55 87 64 88
REMARK SMILES IDX 56 89 57 90 63 91 65 92 58 93 59 94 60 95 61 96 62 97
REMARK H PARENT 20 6 14 12 24 28 86 47 52 58
REMARK Flexibility Score: inf
ROOT
ATOM      1  C   UNL A   1      34.874  33.385  29.086  1.00  0.00     0.042 C 
ENDROOT
BRANCH   1   2
ATOM      2  C   UNL A   1      33.851  32.848  28.100  1.00  0.00     0.117 C 
BRANCH   2   3
ATOM      3  N   UNL A   1      33.869  31.408  27.929  1.00  0.00    -0.356 N 
ATOM      4  O   UNL A   1      31.928  31.341  26.715  1.00  0.00    -0.275 OA
ATOM      5  C   UNL A   1      32.973  30.802  27.074  1.00  0.00     0.226 C 
ATOM      6  H   UNL A   1      34.522  30.862  28.423  1.00  0.00     0.163 HD
BRANCH   5   7
ATOM      7  C   UNL A   1      33.405  29.454  26.545  1.00  0.00     0.170 C 
BRANCH   7   8
ATOM      8  C   UNL A   1      32.363  28.664  25.694  1.00  0.00     0.224 C 
BRANCH   8   9
ATOM      9  N   UNL A   1      32.069  29.173  24.337  1.00  0.00    -0.324 N 
ATOM     10  C   UNL A   1      30.643  29.409  24.043  1.00  0.00     0.291 C 
ATOM     11  C   UNL A   1      32.719  28.565  23.166  1.00  0.00     0.291 C 
ATOM     12  H   UNL A   1      32.554  30.064  24.453  1.00  0.00     0.348 HD
ATOM     13  C   UNL A   1      29.924  28.247  23.337  1.00  0.00     0.221 C 
ATOM     14  C   UNL A   1      31.933  27.462  22.436  1.00  0.00     0.221 C 
ATOM     15  O   UNL A   1      30.601  27.882  22.130  1.00  0.00    -0.370 OA
ENDBRANCH   8   9
BRANCH   8  16
ATOM     16  C   UNL A   1      32.472  27.147  25.820  1.00  0.00     0.010 A 
ATOM     17  C   UNL A   1      31.384  26.332  26.129  1.00  0.00     0.010 A 
ATOM     18  C   UNL A   1      33.720  26.522  25.668  1.00  0.00     0.010 A 
ATOM     19  C   UNL A   1      31.537  24.952  26.309  1.00  0.00     0.004 A 
ATOM     20  C   UNL A   1      33.870  25.140  25.853  1.00  0.00     0.004 A 
ATOM     21  C   UNL A   1      32.784  24.320  26.192  1.00  0.00    -0.045 A 
BRANCH  21  22
ATOM     22  C   UNL A   1      32.889  22.836  26.470  1.00  0.00     0.019 C 
ATOM     23  C   UNL A   1      34.149  22.139  26.912  1.00  0.00     0.009 C 
ATOM     24  C   UNL A   1      33.055  22.391  27.906  1.00  0.00     0.009 C 
ENDBRANCH  21  22
ENDBRANCH   8  16
ENDBRANCH   7   8
ENDBRANCH   5   7
ENDBRANCH   2   3
ENDBRANCH   1   2
BRANCH   1  25
ATOM     25  C   UNL A   1      36.047  32.461  29.393  1.00  0.00     0.118 C 
BRANCH  25  26
ATOM     26  N   UNL A   1      35.793  31.474  30.433  1.00  0.00    -0.352 N 
ATOM     27  C   UNL A   1      36.629  30.490  30.917  1.00  0.00     0.251 C 
ATOM     28  H   UNL A   1      34.902  31.515  30.848  1.00  0.00     0.163 HD
ATOM     29  O   UNL A   1      36.222  29.718  31.782  1.00  0.00    -0.269 OA
BRANCH  27  30
ATOM     30  C   UNL A   1      37.995  30.329  30.365  1.00  0.00     0.039 A 
ATOM     31  C   UNL A   1      39.087  30.428  31.230  1.00  0.00     0.014 A 
ATOM     32  C   UNL A   1      38.202  30.037  29.014  1.00  0.00     0.014 A 
ATOM     33  C   UNL A   1      40.374  30.139  30.763  1.00  0.00     0.010 A 
ATOM     34  C   UNL A   1      39.472  29.665  28.572  1.00  0.00     0.010 A 
ATOM     35  C   UNL A   1      40.571  29.702  29.443  1.00  0.00    -0.014 A 
BRANCH  35  36
ATOM     36  C   UNL A   1      41.911  29.261  28.967  1.00  0.00     0.031 A 
ATOM     37  C   UNL A   1      43.047  30.244  28.861  1.00  0.00     0.074 A 
ATOM     38  C   UNL A   1      42.090  27.986  28.562  1.00  0.00     0.049 A 
ATOM     39  N   UNL A   1      44.263  30.056  28.418  1.00  0.00    -0.248 NA
ATOM     40  C   UNL A   1      42.770  31.627  29.282  1.00  0.00     0.031 C 
ATOM     41  C   UNL A   1      41.058  26.946  28.553  1.00  0.00     0.029 A 
ATOM     42  N   UNL A   1      43.204  27.346  28.074  1.00  0.00    -0.354 N 
ATOM     43  C   UNL A   1      44.891  31.295  28.493  1.00  0.00     0.074 A 
ATOM     44  C   UNL A   1      43.904  32.238  28.971  1.00  0.00     0.031 C 
ATOM     45  C   UNL A   1      41.592  25.796  28.110  1.00  0.00     0.029 A 
ATOM     46  C   UNL A   1      42.994  26.021  27.769  1.00  0.00     0.049 A 
ATOM     47  H   UNL A   1      44.072  27.794  27.952  1.00  0.00     0.167 HD
ATOM     48  C   UNL A   1      46.179  31.613  28.216  1.00  0.00     0.037 A 
ATOM     49  C   UNL A   1      43.831  25.090  27.270  1.00  0.00     0.037 A 
ATOM     50  C   UNL A   1      47.169  30.667  27.768  1.00  0.00     0.049 A 
ATOM     51  C   UNL A   1      45.260  25.464  26.984  1.00  0.00     0.074 A 
ATOM     52  C   UNL A   1      48.514  30.881  27.522  1.00  0.00     0.029 A 
ATOM     53  N   UNL A   1      46.923  29.328  27.500  1.00  0.00    -0.354 N 
ATOM     54  N   UNL A   1      45.853  26.625  27.129  1.00  0.00    -0.248 NA
ATOM     55  C   UNL A   1      46.137  24.400  26.476  1.00  0.00     0.031 C 
ATOM     56  C   UNL A   1      49.072  29.682  27.066  1.00  0.00     0.029 A 
ATOM     57  C   UNL A   1      48.086  28.708  27.074  1.00  0.00     0.049 A 
ATOM     58  H   UNL A   1      46.050  28.884  27.598  1.00  0.00     0.167 HD
ATOM     59  C   UNL A   1      47.178  26.424  26.756  1.00  0.00     0.074 A 
ATOM     60  C   UNL A   1      47.302  25.028  26.392  1.00  0.00     0.031 C 
ATOM     61  C   UNL A   1      48.200  27.316  26.720  1.00  0.00     0.037 A 
BRANCH  48  62
ATOM     62  C   UNL A   1      46.596  33.046  28.401  1.00  0.00     0.058 A 
ATOM     63  C   UNL A   1      46.512  33.978  27.354  1.00  0.00     0.135 A 
ATOM     64  C   UNL A   1      47.051  33.504  29.649  1.00  0.00     0.135 A 
ATOM     65  F   UNL A   1      46.098  33.593  26.136  1.00  0.00    -0.206 F 
ATOM     66  C   UNL A   1      46.897  35.304  27.527  1.00  0.00     0.059 A 
ATOM     67  C   UNL A   1      47.414  34.833  29.852  1.00  0.00     0.059 A 
ATOM     68  F   UNL A   1      47.149  32.657  30.686  1.00  0.00    -0.206 F 
ATOM     69  C   UNL A   1      47.348  35.722  28.780  1.00  0.00     0.060 A 
BRANCH  69  70
ATOM     70  S   UNL A   1      47.844  37.445  28.986  1.00  0.00     0.124 S 
ATOM     71  O   UNL A   1      47.718  37.612  30.430  1.00  0.00    -0.237 OA
ATOM     72  O   UNL A   1      49.208  37.443  28.464  1.00  0.00    -0.237 OA
ATOM     73  O   UNL A   1      46.869  38.177  28.182  1.00  0.00    -0.744 OA
ENDBRANCH  69  70
ENDBRANCH  48  62
BRANCH  49  74
ATOM     74  C   UNL A   1      43.348  23.702  27.037  1.00  0.00     0.058 A 
ATOM     75  C   UNL A   1      43.041  23.254  25.743  1.00  0.00     0.135 A 
ATOM     76  C   UNL A   1      43.189  22.796  28.097  1.00  0.00     0.135 A 
ATOM     77  F   UNL A   1      43.170  24.085  24.698  1.00  0.00    -0.206 F 
ATOM     78  C   UNL A   1      42.579  21.964  25.508  1.00  0.00     0.059 A 
ATOM     79  C   UNL A   1      42.754  21.492  27.884  1.00  0.00     0.059 A 
ATOM     80  F   UNL A   1      43.485  23.170  29.351  1.00  0.00    -0.206 F 
ATOM     81  C   UNL A   1      42.440  21.088  26.588  1.00  0.00     0.060 A 
BRANCH  81  82
ATOM     82  S   UNL A   1      41.886  19.399  26.267  1.00  0.00     0.124 S 
ATOM     83  O   UNL A   1      42.639  19.067  25.063  1.00  0.00    -0.237 OA
ATOM     84  O   UNL A   1      42.292  18.706  27.486  1.00  0.00    -0.237 OA
ATOM     85  O   UNL A   1      40.444  19.549  26.091  1.00  0.00    -0.744 OA
ENDBRANCH  81  82
ENDBRANCH  49  74
BRANCH  61  86
ATOM     86  C   UNL A   1      49.551  26.804  26.306  1.00  0.00     0.058 A 
ATOM     87  C   UNL A   1      49.954  26.783  24.962  1.00  0.00     0.135 A 
ATOM     88  C   UNL A   1      50.472  26.366  27.272  1.00  0.00     0.135 A 
ATOM     89  F   UNL A   1      49.111  27.184  23.997  1.00  0.00    -0.206 F 
ATOM     90  C   UNL A   1      51.213  26.321  24.588  1.00  0.00     0.059 A 
ATOM     91  C   UNL A   1      51.745  25.927  26.923  1.00  0.00     0.059 A 
ATOM     92  F   UNL A   1      50.142  26.376  28.574  1.00  0.00    -0.206 F 
ATOM     93  C   UNL A   1      52.101  25.895  25.577  1.00  0.00     0.060 A 
BRANCH  93  94
ATOM     94  S   UNL A   1      53.739  25.322  25.080  1.00  0.00     0.124 S 
ATOM     95  O   UNL A   1      54.522  25.591  26.281  1.00  0.00    -0.237 OA
ATOM     96  O   UNL A   1      53.502  23.913  24.781  1.00  0.00    -0.237 OA
ATOM     97  O   UNL A   1      54.055  26.157  23.925  1.00  0.00    -0.744 OA
ENDBRANCH  93  94
ENDBRANCH  61  86
ENDBRANCH  35  36
ENDBRANCH  27  30
ENDBRANCH  25  26
ENDBRANCH   1  25
TORSDOF 17
ENDMDL
