MODEL 1
REMARK VINA RESULT:     -15.3      0.000      0.000
REMARK SMILES Cc1ccccc1-c1c(Cl)ccc2c1C=C(C(=O)NCCCNC(=O)c1ccc(-c3c4nc(c(-c5c(F)cc(S(=O)(=O)[O-])cc5F)c5ccc([nH]5)c(-c5c(F)cc(S(=O)(=O)[O-])cc5F)c5nc(c(-c6c(F)cc(S(=O)(=O)[O-])cc6F)c6ccc3[nH]6)C=C5)C=C4)cc1)[C@@H](C(F)(F)F)O2
REMARK SMILES IDX 22 1 21 2 20 3 19 4 17 5 18 6 16 8 8 9 9 10 14 11 10 12
REMARK SMILES IDX 11 13 13 14 15 15 12 16 97 17 92 18 7 19 1 20 2 21 3 22 4 23
REMARK SMILES IDX 6 24 5 25 93 26 94 27 95 28 96 29 23 30 24 31 25 33 26 34
REMARK SMILES IDX 27 35 91 36 28 37 90 38 29 39 30 40 31 41 84 42 32 43 89 44
REMARK SMILES IDX 83 45 85 46 33 47 88 48 82 49 81 50 34 52 68 53 47 54 67 55
REMARK SMILES IDX 48 56 51 57 66 58 86 59 49 60 50 61 65 63 87 64 52 65 35 66
REMARK SMILES IDX 36 67 45 68 37 69 38 70 44 71 46 72 39 73 40 74 41 75 42 76
REMARK SMILES IDX 43 77 69 78 70 79 79 80 71 81 72 82 78 83 80 84 73 85 74 86
REMARK SMILES IDX 75 87 76 88 77 89 53 90 54 91 63 92 55 93 56 94 62 95 64 96
REMARK SMILES IDX 57 97 58 98 59 99 60 100 61 101
REMARK H PARENT 19 7 23 32 85 51 51 62
REMARK Flexibility Score: inf
ROOT
ATOM      1  C   UNL A   1      34.460  29.903  28.061  1.00  0.00     0.118 C 
ENDROOT
BRANCH   1   2
ATOM      2  C   UNL A   1      33.738  30.504  26.864  1.00  0.00     0.042 C 
BRANCH   2   3
ATOM      3  C   UNL A   1      32.246  30.242  26.901  1.00  0.00     0.118 C 
BRANCH   3   4
ATOM      4  N   UNL A   1      31.964  28.881  27.317  1.00  0.00    -0.352 N 
ATOM      5  C   UNL A   1      31.977  27.701  26.661  1.00  0.00     0.251 C 
ATOM      6  O   UNL A   1      31.477  26.734  27.242  1.00  0.00    -0.270 OA
ATOM      7  H   UNL A   1      31.714  28.802  28.266  1.00  0.00     0.163 HD
BRANCH   5   8
ATOM      8  C   UNL A   1      32.611  27.483  25.319  1.00  0.00     0.067 C 
ATOM      9  C   UNL A   1      33.032  23.955  24.341  1.00  0.00     0.012 A 
ATOM     10  C   UNL A   1      32.109  22.978  23.888  1.00  0.00     0.049 A 
ATOM     11  C   UNL A   1      32.594  25.308  24.362  1.00  0.00     0.027 A 
ATOM     12  Cl  UNL A   1      32.495  21.286  23.863  1.00  0.00    -0.084 Cl
ATOM     13  C   UNL A   1      30.835  23.326  23.426  1.00  0.00     0.025 A 
ATOM     14  C   UNL A   1      31.325  25.641  23.831  1.00  0.00     0.128 A 
ATOM     15  C   UNL A   1      33.327  26.365  25.105  1.00  0.00     0.026 C 
ATOM     16  C   UNL A   1      30.453  24.660  23.374  1.00  0.00     0.049 A 
ATOM     17  O   UNL A   1      30.832  26.921  23.754  1.00  0.00    -0.475 OA
ATOM     18  C   UNL A   1      31.742  27.959  24.176  1.00  0.00     0.314 C 
BRANCH   9  19
ATOM     19  C   UNL A   1      34.444  23.579  24.619  1.00  0.00    -0.013 A 
ATOM     20  C   UNL A   1      34.171  23.137  27.151  1.00  0.00     0.045 C 
ATOM     21  C   UNL A   1      34.971  23.217  25.878  1.00  0.00    -0.043 A 
ATOM     22  C   UNL A   1      36.347  22.928  25.993  1.00  0.00     0.004 A 
ATOM     23  C   UNL A   1      37.189  22.946  24.884  1.00  0.00     0.000 A 
ATOM     24  C   UNL A   1      35.324  23.588  23.513  1.00  0.00     0.009 A 
ATOM     25  C   UNL A   1      36.674  23.264  23.637  1.00  0.00     0.001 A 
ENDBRANCH   9  19
BRANCH  18  26
ATOM     26  C   UNL A   1      32.568  28.501  22.996  1.00  0.00     0.429 C 
ATOM     27  F   UNL A   1      32.867  27.514  22.113  1.00  0.00    -0.167 F 
ATOM     28  F   UNL A   1      31.881  29.444  22.302  1.00  0.00    -0.167 F 
ATOM     29  F   UNL A   1      33.742  29.060  23.371  1.00  0.00    -0.167 F 
ENDBRANCH  18  26
ENDBRANCH   5   8
ENDBRANCH   3   4
ENDBRANCH   2   3
ENDBRANCH   1   2
BRANCH   1  30
ATOM     30  N   UNL A   1      35.268  30.893  28.773  1.00  0.00    -0.352 N 
ATOM     31  C   UNL A   1      36.514  30.737  29.350  1.00  0.00     0.251 C 
ATOM     32  H   UNL A   1      34.872  31.791  28.852  1.00  0.00     0.163 HD
ATOM     33  O   UNL A   1      37.062  31.603  30.022  1.00  0.00    -0.269 OA
BRANCH  31  34
ATOM     34  C   UNL A   1      37.240  29.503  29.011  1.00  0.00     0.039 A 
ATOM     35  C   UNL A   1      37.522  28.641  30.075  1.00  0.00     0.014 A 
ATOM     36  C   UNL A   1      37.952  29.457  27.816  1.00  0.00     0.014 A 
ATOM     37  C   UNL A   1      38.688  27.893  30.034  1.00  0.00     0.010 A 
ATOM     38  C   UNL A   1      39.162  28.792  27.820  1.00  0.00     0.010 A 
ATOM     39  C   UNL A   1      39.557  28.073  28.957  1.00  0.00    -0.014 A 
BRANCH  39  40
ATOM     40  C   UNL A   1      40.939  27.615  29.002  1.00  0.00     0.031 A 
ATOM     41  C   UNL A   1      41.249  26.244  28.556  1.00  0.00     0.074 A 
ATOM     42  C   UNL A   1      41.908  28.434  29.468  1.00  0.00     0.049 A 
ATOM     43  N   UNL A   1      42.247  25.542  28.969  1.00  0.00    -0.248 NA
ATOM     44  C   UNL A   1      40.383  25.526  27.630  1.00  0.00     0.031 C 
ATOM     45  C   UNL A   1      43.348  28.199  29.454  1.00  0.00     0.029 A 
ATOM     46  N   UNL A   1      41.743  29.567  30.278  1.00  0.00    -0.354 N 
ATOM     47  C   UNL A   1      42.306  24.401  28.198  1.00  0.00     0.074 A 
ATOM     48  C   UNL A   1      41.090  24.414  27.421  1.00  0.00     0.031 C 
ATOM     49  C   UNL A   1      43.911  28.942  30.420  1.00  0.00     0.029 A 
ATOM     50  C   UNL A   1      42.840  29.591  31.160  1.00  0.00     0.049 A 
ATOM     51  H   UNL A   1      41.005  30.218  30.238  1.00  0.00     0.167 HD
ATOM     52  C   UNL A   1      43.443  23.644  28.208  1.00  0.00     0.037 A 
ATOM     53  C   UNL A   1      42.653  29.489  32.507  1.00  0.00     0.037 A 
ATOM     54  C   UNL A   1      44.372  24.125  29.233  1.00  0.00     0.049 A 
ATOM     55  C   UNL A   1      43.243  28.230  33.104  1.00  0.00     0.074 A 
ATOM     56  C   UNL A   1      45.462  24.979  29.182  1.00  0.00     0.029 A 
ATOM     57  N   UNL A   1      44.021  24.024  30.579  1.00  0.00    -0.354 N 
ATOM     58  N   UNL A   1      43.627  27.196  32.403  1.00  0.00    -0.248 NA
ATOM     59  C   UNL A   1      43.459  28.037  34.535  1.00  0.00     0.031 C 
ATOM     60  C   UNL A   1      45.688  25.483  30.491  1.00  0.00     0.029 A 
ATOM     61  C   UNL A   1      44.767  24.902  31.345  1.00  0.00     0.049 A 
ATOM     62  H   UNL A   1      43.337  23.412  30.935  1.00  0.00     0.167 HD
ATOM     63  C   UNL A   1      44.109  26.221  33.239  1.00  0.00     0.074 A 
ATOM     64  C   UNL A   1      44.004  26.808  34.563  1.00  0.00     0.031 C 
ATOM     65  C   UNL A   1      44.556  25.010  32.785  1.00  0.00     0.037 A 
BRANCH  52  66
ATOM     66  C   UNL A   1      43.806  22.732  27.048  1.00  0.00     0.058 A 
ATOM     67  C   UNL A   1      43.064  21.560  26.786  1.00  0.00     0.135 A 
ATOM     68  C   UNL A   1      44.940  22.896  26.227  1.00  0.00     0.135 A 
ATOM     69  F   UNL A   1      41.892  21.325  27.391  1.00  0.00    -0.206 F 
ATOM     70  C   UNL A   1      43.495  20.567  25.900  1.00  0.00     0.059 A 
ATOM     71  C   UNL A   1      45.432  21.890  25.387  1.00  0.00     0.059 A 
ATOM     72  F   UNL A   1      45.591  24.065  26.171  1.00  0.00    -0.206 F 
ATOM     73  C   UNL A   1      44.708  20.718  25.240  1.00  0.00     0.060 A 
BRANCH  73  74
ATOM     74  S   UNL A   1      45.312  19.380  24.191  1.00  0.00     0.124 S 
ATOM     75  O   UNL A   1      44.589  19.612  22.944  1.00  0.00    -0.237 OA
ATOM     76  O   UNL A   1      46.745  19.648  24.155  1.00  0.00    -0.237 OA
ATOM     77  O   UNL A   1      44.916  18.175  24.917  1.00  0.00    -0.744 OA
ENDBRANCH  73  74
ENDBRANCH  52  66
BRANCH  53  78
ATOM     78  C   UNL A   1      41.488  30.273  33.005  1.00  0.00     0.058 A 
ATOM     79  C   UNL A   1      40.286  29.573  33.231  1.00  0.00     0.135 A 
ATOM     80  C   UNL A   1      41.617  31.528  33.614  1.00  0.00     0.135 A 
ATOM     81  F   UNL A   1      40.091  28.376  32.655  1.00  0.00    -0.206 F 
ATOM     82  C   UNL A   1      39.320  30.022  34.128  1.00  0.00     0.059 A 
ATOM     83  C   UNL A   1      40.658  32.002  34.520  1.00  0.00     0.059 A 
ATOM     84  F   UNL A   1      42.723  32.261  33.420  1.00  0.00    -0.206 F 
ATOM     85  C   UNL A   1      39.546  31.209  34.819  1.00  0.00     0.060 A 
BRANCH  85  86
ATOM     86  S   UNL A   1      38.403  31.646  36.154  1.00  0.00     0.124 S 
ATOM     87  O   UNL A   1      37.260  32.182  35.424  1.00  0.00    -0.237 OA
ATOM     88  O   UNL A   1      38.173  30.351  36.794  1.00  0.00    -0.237 OA
ATOM     89  O   UNL A   1      39.159  32.614  36.937  1.00  0.00    -0.744 OA
ENDBRANCH  85  86
ENDBRANCH  53  78
BRANCH  65  90
ATOM     90  C   UNL A   1      44.932  23.834  33.659  1.00  0.00     0.058 A 
ATOM     91  C   UNL A   1      44.033  22.829  34.052  1.00  0.00     0.135 A 
ATOM     92  C   UNL A   1      46.286  23.613  34.011  1.00  0.00     0.135 A 
ATOM     93  F   UNL A   1      42.742  22.869  33.689  1.00  0.00    -0.206 F 
ATOM     94  C   UNL A   1      44.432  21.715  34.796  1.00  0.00     0.059 A 
ATOM     95  C   UNL A   1      46.715  22.482  34.702  1.00  0.00     0.059 A 
ATOM     96  F   UNL A   1      47.247  24.490  33.681  1.00  0.00    -0.206 F 
ATOM     97  C   UNL A   1      45.776  21.548  35.113  1.00  0.00     0.060 A 
BRANCH  97  98
ATOM     98  S   UNL A   1      46.321  20.078  36.002  1.00  0.00     0.124 S 
ATOM     99  O   UNL A   1      47.770  20.171  35.860  1.00  0.00    -0.237 OA
ATOM    100  O   UNL A   1      45.805  20.299  37.350  1.00  0.00    -0.237 OA
ATOM    101  O   UNL A   1      45.679  18.993  35.267  1.00  0.00    -0.744 OA
ENDBRANCH  97  98
ENDBRANCH  65  90
ENDBRANCH  39  40
ENDBRANCH  31  34
ENDBRANCH   1  30
TORSDOF 15
ENDMDL
MODEL 2
REMARK VINA RESULT:     -14.9      5.076     11.376
REMARK SMILES Cc1ccccc1-c1c(Cl)ccc2c1C=C(C(=O)NCCCNC(=O)c1ccc(-c3c4nc(c(-c5c(F)cc(S(=O)(=O)[O-])cc5F)c5ccc([nH]5)c(-c5c(F)cc(S(=O)(=O)[O-])cc5F)c5nc(c(-c6c(F)cc(S(=O)(=O)[O-])cc6F)c6ccc3[nH]6)C=C5)C=C4)cc1)[C@@H](C(F)(F)F)O2
REMARK SMILES IDX 22 1 21 2 20 3 19 4 17 5 18 6 16 8 8 9 9 10 14 11 10 12
REMARK SMILES IDX 11 13 13 14 15 15 12 16 97 17 92 18 7 19 1 20 2 21 3 22 4 23
REMARK SMILES IDX 6 24 5 25 93 26 94 27 95 28 96 29 23 30 24 31 25 33 26 34
REMARK SMILES IDX 27 35 91 36 28 37 90 38 29 39 30 40 31 41 84 42 32 43 89 44
REMARK SMILES IDX 83 45 85 46 33 47 88 48 82 49 81 50 34 52 68 53 47 54 67 55
REMARK SMILES IDX 48 56 51 57 66 58 86 59 49 60 50 61 65 63 87 64 52 65 35 66
REMARK SMILES IDX 36 67 45 68 37 69 38 70 44 71 46 72 39 73 40 74 41 75 42 76
REMARK SMILES IDX 43 77 69 78 70 79 79 80 71 81 72 82 78 83 80 84 73 85 74 86
REMARK SMILES IDX 75 87 76 88 77 89 53 90 54 91 63 92 55 93 56 94 62 95 64 96
REMARK SMILES IDX 57 97 58 98 59 99 60 100 61 101
REMARK H PARENT 19 7 23 32 85 51 51 62
REMARK Flexibility Score: inf
ROOT
ATOM      1  C   UNL A   1      38.960  23.182  26.162  1.00  0.00     0.118 C 
ENDROOT
BRANCH   1   2
ATOM      2  C   UNL A   1      38.659  21.774  25.671  1.00  0.00     0.042 C 
BRANCH   2   3
ATOM      3  C   UNL A   1      37.192  21.583  25.337  1.00  0.00     0.118 C 
BRANCH   3   4
ATOM      4  N   UNL A   1      36.736  22.589  24.396  1.00  0.00    -0.352 N 
ATOM      5  C   UNL A   1      35.607  23.324  24.317  1.00  0.00     0.251 C 
ATOM      6  O   UNL A   1      35.418  23.947  23.269  1.00  0.00    -0.270 OA
ATOM      7  H   UNL A   1      37.377  22.772  23.672  1.00  0.00     0.163 HD
BRANCH   5   8
ATOM      8  C   UNL A   1      34.615  23.480  25.432  1.00  0.00     0.067 C 
ATOM      9  C   UNL A   1      31.991  26.002  24.855  1.00  0.00     0.012 A 
ATOM     10  C   UNL A   1      30.832  25.998  24.038  1.00  0.00     0.049 A 
ATOM     11  C   UNL A   1      32.644  24.757  25.070  1.00  0.00     0.027 A 
ATOM     12  Cl  UNL A   1      29.971  27.453  23.649  1.00  0.00    -0.084 Cl
ATOM     13  C   UNL A   1      30.311  24.813  23.505  1.00  0.00     0.025 A 
ATOM     14  C   UNL A   1      32.063  23.567  24.573  1.00  0.00     0.128 A 
ATOM     15  C   UNL A   1      34.021  24.671  25.622  1.00  0.00     0.026 C 
ATOM     16  C   UNL A   1      30.913  23.596  23.793  1.00  0.00     0.049 A 
ATOM     17  O   UNL A   1      32.584  22.311  24.772  1.00  0.00    -0.475 OA
ATOM     18  C   UNL A   1      33.748  22.255  25.623  1.00  0.00     0.314 C 
BRANCH   9  19
ATOM     19  C   UNL A   1      32.391  27.238  25.579  1.00  0.00    -0.013 A 
ATOM     20  C   UNL A   1      34.036  28.140  23.801  1.00  0.00     0.045 C 
ATOM     21  C   UNL A   1      33.315  28.203  25.121  1.00  0.00    -0.043 A 
ATOM     22  C   UNL A   1      33.628  29.305  25.944  1.00  0.00     0.004 A 
ATOM     23  C   UNL A   1      33.010  29.488  27.179  1.00  0.00     0.000 A 
ATOM     24  C   UNL A   1      31.782  27.452  26.837  1.00  0.00     0.009 A 
ATOM     25  C   UNL A   1      32.074  28.566  27.622  1.00  0.00     0.001 A 
ENDBRANCH   9  19
BRANCH  18  26
ATOM     26  C   UNL A   1      33.364  22.029  27.095  1.00  0.00     0.429 C 
ATOM     27  F   UNL A   1      33.391  20.710  27.412  1.00  0.00    -0.167 F 
ATOM     28  F   UNL A   1      34.235  22.645  27.935  1.00  0.00    -0.167 F 
ATOM     29  F   UNL A   1      32.127  22.480  27.405  1.00  0.00    -0.167 F 
ENDBRANCH  18  26
ENDBRANCH   5   8
ENDBRANCH   3   4
ENDBRANCH   2   3
ENDBRANCH   1   2
BRANCH   1  30
ATOM     30  N   UNL A   1      40.372  23.357  26.505  1.00  0.00    -0.352 N 
ATOM     31  C   UNL A   1      41.035  24.513  26.870  1.00  0.00     0.251 C 
ATOM     32  H   UNL A   1      40.924  22.542  26.470  1.00  0.00     0.163 HD
ATOM     33  O   UNL A   1      42.248  24.575  27.032  1.00  0.00    -0.269 OA
BRANCH  31  34
ATOM     34  C   UNL A   1      40.191  25.674  27.195  1.00  0.00     0.039 A 
ATOM     35  C   UNL A   1      40.482  26.858  26.512  1.00  0.00     0.014 A 
ATOM     36  C   UNL A   1      39.485  25.669  28.395  1.00  0.00     0.014 A 
ATOM     37  C   UNL A   1      40.281  28.067  27.161  1.00  0.00     0.010 A 
ATOM     38  C   UNL A   1      39.381  26.864  29.078  1.00  0.00     0.010 A 
ATOM     39  C   UNL A   1      39.847  28.047  28.487  1.00  0.00    -0.014 A 
BRANCH  39  40
ATOM     40  C   UNL A   1      39.949  29.219  29.345  1.00  0.00     0.031 A 
ATOM     41  C   UNL A   1      38.905  30.257  29.259  1.00  0.00     0.074 A 
ATOM     42  C   UNL A   1      41.000  29.352  30.185  1.00  0.00     0.049 A 
ATOM     43  N   UNL A   1      39.078  31.502  29.541  1.00  0.00    -0.248 NA
ATOM     44  C   UNL A   1      37.567  29.958  28.768  1.00  0.00     0.031 C 
ATOM     45  C   UNL A   1      41.192  30.375  31.207  1.00  0.00     0.029 A 
ATOM     46  N   UNL A   1      42.236  28.695  30.106  1.00  0.00    -0.354 N 
ATOM     47  C   UNL A   1      37.845  32.114  29.516  1.00  0.00     0.074 A 
ATOM     48  C   UNL A   1      36.949  31.122  28.973  1.00  0.00     0.031 C 
ATOM     49  C   UNL A   1      42.506  30.489  31.454  1.00  0.00     0.029 A 
ATOM     50  C   UNL A   1      43.209  29.625  30.520  1.00  0.00     0.049 A 
ATOM     51  H   UNL A   1      42.394  27.766  29.818  1.00  0.00     0.167 HD
ATOM     52  C   UNL A   1      37.697  33.348  30.084  1.00  0.00     0.037 A 
ATOM     53  C   UNL A   1      44.187  30.037  29.664  1.00  0.00     0.037 A 
ATOM     54  C   UNL A   1      38.998  33.891  30.480  1.00  0.00     0.049 A 
ATOM     55  C   UNL A   1      44.105  31.508  29.319  1.00  0.00     0.074 A 
ATOM     56  C   UNL A   1      39.683  33.897  31.685  1.00  0.00     0.029 A 
ATOM     57  N   UNL A   1      39.937  34.205  29.499  1.00  0.00    -0.354 N 
ATOM     58  N   UNL A   1      43.061  32.259  29.551  1.00  0.00    -0.248 NA
ATOM     59  C   UNL A   1      45.194  32.254  28.694  1.00  0.00     0.031 C 
ATOM     60  C   UNL A   1      41.060  34.100  31.407  1.00  0.00     0.029 A 
ATOM     61  C   UNL A   1      41.209  34.262  30.041  1.00  0.00     0.049 A 
ATOM     62  H   UNL A   1      39.725  34.364  28.551  1.00  0.00     0.167 HD
ATOM     63  C   UNL A   1      43.302  33.537  29.116  1.00  0.00     0.074 A 
ATOM     64  C   UNL A   1      44.662  33.487  28.609  1.00  0.00     0.031 C 
ATOM     65  C   UNL A   1      42.372  34.537  29.204  1.00  0.00     0.037 A 
BRANCH  52  66
ATOM     66  C   UNL A   1      36.347  33.844  30.578  1.00  0.00     0.058 A 
ATOM     67  C   UNL A   1      35.364  34.296  29.673  1.00  0.00     0.135 A 
ATOM     68  C   UNL A   1      36.003  34.005  31.936  1.00  0.00     0.135 A 
ATOM     69  F   UNL A   1      35.484  34.097  28.353  1.00  0.00    -0.206 F 
ATOM     70  C   UNL A   1      34.216  34.987  30.076  1.00  0.00     0.059 A 
ATOM     71  C   UNL A   1      34.901  34.752  32.365  1.00  0.00     0.059 A 
ATOM     72  F   UNL A   1      36.703  33.397  32.904  1.00  0.00    -0.206 F 
ATOM     73  C   UNL A   1      34.017  35.254  31.424  1.00  0.00     0.060 A 
BRANCH  73  74
ATOM     74  S   UNL A   1      32.595  36.247  31.923  1.00  0.00     0.124 S 
ATOM     75  O   UNL A   1      32.158  36.824  30.655  1.00  0.00    -0.237 OA
ATOM     76  O   UNL A   1      31.712  35.239  32.501  1.00  0.00    -0.237 OA
ATOM     77  O   UNL A   1      33.164  37.201  32.871  1.00  0.00    -0.744 OA
ENDBRANCH  73  74
ENDBRANCH  52  66
BRANCH  53  78
ATOM     78  C   UNL A   1      44.750  28.936  28.832  1.00  0.00     0.058 A 
ATOM     79  C   UNL A   1      44.268  28.811  27.513  1.00  0.00     0.135 A 
ATOM     80  C   UNL A   1      45.959  28.296  29.130  1.00  0.00     0.135 A 
ATOM     81  F   UNL A   1      43.101  29.381  27.171  1.00  0.00    -0.206 F 
ATOM     82  C   UNL A   1      45.011  28.207  26.503  1.00  0.00     0.059 A 
ATOM     83  C   UNL A   1      46.726  27.681  28.130  1.00  0.00     0.059 A 
ATOM     84  F   UNL A   1      46.464  28.351  30.372  1.00  0.00    -0.206 F 
ATOM     85  C   UNL A   1      46.272  27.701  26.808  1.00  0.00     0.060 A 
BRANCH  85  86
ATOM     86  S   UNL A   1      47.319  27.147  25.439  1.00  0.00     0.124 S 
ATOM     87  O   UNL A   1      47.716  28.406  24.819  1.00  0.00    -0.237 OA
ATOM     88  O   UNL A   1      48.391  26.441  26.141  1.00  0.00    -0.237 OA
ATOM     89  O   UNL A   1      46.423  26.312  24.651  1.00  0.00    -0.744 OA
ENDBRANCH  85  86
ENDBRANCH  53  78
BRANCH  65  90
ATOM     90  C   UNL A   1      42.508  35.913  28.589  1.00  0.00     0.058 A 
ATOM     91  C   UNL A   1      42.027  36.252  27.313  1.00  0.00     0.135 A 
ATOM     92  C   UNL A   1      43.015  36.989  29.356  1.00  0.00     0.135 A 
ATOM     93  F   UNL A   1      41.428  35.343  26.530  1.00  0.00    -0.206 F 
ATOM     94  C   UNL A   1      42.101  37.553  26.806  1.00  0.00     0.059 A 
ATOM     95  C   UNL A   1      43.044  38.302  28.894  1.00  0.00     0.059 A 
ATOM     96  F   UNL A   1      43.490  36.800  30.597  1.00  0.00    -0.206 F 
ATOM     97  C   UNL A   1      42.607  38.573  27.605  1.00  0.00     0.060 A 
BRANCH  97  98
ATOM     98  S   UNL A   1      42.636  40.270  27.000  1.00  0.00     0.124 S 
ATOM     99  O   UNL A   1      43.273  40.967  28.111  1.00  0.00    -0.237 OA
ATOM    100  O   UNL A   1      43.433  40.170  25.780  1.00  0.00    -0.237 OA
ATOM    101  O   UNL A   1      41.222  40.567  26.790  1.00  0.00    -0.744 OA
ENDBRANCH  97  98
ENDBRANCH  65  90
ENDBRANCH  39  40
ENDBRANCH  31  34
ENDBRANCH   1  30
TORSDOF 15
ENDMDL
MODEL 3
REMARK VINA RESULT:     -14.7      5.271     11.419
REMARK SMILES Cc1ccccc1-c1c(Cl)ccc2c1C=C(C(=O)NCCCNC(=O)c1ccc(-c3c4nc(c(-c5c(F)cc(S(=O)(=O)[O-])cc5F)c5ccc([nH]5)c(-c5c(F)cc(S(=O)(=O)[O-])cc5F)c5nc(c(-c6c(F)cc(S(=O)(=O)[O-])cc6F)c6ccc3[nH]6)C=C5)C=C4)cc1)[C@@H](C(F)(F)F)O2
REMARK SMILES IDX 22 1 21 2 20 3 19 4 17 5 18 6 16 8 8 9 9 10 14 11 10 12
REMARK SMILES IDX 11 13 13 14 15 15 12 16 97 17 92 18 7 19 1 20 2 21 3 22 4 23
REMARK SMILES IDX 6 24 5 25 93 26 94 27 95 28 96 29 23 30 24 31 25 33 26 34
REMARK SMILES IDX 27 35 91 36 28 37 90 38 29 39 30 40 31 41 84 42 32 43 89 44
REMARK SMILES IDX 83 45 85 46 33 47 88 48 82 49 81 50 34 52 68 53 47 54 67 55
REMARK SMILES IDX 48 56 51 57 66 58 86 59 49 60 50 61 65 63 87 64 52 65 35 66
REMARK SMILES IDX 36 67 45 68 37 69 38 70 44 71 46 72 39 73 40 74 41 75 42 76
REMARK SMILES IDX 43 77 69 78 70 79 79 80 71 81 72 82 78 83 80 84 73 85 74 86
REMARK SMILES IDX 75 87 76 88 77 89 53 90 54 91 63 92 55 93 56 94 62 95 64 96
REMARK SMILES IDX 57 97 58 98 59 99 60 100 61 101
REMARK H PARENT 19 7 23 32 85 51 51 62
REMARK Flexibility Score: inf
ROOT
ATOM      1  C   UNL A   1      39.815  23.176  27.386  1.00  0.00     0.118 C 
ENDROOT
BRANCH   1   2
ATOM      2  C   UNL A   1      38.909  22.544  26.339  1.00  0.00     0.042 C 
BRANCH   2   3
ATOM      3  C   UNL A   1      37.708  23.412  26.019  1.00  0.00     0.118 C 
BRANCH   3   4
ATOM      4  N   UNL A   1      37.492  23.497  24.586  1.00  0.00    -0.352 N 
ATOM      5  C   UNL A   1      36.400  23.328  23.812  1.00  0.00     0.251 C 
ATOM      6  O   UNL A   1      36.584  23.256  22.594  1.00  0.00    -0.270 OA
ATOM      7  H   UNL A   1      38.306  23.722  24.078  1.00  0.00     0.163 HD
BRANCH   5   8
ATOM      8  C   UNL A   1      34.992  23.290  24.328  1.00  0.00     0.067 C 
ATOM      9  C   UNL A   1      33.060  26.390  23.842  1.00  0.00     0.012 A 
ATOM     10  C   UNL A   1      32.456  26.963  22.693  1.00  0.00     0.049 A 
ATOM     11  C   UNL A   1      33.490  25.038  23.748  1.00  0.00     0.027 A 
ATOM     12  Cl  UNL A   1      31.937  28.618  22.652  1.00  0.00    -0.084 Cl
ATOM     13  C   UNL A   1      32.236  26.219  21.528  1.00  0.00     0.025 A 
ATOM     14  C   UNL A   1      33.199  24.290  22.583  1.00  0.00     0.128 A 
ATOM     15  C   UNL A   1      34.412  24.431  24.742  1.00  0.00     0.026 C 
ATOM     16  C   UNL A   1      32.585  24.877  21.482  1.00  0.00     0.049 A 
ATOM     17  O   UNL A   1      33.521  22.965  22.415  1.00  0.00    -0.475 OA
ATOM     18  C   UNL A   1      34.113  22.324  23.566  1.00  0.00     0.314 C 
BRANCH   9  19
ATOM     19  C   UNL A   1      33.082  27.138  25.127  1.00  0.00    -0.013 A 
ATOM     20  C   UNL A   1      30.816  26.292  26.036  1.00  0.00     0.045 C 
ATOM     21  C   UNL A   1      32.077  27.110  26.118  1.00  0.00    -0.043 A 
ATOM     22  C   UNL A   1      32.219  27.912  27.270  1.00  0.00     0.004 A 
ATOM     23  C   UNL A   1      33.352  28.696  27.474  1.00  0.00     0.000 A 
ATOM     24  C   UNL A   1      34.219  27.944  25.363  1.00  0.00     0.009 A 
ATOM     25  C   UNL A   1      34.362  28.702  26.524  1.00  0.00     0.001 A 
ENDBRANCH   9  19
BRANCH  18  26
ATOM     26  C   UNL A   1      33.047  21.668  24.459  1.00  0.00     0.429 C 
ATOM     27  F   UNL A   1      31.874  22.349  24.404  1.00  0.00    -0.167 F 
ATOM     28  F   UNL A   1      32.774  20.400  24.056  1.00  0.00    -0.167 F 
ATOM     29  F   UNL A   1      33.401  21.602  25.763  1.00  0.00    -0.167 F 
ENDBRANCH  18  26
ENDBRANCH   5   8
ENDBRANCH   3   4
ENDBRANCH   2   3
ENDBRANCH   1   2
BRANCH   1  30
ATOM     30  N   UNL A   1      41.073  23.654  26.812  1.00  0.00    -0.352 N 
ATOM     31  C   UNL A   1      41.416  24.938  26.433  1.00  0.00     0.251 C 
ATOM     32  H   UNL A   1      41.769  22.970  26.679  1.00  0.00     0.163 HD
ATOM     33  O   UNL A   1      42.462  25.217  25.857  1.00  0.00    -0.269 OA
BRANCH  31  34
ATOM     34  C   UNL A   1      40.511  26.012  26.872  1.00  0.00     0.039 A 
ATOM     35  C   UNL A   1      40.670  27.248  26.239  1.00  0.00     0.014 A 
ATOM     36  C   UNL A   1      39.887  25.891  28.110  1.00  0.00     0.014 A 
ATOM     37  C   UNL A   1      40.422  28.403  26.965  1.00  0.00     0.010 A 
ATOM     38  C   UNL A   1      39.739  27.039  28.863  1.00  0.00     0.010 A 
ATOM     39  C   UNL A   1      40.077  28.283  28.311  1.00  0.00    -0.014 A 
BRANCH  39  40
ATOM     40  C   UNL A   1      40.147  29.414  29.225  1.00  0.00     0.031 A 
ATOM     41  C   UNL A   1      39.068  30.418  29.200  1.00  0.00     0.074 A 
ATOM     42  C   UNL A   1      41.202  29.543  30.061  1.00  0.00     0.049 A 
ATOM     43  N   UNL A   1      39.200  31.654  29.541  1.00  0.00    -0.248 NA
ATOM     44  C   UNL A   1      37.735  30.097  28.706  1.00  0.00     0.031 C 
ATOM     45  C   UNL A   1      41.369  30.522  31.130  1.00  0.00     0.029 A 
ATOM     46  N   UNL A   1      42.460  28.935  29.939  1.00  0.00    -0.354 N 
ATOM     47  C   UNL A   1      37.946  32.223  29.557  1.00  0.00     0.074 A 
ATOM     48  C   UNL A   1      37.079  31.227  28.973  1.00  0.00     0.031 C 
ATOM     49  C   UNL A   1      42.681  30.669  31.372  1.00  0.00     0.029 A 
ATOM     50  C   UNL A   1      43.404  29.877  30.390  1.00  0.00     0.049 A 
ATOM     51  H   UNL A   1      42.646  28.027  29.604  1.00  0.00     0.167 HD
ATOM     52  C   UNL A   1      37.761  33.421  30.185  1.00  0.00     0.037 A 
ATOM     53  C   UNL A   1      44.358  30.365  29.547  1.00  0.00     0.037 A 
ATOM     54  C   UNL A   1      39.047  33.989  30.597  1.00  0.00     0.049 A 
ATOM     55  C   UNL A   1      44.221  31.846  29.275  1.00  0.00     0.074 A 
ATOM     56  C   UNL A   1      39.744  33.961  31.794  1.00  0.00     0.029 A 
ATOM     57  N   UNL A   1      39.965  34.384  29.624  1.00  0.00    -0.354 N 
ATOM     58  N   UNL A   1      43.154  32.548  29.553  1.00  0.00    -0.248 NA
ATOM     59  C   UNL A   1      45.277  32.660  28.678  1.00  0.00     0.031 C 
ATOM     60  C   UNL A   1      41.111  34.225  31.515  1.00  0.00     0.029 A 
ATOM     61  C   UNL A   1      41.240  34.459  30.157  1.00  0.00     0.049 A 
ATOM     62  H   UNL A   1      39.737  34.581  28.686  1.00  0.00     0.167 HD
ATOM     63  C   UNL A   1      43.347  33.854  29.179  1.00  0.00     0.074 A 
ATOM     64  C   UNL A   1      44.702  33.876  28.659  1.00  0.00     0.031 C 
ATOM     65  C   UNL A   1      42.383  34.815  29.324  1.00  0.00     0.037 A 
BRANCH  52  66
ATOM     66  C   UNL A   1      36.401  33.845  30.715  1.00  0.00     0.058 A 
ATOM     67  C   UNL A   1      35.373  34.247  29.836  1.00  0.00     0.135 A 
ATOM     68  C   UNL A   1      36.083  33.984  32.081  1.00  0.00     0.135 A 
ATOM     69  F   UNL A   1      35.470  34.057  28.514  1.00  0.00    -0.206 F 
ATOM     70  C   UNL A   1      34.201  34.875  30.271  1.00  0.00     0.059 A 
ATOM     71  C   UNL A   1      34.955  34.672  32.541  1.00  0.00     0.059 A 
ATOM     72  F   UNL A   1      36.838  33.412  33.030  1.00  0.00    -0.206 F 
ATOM     73  C   UNL A   1      34.022  35.129  31.625  1.00  0.00     0.060 A 
BRANCH  73  74
ATOM     74  S   UNL A   1      32.563  36.045  32.163  1.00  0.00     0.124 S 
ATOM     75  O   UNL A   1      32.168  36.745  30.944  1.00  0.00    -0.237 OA
ATOM     76  O   UNL A   1      31.676  34.971  32.595  1.00  0.00    -0.237 OA
ATOM     77  O   UNL A   1      33.076  36.903  33.228  1.00  0.00    -0.744 OA
ENDBRANCH  73  74
ENDBRANCH  52  66
BRANCH  53  78
ATOM     78  C   UNL A   1      44.950  29.326  28.657  1.00  0.00     0.058 A 
ATOM     79  C   UNL A   1      44.412  29.203  27.359  1.00  0.00     0.135 A 
ATOM     80  C   UNL A   1      46.212  28.760  28.878  1.00  0.00     0.135 A 
ATOM     81  F   UNL A   1      43.195  29.703  27.091  1.00  0.00    -0.206 F 
ATOM     82  C   UNL A   1      45.143  28.677  26.297  1.00  0.00     0.059 A 
ATOM     83  C   UNL A   1      46.967  28.225  27.824  1.00  0.00     0.059 A 
ATOM     84  F   UNL A   1      46.772  28.817  30.095  1.00  0.00    -0.206 F 
ATOM     85  C   UNL A   1      46.448  28.249  26.528  1.00  0.00     0.060 A 
BRANCH  85  86
ATOM     86  S   UNL A   1      47.460  27.802  25.094  1.00  0.00     0.124 S 
ATOM     87  O   UNL A   1      46.836  28.568  24.020  1.00  0.00    -0.237 OA
ATOM     88  O   UNL A   1      48.785  28.272  25.497  1.00  0.00    -0.237 OA
ATOM     89  O   UNL A   1      47.300  26.357  25.011  1.00  0.00    -0.744 OA
ENDBRANCH  85  86
ENDBRANCH  53  78
BRANCH  65  90
ATOM     90  C   UNL A   1      42.465  36.223  28.776  1.00  0.00     0.058 A 
ATOM     91  C   UNL A   1      43.227  37.249  29.360  1.00  0.00     0.135 A 
ATOM     92  C   UNL A   1      41.872  36.537  27.529  1.00  0.00     0.135 A 
ATOM     93  F   UNL A   1      43.925  37.043  30.487  1.00  0.00    -0.206 F 
ATOM     94  C   UNL A   1      43.343  38.517  28.784  1.00  0.00     0.059 A 
ATOM     95  C   UNL A   1      42.021  37.775  26.909  1.00  0.00     0.059 A 
ATOM     96  F   UNL A   1      41.132  35.639  26.861  1.00  0.00    -0.206 F 
ATOM     97  C   UNL A   1      42.740  38.771  27.556  1.00  0.00     0.060 A 
BRANCH  97  98
ATOM     98  S   UNL A   1      42.944  40.374  26.759  1.00  0.00     0.124 S 
ATOM     99  O   UNL A   1      44.030  40.100  25.825  1.00  0.00    -0.237 OA
ATOM    100  O   UNL A   1      41.636  40.608  26.153  1.00  0.00    -0.237 OA
ATOM    101  O   UNL A   1      43.273  41.255  27.875  1.00  0.00    -0.744 OA
ENDBRANCH  97  98
ENDBRANCH  65  90
ENDBRANCH  39  40
ENDBRANCH  31  34
ENDBRANCH   1  30
TORSDOF 15
ENDMDL
