MODEL 1
REMARK VINA RESULT:     -12.7      0.000      0.000
REMARK SMILES Cc1cc(C)c2c(c1)C=C(C(=O)NCCCNC(=O)c1ccc(-c3c4nc(c(-c5c(F)cc(S(=O)(=O)[O-])cc5F)c5ccc([nH]5)c(-c5c(F)cc(S(=O)(=O)[O-])cc5F)c5nc(c(-c6c(F)cc(S(=O)(=O)[O-])cc6F)c6ccc3[nH]6)C=C5)C=C4)cc1)[C@@H](C(F)(F)F)O2
REMARK SMILES IDX 16 1 15 2 14 3 13 4 11 5 12 6 10 8 1 9 2 10 3 11 8 12 4 13
REMARK SMILES IDX 7 14 5 15 6 16 9 17 91 18 86 19 87 20 88 21 89 22 90 23
REMARK SMILES IDX 17 24 18 25 19 27 20 28 21 29 85 30 22 31 84 32 23 33 24 34
REMARK SMILES IDX 25 35 78 36 26 37 83 38 77 39 79 40 27 41 82 42 76 43 75 44
REMARK SMILES IDX 28 46 62 47 41 48 61 49 42 50 45 51 60 52 80 53 43 54 44 55
REMARK SMILES IDX 59 57 81 58 46 59 29 60 30 61 39 62 31 63 32 64 38 65 40 66
REMARK SMILES IDX 33 67 34 68 35 69 36 70 37 71 63 72 64 73 73 74 65 75 66 76
REMARK SMILES IDX 72 77 74 78 67 79 68 80 69 81 70 82 71 83 47 84 48 85 57 86
REMARK SMILES IDX 49 87 50 88 56 89 58 90 51 91 52 92 53 93 54 94 55 95
REMARK H PARENT 13 7 17 26 79 45 45 56
REMARK Flexibility Score: inf
ROOT
ATOM      1  C   UNL A   1      35.678  31.654  28.448  1.00  0.00     0.118 C 
ENDROOT
BRANCH   1   2
ATOM      2  C   UNL A   1      34.463  31.142  27.686  1.00  0.00     0.042 C 
BRANCH   2   3
ATOM      3  C   UNL A   1      34.500  29.634  27.489  1.00  0.00     0.118 C 
BRANCH   3   4
ATOM      4  N   UNL A   1      33.223  29.012  27.808  1.00  0.00    -0.352 N 
ATOM      5  C   UNL A   1      32.422  28.058  27.278  1.00  0.00     0.251 C 
ATOM      6  O   UNL A   1      31.384  27.835  27.910  1.00  0.00    -0.270 OA
ATOM      7  H   UNL A   1      32.838  29.386  28.633  1.00  0.00     0.163 HD
BRANCH   5   8
ATOM      8  C   UNL A   1      32.711  27.287  26.036  1.00  0.00     0.067 C 
ATOM      9  C   UNL A   1      36.127  22.550  23.988  1.00  0.00     0.044 C 
ATOM     10  C   UNL A   1      35.091  23.635  23.936  1.00  0.00    -0.050 A 
ATOM     11  C   UNL A   1      34.422  23.899  22.733  1.00  0.00     0.010 A 
ATOM     12  C   UNL A   1      34.787  24.395  25.073  1.00  0.00     0.015 A 
ATOM     13  C   UNL A   1      33.450  24.903  22.657  1.00  0.00    -0.008 A 
ATOM     14  C   UNL A   1      33.825  25.407  25.010  1.00  0.00     0.018 A 
ATOM     15  C   UNL A   1      32.733  25.180  21.366  1.00  0.00     0.048 C 
ATOM     16  C   UNL A   1      33.166  25.654  23.803  1.00  0.00     0.130 A 
ATOM     17  C   UNL A   1      33.474  26.188  26.190  1.00  0.00     0.025 C 
ATOM     18  O   UNL A   1      32.188  26.604  23.700  1.00  0.00    -0.475 OA
ATOM     19  C   UNL A   1      32.240  27.684  24.666  1.00  0.00     0.314 C 
BRANCH  19  20
ATOM     20  C   UNL A   1      33.050  28.856  24.078  1.00  0.00     0.429 C 
ATOM     21  F   UNL A   1      32.739  30.014  24.713  1.00  0.00    -0.167 F 
ATOM     22  F   UNL A   1      34.386  28.690  24.220  1.00  0.00    -0.167 F 
ATOM     23  F   UNL A   1      32.821  29.043  22.759  1.00  0.00    -0.167 F 
ENDBRANCH  19  20
ENDBRANCH   5   8
ENDBRANCH   3   4
ENDBRANCH   2   3
ENDBRANCH   1   2
BRANCH   1  24
ATOM     24  N   UNL A   1      35.591  31.350  29.874  1.00  0.00    -0.352 N 
ATOM     25  C   UNL A   1      36.376  30.540  30.656  1.00  0.00     0.251 C 
ATOM     26  H   UNL A   1      34.853  31.796  30.349  1.00  0.00     0.163 HD
ATOM     27  O   UNL A   1      35.972  30.187  31.762  1.00  0.00    -0.269 OA
BRANCH  25  28
ATOM     28  C   UNL A   1      37.695  30.093  30.167  1.00  0.00     0.039 A 
ATOM     29  C   UNL A   1      37.961  30.106  28.797  1.00  0.00     0.014 A 
ATOM     30  C   UNL A   1      38.662  29.636  31.067  1.00  0.00     0.014 A 
ATOM     31  C   UNL A   1      39.223  29.722  28.338  1.00  0.00     0.010 A 
ATOM     32  C   UNL A   1      39.945  29.352  30.620  1.00  0.00     0.010 A 
ATOM     33  C   UNL A   1      40.235  29.376  29.250  1.00  0.00    -0.014 A 
BRANCH  33  34
ATOM     34  C   UNL A   1      41.594  29.005  28.788  1.00  0.00     0.031 A 
ATOM     35  C   UNL A   1      42.686  30.040  28.766  1.00  0.00     0.074 A 
ATOM     36  C   UNL A   1      41.828  27.754  28.345  1.00  0.00     0.049 A 
ATOM     37  N   UNL A   1      43.925  29.921  28.367  1.00  0.00    -0.248 NA
ATOM     38  C   UNL A   1      42.334  31.396  29.225  1.00  0.00     0.031 C 
ATOM     39  C   UNL A   1      40.829  26.684  28.266  1.00  0.00     0.029 A 
ATOM     40  N   UNL A   1      42.977  27.167  27.880  1.00  0.00    -0.354 N 
ATOM     41  C   UNL A   1      44.494  31.179  28.521  1.00  0.00     0.074 A 
ATOM     42  C   UNL A   1      43.449  32.066  28.980  1.00  0.00     0.031 C 
ATOM     43  C   UNL A   1      41.420  25.561  27.829  1.00  0.00     0.029 A 
ATOM     44  C   UNL A   1      42.828  25.837  27.561  1.00  0.00     0.049 A 
ATOM     45  H   UNL A   1      43.828  27.652  27.784  1.00  0.00     0.167 HD
ATOM     46  C   UNL A   1      45.781  31.554  28.337  1.00  0.00     0.037 A 
ATOM     47  C   UNL A   1      43.729  24.942  27.114  1.00  0.00     0.037 A 
ATOM     48  C   UNL A   1      46.821  30.655  27.918  1.00  0.00     0.049 A 
ATOM     49  C   UNL A   1      45.153  25.380  26.911  1.00  0.00     0.074 A 
ATOM     50  C   UNL A   1      48.168  30.919  27.751  1.00  0.00     0.029 A 
ATOM     51  N   UNL A   1      46.631  29.317  27.607  1.00  0.00    -0.354 N 
ATOM     52  N   UNL A   1      45.686  26.561  27.120  1.00  0.00    -0.248 NA
ATOM     53  C   UNL A   1      46.099  24.372  26.412  1.00  0.00     0.031 C 
ATOM     54  C   UNL A   1      48.787  29.748  27.305  1.00  0.00     0.029 A 
ATOM     55  C   UNL A   1      47.833  28.744  27.233  1.00  0.00     0.049 A 
ATOM     56  H   UNL A   1      45.767  28.845  27.646  1.00  0.00     0.167 HD
ATOM     57  C   UNL A   1      47.033  26.432  26.800  1.00  0.00     0.074 A 
ATOM     58  C   UNL A   1      47.236  25.057  26.391  1.00  0.00     0.031 C 
ATOM     59  C   UNL A   1      48.011  27.368  26.841  1.00  0.00     0.037 A 
BRANCH  46  60
ATOM     60  C   UNL A   1      46.139  32.986  28.619  1.00  0.00     0.058 A 
ATOM     61  C   UNL A   1      46.033  33.973  27.626  1.00  0.00     0.135 A 
ATOM     62  C   UNL A   1      46.554  33.387  29.899  1.00  0.00     0.135 A 
ATOM     63  F   UNL A   1      45.659  33.641  26.380  1.00  0.00    -0.206 F 
ATOM     64  C   UNL A   1      46.351  35.302  27.883  1.00  0.00     0.059 A 
ATOM     65  C   UNL A   1      46.851  34.717  30.187  1.00  0.00     0.059 A 
ATOM     66  F   UNL A   1      46.675  32.483  30.884  1.00  0.00    -0.206 F 
ATOM     67  C   UNL A   1      46.757  35.664  29.168  1.00  0.00     0.060 A 
BRANCH  67  68
ATOM     68  S   UNL A   1      47.153  37.396  29.485  1.00  0.00     0.124 S 
ATOM     69  O   UNL A   1      48.033  37.704  28.362  1.00  0.00    -0.237 OA
ATOM     70  O   UNL A   1      45.838  38.027  29.449  1.00  0.00    -0.237 OA
ATOM     71  O   UNL A   1      47.796  37.365  30.796  1.00  0.00    -0.744 OA
ENDBRANCH  67  68
ENDBRANCH  46  60
BRANCH  47  72
ATOM     72  C   UNL A   1      43.317  23.531  26.880  1.00  0.00     0.058 A 
ATOM     73  C   UNL A   1      43.154  23.041  25.577  1.00  0.00     0.135 A 
ATOM     74  C   UNL A   1      43.118  22.638  27.944  1.00  0.00     0.135 A 
ATOM     75  F   UNL A   1      43.330  23.857  24.526  1.00  0.00    -0.206 F 
ATOM     76  C   UNL A   1      42.803  21.717  25.334  1.00  0.00     0.059 A 
ATOM     77  C   UNL A   1      42.787  21.304  27.727  1.00  0.00     0.059 A 
ATOM     78  F   UNL A   1      43.279  23.054  29.210  1.00  0.00    -0.206 F 
ATOM     79  C   UNL A   1      42.627  20.854  26.416  1.00  0.00     0.060 A 
BRANCH  79  80
ATOM     80  S   UNL A   1      42.230  19.124  26.085  1.00  0.00     0.124 S 
ATOM     81  O   UNL A   1      42.645  18.482  27.328  1.00  0.00    -0.237 OA
ATOM     82  O   UNL A   1      40.791  19.182  25.847  1.00  0.00    -0.237 OA
ATOM     83  O   UNL A   1      43.039  18.811  24.911  1.00  0.00    -0.744 OA
ENDBRANCH  79  80
ENDBRANCH  47  72
BRANCH  59  84
ATOM     84  C   UNL A   1      49.398  26.952  26.446  1.00  0.00     0.058 A 
ATOM     85  C   UNL A   1      50.241  26.285  27.346  1.00  0.00     0.135 A 
ATOM     86  C   UNL A   1      49.836  27.105  25.120  1.00  0.00     0.135 A 
ATOM     87  F   UNL A   1      49.871  26.122  28.626  1.00  0.00    -0.206 F 
ATOM     88  C   UNL A   1      51.469  25.773  26.942  1.00  0.00     0.059 A 
ATOM     89  C   UNL A   1      51.049  26.581  24.688  1.00  0.00     0.059 A 
ATOM     90  F   UNL A   1      49.058  27.729  24.219  1.00  0.00    -0.206 F 
ATOM     91  C   UNL A   1      51.857  25.913  25.608  1.00  0.00     0.060 A 
BRANCH  91  92
ATOM     92  S   UNL A   1      53.410  25.157  25.081  1.00  0.00     0.124 S 
ATOM     93  O   UNL A   1      53.464  25.543  23.675  1.00  0.00    -0.237 OA
ATOM     94  O   UNL A   1      54.383  25.805  25.955  1.00  0.00    -0.237 OA
ATOM     95  O   UNL A   1      53.199  23.734  25.333  1.00  0.00    -0.744 OA
ENDBRANCH  91  92
ENDBRANCH  59  84
ENDBRANCH  33  34
ENDBRANCH  25  28
ENDBRANCH   1  24
TORSDOF 14
ENDMDL
MODEL 2
REMARK VINA RESULT:     -12.7      6.601     12.082
REMARK SMILES Cc1cc(C)c2c(c1)C=C(C(=O)NCCCNC(=O)c1ccc(-c3c4nc(c(-c5c(F)cc(S(=O)(=O)[O-])cc5F)c5ccc([nH]5)c(-c5c(F)cc(S(=O)(=O)[O-])cc5F)c5nc(c(-c6c(F)cc(S(=O)(=O)[O-])cc6F)c6ccc3[nH]6)C=C5)C=C4)cc1)[C@@H](C(F)(F)F)O2
REMARK SMILES IDX 16 1 15 2 14 3 13 4 11 5 12 6 10 8 1 9 2 10 3 11 8 12 4 13
REMARK SMILES IDX 7 14 5 15 6 16 9 17 91 18 86 19 87 20 88 21 89 22 90 23
REMARK SMILES IDX 17 24 18 25 19 27 20 28 21 29 85 30 22 31 84 32 23 33 24 34
REMARK SMILES IDX 25 35 78 36 26 37 83 38 77 39 79 40 27 41 82 42 76 43 75 44
REMARK SMILES IDX 28 46 62 47 41 48 61 49 42 50 45 51 60 52 80 53 43 54 44 55
REMARK SMILES IDX 59 57 81 58 46 59 29 60 30 61 39 62 31 63 32 64 38 65 40 66
REMARK SMILES IDX 33 67 34 68 35 69 36 70 37 71 63 72 64 73 73 74 65 75 66 76
REMARK SMILES IDX 72 77 74 78 67 79 68 80 69 81 70 82 71 83 47 84 48 85 57 86
REMARK SMILES IDX 49 87 50 88 56 89 58 90 51 91 52 92 53 93 54 94 55 95
REMARK H PARENT 13 7 17 26 79 45 45 56
REMARK Flexibility Score: inf
ROOT
ATOM      1  C   UNL A   1      40.448  23.310  27.150  1.00  0.00     0.118 C 
ENDROOT
BRANCH   1   2
ATOM      2  C   UNL A   1      39.240  22.599  26.554  1.00  0.00     0.042 C 
BRANCH   2   3
ATOM      3  C   UNL A   1      38.133  23.571  26.171  1.00  0.00     0.118 C 
BRANCH   3   4
ATOM      4  N   UNL A   1      37.669  23.356  24.808  1.00  0.00    -0.352 N 
ATOM      5  C   UNL A   1      36.489  23.381  24.144  1.00  0.00     0.251 C 
ATOM      6  O   UNL A   1      36.562  23.128  22.937  1.00  0.00    -0.270 OA
ATOM      7  H   UNL A   1      38.414  23.132  24.206  1.00  0.00     0.163 HD
BRANCH   5   8
ATOM      8  C   UNL A   1      35.166  23.692  24.756  1.00  0.00     0.067 C 
ATOM      9  C   UNL A   1      31.862  28.451  26.933  1.00  0.00     0.044 C 
ATOM     10  C   UNL A   1      32.141  27.041  26.503  1.00  0.00    -0.050 A 
ATOM     11  C   UNL A   1      31.163  26.054  26.682  1.00  0.00     0.010 A 
ATOM     12  C   UNL A   1      33.372  26.693  25.930  1.00  0.00     0.015 A 
ATOM     13  C   UNL A   1      31.395  24.731  26.287  1.00  0.00    -0.008 A 
ATOM     14  C   UNL A   1      33.621  25.374  25.539  1.00  0.00     0.018 A 
ATOM     15  C   UNL A   1      30.341  23.677  26.478  1.00  0.00     0.048 C 
ATOM     16  C   UNL A   1      32.632  24.404  25.722  1.00  0.00     0.130 A 
ATOM     17  C   UNL A   1      34.884  25.000  24.913  1.00  0.00     0.025 C 
ATOM     18  O   UNL A   1      32.812  23.110  25.319  1.00  0.00    -0.475 OA
ATOM     19  C   UNL A   1      34.185  22.654  25.221  1.00  0.00     0.314 C 
BRANCH  19  20
ATOM     20  C   UNL A   1      34.602  22.002  26.554  1.00  0.00     0.429 C 
ATOM     21  F   UNL A   1      34.880  22.951  27.481  1.00  0.00    -0.167 F 
ATOM     22  F   UNL A   1      33.625  21.226  27.083  1.00  0.00    -0.167 F 
ATOM     23  F   UNL A   1      35.697  21.218  26.436  1.00  0.00    -0.167 F 
ENDBRANCH  19  20
ENDBRANCH   5   8
ENDBRANCH   3   4
ENDBRANCH   2   3
ENDBRANCH   1   2
BRANCH   1  24
ATOM     24  N   UNL A   1      41.179  24.074  26.142  1.00  0.00    -0.352 N 
ATOM     25  C   UNL A   1      41.445  25.419  26.072  1.00  0.00     0.251 C 
ATOM     26  H   UNL A   1      41.536  23.541  25.395  1.00  0.00     0.163 HD
ATOM     27  O   UNL A   1      41.819  25.910  25.009  1.00  0.00    -0.269 OA
BRANCH  25  28
ATOM     28  C   UNL A   1      41.279  26.269  27.267  1.00  0.00     0.039 A 
ATOM     29  C   UNL A   1      42.174  27.316  27.496  1.00  0.00     0.014 A 
ATOM     30  C   UNL A   1      40.248  26.014  28.176  1.00  0.00     0.014 A 
ATOM     31  C   UNL A   1      41.992  28.145  28.604  1.00  0.00     0.010 A 
ATOM     32  C   UNL A   1      40.009  26.897  29.219  1.00  0.00     0.010 A 
ATOM     33  C   UNL A   1      40.888  27.963  29.455  1.00  0.00    -0.014 A 
BRANCH  33  34
ATOM     34  C   UNL A   1      40.652  28.858  30.614  1.00  0.00     0.031 A 
ATOM     35  C   UNL A   1      41.496  28.718  31.851  1.00  0.00     0.074 A 
ATOM     36  C   UNL A   1      39.650  29.757  30.567  1.00  0.00     0.049 A 
ATOM     37  N   UNL A   1      41.424  29.379  32.976  1.00  0.00    -0.248 NA
ATOM     38  C   UNL A   1      42.542  27.679  31.836  1.00  0.00     0.031 C 
ATOM     39  C   UNL A   1      38.730  29.940  29.440  1.00  0.00     0.029 A 
ATOM     40  N   UNL A   1      39.236  30.688  31.484  1.00  0.00    -0.354 N 
ATOM     41  C   UNL A   1      42.404  28.836  33.798  1.00  0.00     0.074 A 
ATOM     42  C   UNL A   1      43.009  27.742  33.073  1.00  0.00     0.031 C 
ATOM     43  C   UNL A   1      37.894  30.954  29.714  1.00  0.00     0.029 A 
ATOM     44  C   UNL A   1      38.192  31.469  31.048  1.00  0.00     0.049 A 
ATOM     45  H   UNL A   1      39.649  30.789  32.373  1.00  0.00     0.167 HD
ATOM     46  C   UNL A   1      42.792  29.238  35.030  1.00  0.00     0.037 A 
ATOM     47  C   UNL A   1      37.554  32.490  31.651  1.00  0.00     0.037 A 
ATOM     48  C   UNL A   1      42.210  30.352  35.726  1.00  0.00     0.049 A 
ATOM     49  C   UNL A   1      37.999  32.917  33.023  1.00  0.00     0.074 A 
ATOM     50  C   UNL A   1      42.564  30.877  36.956  1.00  0.00     0.029 A 
ATOM     51  N   UNL A   1      41.156  31.117  35.250  1.00  0.00    -0.354 N 
ATOM     52  N   UNL A   1      38.968  32.430  33.760  1.00  0.00    -0.248 NA
ATOM     53  C   UNL A   1      37.268  34.029  33.647  1.00  0.00     0.031 C 
ATOM     54  C   UNL A   1      41.701  31.938  37.239  1.00  0.00     0.029 A 
ATOM     55  C   UNL A   1      40.835  32.101  36.168  1.00  0.00     0.049 A 
ATOM     56  H   UNL A   1      40.703  30.980  34.386  1.00  0.00     0.167 HD
ATOM     57  C   UNL A   1      38.979  33.189  34.925  1.00  0.00     0.074 A 
ATOM     58  C   UNL A   1      37.924  34.173  34.792  1.00  0.00     0.031 C 
ATOM     59  C   UNL A   1      39.788  33.078  36.007  1.00  0.00     0.037 A 
BRANCH  46  60
ATOM     60  C   UNL A   1      43.919  28.490  35.686  1.00  0.00     0.058 A 
ATOM     61  C   UNL A   1      45.259  28.838  35.451  1.00  0.00     0.135 A 
ATOM     62  C   UNL A   1      43.662  27.445  36.587  1.00  0.00     0.135 A 
ATOM     63  F   UNL A   1      45.561  29.818  34.585  1.00  0.00    -0.206 F 
ATOM     64  C   UNL A   1      46.306  28.159  36.065  1.00  0.00     0.059 A 
ATOM     65  C   UNL A   1      44.693  26.769  37.234  1.00  0.00     0.059 A 
ATOM     66  F   UNL A   1      42.400  27.070  36.845  1.00  0.00    -0.206 F 
ATOM     67  C   UNL A   1      46.012  27.126  36.957  1.00  0.00     0.060 A 
BRANCH  67  68
ATOM     68  S   UNL A   1      47.385  26.266  37.752  1.00  0.00     0.124 S 
ATOM     69  O   UNL A   1      46.678  25.329  38.620  1.00  0.00    -0.237 OA
ATOM     70  O   UNL A   1      48.080  25.673  36.615  1.00  0.00    -0.237 OA
ATOM     71  O   UNL A   1      48.106  27.334  38.438  1.00  0.00    -0.744 OA
ENDBRANCH  67  68
ENDBRANCH  46  60
BRANCH  47  72
ATOM     72  C   UNL A   1      36.464  33.208  30.937  1.00  0.00     0.058 A 
ATOM     73  C   UNL A   1      35.132  33.082  31.355  1.00  0.00     0.135 A 
ATOM     74  C   UNL A   1      36.732  34.061  29.855  1.00  0.00     0.135 A 
ATOM     75  F   UNL A   1      34.824  32.275  32.382  1.00  0.00    -0.206 F 
ATOM     76  C   UNL A   1      34.101  33.770  30.723  1.00  0.00     0.059 A 
ATOM     77  C   UNL A   1      35.722  34.777  29.220  1.00  0.00     0.059 A 
ATOM     78  F   UNL A   1      37.994  34.229  29.429  1.00  0.00    -0.206 F 
ATOM     79  C   UNL A   1      34.407  34.621  29.660  1.00  0.00     0.060 A 
BRANCH  79  80
ATOM     80  S   UNL A   1      33.068  35.554  28.888  1.00  0.00     0.124 S 
ATOM     81  O   UNL A   1      32.435  34.533  28.060  1.00  0.00    -0.237 OA
ATOM     82  O   UNL A   1      32.302  36.002  30.046  1.00  0.00    -0.237 OA
ATOM     83  O   UNL A   1      33.768  36.611  28.163  1.00  0.00    -0.744 OA
ENDBRANCH  79  80
ENDBRANCH  47  72
BRANCH  59  84
ATOM     84  C   UNL A   1      39.585  34.046  37.136  1.00  0.00     0.058 A 
ATOM     85  C   UNL A   1      38.890  33.675  38.296  1.00  0.00     0.135 A 
ATOM     86  C   UNL A   1      40.202  35.308  37.110  1.00  0.00     0.135 A 
ATOM     87  F   UNL A   1      38.277  32.483  38.364  1.00  0.00    -0.206 F 
ATOM     88  C   UNL A   1      38.823  34.518  39.399  1.00  0.00     0.059 A 
ATOM     89  C   UNL A   1      40.167  36.158  38.210  1.00  0.00     0.059 A 
ATOM     90  F   UNL A   1      40.886  35.703  36.024  1.00  0.00    -0.206 F 
ATOM     91  C   UNL A   1      39.477  35.751  39.351  1.00  0.00     0.060 A 
BRANCH  91  92
ATOM     92  S   UNL A   1      39.460  36.791  40.828  1.00  0.00     0.124 S 
ATOM     93  O   UNL A   1      39.065  38.082  40.275  1.00  0.00    -0.237 OA
ATOM     94  O   UNL A   1      38.464  36.127  41.663  1.00  0.00    -0.237 OA
ATOM     95  O   UNL A   1      40.834  36.712  41.316  1.00  0.00    -0.744 OA
ENDBRANCH  91  92
ENDBRANCH  59  84
ENDBRANCH  33  34
ENDBRANCH  25  28
ENDBRANCH   1  24
TORSDOF 14
ENDMDL
MODEL 3
REMARK VINA RESULT:     -12.6      3.227      4.237
REMARK SMILES Cc1cc(C)c2c(c1)C=C(C(=O)NCCCNC(=O)c1ccc(-c3c4nc(c(-c5c(F)cc(S(=O)(=O)[O-])cc5F)c5ccc([nH]5)c(-c5c(F)cc(S(=O)(=O)[O-])cc5F)c5nc(c(-c6c(F)cc(S(=O)(=O)[O-])cc6F)c6ccc3[nH]6)C=C5)C=C4)cc1)[C@@H](C(F)(F)F)O2
REMARK SMILES IDX 16 1 15 2 14 3 13 4 11 5 12 6 10 8 1 9 2 10 3 11 8 12 4 13
REMARK SMILES IDX 7 14 5 15 6 16 9 17 91 18 86 19 87 20 88 21 89 22 90 23
REMARK SMILES IDX 17 24 18 25 19 27 20 28 21 29 85 30 22 31 84 32 23 33 24 34
REMARK SMILES IDX 25 35 78 36 26 37 83 38 77 39 79 40 27 41 82 42 76 43 75 44
REMARK SMILES IDX 28 46 62 47 41 48 61 49 42 50 45 51 60 52 80 53 43 54 44 55
REMARK SMILES IDX 59 57 81 58 46 59 29 60 30 61 39 62 31 63 32 64 38 65 40 66
REMARK SMILES IDX 33 67 34 68 35 69 36 70 37 71 63 72 64 73 73 74 65 75 66 76
REMARK SMILES IDX 72 77 74 78 67 79 68 80 69 81 70 82 71 83 47 84 48 85 57 86
REMARK SMILES IDX 49 87 50 88 56 89 58 90 51 91 52 92 53 93 54 94 55 95
REMARK H PARENT 13 7 17 26 79 45 45 56
REMARK Flexibility Score: inf
ROOT
ATOM      1  C   UNL A   1      33.629  28.162  26.812  1.00  0.00     0.118 C 
ENDROOT
BRANCH   1   2
ATOM      2  C   UNL A   1      33.910  27.962  25.328  1.00  0.00     0.042 C 
BRANCH   2   3
ATOM      3  C   UNL A   1      32.716  27.375  24.591  1.00  0.00     0.118 C 
BRANCH   3   4
ATOM      4  N   UNL A   1      31.781  26.725  25.500  1.00  0.00    -0.352 N 
ATOM      5  C   UNL A   1      31.591  25.486  26.011  1.00  0.00     0.251 C 
ATOM      6  O   UNL A   1      30.633  25.381  26.783  1.00  0.00    -0.270 OA
ATOM      7  H   UNL A   1      31.107  27.359  25.833  1.00  0.00     0.163 HD
BRANCH   5   8
ATOM      8  C   UNL A   1      32.438  24.296  25.717  1.00  0.00     0.067 C 
ATOM      9  C   UNL A   1      38.336  22.429  25.841  1.00  0.00     0.044 C 
ATOM     10  C   UNL A   1      36.849  22.308  25.689  1.00  0.00    -0.050 A 
ATOM     11  C   UNL A   1      36.290  21.090  25.277  1.00  0.00     0.010 A 
ATOM     12  C   UNL A   1      36.008  23.399  25.944  1.00  0.00     0.015 A 
ATOM     13  C   UNL A   1      34.906  20.948  25.129  1.00  0.00    -0.008 A 
ATOM     14  C   UNL A   1      34.623  23.274  25.792  1.00  0.00     0.018 A 
ATOM     15  C   UNL A   1      34.311  19.639  24.691  1.00  0.00     0.048 C 
ATOM     16  C   UNL A   1      34.084  22.051  25.385  1.00  0.00     0.130 A 
ATOM     17  C   UNL A   1      33.730  24.389  26.084  1.00  0.00     0.025 C 
ATOM     18  O   UNL A   1      32.735  21.866  25.261  1.00  0.00    -0.475 OA
ATOM     19  C   UNL A   1      31.944  23.059  25.022  1.00  0.00     0.314 C 
BRANCH  19  20
ATOM     20  C   UNL A   1      31.772  23.260  23.504  1.00  0.00     0.429 C 
ATOM     21  F   UNL A   1      32.045  22.111  22.839  1.00  0.00    -0.167 F 
ATOM     22  F   UNL A   1      30.509  23.608  23.164  1.00  0.00    -0.167 F 
ATOM     23  F   UNL A   1      32.585  24.219  23.006  1.00  0.00    -0.167 F 
ENDBRANCH  19  20
ENDBRANCH   5   8
ENDBRANCH   3   4
ENDBRANCH   2   3
ENDBRANCH   1   2
BRANCH   1  24
ATOM     24  N   UNL A   1      33.488  29.576  27.151  1.00  0.00    -0.352 N 
ATOM     25  C   UNL A   1      34.316  30.400  27.871  1.00  0.00     0.251 C 
ATOM     26  H   UNL A   1      32.669  30.004  26.810  1.00  0.00     0.163 HD
ATOM     27  O   UNL A   1      33.888  31.472  28.292  1.00  0.00    -0.269 OA
BRANCH  25  28
ATOM     28  C   UNL A   1      35.710  29.997  28.139  1.00  0.00     0.039 A 
ATOM     29  C   UNL A   1      36.657  30.073  27.116  1.00  0.00     0.014 A 
ATOM     30  C   UNL A   1      36.075  29.520  29.401  1.00  0.00     0.014 A 
ATOM     31  C   UNL A   1      37.984  29.731  27.381  1.00  0.00     0.010 A 
ATOM     32  C   UNL A   1      37.410  29.277  29.690  1.00  0.00     0.010 A 
ATOM     33  C   UNL A   1      38.377  29.364  28.680  1.00  0.00    -0.014 A 
BRANCH  33  34
ATOM     34  C   UNL A   1      39.789  29.036  28.994  1.00  0.00     0.031 A 
ATOM     35  C   UNL A   1      40.659  30.055  29.679  1.00  0.00     0.074 A 
ATOM     36  C   UNL A   1      40.295  27.845  28.620  1.00  0.00     0.049 A 
ATOM     37  N   UNL A   1      41.922  29.973  30.007  1.00  0.00    -0.248 NA
ATOM     38  C   UNL A   1      40.039  31.350  30.013  1.00  0.00     0.031 C 
ATOM     39  C   UNL A   1      39.558  26.803  27.898  1.00  0.00     0.029 A 
ATOM     40  N   UNL A   1      41.543  27.306  28.794  1.00  0.00    -0.354 N 
ATOM     41  C   UNL A   1      42.245  31.197  30.578  1.00  0.00     0.074 A 
ATOM     42  C   UNL A   1      41.070  32.034  30.486  1.00  0.00     0.031 C 
ATOM     43  C   UNL A   1      40.354  25.734  27.736  1.00  0.00     0.029 A 
ATOM     44  C   UNL A   1      41.666  26.025  28.308  1.00  0.00     0.049 A 
ATOM     45  H   UNL A   1      42.283  27.790  29.228  1.00  0.00     0.167 HD
ATOM     46  C   UNL A   1      43.404  31.578  31.163  1.00  0.00     0.037 A 
ATOM     47  C   UNL A   1      42.714  25.180  28.329  1.00  0.00     0.037 A 
ATOM     48  C   UNL A   1      44.554  30.724  31.283  1.00  0.00     0.049 A 
ATOM     49  C   UNL A   1      43.995  25.625  28.980  1.00  0.00     0.074 A 
ATOM     50  C   UNL A   1      45.761  30.992  31.904  1.00  0.00     0.029 A 
ATOM     51  N   UNL A   1      44.638  29.435  30.779  1.00  0.00    -0.354 N 
ATOM     52  N   UNL A   1      44.263  26.767  29.569  1.00  0.00    -0.248 NA
ATOM     53  C   UNL A   1      45.115  24.674  28.972  1.00  0.00     0.031 C 
ATOM     54  C   UNL A   1      46.587  29.876  31.745  1.00  0.00     0.029 A 
ATOM     55  C   UNL A   1      45.881  28.899  31.060  1.00  0.00     0.049 A 
ATOM     56  H   UNL A   1      43.918  28.971  30.293  1.00  0.00     0.167 HD
ATOM     57  C   UNL A   1      45.573  26.663  30.020  1.00  0.00     0.074 A 
ATOM     58  C   UNL A   1      46.042  25.345  29.644  1.00  0.00     0.031 C 
ATOM     59  C   UNL A   1      46.321  27.578  30.685  1.00  0.00     0.037 A 
BRANCH  46  60
ATOM     60  C   UNL A   1      43.472  32.962  31.744  1.00  0.00     0.058 A 
ATOM     61  C   UNL A   1      43.199  33.197  33.101  1.00  0.00     0.135 A 
ATOM     62  C   UNL A   1      43.852  34.058  30.953  1.00  0.00     0.135 A 
ATOM     63  F   UNL A   1      42.815  32.187  33.898  1.00  0.00    -0.206 F 
ATOM     64  C   UNL A   1      43.273  34.473  33.648  1.00  0.00     0.059 A 
ATOM     65  C   UNL A   1      43.959  35.340  31.485  1.00  0.00     0.059 A 
ATOM     66  F   UNL A   1      44.120  33.890  29.649  1.00  0.00    -0.206 F 
ATOM     67  C   UNL A   1      43.656  35.538  32.832  1.00  0.00     0.060 A 
BRANCH  67  68
ATOM     68  S   UNL A   1      43.757  37.185  33.564  1.00  0.00     0.124 S 
ATOM     69  O   UNL A   1      43.819  38.029  32.376  1.00  0.00    -0.237 OA
ATOM     70  O   UNL A   1      42.518  37.261  34.331  1.00  0.00    -0.237 OA
ATOM     71  O   UNL A   1      44.982  37.130  34.359  1.00  0.00    -0.744 OA
ENDBRANCH  67  68
ENDBRANCH  46  60
BRANCH  47  72
ATOM     72  C   UNL A   1      42.573  23.812  27.762  1.00  0.00     0.058 A 
ATOM     73  C   UNL A   1      42.411  22.702  28.603  1.00  0.00     0.135 A 
ATOM     74  C   UNL A   1      42.557  23.590  26.376  1.00  0.00     0.135 A 
ATOM     75  F   UNL A   1      42.423  22.863  29.935  1.00  0.00    -0.206 F 
ATOM     76  C   UNL A   1      42.244  21.419  28.094  1.00  0.00     0.059 A 
ATOM     77  C   UNL A   1      42.370  22.319  25.841  1.00  0.00     0.059 A 
ATOM     78  F   UNL A   1      42.691  24.622  25.528  1.00  0.00    -0.206 F 
ATOM     79  C   UNL A   1      42.219  21.238  26.710  1.00  0.00     0.060 A 
BRANCH  79  80
ATOM     80  S   UNL A   1      41.941  19.575  26.061  1.00  0.00     0.124 S 
ATOM     81  O   UNL A   1      42.805  19.569  24.886  1.00  0.00    -0.237 OA
ATOM     82  O   UNL A   1      42.373  18.738  27.176  1.00  0.00    -0.237 OA
ATOM     83  O   UNL A   1      40.507  19.555  25.791  1.00  0.00    -0.744 OA
ENDBRANCH  79  80
ENDBRANCH  47  72
BRANCH  59  84
ATOM     84  C   UNL A   1      47.721  27.197  31.065  1.00  0.00     0.058 A 
ATOM     85  C   UNL A   1      47.983  26.449  32.222  1.00  0.00     0.135 A 
ATOM     86  C   UNL A   1      48.792  27.469  30.197  1.00  0.00     0.135 A 
ATOM     87  F   UNL A   1      46.994  26.172  33.086  1.00  0.00    -0.206 F 
ATOM     88  C   UNL A   1      49.259  25.975  32.503  1.00  0.00     0.059 A 
ATOM     89  C   UNL A   1      50.072  26.985  30.446  1.00  0.00     0.059 A 
ATOM     90  F   UNL A   1      48.588  28.174  29.072  1.00  0.00    -0.206 F 
ATOM     91  C   UNL A   1      50.294  26.235  31.601  1.00  0.00     0.060 A 
BRANCH  91  92
ATOM     92  S   UNL A   1      51.922  25.528  31.932  1.00  0.00     0.124 S 
ATOM     93  O   UNL A   1      52.313  26.243  33.143  1.00  0.00    -0.237 OA
ATOM     94  O   UNL A   1      51.616  24.111  32.103  1.00  0.00    -0.237 OA
ATOM     95  O   UNL A   1      52.688  25.858  30.734  1.00  0.00    -0.744 OA
ENDBRANCH  91  92
ENDBRANCH  59  84
ENDBRANCH  33  34
ENDBRANCH  25  28
ENDBRANCH   1  24
TORSDOF 14
ENDMDL
