MODEL 1
REMARK VINA RESULT:     -12.7      0.000      0.000
REMARK SMILES CC1(C)S[C@H](c2ccc(-c3ccccc3)o2)[NH2+][C@H]1C(=O)NCCCNC(=O)c1ccc(-c2c3nc(c(-c4c(F)cc(S(=O)(=O)[O-])cc4F)c4ccc([nH]4)c(-c4c(F)cc(S(=O)(=O)[O-])cc4F)c4nc(c(-c5c(F)cc(S(=O)(=O)[O-])cc5F)c5ccc2[nH]5)C=C4)C=C3)cc1
REMARK SMILES IDX 23 1 22 2 21 3 19 4 20 5 18 7 1 8 2 9 3 10 4 11 5 12 17 13
REMARK SMILES IDX 6 16 7 17 16 18 8 19 9 20 10 21 11 22 15 23 12 24 14 25
REMARK SMILES IDX 13 26 24 27 25 28 26 29 27 31 28 32 29 33 93 34 30 35 92 36
REMARK SMILES IDX 31 37 32 38 33 39 86 40 34 41 91 42 85 43 87 44 35 45 90 46
REMARK SMILES IDX 84 47 83 48 36 50 70 51 49 52 69 53 50 54 53 55 68 56 88 57
REMARK SMILES IDX 51 58 52 59 67 61 89 62 54 63 37 64 38 65 47 66 39 67 40 68
REMARK SMILES IDX 46 69 48 70 41 71 42 72 43 73 44 74 45 75 71 76 72 77 81 78
REMARK SMILES IDX 73 79 74 80 80 81 82 82 75 83 76 84 77 85 78 86 79 87 55 88
REMARK SMILES IDX 56 89 65 90 57 91 58 92 64 93 66 94 59 95 60 96 61 97 62 98
REMARK SMILES IDX 63 99
REMARK H PARENT 21 6 17 14 17 15 25 30 87 49 53 60
REMARK Flexibility Score: inf
ROOT
ATOM      1  C   UNL A   1      34.063  30.455  27.259  1.00  0.00     0.042 C 
ENDROOT
BRANCH   1   2
ATOM      2  C   UNL A   1      34.028  29.124  26.509  1.00  0.00     0.118 C 
BRANCH   2   3
ATOM      3  N   UNL A   1      33.783  29.277  25.080  1.00  0.00    -0.351 N 
ATOM      4  C   UNL A   1      33.387  28.457  24.067  1.00  0.00     0.279 C 
ATOM      5  O   UNL A   1      33.350  28.983  22.946  1.00  0.00    -0.268 OA
ATOM      6  H   UNL A   1      33.941  30.199  24.771  1.00  0.00     0.163 HD
BRANCH   4   7
ATOM      7  C   UNL A   1      33.058  26.954  24.208  1.00  0.00     0.289 C 
ATOM      8  C   UNL A   1      30.533  27.425  23.699  1.00  0.00     0.030 C 
ATOM      9  C   UNL A   1      31.573  26.656  24.506  1.00  0.00     0.078 C 
ATOM     10  C   UNL A   1      31.264  26.804  26.001  1.00  0.00     0.030 C 
ATOM     11  S   UNL A   1      31.400  24.904  24.043  1.00  0.00    -0.078 SA
ATOM     12  C   UNL A   1      32.961  24.827  23.130  1.00  0.00     0.311 C 
ATOM     13  N   UNL A   1      33.604  26.139  23.101  1.00  0.00    -0.317 N 
ATOM     14  H   UNL A   1      33.412  26.597  22.210  1.00  0.00     0.348 HD
ATOM     15  H   UNL A   1      34.613  26.038  23.207  1.00  0.00     0.348 HD
BRANCH  12  16
ATOM     16  C   UNL A   1      33.801  23.713  23.666  1.00  0.00     0.172 A 
ATOM     17  C   UNL A   1      33.560  22.352  23.715  1.00  0.00     0.054 A 
ATOM     18  O   UNL A   1      35.011  23.988  24.249  1.00  0.00    -0.454 OA
ATOM     19  C   UNL A   1      34.679  21.764  24.338  1.00  0.00     0.051 A 
ATOM     20  C   UNL A   1      35.547  22.792  24.640  1.00  0.00     0.134 A 
BRANCH  20  21
ATOM     21  C   UNL A   1      36.863  22.821  25.258  1.00  0.00     0.017 A 
ATOM     22  C   UNL A   1      37.323  23.952  25.942  1.00  0.00     0.012 A 
ATOM     23  C   UNL A   1      37.677  21.679  25.216  1.00  0.00     0.012 A 
ATOM     24  C   UNL A   1      38.562  23.933  26.590  1.00  0.00     0.001 A 
ATOM     25  C   UNL A   1      38.921  21.663  25.852  1.00  0.00     0.001 A 
ATOM     26  C   UNL A   1      39.359  22.788  26.545  1.00  0.00     0.000 A 
ENDBRANCH  20  21
ENDBRANCH  12  16
ENDBRANCH   4   7
ENDBRANCH   2   3
ENDBRANCH   1   2
BRANCH   1  27
ATOM     27  C   UNL A   1      35.406  30.803  27.885  1.00  0.00     0.118 C 
BRANCH  27  28
ATOM     28  N   UNL A   1      35.357  30.788  29.337  1.00  0.00    -0.352 N 
ATOM     29  C   UNL A   1      36.273  30.313  30.248  1.00  0.00     0.251 C 
ATOM     30  H   UNL A   1      34.542  31.176  29.730  1.00  0.00     0.163 HD
ATOM     31  O   UNL A   1      35.934  30.190  31.422  1.00  0.00    -0.269 OA
BRANCH  29  32
ATOM     32  C   UNL A   1      37.647  29.932  29.832  1.00  0.00     0.039 A 
ATOM     33  C   UNL A   1      38.570  29.564  30.817  1.00  0.00     0.014 A 
ATOM     34  C   UNL A   1      38.054  29.990  28.497  1.00  0.00     0.014 A 
ATOM     35  C   UNL A   1      39.874  29.204  30.457  1.00  0.00     0.010 A 
ATOM     36  C   UNL A   1      39.327  29.550  28.130  1.00  0.00     0.010 A 
ATOM     37  C   UNL A   1      40.258  29.168  29.107  1.00  0.00    -0.014 A 
BRANCH  37  38
ATOM     38  C   UNL A   1      41.634  28.771  28.703  1.00  0.00     0.031 A 
ATOM     39  C   UNL A   1      42.736  29.799  28.660  1.00  0.00     0.074 A 
ATOM     40  C   UNL A   1      41.886  27.503  28.323  1.00  0.00     0.049 A 
ATOM     41  N   UNL A   1      43.977  29.666  28.265  1.00  0.00    -0.248 NA
ATOM     42  C   UNL A   1      42.390  31.162  29.093  1.00  0.00     0.031 C 
ATOM     43  C   UNL A   1      40.901  26.420  28.275  1.00  0.00     0.029 A 
ATOM     44  N   UNL A   1      43.049  26.909  27.899  1.00  0.00    -0.354 N 
ATOM     45  C   UNL A   1      44.550  30.927  28.380  1.00  0.00     0.074 A 
ATOM     46  C   UNL A   1      43.509  31.823  28.837  1.00  0.00     0.031 C 
ATOM     47  C   UNL A   1      41.506  25.291  27.870  1.00  0.00     0.029 A 
ATOM     48  C   UNL A   1      42.912  25.574  27.598  1.00  0.00     0.049 A 
ATOM     49  H   UNL A   1      43.902  27.393  27.817  1.00  0.00     0.167 HD
ATOM     50  C   UNL A   1      45.832  31.303  28.153  1.00  0.00     0.037 A 
ATOM     51  C   UNL A   1      43.815  24.679  27.152  1.00  0.00     0.037 A 
ATOM     52  C   UNL A   1      46.878  30.405  27.740  1.00  0.00     0.049 A 
ATOM     53  C   UNL A   1      45.237  25.114  26.928  1.00  0.00     0.074 A 
ATOM     54  C   UNL A   1      48.220  30.680  27.536  1.00  0.00     0.029 A 
ATOM     55  N   UNL A   1      46.703  29.055  27.474  1.00  0.00    -0.354 N 
ATOM     56  N   UNL A   1      45.769  26.301  27.085  1.00  0.00    -0.248 NA
ATOM     57  C   UNL A   1      46.183  24.085  26.470  1.00  0.00     0.031 C 
ATOM     58  C   UNL A   1      48.851  29.501  27.123  1.00  0.00     0.029 A 
ATOM     59  C   UNL A   1      47.909  28.485  27.102  1.00  0.00     0.049 A 
ATOM     60  H   UNL A   1      45.847  28.573  27.542  1.00  0.00     0.167 HD
ATOM     61  C   UNL A   1      47.116  26.159  26.768  1.00  0.00     0.074 A 
ATOM     62  C   UNL A   1      47.319  24.768  26.422  1.00  0.00     0.031 C 
ATOM     63  C   UNL A   1      48.095  27.096  26.767  1.00  0.00     0.037 A 
BRANCH  50  64
ATOM     64  C   UNL A   1      46.176  32.753  28.359  1.00  0.00     0.058 A 
ATOM     65  C   UNL A   1      46.613  33.233  29.606  1.00  0.00     0.135 A 
ATOM     66  C   UNL A   1      46.093  33.668  27.298  1.00  0.00     0.135 A 
ATOM     67  F   UNL A   1      46.697  32.403  30.657  1.00  0.00    -0.206 F 
ATOM     68  C   UNL A   1      46.922  34.575  29.800  1.00  0.00     0.059 A 
ATOM     69  C   UNL A   1      46.421  35.010  27.464  1.00  0.00     0.059 A 
ATOM     70  F   UNL A   1      45.681  33.262  26.087  1.00  0.00    -0.206 F 
ATOM     71  C   UNL A   1      46.818  35.457  28.724  1.00  0.00     0.060 A 
BRANCH  71  72
ATOM     72  S   UNL A   1      47.218  37.197  28.992  1.00  0.00     0.124 S 
ATOM     73  O   UNL A   1      47.425  37.227  30.437  1.00  0.00    -0.237 OA
ATOM     74  O   UNL A   1      48.416  37.375  28.178  1.00  0.00    -0.237 OA
ATOM     75  O   UNL A   1      46.030  37.896  28.514  1.00  0.00    -0.744 OA
ENDBRANCH  71  72
ENDBRANCH  50  64
BRANCH  51  76
ATOM     76  C   UNL A   1      43.407  23.269  26.919  1.00  0.00     0.058 A 
ATOM     77  C   UNL A   1      43.298  22.758  25.617  1.00  0.00     0.135 A 
ATOM     78  C   UNL A   1      43.135  22.400  27.988  1.00  0.00     0.135 A 
ATOM     79  F   UNL A   1      43.540  23.554  24.563  1.00  0.00    -0.206 F 
ATOM     80  C   UNL A   1      42.922  21.440  25.379  1.00  0.00     0.059 A 
ATOM     81  C   UNL A   1      42.779  21.072  27.776  1.00  0.00     0.059 A 
ATOM     82  F   UNL A   1      43.242  22.838  29.252  1.00  0.00    -0.206 F 
ATOM     83  C   UNL A   1      42.667  20.604  26.468  1.00  0.00     0.060 A 
BRANCH  83  84
ATOM     84  S   UNL A   1      42.238  18.877  26.153  1.00  0.00     0.124 S 
ATOM     85  O   UNL A   1      42.503  18.269  27.452  1.00  0.00    -0.237 OA
ATOM     86  O   UNL A   1      40.834  18.973  25.766  1.00  0.00    -0.237 OA
ATOM     87  O   UNL A   1      43.151  18.498  25.079  1.00  0.00    -0.744 OA
ENDBRANCH  83  84
ENDBRANCH  51  76
BRANCH  63  88
ATOM     88  C   UNL A   1      49.482  26.645  26.405  1.00  0.00     0.058 A 
ATOM     89  C   UNL A   1      50.324  26.029  27.343  1.00  0.00     0.135 A 
ATOM     90  C   UNL A   1      49.956  26.790  25.091  1.00  0.00     0.135 A 
ATOM     91  F   UNL A   1      49.919  25.874  28.614  1.00  0.00    -0.206 F 
ATOM     92  C   UNL A   1      51.598  25.591  26.998  1.00  0.00     0.059 A 
ATOM     93  C   UNL A   1      51.217  26.339  24.717  1.00  0.00     0.059 A 
ATOM     94  F   UNL A   1      49.185  27.364  24.154  1.00  0.00    -0.206 F 
ATOM     95  C   UNL A   1      52.036  25.751  25.681  1.00  0.00     0.060 A 
BRANCH  95  96
ATOM     96  S   UNL A   1      53.679  25.150  25.234  1.00  0.00     0.124 S 
ATOM     97  O   UNL A   1      54.511  25.790  26.247  1.00  0.00    -0.237 OA
ATOM     98  O   UNL A   1      53.530  23.703  25.357  1.00  0.00    -0.237 OA
ATOM     99  O   UNL A   1      53.859  25.640  23.870  1.00  0.00    -0.744 OA
ENDBRANCH  95  96
ENDBRANCH  63  88
ENDBRANCH  37  38
ENDBRANCH  29  32
ENDBRANCH  27  28
ENDBRANCH   1  27
TORSDOF 15
ENDMDL
MODEL 2
REMARK VINA RESULT:     -12.3      4.061      6.754
REMARK SMILES CC1(C)S[C@H](c2ccc(-c3ccccc3)o2)[NH2+][C@H]1C(=O)NCCCNC(=O)c1ccc(-c2c3nc(c(-c4c(F)cc(S(=O)(=O)[O-])cc4F)c4ccc([nH]4)c(-c4c(F)cc(S(=O)(=O)[O-])cc4F)c4nc(c(-c5c(F)cc(S(=O)(=O)[O-])cc5F)c5ccc2[nH]5)C=C4)C=C3)cc1
REMARK SMILES IDX 23 1 22 2 21 3 19 4 20 5 18 7 1 8 2 9 3 10 4 11 5 12 17 13
REMARK SMILES IDX 6 16 7 17 16 18 8 19 9 20 10 21 11 22 15 23 12 24 14 25
REMARK SMILES IDX 13 26 24 27 25 28 26 29 27 31 28 32 29 33 93 34 30 35 92 36
REMARK SMILES IDX 31 37 32 38 33 39 86 40 34 41 91 42 85 43 87 44 35 45 90 46
REMARK SMILES IDX 84 47 83 48 36 50 70 51 49 52 69 53 50 54 53 55 68 56 88 57
REMARK SMILES IDX 51 58 52 59 67 61 89 62 54 63 37 64 38 65 47 66 39 67 40 68
REMARK SMILES IDX 46 69 48 70 41 71 42 72 43 73 44 74 45 75 71 76 72 77 81 78
REMARK SMILES IDX 73 79 74 80 80 81 82 82 75 83 76 84 77 85 78 86 79 87 55 88
REMARK SMILES IDX 56 89 65 90 57 91 58 92 64 93 66 94 59 95 60 96 61 97 62 98
REMARK SMILES IDX 63 99
REMARK H PARENT 21 6 17 14 17 15 25 30 87 49 53 60
REMARK Flexibility Score: inf
ROOT
ATOM      1  C   UNL A   1      34.405  33.086  29.771  1.00  0.00     0.042 C 
ENDROOT
BRANCH   1   2
ATOM      2  C   UNL A   1      35.133  32.229  30.806  1.00  0.00     0.118 C 
BRANCH   2   3
ATOM      3  N   UNL A   1      34.956  32.706  32.172  1.00  0.00    -0.351 N 
ATOM      4  C   UNL A   1      35.750  32.821  33.273  1.00  0.00     0.279 C 
ATOM      5  O   UNL A   1      35.182  33.240  34.291  1.00  0.00    -0.268 OA
ATOM      6  H   UNL A   1      34.038  33.021  32.341  1.00  0.00     0.163 HD
BRANCH   4   7
ATOM      7  C   UNL A   1      37.240  32.418  33.350  1.00  0.00     0.289 C 
ATOM      8  C   UNL A   1      37.849  34.741  34.393  1.00  0.00     0.030 C 
ATOM      9  C   UNL A   1      38.215  33.611  33.438  1.00  0.00     0.078 C 
ATOM     10  C   UNL A   1      38.506  34.196  32.050  1.00  0.00     0.030 C 
ATOM     11  S   UNL A   1      39.739  32.855  34.085  1.00  0.00    -0.078 SA
ATOM     12  C   UNL A   1      38.942  31.316  34.609  1.00  0.00     0.311 C 
ATOM     13  N   UNL A   1      37.501  31.376  34.367  1.00  0.00    -0.317 N 
ATOM     14  H   UNL A   1      37.017  31.612  35.234  1.00  0.00     0.348 HD
ATOM     15  H   UNL A   1      37.163  30.473  34.037  1.00  0.00     0.348 HD
BRANCH  12  16
ATOM     16  C   UNL A   1      39.648  30.151  33.994  1.00  0.00     0.172 A 
ATOM     17  C   UNL A   1      39.188  29.185  33.118  1.00  0.00     0.054 A 
ATOM     18  O   UNL A   1      40.958  29.900  34.312  1.00  0.00    -0.454 OA
ATOM     19  C   UNL A   1      40.268  28.314  32.871  1.00  0.00     0.051 A 
ATOM     20  C   UNL A   1      41.332  28.788  33.609  1.00  0.00     0.134 A 
BRANCH  20  21
ATOM     21  C   UNL A   1      42.709  28.341  33.752  1.00  0.00     0.017 A 
ATOM     22  C   UNL A   1      43.609  29.007  34.591  1.00  0.00     0.012 A 
ATOM     23  C   UNL A   1      43.140  27.189  33.076  1.00  0.00     0.012 A 
ATOM     24  C   UNL A   1      44.906  28.518  34.768  1.00  0.00     0.001 A 
ATOM     25  C   UNL A   1      44.440  26.707  33.242  1.00  0.00     0.001 A 
ATOM     26  C   UNL A   1      45.320  27.368  34.095  1.00  0.00     0.000 A 
ENDBRANCH  20  21
ENDBRANCH  12  16
ENDBRANCH   4   7
ENDBRANCH   2   3
ENDBRANCH   1   2
BRANCH   1  27
ATOM     27  C   UNL A   1      34.585  32.638  28.328  1.00  0.00     0.118 C 
BRANCH  27  28
ATOM     28  N   UNL A   1      33.901  31.386  28.051  1.00  0.00    -0.352 N 
ATOM     29  C   UNL A   1      34.413  30.124  27.851  1.00  0.00     0.251 C 
ATOM     30  H   UNL A   1      32.920  31.450  27.996  1.00  0.00     0.163 HD
ATOM     31  O   UNL A   1      33.677  29.248  27.405  1.00  0.00    -0.269 OA
BRANCH  29  32
ATOM     32  C   UNL A   1      35.834  29.813  28.147  1.00  0.00     0.039 A 
ATOM     33  C   UNL A   1      36.168  29.331  29.417  1.00  0.00     0.014 A 
ATOM     34  C   UNL A   1      36.848  30.046  27.213  1.00  0.00     0.014 A 
ATOM     35  C   UNL A   1      37.500  29.033  29.728  1.00  0.00     0.010 A 
ATOM     36  C   UNL A   1      38.162  29.669  27.494  1.00  0.00     0.010 A 
ATOM     37  C   UNL A   1      38.507  29.174  28.760  1.00  0.00    -0.014 A 
BRANCH  37  38
ATOM     38  C   UNL A   1      39.927  28.846  29.064  1.00  0.00     0.031 A 
ATOM     39  C   UNL A   1      40.811  29.864  29.740  1.00  0.00     0.074 A 
ATOM     40  C   UNL A   1      40.439  27.657  28.690  1.00  0.00     0.049 A 
ATOM     41  N   UNL A   1      42.087  29.795  30.020  1.00  0.00    -0.248 NA
ATOM     42  C   UNL A   1      40.182  31.138  30.124  1.00  0.00     0.031 C 
ATOM     43  C   UNL A   1      39.706  26.600  27.990  1.00  0.00     0.029 A 
ATOM     44  N   UNL A   1      41.702  27.139  28.841  1.00  0.00    -0.354 N 
ATOM     45  C   UNL A   1      42.418  31.019  30.592  1.00  0.00     0.074 A 
ATOM     46  C   UNL A   1      41.219  31.829  30.574  1.00  0.00     0.031 C 
ATOM     47  C   UNL A   1      40.524  25.551  27.796  1.00  0.00     0.029 A 
ATOM     48  C   UNL A   1      41.846  25.872  28.325  1.00  0.00     0.049 A 
ATOM     49  H   UNL A   1      42.436  27.628  29.277  1.00  0.00     0.167 HD
ATOM     50  C   UNL A   1      43.603  31.423  31.108  1.00  0.00     0.037 A 
ATOM     51  C   UNL A   1      42.920  25.060  28.280  1.00  0.00     0.037 A 
ATOM     52  C   UNL A   1      44.784  30.603  31.166  1.00  0.00     0.049 A 
ATOM     53  C   UNL A   1      44.219  25.523  28.881  1.00  0.00     0.074 A 
ATOM     54  C   UNL A   1      46.017  30.904  31.719  1.00  0.00     0.029 A 
ATOM     55  N   UNL A   1      44.879  29.316  30.658  1.00  0.00    -0.354 N 
ATOM     56  N   UNL A   1      44.500  26.667  29.456  1.00  0.00    -0.248 NA
ATOM     57  C   UNL A   1      45.348  24.581  28.830  1.00  0.00     0.031 C 
ATOM     58  C   UNL A   1      46.865  29.808  31.523  1.00  0.00     0.029 A 
ATOM     59  C   UNL A   1      46.150  28.812  30.877  1.00  0.00     0.049 A 
ATOM     60  H   UNL A   1      44.149  28.831  30.208  1.00  0.00     0.167 HD
ATOM     61  C   UNL A   1      45.829  26.575  29.856  1.00  0.00     0.074 A 
ATOM     62  C   UNL A   1      46.292  25.260  29.468  1.00  0.00     0.031 C 
ATOM     63  C   UNL A   1      46.594  27.497  30.491  1.00  0.00     0.037 A 
BRANCH  50  64
ATOM     64  C   UNL A   1      43.675  32.818  31.667  1.00  0.00     0.058 A 
ATOM     65  C   UNL A   1      43.431  33.078  33.027  1.00  0.00     0.135 A 
ATOM     66  C   UNL A   1      44.014  33.904  30.844  1.00  0.00     0.135 A 
ATOM     67  F   UNL A   1      43.089  32.078  33.855  1.00  0.00    -0.206 F 
ATOM     68  C   UNL A   1      43.488  34.368  33.542  1.00  0.00     0.059 A 
ATOM     69  C   UNL A   1      44.101  35.200  31.344  1.00  0.00     0.059 A 
ATOM     70  F   UNL A   1      44.257  33.712  29.538  1.00  0.00    -0.206 F 
ATOM     71  C   UNL A   1      43.819  35.424  32.692  1.00  0.00     0.060 A 
BRANCH  71  72
ATOM     72  S   UNL A   1      43.885  37.094  33.373  1.00  0.00     0.124 S 
ATOM     73  O   UNL A   1      43.682  37.903  32.175  1.00  0.00    -0.237 OA
ATOM     74  O   UNL A   1      42.781  37.089  34.327  1.00  0.00    -0.237 OA
ATOM     75  O   UNL A   1      45.218  37.169  33.962  1.00  0.00    -0.744 OA
ENDBRANCH  71  72
ENDBRANCH  50  64
BRANCH  51  76
ATOM     76  C   UNL A   1      42.803  23.709  27.673  1.00  0.00     0.058 A 
ATOM     77  C   UNL A   1      43.005  23.521  26.297  1.00  0.00     0.135 A 
ATOM     78  C   UNL A   1      42.506  22.580  28.452  1.00  0.00     0.135 A 
ATOM     79  F   UNL A   1      43.283  24.572  25.511  1.00  0.00    -0.206 F 
ATOM     80  C   UNL A   1      42.905  22.263  25.711  1.00  0.00     0.059 A 
ATOM     81  C   UNL A   1      42.422  21.309  27.893  1.00  0.00     0.059 A 
ATOM     82  F   UNL A   1      42.321  22.708  29.775  1.00  0.00    -0.206 F 
ATOM     83  C   UNL A   1      42.614  21.162  26.520  1.00  0.00     0.060 A 
BRANCH  83  84
ATOM     84  S   UNL A   1      42.545  19.524  25.761  1.00  0.00     0.124 S 
ATOM     85  O   UNL A   1      41.137  19.432  25.392  1.00  0.00    -0.237 OA
ATOM     86  O   UNL A   1      43.489  19.655  24.655  1.00  0.00    -0.237 OA
ATOM     87  O   UNL A   1      42.976  18.639  26.840  1.00  0.00    -0.744 OA
ENDBRANCH  83  84
ENDBRANCH  51  76
BRANCH  63  88
ATOM     88  C   UNL A   1      48.005  27.108  30.828  1.00  0.00     0.058 A 
ATOM     89  C   UNL A   1      48.290  26.184  31.844  1.00  0.00     0.135 A 
ATOM     90  C   UNL A   1      49.082  27.635  30.096  1.00  0.00     0.135 A 
ATOM     91  F   UNL A   1      47.296  25.658  32.577  1.00  0.00    -0.206 F 
ATOM     92  C   UNL A   1      49.597  25.808  32.138  1.00  0.00     0.059 A 
ATOM     93  C   UNL A   1      50.394  27.256  30.357  1.00  0.00     0.059 A 
ATOM     94  F   UNL A   1      48.860  28.516  29.108  1.00  0.00    -0.206 F 
ATOM     95  C   UNL A   1      50.643  26.351  31.388  1.00  0.00     0.060 A 
BRANCH  95  96
ATOM     96  S   UNL A   1      52.333  25.833  31.755  1.00  0.00     0.124 S 
ATOM     97  O   UNL A   1      52.701  26.764  32.816  1.00  0.00    -0.237 OA
ATOM     98  O   UNL A   1      52.155  24.444  32.165  1.00  0.00    -0.237 OA
ATOM     99  O   UNL A   1      53.028  26.020  30.485  1.00  0.00    -0.744 OA
ENDBRANCH  95  96
ENDBRANCH  63  88
ENDBRANCH  37  38
ENDBRANCH  29  32
ENDBRANCH  27  28
ENDBRANCH   1  27
TORSDOF 15
ENDMDL
MODEL 3
REMARK VINA RESULT:     -12.3      0.608      8.227
REMARK SMILES CC1(C)S[C@H](c2ccc(-c3ccccc3)o2)[NH2+][C@H]1C(=O)NCCCNC(=O)c1ccc(-c2c3nc(c(-c4c(F)cc(S(=O)(=O)[O-])cc4F)c4ccc([nH]4)c(-c4c(F)cc(S(=O)(=O)[O-])cc4F)c4nc(c(-c5c(F)cc(S(=O)(=O)[O-])cc5F)c5ccc2[nH]5)C=C4)C=C3)cc1
REMARK SMILES IDX 23 1 22 2 21 3 19 4 20 5 18 7 1 8 2 9 3 10 4 11 5 12 17 13
REMARK SMILES IDX 6 16 7 17 16 18 8 19 9 20 10 21 11 22 15 23 12 24 14 25
REMARK SMILES IDX 13 26 24 27 25 28 26 29 27 31 28 32 29 33 93 34 30 35 92 36
REMARK SMILES IDX 31 37 32 38 33 39 86 40 34 41 91 42 85 43 87 44 35 45 90 46
REMARK SMILES IDX 84 47 83 48 36 50 70 51 49 52 69 53 50 54 53 55 68 56 88 57
REMARK SMILES IDX 51 58 52 59 67 61 89 62 54 63 37 64 38 65 47 66 39 67 40 68
REMARK SMILES IDX 46 69 48 70 41 71 42 72 43 73 44 74 45 75 71 76 72 77 81 78
REMARK SMILES IDX 73 79 74 80 80 81 82 82 75 83 76 84 77 85 78 86 79 87 55 88
REMARK SMILES IDX 56 89 65 90 57 91 58 92 64 93 66 94 59 95 60 96 61 97 62 98
REMARK SMILES IDX 63 99
REMARK H PARENT 21 6 17 14 17 15 25 30 87 49 53 60
REMARK Flexibility Score: inf
ROOT
ATOM      1  C   UNL A   1      34.556  28.869  26.930  1.00  0.00     0.042 C 
ENDROOT
BRANCH   1   2
ATOM      2  C   UNL A   1      33.279  29.316  26.220  1.00  0.00     0.118 C 
BRANCH   2   3
ATOM      3  N   UNL A   1      33.451  29.484  24.782  1.00  0.00    -0.351 N 
ATOM      4  C   UNL A   1      33.375  28.672  23.692  1.00  0.00     0.279 C 
ATOM      5  O   UNL A   1      33.653  29.211  22.612  1.00  0.00    -0.268 OA
ATOM      6  H   UNL A   1      33.678  30.411  24.539  1.00  0.00     0.163 HD
BRANCH   4   7
ATOM      7  C   UNL A   1      33.041  27.163  23.720  1.00  0.00     0.289 C 
ATOM      8  C   UNL A   1      30.731  27.619  22.574  1.00  0.00     0.030 C 
ATOM      9  C   UNL A   1      31.534  26.846  23.614  1.00  0.00     0.078 C 
ATOM     10  C   UNL A   1      30.843  26.965  24.978  1.00  0.00     0.030 C 
ATOM     11  S   UNL A   1      31.512  25.101  23.096  1.00  0.00    -0.078 SA
ATOM     12  C   UNL A   1      33.259  25.054  22.623  1.00  0.00     0.311 C 
ATOM     13  N   UNL A   1      33.869  26.373  22.783  1.00  0.00    -0.317 N 
ATOM     14  H   UNL A   1      33.910  26.845  21.879  1.00  0.00     0.348 HD
ATOM     15  H   UNL A   1      34.817  26.280  23.148  1.00  0.00     0.348 HD
BRANCH  12  16
ATOM     16  C   UNL A   1      33.944  23.939  23.344  1.00  0.00     0.172 A 
ATOM     17  C   UNL A   1      33.542  22.635  23.567  1.00  0.00     0.054 A 
ATOM     18  O   UNL A   1      35.160  24.156  23.940  1.00  0.00    -0.454 OA
ATOM     19  C   UNL A   1      34.565  22.017  24.315  1.00  0.00     0.051 A 
ATOM     20  C   UNL A   1      35.538  22.974  24.515  1.00  0.00     0.134 A 
BRANCH  20  21
ATOM     21  C   UNL A   1      36.829  22.941  25.184  1.00  0.00     0.017 A 
ATOM     22  C   UNL A   1      37.288  24.026  25.938  1.00  0.00     0.012 A 
ATOM     23  C   UNL A   1      37.617  21.781  25.119  1.00  0.00     0.012 A 
ATOM     24  C   UNL A   1      38.500  23.945  26.631  1.00  0.00     0.001 A 
ATOM     25  C   UNL A   1      38.834  21.704  25.801  1.00  0.00     0.001 A 
ATOM     26  C   UNL A   1      39.270  22.784  26.563  1.00  0.00     0.000 A 
ENDBRANCH  20  21
ENDBRANCH  12  16
ENDBRANCH   4   7
ENDBRANCH   2   3
ENDBRANCH   1   2
BRANCH   1  27
ATOM     27  C   UNL A   1      35.408  30.000  27.489  1.00  0.00     0.118 C 
BRANCH  27  28
ATOM     28  N   UNL A   1      35.367  30.055  28.940  1.00  0.00    -0.352 N 
ATOM     29  C   UNL A   1      36.333  29.730  29.865  1.00  0.00     0.251 C 
ATOM     30  H   UNL A   1      34.516  30.372  29.321  1.00  0.00     0.163 HD
ATOM     31  O   UNL A   1      36.014  29.632  31.047  1.00  0.00    -0.269 OA
BRANCH  29  32
ATOM     32  C   UNL A   1      37.738  29.479  29.457  1.00  0.00     0.039 A 
ATOM     33  C   UNL A   1      38.671  29.127  30.437  1.00  0.00     0.014 A 
ATOM     34  C   UNL A   1      38.160  29.643  28.134  1.00  0.00     0.014 A 
ATOM     35  C   UNL A   1      40.005  28.890  30.084  1.00  0.00     0.010 A 
ATOM     36  C   UNL A   1      39.468  29.323  27.769  1.00  0.00     0.010 A 
ATOM     37  C   UNL A   1      40.411  28.959  28.742  1.00  0.00    -0.014 A 
BRANCH  37  38
ATOM     38  C   UNL A   1      41.820  28.692  28.343  1.00  0.00     0.031 A 
ATOM     39  C   UNL A   1      42.237  27.305  27.924  1.00  0.00     0.074 A 
ATOM     40  C   UNL A   1      42.737  29.677  28.405  1.00  0.00     0.049 A 
ATOM     41  N   UNL A   1      43.428  26.857  27.614  1.00  0.00    -0.248 NA
ATOM     42  C   UNL A   1      41.182  26.280  27.874  1.00  0.00     0.031 C 
ATOM     43  C   UNL A   1      42.477  31.053  28.836  1.00  0.00     0.029 A 
ATOM     44  N   UNL A   1      44.078  29.672  28.111  1.00  0.00    -0.354 N 
ATOM     45  C   UNL A   1      43.268  25.500  27.355  1.00  0.00     0.074 A 
ATOM     46  C   UNL A   1      41.875  25.188  27.591  1.00  0.00     0.031 C 
ATOM     47  C   UNL A   1      43.614  31.763  28.753  1.00  0.00     0.029 A 
ATOM     48  C   UNL A   1      44.691  30.890  28.298  1.00  0.00     0.049 A 
ATOM     49  H   UNL A   1      44.558  28.872  27.796  1.00  0.00     0.167 HD
ATOM     50  C   UNL A   1      44.190  24.601  26.934  1.00  0.00     0.037 A 
ATOM     51  C   UNL A   1      45.975  31.261  28.124  1.00  0.00     0.037 A 
ATOM     52  C   UNL A   1      45.566  24.920  26.658  1.00  0.00     0.049 A 
ATOM     53  C   UNL A   1      46.975  30.250  27.634  1.00  0.00     0.074 A 
ATOM     54  C   UNL A   1      46.563  24.090  26.175  1.00  0.00     0.029 A 
ATOM     55  N   UNL A   1      46.138  26.171  26.833  1.00  0.00    -0.354 N 
ATOM     56  N   UNL A   1      46.795  28.982  27.353  1.00  0.00    -0.248 NA
ATOM     57  C   UNL A   1      48.354  30.722  27.434  1.00  0.00     0.031 C 
ATOM     58  C   UNL A   1      47.746  24.833  26.082  1.00  0.00     0.029 A 
ATOM     59  C   UNL A   1      47.475  26.134  26.475  1.00  0.00     0.049 A 
ATOM     60  H   UNL A   1      45.663  26.968  27.161  1.00  0.00     0.167 HD
ATOM     61  C   UNL A   1      48.030  28.510  26.920  1.00  0.00     0.074 A 
ATOM     62  C   UNL A   1      48.945  29.631  26.966  1.00  0.00     0.031 C 
ATOM     63  C   UNL A   1      48.372  27.261  26.520  1.00  0.00     0.037 A 
BRANCH  50  64
ATOM     64  C   UNL A   1      43.732  23.182  26.734  1.00  0.00     0.058 A 
ATOM     65  C   UNL A   1      43.416  22.352  27.823  1.00  0.00     0.135 A 
ATOM     66  C   UNL A   1      43.586  22.651  25.443  1.00  0.00     0.135 A 
ATOM     67  F   UNL A   1      43.552  22.805  29.079  1.00  0.00    -0.206 F 
ATOM     68  C   UNL A   1      43.003  21.037  27.639  1.00  0.00     0.059 A 
ATOM     69  C   UNL A   1      43.150  21.346  25.235  1.00  0.00     0.059 A 
ATOM     70  F   UNL A   1      43.875  23.401  24.367  1.00  0.00    -0.206 F 
ATOM     71  C   UNL A   1      42.877  20.541  26.341  1.00  0.00     0.060 A 
BRANCH  71  72
ATOM     72  S   UNL A   1      42.345  18.831  26.117  1.00  0.00     0.124 S 
ATOM     73  O   UNL A   1      40.968  19.014  25.665  1.00  0.00    -0.237 OA
ATOM     74  O   UNL A   1      43.281  18.338  25.112  1.00  0.00    -0.237 OA
ATOM     75  O   UNL A   1      42.496  18.251  27.448  1.00  0.00    -0.744 OA
ENDBRANCH  71  72
ENDBRANCH  50  64
BRANCH  51  76
ATOM     76  C   UNL A   1      46.380  32.667  28.382  1.00  0.00     0.058 A 
ATOM     77  C   UNL A   1      46.886  33.049  29.634  1.00  0.00     0.135 A 
ATOM     78  C   UNL A   1      46.289  33.649  27.385  1.00  0.00     0.135 A 
ATOM     79  F   UNL A   1      46.984  32.146  30.621  1.00  0.00    -0.206 F 
ATOM     80  C   UNL A   1      47.276  34.359  29.894  1.00  0.00     0.059 A 
ATOM     81  C   UNL A   1      46.693  34.961  27.614  1.00  0.00     0.059 A 
ATOM     82  F   UNL A   1      45.827  33.329  26.167  1.00  0.00    -0.206 F 
ATOM     83  C   UNL A   1      47.177  35.308  28.874  1.00  0.00     0.060 A 
BRANCH  83  84
ATOM     84  S   UNL A   1      47.741  36.993  29.201  1.00  0.00     0.124 S 
ATOM     85  O   UNL A   1      46.682  37.781  28.579  1.00  0.00    -0.237 OA
ATOM     86  O   UNL A   1      47.790  37.026  30.659  1.00  0.00    -0.237 OA
ATOM     87  O   UNL A   1      49.040  37.043  28.537  1.00  0.00    -0.744 OA
ENDBRANCH  83  84
ENDBRANCH  51  76
BRANCH  63  88
ATOM     88  C   UNL A   1      49.790  27.044  26.073  1.00  0.00     0.058 A 
ATOM     89  C   UNL A   1      50.177  27.223  24.737  1.00  0.00     0.135 A 
ATOM     90  C   UNL A   1      50.783  26.697  27.004  1.00  0.00     0.135 A 
ATOM     91  F   UNL A   1      49.263  27.548  23.808  1.00  0.00    -0.206 F 
ATOM     92  C   UNL A   1      51.495  27.045  24.332  1.00  0.00     0.059 A 
ATOM     93  C   UNL A   1      52.112  26.536  26.627  1.00  0.00     0.059 A 
ATOM     94  F   UNL A   1      50.466  26.524  28.297  1.00  0.00    -0.206 F 
ATOM     95  C   UNL A   1      52.456  26.700  25.285  1.00  0.00     0.060 A 
BRANCH  95  96
ATOM     96  S   UNL A   1      54.171  26.502  24.756  1.00  0.00     0.124 S 
ATOM     97  O   UNL A   1      54.892  27.129  25.859  1.00  0.00    -0.237 OA
ATOM     98  O   UNL A   1      54.304  25.052  24.655  1.00  0.00    -0.237 OA
ATOM     99  O   UNL A   1      54.218  27.219  23.485  1.00  0.00    -0.744 OA
ENDBRANCH  95  96
ENDBRANCH  63  88
ENDBRANCH  37  38
ENDBRANCH  29  32
ENDBRANCH  27  28
ENDBRANCH   1  27
TORSDOF 15
ENDMDL
