MODEL 1
REMARK VINA RESULT:     -11.6      0.000      0.000
REMARK SMILES C[C@@H](SC1CCOCC1)c1ccc(C(=O)NCCCNC(=O)c2ccc(-c3c4nc(c(-c5c(F)cc(S(=O)(=O)[O-])cc5F)c5ccc([nH]5)c(-c5c(F)cc(S(=O)(=O)[O-])cc5F)c5nc(c(-c6c(F)cc(S(=O)(=O)[O-])cc6F)c6ccc3[nH]6)C=C5)C=C4)cc2)o1
REMARK SMILES IDX 18 1 17 2 16 3 14 4 15 5 13 7 10 8 11 9 89 10 12 11 2 12
REMARK SMILES IDX 1 13 3 14 4 15 5 16 9 17 6 18 8 19 7 20 19 21 20 22 21 23
REMARK SMILES IDX 22 25 23 26 24 27 88 28 25 29 87 30 26 31 27 32 28 33 81 34
REMARK SMILES IDX 29 35 86 36 80 37 82 38 30 39 85 40 79 41 78 42 31 44 65 45
REMARK SMILES IDX 44 46 64 47 45 48 48 49 63 50 83 51 46 52 47 53 62 55 84 56
REMARK SMILES IDX 49 57 32 58 33 59 42 60 34 61 35 62 41 63 43 64 36 65 37 66
REMARK SMILES IDX 38 67 39 68 40 69 66 70 67 71 76 72 68 73 69 74 75 75 77 76
REMARK SMILES IDX 70 77 71 78 72 79 73 80 74 81 50 82 51 83 60 84 52 85 53 86
REMARK SMILES IDX 59 87 61 88 54 89 55 90 56 91 57 92 58 93
REMARK H PARENT 16 6 20 24 82 43 48 54
REMARK Flexibility Score: inf
ROOT
ATOM      1  C   UNL A   1      37.380  23.715  25.341  1.00  0.00     0.042 C 
ENDROOT
BRANCH   1   2
ATOM      2  C   UNL A   1      36.884  22.272  25.390  1.00  0.00     0.118 C 
BRANCH   2   3
ATOM      3  N   UNL A   1      35.991  22.049  26.505  1.00  0.00    -0.349 N 
ATOM      4  C   UNL A   1      34.649  21.759  26.551  1.00  0.00     0.286 C 
ATOM      5  O   UNL A   1      34.202  21.526  27.678  1.00  0.00    -0.266 OA
ATOM      6  H   UNL A   1      36.422  22.116  27.388  1.00  0.00     0.163 HD
BRANCH   4   7
ATOM      7  C   UNL A   1      33.827  21.711  25.354  1.00  0.00     0.191 A 
ATOM      8  C   UNL A   1      32.677  22.732  23.742  1.00  0.00     0.117 A 
ATOM      9  C   UNL A   1      32.587  21.380  23.492  1.00  0.00     0.047 A 
ATOM     10  O   UNL A   1      33.398  22.926  24.882  1.00  0.00    -0.455 OA
ATOM     11  C   UNL A   1      33.357  20.733  24.496  1.00  0.00     0.056 A 
BRANCH   8  12
ATOM     12  C   UNL A   1      32.183  23.964  23.033  1.00  0.00     0.110 C 
ATOM     13  C   UNL A   1      31.061  24.642  23.830  1.00  0.00     0.028 C 
BRANCH  12  14
ATOM     14  S   UNL A   1      33.602  25.131  22.842  1.00  0.00    -0.147 SA
BRANCH  14  15
ATOM     15  C   UNL A   1      33.222  26.490  24.014  1.00  0.00     0.052 C 
ATOM     16  C   UNL A   1      33.407  27.897  23.455  1.00  0.00     0.043 C 
ATOM     17  C   UNL A   1      33.951  26.351  25.351  1.00  0.00     0.043 C 
ATOM     18  C   UNL A   1      32.962  28.920  24.491  1.00  0.00     0.161 C 
ATOM     19  C   UNL A   1      33.493  27.466  26.290  1.00  0.00     0.161 C 
ATOM     20  O   UNL A   1      33.701  28.751  25.700  1.00  0.00    -0.381 OA
ENDBRANCH  14  15
ENDBRANCH  12  14
ENDBRANCH   8  12
ENDBRANCH   4   7
ENDBRANCH   2   3
ENDBRANCH   1   2
BRANCH   1  21
ATOM     21  C   UNL A   1      38.305  24.076  26.504  1.00  0.00     0.118 C 
BRANCH  21  22
ATOM     22  N   UNL A   1      39.710  24.014  26.118  1.00  0.00    -0.352 N 
ATOM     23  C   UNL A   1      40.760  24.835  26.442  1.00  0.00     0.251 C 
ATOM     24  H   UNL A   1      39.942  23.261  25.530  1.00  0.00     0.163 HD
ATOM     25  O   UNL A   1      41.804  24.744  25.801  1.00  0.00    -0.269 OA
BRANCH  23  26
ATOM     26  C   UNL A   1      40.652  25.817  27.543  1.00  0.00     0.039 A 
ATOM     27  C   UNL A   1      41.612  26.830  27.637  1.00  0.00     0.014 A 
ATOM     28  C   UNL A   1      39.661  25.704  28.522  1.00  0.00     0.014 A 
ATOM     29  C   UNL A   1      41.551  27.752  28.684  1.00  0.00     0.010 A 
ATOM     30  C   UNL A   1      39.560  26.665  29.526  1.00  0.00     0.010 A 
ATOM     31  C   UNL A   1      40.510  27.692  29.624  1.00  0.00    -0.014 A 
BRANCH  31  32
ATOM     32  C   UNL A   1      40.408  28.688  30.721  1.00  0.00     0.031 A 
ATOM     33  C   UNL A   1      41.284  28.565  31.940  1.00  0.00     0.074 A 
ATOM     34  C   UNL A   1      39.487  29.668  30.645  1.00  0.00     0.049 A 
ATOM     35  N   UNL A   1      41.295  29.296  33.026  1.00  0.00    -0.248 NA
ATOM     36  C   UNL A   1      42.257  27.462  31.951  1.00  0.00     0.031 C 
ATOM     37  C   UNL A   1      38.548  29.861  29.536  1.00  0.00     0.029 A 
ATOM     38  N   UNL A   1      39.178  30.680  31.517  1.00  0.00    -0.354 N 
ATOM     39  C   UNL A   1      42.258  28.732  33.853  1.00  0.00     0.074 A 
ATOM     40  C   UNL A   1      42.777  27.569  33.164  1.00  0.00     0.031 C 
ATOM     41  C   UNL A   1      37.784  30.935  29.788  1.00  0.00     0.029 A 
ATOM     42  C   UNL A   1      38.153  31.488  31.087  1.00  0.00     0.049 A 
ATOM     43  H   UNL A   1      39.648  30.815  32.373  1.00  0.00     0.167 HD
ATOM     44  C   UNL A   1      42.687  29.155  35.067  1.00  0.00     0.037 A 
ATOM     45  C   UNL A   1      37.570  32.549  31.676  1.00  0.00     0.037 A 
ATOM     46  C   UNL A   1      42.186  30.329  35.733  1.00  0.00     0.049 A 
ATOM     47  C   UNL A   1      38.075  33.011  33.015  1.00  0.00     0.074 A 
ATOM     48  C   UNL A   1      42.592  30.877  36.937  1.00  0.00     0.029 A 
ATOM     49  N   UNL A   1      41.168  31.140  35.249  1.00  0.00    -0.354 N 
ATOM     50  N   UNL A   1      39.026  32.499  33.758  1.00  0.00    -0.248 NA
ATOM     51  C   UNL A   1      37.434  34.201  33.592  1.00  0.00     0.031 C 
ATOM     52  C   UNL A   1      41.796  31.997  37.201  1.00  0.00     0.029 A 
ATOM     53  C   UNL A   1      40.924  32.175  36.138  1.00  0.00     0.049 A 
ATOM     54  H   UNL A   1      40.690  31.001  34.401  1.00  0.00     0.167 HD
ATOM     55  C   UNL A   1      39.117  33.319  34.878  1.00  0.00     0.074 A 
ATOM     56  C   UNL A   1      38.132  34.367  34.707  1.00  0.00     0.031 C 
ATOM     57  C   UNL A   1      39.943  33.214  35.949  1.00  0.00     0.037 A 
BRANCH  44  58
ATOM     58  C   UNL A   1      43.756  28.346  35.751  1.00  0.00     0.058 A 
ATOM     59  C   UNL A   1      45.121  28.605  35.543  1.00  0.00     0.135 A 
ATOM     60  C   UNL A   1      43.416  27.322  36.649  1.00  0.00     0.135 A 
ATOM     61  F   UNL A   1      45.506  29.563  34.684  1.00  0.00    -0.206 F 
ATOM     62  C   UNL A   1      46.110  27.856  36.174  1.00  0.00     0.059 A 
ATOM     63  C   UNL A   1      44.388  26.578  37.313  1.00  0.00     0.059 A 
ATOM     64  F   UNL A   1      42.127  27.032  36.886  1.00  0.00    -0.206 F 
ATOM     65  C   UNL A   1      45.732  26.842  37.057  1.00  0.00     0.060 A 
BRANCH  65  66
ATOM     66  S   UNL A   1      47.026  25.879  37.868  1.00  0.00     0.124 S 
ATOM     67  O   UNL A   1      48.191  26.736  37.673  1.00  0.00    -0.237 OA
ATOM     68  O   UNL A   1      46.532  25.784  39.238  1.00  0.00    -0.237 OA
ATOM     69  O   UNL A   1      47.036  24.626  37.120  1.00  0.00    -0.744 OA
ENDBRANCH  65  66
ENDBRANCH  44  58
BRANCH  45  70
ATOM     70  C   UNL A   1      36.464  33.265  30.986  1.00  0.00     0.058 A 
ATOM     71  C   UNL A   1      35.144  33.170  31.450  1.00  0.00     0.135 A 
ATOM     72  C   UNL A   1      36.706  34.071  29.863  1.00  0.00     0.135 A 
ATOM     73  F   UNL A   1      34.862  32.407  32.517  1.00  0.00    -0.206 F 
ATOM     74  C   UNL A   1      34.100  33.837  30.818  1.00  0.00     0.059 A 
ATOM     75  C   UNL A   1      35.683  34.767  29.228  1.00  0.00     0.059 A 
ATOM     76  F   UNL A   1      37.955  34.209  29.391  1.00  0.00    -0.206 F 
ATOM     77  C   UNL A   1      34.380  34.635  29.708  1.00  0.00     0.060 A 
BRANCH  77  78
ATOM     78  S   UNL A   1      33.025  35.539  28.927  1.00  0.00     0.124 S 
ATOM     79  O   UNL A   1      32.200  35.885  30.080  1.00  0.00    -0.237 OA
ATOM     80  O   UNL A   1      33.724  36.647  28.286  1.00  0.00    -0.237 OA
ATOM     81  O   UNL A   1      32.451  34.556  28.012  1.00  0.00    -0.744 OA
ENDBRANCH  77  78
ENDBRANCH  45  70
BRANCH  57  82
ATOM     82  C   UNL A   1      39.841  34.281  37.003  1.00  0.00     0.058 A 
ATOM     83  C   UNL A   1      40.461  35.530  36.852  1.00  0.00     0.135 A 
ATOM     84  C   UNL A   1      39.076  34.062  38.161  1.00  0.00     0.135 A 
ATOM     85  F   UNL A   1      41.208  35.787  35.767  1.00  0.00    -0.206 F 
ATOM     86  C   UNL A   1      40.351  36.517  37.826  1.00  0.00     0.059 A 
ATOM     87  C   UNL A   1      38.931  35.044  39.135  1.00  0.00     0.059 A 
ATOM     88  F   UNL A   1      38.454  32.887  38.349  1.00  0.00    -0.206 F 
ATOM     89  C   UNL A   1      39.583  36.264  38.965  1.00  0.00     0.060 A 
BRANCH  89  90
ATOM     90  S   UNL A   1      39.427  37.561  40.212  1.00  0.00     0.124 S 
ATOM     91  O   UNL A   1      40.810  38.006  40.347  1.00  0.00    -0.237 OA
ATOM     92  O   UNL A   1      38.518  38.505  39.569  1.00  0.00    -0.237 OA
ATOM     93  O   UNL A   1      38.876  36.857  41.366  1.00  0.00    -0.744 OA
ENDBRANCH  89  90
ENDBRANCH  57  82
ENDBRANCH  31  32
ENDBRANCH  23  26
ENDBRANCH  21  22
ENDBRANCH   1  21
TORSDOF 16
ENDMDL
MODEL 2
REMARK VINA RESULT:     -11.5      6.755     13.485
REMARK SMILES C[C@@H](SC1CCOCC1)c1ccc(C(=O)NCCCNC(=O)c2ccc(-c3c4nc(c(-c5c(F)cc(S(=O)(=O)[O-])cc5F)c5ccc([nH]5)c(-c5c(F)cc(S(=O)(=O)[O-])cc5F)c5nc(c(-c6c(F)cc(S(=O)(=O)[O-])cc6F)c6ccc3[nH]6)C=C5)C=C4)cc2)o1
REMARK SMILES IDX 18 1 17 2 16 3 14 4 15 5 13 7 10 8 11 9 89 10 12 11 2 12
REMARK SMILES IDX 1 13 3 14 4 15 5 16 9 17 6 18 8 19 7 20 19 21 20 22 21 23
REMARK SMILES IDX 22 25 23 26 24 27 88 28 25 29 87 30 26 31 27 32 28 33 81 34
REMARK SMILES IDX 29 35 86 36 80 37 82 38 30 39 85 40 79 41 78 42 31 44 65 45
REMARK SMILES IDX 44 46 64 47 45 48 48 49 63 50 83 51 46 52 47 53 62 55 84 56
REMARK SMILES IDX 49 57 32 58 33 59 42 60 34 61 35 62 41 63 43 64 36 65 37 66
REMARK SMILES IDX 38 67 39 68 40 69 66 70 67 71 76 72 68 73 69 74 75 75 77 76
REMARK SMILES IDX 70 77 71 78 72 79 73 80 74 81 50 82 51 83 60 84 52 85 53 86
REMARK SMILES IDX 59 87 61 88 54 89 55 90 56 91 57 92 58 93
REMARK H PARENT 16 6 20 24 82 43 48 54
REMARK Flexibility Score: inf
ROOT
ATOM      1  C   UNL A   1      35.378  33.385  28.009  1.00  0.00     0.042 C 
ENDROOT
BRANCH   1   2
ATOM      2  C   UNL A   1      33.922  33.555  28.433  1.00  0.00     0.118 C 
BRANCH   2   3
ATOM      3  N   UNL A   1      33.456  34.907  28.222  1.00  0.00    -0.349 N 
ATOM      4  C   UNL A   1      33.204  35.930  29.104  1.00  0.00     0.286 C 
ATOM      5  O   UNL A   1      32.907  37.010  28.583  1.00  0.00    -0.266 OA
ATOM      6  H   UNL A   1      33.291  35.136  27.279  1.00  0.00     0.163 HD
BRANCH   4   7
ATOM      7  C   UNL A   1      33.302  35.753  30.542  1.00  0.00     0.191 A 
ATOM      8  C   UNL A   1      34.481  35.243  32.363  1.00  0.00     0.117 A 
ATOM      9  C   UNL A   1      33.213  35.566  32.795  1.00  0.00     0.047 A 
ATOM     10  O   UNL A   1      34.522  35.325  31.004  1.00  0.00    -0.455 OA
ATOM     11  C   UNL A   1      32.474  35.933  31.637  1.00  0.00     0.056 A 
BRANCH   8  12
ATOM     12  C   UNL A   1      35.758  34.860  33.060  1.00  0.00     0.110 C 
ATOM     13  C   UNL A   1      35.487  34.446  34.512  1.00  0.00     0.028 C 
BRANCH  12  14
ATOM     14  S   UNL A   1      36.517  33.447  32.142  1.00  0.00    -0.147 SA
BRANCH  14  15
ATOM     15  C   UNL A   1      38.112  34.117  31.534  1.00  0.00     0.052 C 
ATOM     16  C   UNL A   1      38.375  33.910  30.045  1.00  0.00     0.043 C 
ATOM     17  C   UNL A   1      39.314  33.645  32.354  1.00  0.00     0.043 C 
ATOM     18  C   UNL A   1      39.676  34.599  29.657  1.00  0.00     0.161 C 
ATOM     19  C   UNL A   1      40.575  34.334  31.838  1.00  0.00     0.161 C 
ATOM     20  O   UNL A   1      40.756  34.092  30.440  1.00  0.00    -0.381 OA
ENDBRANCH  14  15
ENDBRANCH  12  14
ENDBRANCH   8  12
ENDBRANCH   4   7
ENDBRANCH   2   3
ENDBRANCH   1   2
BRANCH   1  21
ATOM     21  C   UNL A   1      35.869  31.939  28.097  1.00  0.00     0.118 C 
BRANCH  21  22
ATOM     22  N   UNL A   1      35.617  31.359  29.411  1.00  0.00    -0.352 N 
ATOM     23  C   UNL A   1      36.314  30.411  30.115  1.00  0.00     0.251 C 
ATOM     24  H   UNL A   1      34.816  31.704  29.866  1.00  0.00     0.163 HD
ATOM     25  O   UNL A   1      35.781  29.886  31.090  1.00  0.00    -0.269 OA
BRANCH  23  26
ATOM     26  C   UNL A   1      37.684  30.018  29.720  1.00  0.00     0.039 A 
ATOM     27  C   UNL A   1      38.647  29.844  30.719  1.00  0.00     0.014 A 
ATOM     28  C   UNL A   1      38.044  29.894  28.376  1.00  0.00     0.014 A 
ATOM     29  C   UNL A   1      39.956  29.503  30.372  1.00  0.00     0.010 A 
ATOM     30  C   UNL A   1      39.332  29.486  28.034  1.00  0.00     0.010 A 
ATOM     31  C   UNL A   1      40.304  29.298  29.027  1.00  0.00    -0.014 A 
BRANCH  31  32
ATOM     32  C   UNL A   1      41.682  28.896  28.644  1.00  0.00     0.031 A 
ATOM     33  C   UNL A   1      42.781  29.923  28.586  1.00  0.00     0.074 A 
ATOM     34  C   UNL A   1      41.928  27.619  28.292  1.00  0.00     0.049 A 
ATOM     35  N   UNL A   1      44.027  29.779  28.210  1.00  0.00    -0.248 NA
ATOM     36  C   UNL A   1      42.429  31.298  28.975  1.00  0.00     0.031 C 
ATOM     37  C   UNL A   1      40.932  26.544  28.263  1.00  0.00     0.029 A 
ATOM     38  N   UNL A   1      43.085  27.008  27.883  1.00  0.00    -0.354 N 
ATOM     39  C   UNL A   1      44.600  31.042  28.301  1.00  0.00     0.074 A 
ATOM     40  C   UNL A   1      43.553  31.950  28.720  1.00  0.00     0.031 C 
ATOM     41  C   UNL A   1      41.527  25.404  27.876  1.00  0.00     0.029 A 
ATOM     42  C   UNL A   1      42.934  25.672  27.597  1.00  0.00     0.049 A 
ATOM     43  H   UNL A   1      43.945  27.483  27.800  1.00  0.00     0.167 HD
ATOM     44  C   UNL A   1      45.885  31.409  28.076  1.00  0.00     0.037 A 
ATOM     45  C   UNL A   1      43.826  24.766  27.154  1.00  0.00     0.037 A 
ATOM     46  C   UNL A   1      46.927  30.494  27.687  1.00  0.00     0.049 A 
ATOM     47  C   UNL A   1      45.251  25.193  26.929  1.00  0.00     0.074 A 
ATOM     48  C   UNL A   1      48.271  30.752  27.489  1.00  0.00     0.029 A 
ATOM     49  N   UNL A   1      46.740  29.141  27.439  1.00  0.00    -0.354 N 
ATOM     50  N   UNL A   1      45.788  26.380  27.074  1.00  0.00    -0.248 NA
ATOM     51  C   UNL A   1      46.193  24.155  26.488  1.00  0.00     0.031 C 
ATOM     52  C   UNL A   1      48.892  29.564  27.086  1.00  0.00     0.029 A 
ATOM     53  C   UNL A   1      47.943  28.556  27.076  1.00  0.00     0.049 A 
ATOM     54  H   UNL A   1      45.880  28.667  27.509  1.00  0.00     0.167 HD
ATOM     55  C   UNL A   1      47.136  26.228  26.769  1.00  0.00     0.074 A 
ATOM     56  C   UNL A   1      47.334  24.830  26.444  1.00  0.00     0.031 C 
ATOM     57  C   UNL A   1      48.122  27.160  26.761  1.00  0.00     0.037 A 
BRANCH  44  58
ATOM     58  C   UNL A   1      46.237  32.861  28.251  1.00  0.00     0.058 A 
ATOM     59  C   UNL A   1      46.117  33.780  27.196  1.00  0.00     0.135 A 
ATOM     60  C   UNL A   1      46.671  33.349  29.495  1.00  0.00     0.135 A 
ATOM     61  F   UNL A   1      45.721  33.368  25.981  1.00  0.00    -0.206 F 
ATOM     62  C   UNL A   1      46.445  35.123  27.358  1.00  0.00     0.059 A 
ATOM     63  C   UNL A   1      46.977  34.693  29.687  1.00  0.00     0.059 A 
ATOM     64  F   UNL A   1      46.804  32.515  30.538  1.00  0.00    -0.206 F 
ATOM     65  C   UNL A   1      46.876  35.570  28.608  1.00  0.00     0.060 A 
BRANCH  65  66
ATOM     66  S   UNL A   1      47.297  37.315  28.802  1.00  0.00     0.124 S 
ATOM     67  O   UNL A   1      46.845  37.866  27.529  1.00  0.00    -0.237 OA
ATOM     68  O   UNL A   1      46.512  37.697  29.972  1.00  0.00    -0.237 OA
ATOM     69  O   UNL A   1      48.743  37.295  29.000  1.00  0.00    -0.744 OA
ENDBRANCH  65  66
ENDBRANCH  44  58
BRANCH  45  70
ATOM     70  C   UNL A   1      43.403  23.360  26.925  1.00  0.00     0.058 A 
ATOM     71  C   UNL A   1      43.261  22.853  25.625  1.00  0.00     0.135 A 
ATOM     72  C   UNL A   1      43.151  22.490  27.998  1.00  0.00     0.135 A 
ATOM     73  F   UNL A   1      43.485  23.647  24.568  1.00  0.00    -0.206 F 
ATOM     74  C   UNL A   1      42.869  21.537  25.395  1.00  0.00     0.059 A 
ATOM     75  C   UNL A   1      42.782  21.164  27.793  1.00  0.00     0.059 A 
ATOM     76  F   UNL A   1      43.291  22.922  29.260  1.00  0.00    -0.206 F 
ATOM     77  C   UNL A   1      42.634  20.701  26.486  1.00  0.00     0.060 A 
BRANCH  77  78
ATOM     78  S   UNL A   1      42.178  18.980  26.176  1.00  0.00     0.124 S 
ATOM     79  O   UNL A   1      43.101  18.621  25.105  1.00  0.00    -0.237 OA
ATOM     80  O   UNL A   1      42.429  18.358  27.472  1.00  0.00    -0.237 OA
ATOM     81  O   UNL A   1      40.771  19.071  25.795  1.00  0.00    -0.744 OA
ENDBRANCH  77  78
ENDBRANCH  45  70
BRANCH  57  82
ATOM     82  C   UNL A   1      49.510  26.691  26.424  1.00  0.00     0.058 A 
ATOM     83  C   UNL A   1      50.356  26.132  27.393  1.00  0.00     0.135 A 
ATOM     84  C   UNL A   1      49.981  26.766  25.103  1.00  0.00     0.135 A 
ATOM     85  F   UNL A   1      49.955  26.043  28.670  1.00  0.00    -0.206 F 
ATOM     86  C   UNL A   1      51.634  25.688  27.070  1.00  0.00     0.059 A 
ATOM     87  C   UNL A   1      51.246  26.304  24.753  1.00  0.00     0.059 A 
ATOM     88  F   UNL A   1      49.207  27.284  24.136  1.00  0.00    -0.206 F 
ATOM     89  C   UNL A   1      52.070  25.779  25.747  1.00  0.00     0.060 A 
BRANCH  89  90
ATOM     90  S   UNL A   1      53.722  25.177  25.334  1.00  0.00     0.124 S 
ATOM     91  O   UNL A   1      54.511  25.702  26.443  1.00  0.00    -0.237 OA
ATOM     92  O   UNL A   1      53.533  23.730  25.319  1.00  0.00    -0.237 OA
ATOM     93  O   UNL A   1      53.987  25.782  24.032  1.00  0.00    -0.744 OA
ENDBRANCH  89  90
ENDBRANCH  57  82
ENDBRANCH  31  32
ENDBRANCH  23  26
ENDBRANCH  21  22
ENDBRANCH   1  21
TORSDOF 16
ENDMDL
MODEL 3
REMARK VINA RESULT:     -11.5      2.191      3.584
REMARK SMILES C[C@@H](SC1CCOCC1)c1ccc(C(=O)NCCCNC(=O)c2ccc(-c3c4nc(c(-c5c(F)cc(S(=O)(=O)[O-])cc5F)c5ccc([nH]5)c(-c5c(F)cc(S(=O)(=O)[O-])cc5F)c5nc(c(-c6c(F)cc(S(=O)(=O)[O-])cc6F)c6ccc3[nH]6)C=C5)C=C4)cc2)o1
REMARK SMILES IDX 18 1 17 2 16 3 14 4 15 5 13 7 10 8 11 9 89 10 12 11 2 12
REMARK SMILES IDX 1 13 3 14 4 15 5 16 9 17 6 18 8 19 7 20 19 21 20 22 21 23
REMARK SMILES IDX 22 25 23 26 24 27 88 28 25 29 87 30 26 31 27 32 28 33 81 34
REMARK SMILES IDX 29 35 86 36 80 37 82 38 30 39 85 40 79 41 78 42 31 44 65 45
REMARK SMILES IDX 44 46 64 47 45 48 48 49 63 50 83 51 46 52 47 53 62 55 84 56
REMARK SMILES IDX 49 57 32 58 33 59 42 60 34 61 35 62 41 63 43 64 36 65 37 66
REMARK SMILES IDX 38 67 39 68 40 69 66 70 67 71 76 72 68 73 69 74 75 75 77 76
REMARK SMILES IDX 70 77 71 78 72 79 73 80 74 81 50 82 51 83 60 84 52 85 53 86
REMARK SMILES IDX 59 87 61 88 54 89 55 90 56 91 57 92 58 93
REMARK H PARENT 16 6 20 24 82 43 48 54
REMARK Flexibility Score: inf
ROOT
ATOM      1  C   UNL A   1      44.180  22.565  26.638  1.00  0.00     0.042 C 
ENDROOT
BRANCH   1   2
ATOM      2  C   UNL A   1      43.061  21.870  25.868  1.00  0.00     0.118 C 
BRANCH   2   3
ATOM      3  N   UNL A   1      42.372  20.896  26.686  1.00  0.00    -0.349 N 
ATOM      4  C   UNL A   1      41.062  20.813  27.091  1.00  0.00     0.286 C 
ATOM      5  O   UNL A   1      40.770  19.786  27.711  1.00  0.00    -0.266 OA
ATOM      6  H   UNL A   1      42.943  20.162  27.008  1.00  0.00     0.163 HD
BRANCH   4   7
ATOM      7  C   UNL A   1      40.092  21.852  26.791  1.00  0.00     0.191 A 
ATOM      8  C   UNL A   1      38.140  22.503  25.937  1.00  0.00     0.117 A 
ATOM      9  C   UNL A   1      38.737  23.632  26.455  1.00  0.00     0.047 A 
ATOM     10  O   UNL A   1      38.973  21.440  26.113  1.00  0.00    -0.455 OA
ATOM     11  C   UNL A   1      39.962  23.208  27.038  1.00  0.00     0.056 A 
BRANCH   8  12
ATOM     12  C   UNL A   1      36.818  22.228  25.273  1.00  0.00     0.110 C 
ATOM     13  C   UNL A   1      36.717  22.961  23.929  1.00  0.00     0.028 C 
BRANCH  12  14
ATOM     14  S   UNL A   1      36.674  20.407  25.001  1.00  0.00    -0.147 SA
BRANCH  14  15
ATOM     15  C   UNL A   1      34.897  20.151  24.627  1.00  0.00     0.052 C 
ATOM     16  C   UNL A   1      33.932  20.967  25.482  1.00  0.00     0.043 C 
ATOM     17  C   UNL A   1      34.489  18.678  24.626  1.00  0.00     0.043 C 
ATOM     18  C   UNL A   1      32.506  20.738  25.001  1.00  0.00     0.161 C 
ATOM     19  C   UNL A   1      33.025  18.563  24.205  1.00  0.00     0.161 C 
ATOM     20  O   UNL A   1      32.184  19.349  25.053  1.00  0.00    -0.381 OA
ENDBRANCH  14  15
ENDBRANCH  12  14
ENDBRANCH   8  12
ENDBRANCH   4   7
ENDBRANCH   2   3
ENDBRANCH   1   2
BRANCH   1  21
ATOM     21  C   UNL A   1      43.882  24.033  26.945  1.00  0.00     0.118 C 
BRANCH  21  22
ATOM     22  N   UNL A   1      43.277  24.714  25.807  1.00  0.00    -0.352 N 
ATOM     23  C   UNL A   1      42.378  25.748  25.762  1.00  0.00     0.251 C 
ATOM     24  H   UNL A   1      43.559  24.375  24.928  1.00  0.00     0.163 HD
ATOM     25  O   UNL A   1      41.808  25.994  24.702  1.00  0.00    -0.269 OA
BRANCH  23  26
ATOM     26  C   UNL A   1      42.090  26.564  26.962  1.00  0.00     0.039 A 
ATOM     27  C   UNL A   1      42.747  27.789  27.115  1.00  0.00     0.014 A 
ATOM     28  C   UNL A   1      41.239  26.099  27.969  1.00  0.00     0.014 A 
ATOM     29  C   UNL A   1      42.517  28.565  28.253  1.00  0.00     0.010 A 
ATOM     30  C   UNL A   1      40.957  26.905  29.071  1.00  0.00     0.010 A 
ATOM     31  C   UNL A   1      41.601  28.140  29.230  1.00  0.00    -0.014 A 
BRANCH  31  32
ATOM     32  C   UNL A   1      41.315  28.972  30.427  1.00  0.00     0.031 A 
ATOM     33  C   UNL A   1      42.134  28.802  31.679  1.00  0.00     0.074 A 
ATOM     34  C   UNL A   1      40.282  29.836  30.404  1.00  0.00     0.049 A 
ATOM     35  N   UNL A   1      41.994  29.387  32.842  1.00  0.00    -0.248 NA
ATOM     36  C   UNL A   1      43.237  27.831  31.627  1.00  0.00     0.031 C 
ATOM     37  C   UNL A   1      39.387  30.053  29.264  1.00  0.00     0.029 A 
ATOM     38  N   UNL A   1      39.802  30.686  31.367  1.00  0.00    -0.354 N 
ATOM     39  C   UNL A   1      42.976  28.843  33.661  1.00  0.00     0.074 A 
ATOM     40  C   UNL A   1      43.675  27.846  32.877  1.00  0.00     0.031 C 
ATOM     41  C   UNL A   1      38.480  30.988  29.588  1.00  0.00     0.029 A 
ATOM     42  C   UNL A   1      38.706  31.413  30.966  1.00  0.00     0.049 A 
ATOM     43  H   UNL A   1      40.204  30.768  32.262  1.00  0.00     0.167 HD
ATOM     44  C   UNL A   1      43.283  29.159  34.943  1.00  0.00     0.037 A 
ATOM     45  C   UNL A   1      37.963  32.315  31.635  1.00  0.00     0.037 A 
ATOM     46  C   UNL A   1      42.602  30.171  35.707  1.00  0.00     0.049 A 
ATOM     47  C   UNL A   1      38.333  32.662  33.050  1.00  0.00     0.074 A 
ATOM     48  C   UNL A   1      42.870  30.608  36.993  1.00  0.00     0.029 A 
ATOM     49  N   UNL A   1      41.516  30.909  35.254  1.00  0.00    -0.354 N 
ATOM     50  N   UNL A   1      39.301  32.178  33.791  1.00  0.00    -0.248 NA
ATOM     51  C   UNL A   1      37.516  33.684  33.719  1.00  0.00     0.031 C 
ATOM     52  C   UNL A   1      41.925  31.583  37.331  1.00  0.00     0.029 A 
ATOM     53  C   UNL A   1      41.096  31.787  36.240  1.00  0.00     0.049 A 
ATOM     54  H   UNL A   1      41.105  30.821  34.364  1.00  0.00     0.167 HD
ATOM     55  C   UNL A   1      39.227  32.856  35.003  1.00  0.00     0.074 A 
ATOM     56  C   UNL A   1      38.128  33.792  34.891  1.00  0.00     0.031 C 
ATOM     57  C   UNL A   1      40.002  32.717  36.109  1.00  0.00     0.037 A 
BRANCH  44  58
ATOM     58  C   UNL A   1      44.408  28.404  35.598  1.00  0.00     0.058 A 
ATOM     59  C   UNL A   1      45.738  28.848  35.516  1.00  0.00     0.135 A 
ATOM     60  C   UNL A   1      44.153  27.241  36.343  1.00  0.00     0.135 A 
ATOM     61  F   UNL A   1      46.043  29.946  34.805  1.00  0.00    -0.206 F 
ATOM     62  C   UNL A   1      46.779  28.149  36.120  1.00  0.00     0.059 A 
ATOM     63  C   UNL A   1      45.175  26.541  36.980  1.00  0.00     0.059 A 
ATOM     64  F   UNL A   1      42.901  26.772  36.456  1.00  0.00    -0.206 F 
ATOM     65  C   UNL A   1      46.487  26.995  36.849  1.00  0.00     0.060 A 
BRANCH  65  66
ATOM     66  S   UNL A   1      47.848  26.100  37.628  1.00  0.00     0.124 S 
ATOM     67  O   UNL A   1      47.325  24.738  37.650  1.00  0.00    -0.237 OA
ATOM     68  O   UNL A   1      48.950  26.340  36.702  1.00  0.00    -0.237 OA
ATOM     69  O   UNL A   1      47.976  26.745  38.931  1.00  0.00    -0.744 OA
ENDBRANCH  65  66
ENDBRANCH  44  58
BRANCH  45  70
ATOM     70  C   UNL A   1      36.814  32.974  30.960  1.00  0.00     0.058 A 
ATOM     71  C   UNL A   1      35.493  32.626  31.281  1.00  0.00     0.135 A 
ATOM     72  C   UNL A   1      37.010  33.976  29.997  1.00  0.00     0.135 A 
ATOM     73  F   UNL A   1      35.255  31.670  32.192  1.00  0.00    -0.206 F 
ATOM     74  C   UNL A   1      34.407  33.236  30.662  1.00  0.00     0.059 A 
ATOM     75  C   UNL A   1      35.940  34.618  29.382  1.00  0.00     0.059 A 
ATOM     76  F   UNL A   1      38.253  34.358  29.668  1.00  0.00    -0.206 F 
ATOM     77  C   UNL A   1      34.642  34.234  29.714  1.00  0.00     0.060 A 
BRANCH  77  78
ATOM     78  S   UNL A   1      33.224  35.057  28.955  1.00  0.00     0.124 S 
ATOM     79  O   UNL A   1      32.379  35.314  30.115  1.00  0.00    -0.237 OA
ATOM     80  O   UNL A   1      33.842  36.228  28.342  1.00  0.00    -0.237 OA
ATOM     81  O   UNL A   1      32.722  34.058  28.015  1.00  0.00    -0.744 OA
ENDBRANCH  77  78
ENDBRANCH  45  70
BRANCH  57  82
ATOM     82  C   UNL A   1      39.709  33.623  37.272  1.00  0.00     0.058 A 
ATOM     83  C   UNL A   1      38.765  33.283  38.252  1.00  0.00     0.135 A 
ATOM     84  C   UNL A   1      40.413  34.828  37.427  1.00  0.00     0.135 A 
ATOM     85  F   UNL A   1      38.061  32.145  38.148  1.00  0.00    -0.206 F 
ATOM     86  C   UNL A   1      38.509  34.120  39.334  1.00  0.00     0.059 A 
ATOM     87  C   UNL A   1      40.191  35.667  38.514  1.00  0.00     0.059 A 
ATOM     88  F   UNL A   1      41.334  35.195  36.522  1.00  0.00    -0.206 F 
ATOM     89  C   UNL A   1      39.227  35.311  39.455  1.00  0.00     0.060 A 
BRANCH  89  90
ATOM     90  S   UNL A   1      38.903  36.379  40.874  1.00  0.00     0.124 S 
ATOM     91  O   UNL A   1      38.527  37.628  40.222  1.00  0.00    -0.237 OA
ATOM     92  O   UNL A   1      37.825  35.671  41.559  1.00  0.00    -0.237 OA
ATOM     93  O   UNL A   1      40.180  36.398  41.582  1.00  0.00    -0.744 OA
ENDBRANCH  89  90
ENDBRANCH  57  82
ENDBRANCH  31  32
ENDBRANCH  23  26
ENDBRANCH  21  22
ENDBRANCH   1  21
TORSDOF 16
ENDMDL
