MODEL 1
REMARK VINA RESULT:     -14.2      0.000      0.000
REMARK SMILES Cc1ccc(Oc2cc(C(=O)NCCCNC(=O)c3ccc(-c4c5nc(c(-c6c(F)cc(S(=O)(=O)[O-])cc6F)c6ccc([nH]6)c(-c6c(F)cc(S(=O)(=O)[O-])cc6F)c6nc(c(-c7c(F)cc(S(=O)(=O)[O-])cc7F)c7ccc4[nH]7)C=C6)C=C5)cc3)nc3ccccc23)cc1
REMARK SMILES IDX 14 1 13 2 12 3 10 4 11 5 9 7 7 8 8 9 91 10 86 11 90 12 85 13
REMARK SMILES IDX 87 14 89 15 88 16 6 17 5 18 1 19 2 20 3 21 93 22 4 23 92 24
REMARK SMILES IDX 15 25 16 26 17 27 18 29 19 30 20 31 84 32 21 33 83 34 22 35
REMARK SMILES IDX 23 36 24 37 77 38 25 39 82 40 76 41 78 42 26 43 81 44 75 45
REMARK SMILES IDX 74 46 27 48 61 49 40 50 60 51 41 52 44 53 59 54 79 55 42 56
REMARK SMILES IDX 43 57 58 59 80 60 45 61 28 62 29 63 38 64 30 65 31 66 37 67
REMARK SMILES IDX 39 68 32 69 33 70 34 71 35 72 36 73 62 74 63 75 72 76 64 77
REMARK SMILES IDX 65 78 71 79 73 80 66 81 67 82 68 83 69 84 70 85 46 86 47 87
REMARK SMILES IDX 56 88 48 89 49 90 55 91 57 92 50 93 51 94 52 95 53 96 54 97
REMARK H PARENT 12 6 16 28 78 47 44 58
REMARK Flexibility Score: inf
ROOT
ATOM      1  C   UNL A   1      32.954  29.400  27.595  1.00  0.00     0.042 C 
ENDROOT
BRANCH   1   2
ATOM      2  C   UNL A   1      31.815  28.998  26.659  1.00  0.00     0.118 C 
BRANCH   2   3
ATOM      3  N   UNL A   1      32.098  29.307  25.262  1.00  0.00    -0.351 N 
ATOM      4  C   UNL A   1      32.284  28.459  24.190  1.00  0.00     0.270 C 
ATOM      5  O   UNL A   1      32.385  28.948  23.063  1.00  0.00    -0.268 OA
ATOM      6  H   UNL A   1      32.165  30.266  25.052  1.00  0.00     0.163 HD
BRANCH   4   7
ATOM      7  C   UNL A   1      32.362  26.968  24.345  1.00  0.00     0.132 A 
ATOM      8  C   UNL A   1      33.459  24.906  23.908  1.00  0.00     0.139 A 
ATOM      9  C   UNL A   1      33.400  26.285  23.737  1.00  0.00     0.082 A 
ATOM     10  C   UNL A   1      32.531  24.234  24.738  1.00  0.00     0.043 A 
ATOM     11  C   UNL A   1      31.511  25.025  25.296  1.00  0.00     0.075 A 
ATOM     12  C   UNL A   1      32.558  22.848  25.027  1.00  0.00     0.014 A 
ATOM     13  N   UNL A   1      31.426  26.347  25.100  1.00  0.00    -0.242 NA
ATOM     14  C   UNL A   1      30.540  24.418  26.080  1.00  0.00     0.029 A 
ATOM     15  C   UNL A   1      31.569  22.258  25.812  1.00  0.00     0.001 A 
ATOM     16  C   UNL A   1      30.553  23.045  26.336  1.00  0.00     0.002 A 
BRANCH   8  17
ATOM     17  O   UNL A   1      34.492  24.257  23.267  1.00  0.00    -0.457 OA
BRANCH  17  18
ATOM     18  C   UNL A   1      35.499  23.706  24.034  1.00  0.00     0.127 A 
ATOM     19  C   UNL A   1      38.827  21.839  26.038  1.00  0.00     0.044 C 
ATOM     20  C   UNL A   1      37.658  22.484  25.354  1.00  0.00    -0.051 A 
ATOM     21  C   UNL A   1      37.131  21.921  24.185  1.00  0.00     0.007 A 
ATOM     22  C   UNL A   1      37.064  23.634  25.881  1.00  0.00     0.007 A 
ATOM     23  C   UNL A   1      36.058  22.531  23.530  1.00  0.00     0.047 A 
ATOM     24  C   UNL A   1      35.983  24.238  25.233  1.00  0.00     0.047 A 
ENDBRANCH  17  18
ENDBRANCH   8  17
ENDBRANCH   4   7
ENDBRANCH   2   3
ENDBRANCH   1   2
BRANCH   1  25
ATOM     25  C   UNL A   1      34.199  29.842  26.837  1.00  0.00     0.118 C 
BRANCH  25  26
ATOM     26  N   UNL A   1      34.781  31.078  27.345  1.00  0.00    -0.352 N 
ATOM     27  C   UNL A   1      35.958  31.231  28.059  1.00  0.00     0.251 C 
ATOM     28  H   UNL A   1      34.277  31.903  27.159  1.00  0.00     0.163 HD
ATOM     29  O   UNL A   1      36.261  32.288  28.579  1.00  0.00    -0.269 OA
BRANCH  27  30
ATOM     30  C   UNL A   1      36.878  30.075  28.092  1.00  0.00     0.039 A 
ATOM     31  C   UNL A   1      36.938  29.330  29.274  1.00  0.00     0.014 A 
ATOM     32  C   UNL A   1      37.818  29.898  27.080  1.00  0.00     0.014 A 
ATOM     33  C   UNL A   1      38.043  28.516  29.514  1.00  0.00     0.010 A 
ATOM     34  C   UNL A   1      38.948  29.148  27.352  1.00  0.00     0.010 A 
ATOM     35  C   UNL A   1      39.082  28.490  28.586  1.00  0.00    -0.014 A 
BRANCH  35  36
ATOM     36  C   UNL A   1      40.388  27.885  28.847  1.00  0.00     0.031 A 
ATOM     37  C   UNL A   1      40.645  26.463  28.511  1.00  0.00     0.074 A 
ATOM     38  C   UNL A   1      41.406  28.650  29.296  1.00  0.00     0.049 A 
ATOM     39  N   UNL A   1      41.645  25.768  28.946  1.00  0.00    -0.248 NA
ATOM     40  C   UNL A   1      39.733  25.685  27.682  1.00  0.00     0.031 C 
ATOM     41  C   UNL A   1      42.831  28.342  29.221  1.00  0.00     0.029 A 
ATOM     42  N   UNL A   1      41.341  29.787  30.097  1.00  0.00    -0.354 N 
ATOM     43  C   UNL A   1      41.675  24.579  28.248  1.00  0.00     0.074 A 
ATOM     44  C   UNL A   1      40.424  24.552  27.525  1.00  0.00     0.031 C 
ATOM     45  C   UNL A   1      43.492  29.108  30.100  1.00  0.00     0.029 A 
ATOM     46  C   UNL A   1      42.501  29.817  30.891  1.00  0.00     0.049 A 
ATOM     47  H   UNL A   1      40.614  30.451  30.106  1.00  0.00     0.167 HD
ATOM     48  C   UNL A   1      42.812  23.820  28.256  1.00  0.00     0.037 A 
ATOM     49  C   UNL A   1      42.432  29.774  32.255  1.00  0.00     0.037 A 
ATOM     50  C   UNL A   1      43.808  24.365  29.182  1.00  0.00     0.049 A 
ATOM     51  C   UNL A   1      43.103  28.572  32.880  1.00  0.00     0.074 A 
ATOM     52  C   UNL A   1      44.922  25.167  28.996  1.00  0.00     0.029 A 
ATOM     53  N   UNL A   1      43.570  24.336  30.551  1.00  0.00    -0.354 N 
ATOM     54  N   UNL A   1      43.485  27.519  32.211  1.00  0.00    -0.248 NA
ATOM     55  C   UNL A   1      43.366  28.443  34.312  1.00  0.00     0.031 C 
ATOM     56  C   UNL A   1      45.320  25.670  30.259  1.00  0.00     0.029 A 
ATOM     57  C   UNL A   1      44.457  25.165  31.215  1.00  0.00     0.049 A 
ATOM     58  H   UNL A   1      42.869  23.801  30.988  1.00  0.00     0.167 HD
ATOM     59  C   UNL A   1      43.977  26.579  33.077  1.00  0.00     0.074 A 
ATOM     60  C   UNL A   1      43.917  27.218  34.378  1.00  0.00     0.031 C 
ATOM     61  C   UNL A   1      44.374  25.343  32.655  1.00  0.00     0.037 A 
BRANCH  48  62
ATOM     62  C   UNL A   1      43.139  22.777  27.195  1.00  0.00     0.058 A 
ATOM     63  C   UNL A   1      42.494  21.518  27.193  1.00  0.00     0.135 A 
ATOM     64  C   UNL A   1      44.131  22.914  26.205  1.00  0.00     0.135 A 
ATOM     65  F   UNL A   1      41.439  21.267  27.980  1.00  0.00    -0.206 F 
ATOM     66  C   UNL A   1      42.901  20.448  26.391  1.00  0.00     0.059 A 
ATOM     67  C   UNL A   1      44.597  21.846  25.429  1.00  0.00     0.059 A 
ATOM     68  F   UNL A   1      44.650  24.110  25.901  1.00  0.00    -0.206 F 
ATOM     69  C   UNL A   1      43.987  20.606  25.543  1.00  0.00     0.060 A 
BRANCH  69  70
ATOM     70  S   UNL A   1      44.572  19.189  24.595  1.00  0.00     0.124 S 
ATOM     71  O   UNL A   1      43.590  18.163  24.934  1.00  0.00    -0.237 OA
ATOM     72  O   UNL A   1      44.516  19.694  23.227  1.00  0.00    -0.237 OA
ATOM     73  O   UNL A   1      45.914  18.958  25.123  1.00  0.00    -0.744 OA
ENDBRANCH  69  70
ENDBRANCH  48  62
BRANCH  49  74
ATOM     74  C   UNL A   1      41.242  30.475  32.804  1.00  0.00     0.058 A 
ATOM     75  C   UNL A   1      40.116  29.689  33.110  1.00  0.00     0.135 A 
ATOM     76  C   UNL A   1      41.361  31.721  33.434  1.00  0.00     0.135 A 
ATOM     77  F   UNL A   1      39.946  28.497  32.515  1.00  0.00    -0.206 F 
ATOM     78  C   UNL A   1      39.242  30.038  34.132  1.00  0.00     0.059 A 
ATOM     79  C   UNL A   1      40.489  32.097  34.458  1.00  0.00     0.059 A 
ATOM     80  F   UNL A   1      42.410  32.514  33.172  1.00  0.00    -0.206 F 
ATOM     81  C   UNL A   1      39.485  31.209  34.848  1.00  0.00     0.060 A 
BRANCH  81  82
ATOM     82  S   UNL A   1      38.601  31.432  36.410  1.00  0.00     0.124 S 
ATOM     83  O   UNL A   1      37.493  32.295  36.014  1.00  0.00    -0.237 OA
ATOM     84  O   UNL A   1      38.243  30.054  36.738  1.00  0.00    -0.237 OA
ATOM     85  O   UNL A   1      39.601  32.045  37.277  1.00  0.00    -0.744 OA
ENDBRANCH  81  82
ENDBRANCH  49  74
BRANCH  61  86
ATOM     86  C   UNL A   1      44.793  24.216  33.560  1.00  0.00     0.058 A 
ATOM     87  C   UNL A   1      43.899  23.270  34.089  1.00  0.00     0.135 A 
ATOM     88  C   UNL A   1      46.164  23.981  33.816  1.00  0.00     0.135 A 
ATOM     89  F   UNL A   1      42.585  23.339  33.830  1.00  0.00    -0.206 F 
ATOM     90  C   UNL A   1      44.327  22.195  34.870  1.00  0.00     0.059 A 
ATOM     91  C   UNL A   1      46.617  22.889  34.554  1.00  0.00     0.059 A 
ATOM     92  F   UNL A   1      47.109  24.811  33.349  1.00  0.00    -0.206 F 
ATOM     93  C   UNL A   1      45.688  22.013  35.099  1.00  0.00     0.060 A 
BRANCH  93  94
ATOM     94  S   UNL A   1      46.263  20.600  36.061  1.00  0.00     0.124 S 
ATOM     95  O   UNL A   1      47.712  20.750  35.963  1.00  0.00    -0.237 OA
ATOM     96  O   UNL A   1      45.693  20.848  37.383  1.00  0.00    -0.237 OA
ATOM     97  O   UNL A   1      45.693  19.462  35.347  1.00  0.00    -0.744 OA
ENDBRANCH  93  94
ENDBRANCH  61  86
ENDBRANCH  35  36
ENDBRANCH  27  30
ENDBRANCH  25  26
ENDBRANCH   1  25
TORSDOF 15
ENDMDL
MODEL 2
REMARK VINA RESULT:     -14.1      1.067      1.826
REMARK SMILES Cc1ccc(Oc2cc(C(=O)NCCCNC(=O)c3ccc(-c4c5nc(c(-c6c(F)cc(S(=O)(=O)[O-])cc6F)c6ccc([nH]6)c(-c6c(F)cc(S(=O)(=O)[O-])cc6F)c6nc(c(-c7c(F)cc(S(=O)(=O)[O-])cc7F)c7ccc4[nH]7)C=C6)C=C5)cc3)nc3ccccc23)cc1
REMARK SMILES IDX 14 1 13 2 12 3 10 4 11 5 9 7 7 8 8 9 91 10 86 11 90 12 85 13
REMARK SMILES IDX 87 14 89 15 88 16 6 17 5 18 1 19 2 20 3 21 93 22 4 23 92 24
REMARK SMILES IDX 15 25 16 26 17 27 18 29 19 30 20 31 84 32 21 33 83 34 22 35
REMARK SMILES IDX 23 36 24 37 77 38 25 39 82 40 76 41 78 42 26 43 81 44 75 45
REMARK SMILES IDX 74 46 27 48 61 49 40 50 60 51 41 52 44 53 59 54 79 55 42 56
REMARK SMILES IDX 43 57 58 59 80 60 45 61 28 62 29 63 38 64 30 65 31 66 37 67
REMARK SMILES IDX 39 68 32 69 33 70 34 71 35 72 36 73 62 74 63 75 72 76 64 77
REMARK SMILES IDX 65 78 71 79 73 80 66 81 67 82 68 83 69 84 70 85 46 86 47 87
REMARK SMILES IDX 56 88 48 89 49 90 55 91 57 92 50 93 51 94 52 95 53 96 54 97
REMARK H PARENT 12 6 16 28 78 47 44 58
REMARK Flexibility Score: inf
ROOT
ATOM      1  C   UNL A   1      34.274  29.063  26.542  1.00  0.00     0.042 C 
ENDROOT
BRANCH   1   2
ATOM      2  C   UNL A   1      32.988  29.608  25.922  1.00  0.00     0.118 C 
BRANCH   2   3
ATOM      3  N   UNL A   1      33.052  29.686  24.467  1.00  0.00    -0.351 N 
ATOM      4  C   UNL A   1      32.829  28.708  23.519  1.00  0.00     0.270 C 
ATOM      5  O   UNL A   1      32.814  29.033  22.330  1.00  0.00    -0.268 OA
ATOM      6  H   UNL A   1      33.289  30.570  24.107  1.00  0.00     0.163 HD
BRANCH   4   7
ATOM      7  C   UNL A   1      32.601  27.269  23.882  1.00  0.00     0.132 A 
ATOM      8  C   UNL A   1      33.246  24.986  23.757  1.00  0.00     0.139 A 
ATOM      9  C   UNL A   1      33.470  26.310  23.394  1.00  0.00     0.082 A 
ATOM     10  C   UNL A   1      32.210  24.642  24.657  1.00  0.00     0.043 A 
ATOM     11  C   UNL A   1      31.380  25.695  25.080  1.00  0.00     0.075 A 
ATOM     12  C   UNL A   1      31.955  23.334  25.136  1.00  0.00     0.014 A 
ATOM     13  N   UNL A   1      31.566  26.966  24.700  1.00  0.00    -0.242 NA
ATOM     14  C   UNL A   1      30.315  25.416  25.924  1.00  0.00     0.029 A 
ATOM     15  C   UNL A   1      30.875  23.076  25.979  1.00  0.00     0.001 A 
ATOM     16  C   UNL A   1      30.048  24.120  26.369  1.00  0.00     0.002 A 
BRANCH   8  17
ATOM     17  O   UNL A   1      34.117  24.055  23.231  1.00  0.00    -0.457 OA
BRANCH  17  18
ATOM     18  C   UNL A   1      35.177  23.635  24.009  1.00  0.00     0.127 A 
ATOM     19  C   UNL A   1      38.711  22.240  26.044  1.00  0.00     0.044 C 
ATOM     20  C   UNL A   1      37.471  22.718  25.348  1.00  0.00    -0.051 A 
ATOM     21  C   UNL A   1      37.096  22.159  24.120  1.00  0.00     0.007 A 
ATOM     22  C   UNL A   1      36.663  23.704  25.921  1.00  0.00     0.007 A 
ATOM     23  C   UNL A   1      35.956  22.618  23.455  1.00  0.00     0.047 A 
ATOM     24  C   UNL A   1      35.515  24.153  25.262  1.00  0.00     0.047 A 
ENDBRANCH  17  18
ENDBRANCH   8  17
ENDBRANCH   4   7
ENDBRANCH   2   3
ENDBRANCH   1   2
BRANCH   1  25
ATOM     25  C   UNL A   1      34.433  29.474  28.000  1.00  0.00     0.118 C 
BRANCH  25  26
ATOM     26  N   UNL A   1      35.091  30.764  28.171  1.00  0.00    -0.352 N 
ATOM     27  C   UNL A   1      36.396  31.006  28.566  1.00  0.00     0.251 C 
ATOM     28  H   UNL A   1      34.541  31.558  27.983  1.00  0.00     0.163 HD
ATOM     29  O   UNL A   1      36.788  32.124  28.839  1.00  0.00    -0.269 OA
BRANCH  27  30
ATOM     30  C   UNL A   1      37.323  29.854  28.561  1.00  0.00     0.039 A 
ATOM     31  C   UNL A   1      37.413  29.092  29.730  1.00  0.00     0.014 A 
ATOM     32  C   UNL A   1      38.241  29.698  27.525  1.00  0.00     0.014 A 
ATOM     33  C   UNL A   1      38.528  28.281  29.933  1.00  0.00     0.010 A 
ATOM     34  C   UNL A   1      39.381  28.951  27.761  1.00  0.00     0.010 A 
ATOM     35  C   UNL A   1      39.547  28.275  28.981  1.00  0.00    -0.014 A 
BRANCH  35  36
ATOM     36  C   UNL A   1      40.861  27.674  29.204  1.00  0.00     0.031 A 
ATOM     37  C   UNL A   1      41.151  26.293  28.743  1.00  0.00     0.074 A 
ATOM     38  C   UNL A   1      41.858  28.414  29.735  1.00  0.00     0.049 A 
ATOM     39  N   UNL A   1      42.160  25.581  29.127  1.00  0.00    -0.248 NA
ATOM     40  C   UNL A   1      40.264  25.578  27.834  1.00  0.00     0.031 C 
ATOM     41  C   UNL A   1      43.290  28.142  29.652  1.00  0.00     0.029 A 
ATOM     42  N   UNL A   1      41.761  29.472  30.635  1.00  0.00    -0.354 N 
ATOM     43  C   UNL A   1      42.222  24.462  28.324  1.00  0.00     0.074 A 
ATOM     44  C   UNL A   1      40.980  24.477  27.584  1.00  0.00     0.031 C 
ATOM     45  C   UNL A   1      43.924  28.837  30.605  1.00  0.00     0.029 A 
ATOM     46  C   UNL A   1      42.910  29.451  31.444  1.00  0.00     0.049 A 
ATOM     47  H   UNL A   1      41.020  30.118  30.694  1.00  0.00     0.167 HD
ATOM     48  C   UNL A   1      43.374  23.727  28.278  1.00  0.00     0.037 A 
ATOM     49  C   UNL A   1      42.826  29.282  32.797  1.00  0.00     0.037 A 
ATOM     50  C   UNL A   1      44.348  24.204  29.263  1.00  0.00     0.049 A 
ATOM     51  C   UNL A   1      43.513  28.041  33.319  1.00  0.00     0.074 A 
ATOM     52  C   UNL A   1      45.447  25.041  29.167  1.00  0.00     0.029 A 
ATOM     53  N   UNL A   1      44.094  24.046  30.621  1.00  0.00    -0.354 N 
ATOM     54  N   UNL A   1      43.924  27.061  32.563  1.00  0.00    -0.248 NA
ATOM     55  C   UNL A   1      43.762  27.787  34.737  1.00  0.00     0.031 C 
ATOM     56  C   UNL A   1      45.820  25.434  30.475  1.00  0.00     0.029 A 
ATOM     57  C   UNL A   1      44.956  24.827  31.369  1.00  0.00     0.049 A 
ATOM     58  H   UNL A   1      43.399  23.459  30.997  1.00  0.00     0.167 HD
ATOM     59  C   UNL A   1      44.425  26.056  33.345  1.00  0.00     0.074 A 
ATOM     60  C   UNL A   1      44.337  26.572  34.698  1.00  0.00     0.031 C 
ATOM     61  C   UNL A   1      44.853  24.871  32.819  1.00  0.00     0.037 A 
BRANCH  48  62
ATOM     62  C   UNL A   1      43.734  22.792  27.130  1.00  0.00     0.058 A 
ATOM     63  C   UNL A   1      42.970  21.630  26.875  1.00  0.00     0.135 A 
ATOM     64  C   UNL A   1      44.862  22.930  26.299  1.00  0.00     0.135 A 
ATOM     65  F   UNL A   1      41.796  21.412  27.484  1.00  0.00    -0.206 F 
ATOM     66  C   UNL A   1      43.370  20.626  25.988  1.00  0.00     0.059 A 
ATOM     67  C   UNL A   1      45.318  21.918  25.445  1.00  0.00     0.059 A 
ATOM     68  F   UNL A   1      45.539  24.083  26.229  1.00  0.00    -0.206 F 
ATOM     69  C   UNL A   1      44.573  20.756  25.310  1.00  0.00     0.060 A 
BRANCH  69  70
ATOM     70  S   UNL A   1      45.134  19.407  24.254  1.00  0.00     0.124 S 
ATOM     71  O   UNL A   1      46.580  19.607  24.240  1.00  0.00    -0.237 OA
ATOM     72  O   UNL A   1      44.663  18.235  24.983  1.00  0.00    -0.237 OA
ATOM     73  O   UNL A   1      44.462  19.668  22.985  1.00  0.00    -0.744 OA
ENDBRANCH  69  70
ENDBRANCH  48  62
BRANCH  49  74
ATOM     74  C   UNL A   1      41.615  29.907  33.391  1.00  0.00     0.058 A 
ATOM     75  C   UNL A   1      41.659  31.292  33.638  1.00  0.00     0.135 A 
ATOM     76  C   UNL A   1      40.355  29.304  33.273  1.00  0.00     0.135 A 
ATOM     77  F   UNL A   1      42.843  31.911  33.781  1.00  0.00    -0.206 F 
ATOM     78  C   UNL A   1      40.515  32.076  33.586  1.00  0.00     0.059 A 
ATOM     79  C   UNL A   1      39.190  30.072  33.226  1.00  0.00     0.059 A 
ATOM     80  F   UNL A   1      40.255  27.986  33.047  1.00  0.00    -0.206 F 
ATOM     81  C   UNL A   1      39.296  31.462  33.304  1.00  0.00     0.060 A 
BRANCH  81  82
ATOM     82  S   UNL A   1      37.911  32.528  32.837  1.00  0.00     0.124 S 
ATOM     83  O   UNL A   1      36.770  31.632  32.993  1.00  0.00    -0.237 OA
ATOM     84  O   UNL A   1      38.018  33.592  33.833  1.00  0.00    -0.237 OA
ATOM     85  O   UNL A   1      38.231  32.912  31.467  1.00  0.00    -0.744 OA
ENDBRANCH  81  82
ENDBRANCH  49  74
BRANCH  61  86
ATOM     86  C   UNL A   1      45.284  23.674  33.622  1.00  0.00     0.058 A 
ATOM     87  C   UNL A   1      46.562  23.536  34.187  1.00  0.00     0.135 A 
ATOM     88  C   UNL A   1      44.347  22.670  33.960  1.00  0.00     0.135 A 
ATOM     89  F   UNL A   1      47.502  24.478  34.012  1.00  0.00    -0.206 F 
ATOM     90  C   UNL A   1      46.911  22.445  34.985  1.00  0.00     0.059 A 
ATOM     91  C   UNL A   1      44.660  21.597  34.792  1.00  0.00     0.059 A 
ATOM     92  F   UNL A   1      43.091  22.705  33.490  1.00  0.00    -0.206 F 
ATOM     93  C   UNL A   1      45.954  21.479  35.281  1.00  0.00     0.060 A 
BRANCH  93  94
ATOM     94  S   UNL A   1      46.371  20.091  36.354  1.00  0.00     0.124 S 
ATOM     95  O   UNL A   1      45.706  18.984  35.673  1.00  0.00    -0.237 OA
ATOM     96  O   UNL A   1      47.831  20.069  36.312  1.00  0.00    -0.237 OA
ATOM     97  O   UNL A   1      45.797  20.483  37.637  1.00  0.00    -0.744 OA
ENDBRANCH  93  94
ENDBRANCH  61  86
ENDBRANCH  35  36
ENDBRANCH  27  30
ENDBRANCH  25  26
ENDBRANCH   1  25
TORSDOF 15
ENDMDL
MODEL 3
REMARK VINA RESULT:     -14.1      1.670      2.911
REMARK SMILES Cc1ccc(Oc2cc(C(=O)NCCCNC(=O)c3ccc(-c4c5nc(c(-c6c(F)cc(S(=O)(=O)[O-])cc6F)c6ccc([nH]6)c(-c6c(F)cc(S(=O)(=O)[O-])cc6F)c6nc(c(-c7c(F)cc(S(=O)(=O)[O-])cc7F)c7ccc4[nH]7)C=C6)C=C5)cc3)nc3ccccc23)cc1
REMARK SMILES IDX 14 1 13 2 12 3 10 4 11 5 9 7 7 8 8 9 91 10 86 11 90 12 85 13
REMARK SMILES IDX 87 14 89 15 88 16 6 17 5 18 1 19 2 20 3 21 93 22 4 23 92 24
REMARK SMILES IDX 15 25 16 26 17 27 18 29 19 30 20 31 84 32 21 33 83 34 22 35
REMARK SMILES IDX 23 36 24 37 77 38 25 39 82 40 76 41 78 42 26 43 81 44 75 45
REMARK SMILES IDX 74 46 27 48 61 49 40 50 60 51 41 52 44 53 59 54 79 55 42 56
REMARK SMILES IDX 43 57 58 59 80 60 45 61 28 62 29 63 38 64 30 65 31 66 37 67
REMARK SMILES IDX 39 68 32 69 33 70 34 71 35 72 36 73 62 74 63 75 72 76 64 77
REMARK SMILES IDX 65 78 71 79 73 80 66 81 67 82 68 83 69 84 70 85 46 86 47 87
REMARK SMILES IDX 56 88 48 89 49 90 55 91 57 92 50 93 51 94 52 95 53 96 54 97
REMARK H PARENT 12 6 16 28 78 47 44 58
REMARK Flexibility Score: inf
ROOT
ATOM      1  C   UNL A   1      33.702  29.113  26.130  1.00  0.00     0.042 C 
ENDROOT
BRANCH   1   2
ATOM      2  C   UNL A   1      33.639  27.645  25.709  1.00  0.00     0.118 C 
BRANCH   2   3
ATOM      3  N   UNL A   1      32.442  26.969  26.198  1.00  0.00    -0.351 N 
ATOM      4  C   UNL A   1      32.172  25.621  26.309  1.00  0.00     0.270 C 
ATOM      5  O   UNL A   1      31.134  25.273  26.874  1.00  0.00    -0.268 OA
ATOM      6  H   UNL A   1      31.718  27.566  26.494  1.00  0.00     0.163 HD
BRANCH   4   7
ATOM      7  C   UNL A   1      33.097  24.566  25.773  1.00  0.00     0.132 A 
ATOM      8  C   UNL A   1      33.471  22.649  24.421  1.00  0.00     0.139 A 
ATOM      9  C   UNL A   1      32.592  23.606  24.916  1.00  0.00     0.082 A 
ATOM     10  C   UNL A   1      34.851  22.701  24.725  1.00  0.00     0.043 A 
ATOM     11  C   UNL A   1      35.253  23.712  25.616  1.00  0.00     0.075 A 
ATOM     12  C   UNL A   1      35.829  21.815  24.210  1.00  0.00     0.014 A 
ATOM     13  N   UNL A   1      34.402  24.611  26.128  1.00  0.00    -0.242 NA
ATOM     14  C   UNL A   1      36.586  23.787  25.993  1.00  0.00     0.029 A 
ATOM     15  C   UNL A   1      37.161  21.905  24.608  1.00  0.00     0.001 A 
ATOM     16  C   UNL A   1      37.540  22.891  25.508  1.00  0.00     0.002 A 
BRANCH   8  17
ATOM     17  O   UNL A   1      32.926  21.693  23.589  1.00  0.00    -0.457 OA
BRANCH  17  18
ATOM     18  C   UNL A   1      32.811  20.401  24.061  1.00  0.00     0.127 A 
ATOM     19  C   UNL A   1      32.625  16.230  25.129  1.00  0.00     0.044 C 
ATOM     20  C   UNL A   1      32.674  17.684  24.765  1.00  0.00    -0.051 A 
ATOM     21  C   UNL A   1      32.469  18.084  23.439  1.00  0.00     0.007 A 
ATOM     22  C   UNL A   1      32.900  18.659  25.741  1.00  0.00     0.007 A 
ATOM     23  C   UNL A   1      32.539  19.435  23.091  1.00  0.00     0.047 A 
ATOM     24  C   UNL A   1      32.957  20.012  25.395  1.00  0.00     0.047 A 
ENDBRANCH  17  18
ENDBRANCH   8  17
ENDBRANCH   4   7
ENDBRANCH   2   3
ENDBRANCH   1   2
BRANCH   1  25
ATOM     25  C   UNL A   1      34.071  29.279  27.599  1.00  0.00     0.118 C 
BRANCH  25  26
ATOM     26  N   UNL A   1      34.694  30.562  27.899  1.00  0.00    -0.352 N 
ATOM     27  C   UNL A   1      35.945  30.791  28.446  1.00  0.00     0.251 C 
ATOM     28  H   UNL A   1      34.161  31.362  27.688  1.00  0.00     0.163 HD
ATOM     29  O   UNL A   1      36.295  31.898  28.810  1.00  0.00    -0.269 OA
BRANCH  27  30
ATOM     30  C   UNL A   1      36.878  29.645  28.491  1.00  0.00     0.039 A 
ATOM     31  C   UNL A   1      37.039  28.991  29.716  1.00  0.00     0.014 A 
ATOM     32  C   UNL A   1      37.738  29.398  27.423  1.00  0.00     0.014 A 
ATOM     33  C   UNL A   1      38.169  28.202  29.927  1.00  0.00     0.010 A 
ATOM     34  C   UNL A   1      38.893  28.676  27.659  1.00  0.00     0.010 A 
ATOM     35  C   UNL A   1      39.132  28.113  28.924  1.00  0.00    -0.014 A 
BRANCH  35  36
ATOM     36  C   UNL A   1      40.460  27.535  29.125  1.00  0.00     0.031 A 
ATOM     37  C   UNL A   1      40.754  26.144  28.700  1.00  0.00     0.074 A 
ATOM     38  C   UNL A   1      41.464  28.305  29.600  1.00  0.00     0.049 A 
ATOM     39  N   UNL A   1      41.784  25.458  29.074  1.00  0.00    -0.248 NA
ATOM     40  C   UNL A   1      39.851  25.389  27.842  1.00  0.00     0.031 C 
ATOM     41  C   UNL A   1      42.895  28.048  29.482  1.00  0.00     0.029 A 
ATOM     42  N   UNL A   1      41.379  29.390  30.469  1.00  0.00    -0.354 N 
ATOM     43  C   UNL A   1      41.837  24.314  28.306  1.00  0.00     0.074 A 
ATOM     44  C   UNL A   1      40.573  24.290  27.605  1.00  0.00     0.031 C 
ATOM     45  C   UNL A   1      43.549  28.781  30.392  1.00  0.00     0.029 A 
ATOM     46  C   UNL A   1      42.554  29.409  31.242  1.00  0.00     0.049 A 
ATOM     47  H   UNL A   1      40.633  30.028  30.530  1.00  0.00     0.167 HD
ATOM     48  C   UNL A   1      42.997  23.593  28.248  1.00  0.00     0.037 A 
ATOM     49  C   UNL A   1      42.513  29.284  32.602  1.00  0.00     0.037 A 
ATOM     50  C   UNL A   1      43.994  24.113  29.186  1.00  0.00     0.049 A 
ATOM     51  C   UNL A   1      43.233  28.069  33.142  1.00  0.00     0.074 A 
ATOM     52  C   UNL A   1      45.079  24.960  29.029  1.00  0.00     0.029 A 
ATOM     53  N   UNL A   1      43.785  23.996  30.555  1.00  0.00    -0.354 N 
ATOM     54  N   UNL A   1      43.634  27.070  32.404  1.00  0.00    -0.248 NA
ATOM     55  C   UNL A   1      43.529  27.864  34.558  1.00  0.00     0.031 C 
ATOM     56  C   UNL A   1      45.486  25.400  30.312  1.00  0.00     0.029 A 
ATOM     57  C   UNL A   1      44.658  24.812  31.251  1.00  0.00     0.049 A 
ATOM     58  H   UNL A   1      43.109  23.413  30.972  1.00  0.00     0.167 HD
ATOM     59  C   UNL A   1      44.172  26.097  33.203  1.00  0.00     0.074 A 
ATOM     60  C   UNL A   1      44.118  26.655  34.541  1.00  0.00     0.031 C 
ATOM     61  C   UNL A   1      44.599  24.901  32.701  1.00  0.00     0.037 A 
BRANCH  48  62
ATOM     62  C   UNL A   1      43.334  22.625  27.120  1.00  0.00     0.058 A 
ATOM     63  C   UNL A   1      42.657  21.389  26.998  1.00  0.00     0.135 A 
ATOM     64  C   UNL A   1      44.365  22.809  26.179  1.00  0.00     0.135 A 
ATOM     65  F   UNL A   1      41.567  21.110  27.726  1.00  0.00    -0.206 F 
ATOM     66  C   UNL A   1      43.064  20.373  26.129  1.00  0.00     0.059 A 
ATOM     67  C   UNL A   1      44.831  21.790  25.338  1.00  0.00     0.059 A 
ATOM     68  F   UNL A   1      44.927  24.009  25.987  1.00  0.00    -0.206 F 
ATOM     69  C   UNL A   1      44.184  20.564  25.334  1.00  0.00     0.060 A 
BRANCH  69  70
ATOM     70  S   UNL A   1      44.766  19.207  24.299  1.00  0.00     0.124 S 
ATOM     71  O   UNL A   1      43.904  18.107  24.720  1.00  0.00    -0.237 OA
ATOM     72  O   UNL A   1      44.525  19.724  22.957  1.00  0.00    -0.237 OA
ATOM     73  O   UNL A   1      46.170  19.071  24.676  1.00  0.00    -0.744 OA
ENDBRANCH  69  70
ENDBRANCH  48  62
BRANCH  49  74
ATOM     74  C   UNL A   1      41.313  29.912  33.213  1.00  0.00     0.058 A 
ATOM     75  C   UNL A   1      41.348  31.304  33.418  1.00  0.00     0.135 A 
ATOM     76  C   UNL A   1      40.057  29.292  33.150  1.00  0.00     0.135 A 
ATOM     77  F   UNL A   1      42.528  31.941  33.507  1.00  0.00    -0.206 F 
ATOM     78  C   UNL A   1      40.193  32.074  33.376  1.00  0.00     0.059 A 
ATOM     79  C   UNL A   1      38.883  30.045  33.115  1.00  0.00     0.059 A 
ATOM     80  F   UNL A   1      39.967  27.966  32.966  1.00  0.00    -0.206 F 
ATOM     81  C   UNL A   1      38.973  31.437  33.149  1.00  0.00     0.060 A 
BRANCH  81  82
ATOM     82  S   UNL A   1      37.562  32.473  32.693  1.00  0.00     0.124 S 
ATOM     83  O   UNL A   1      36.441  31.558  32.872  1.00  0.00    -0.237 OA
ATOM     84  O   UNL A   1      37.664  33.548  33.678  1.00  0.00    -0.237 OA
ATOM     85  O   UNL A   1      37.856  32.852  31.316  1.00  0.00    -0.744 OA
ENDBRANCH  81  82
ENDBRANCH  49  74
BRANCH  61  86
ATOM     86  C   UNL A   1      45.070  23.736  33.529  1.00  0.00     0.058 A 
ATOM     87  C   UNL A   1      46.387  23.598  33.999  1.00  0.00     0.135 A 
ATOM     88  C   UNL A   1      44.146  22.770  33.989  1.00  0.00     0.135 A 
ATOM     89  F   UNL A   1      47.326  24.510  33.703  1.00  0.00    -0.206 F 
ATOM     90  C   UNL A   1      46.778  22.541  34.822  1.00  0.00     0.059 A 
ATOM     91  C   UNL A   1      44.504  21.733  34.848  1.00  0.00     0.059 A 
ATOM     92  F   UNL A   1      42.857  22.810  33.617  1.00  0.00    -0.206 F 
ATOM     93  C   UNL A   1      45.830  21.611  35.241  1.00  0.00     0.060 A 
BRANCH  93  94
ATOM     94  S   UNL A   1      46.306  20.269  36.347  1.00  0.00     0.124 S 
ATOM     95  O   UNL A   1      45.699  19.118  35.687  1.00  0.00    -0.237 OA
ATOM     96  O   UNL A   1      47.765  20.316  36.313  1.00  0.00    -0.237 OA
ATOM     97  O   UNL A   1      45.705  20.663  37.618  1.00  0.00    -0.744 OA
ENDBRANCH  93  94
ENDBRANCH  61  86
ENDBRANCH  35  36
ENDBRANCH  27  30
ENDBRANCH  25  26
ENDBRANCH   1  25
TORSDOF 15
ENDMDL
