MODEL 1
REMARK VINA RESULT:     -12.1      0.000      0.000
REMARK SMILES O=C(Cc1cccc(NS(=O)(=O)c2cccc(Cl)c2)c1)NCCCNC(=O)c1ccc(-c2c3nc(c(-c4c(F)cc(S(=O)(=O)[O-])cc4F)c4ccc([nH]4)c(-c4c(F)cc(S(=O)(=O)[O-])cc4F)c4nc(c(-c5c(F)cc(S(=O)(=O)[O-])cc5F)c5ccc2[nH]5)C=C4)C=C3)cc1
REMARK SMILES IDX 22 1 21 2 1 3 2 4 3 6 4 7 5 8 20 9 6 10 8 11 7 12 9 13 10 15
REMARK SMILES IDX 11 16 12 17 13 18 14 19 19 20 15 21 17 22 16 23 18 24 23 25
REMARK SMILES IDX 24 26 25 27 26 28 27 30 28 31 29 32 93 33 30 34 92 35 31 36
REMARK SMILES IDX 32 37 33 38 86 39 34 40 91 41 85 42 87 43 35 44 90 45 84 46
REMARK SMILES IDX 83 47 36 49 70 50 49 51 69 52 50 53 53 54 68 55 88 56 51 57
REMARK SMILES IDX 52 58 67 60 89 61 54 62 37 63 38 64 47 65 39 66 40 67 46 68
REMARK SMILES IDX 48 69 41 70 42 71 43 72 44 73 45 74 71 75 72 76 81 77 73 78
REMARK SMILES IDX 74 79 80 80 82 81 75 82 76 83 77 84 78 85 79 86 55 87 56 88
REMARK SMILES IDX 65 89 57 90 58 91 64 92 66 93 59 94 60 95 61 96 62 97 63 98
REMARK H PARENT 21 5 9 14 25 29 87 48 53 59
REMARK Flexibility Score: inf
ROOT
ATOM      1  C   UNL A   1      39.269  23.109  26.729  1.00  0.00     0.117 C 
ENDROOT
BRANCH   1   2
ATOM      2  N   UNL A   1      38.519  22.560  25.618  1.00  0.00    -0.356 N 
ATOM      3  O   UNL A   1      36.732  24.006  25.762  1.00  0.00    -0.275 OA
ATOM      4  C   UNL A   1      37.336  23.115  25.171  1.00  0.00     0.224 C 
ATOM      5  H   UNL A   1      38.867  21.760  25.162  1.00  0.00     0.163 HD
BRANCH   4   6
ATOM      6  C   UNL A   1      36.822  22.533  23.860  1.00  0.00     0.135 C 
BRANCH   6   7
ATOM      7  C   UNL A   1      35.311  22.508  23.765  1.00  0.00    -0.037 A 
ATOM      8  C   UNL A   1      34.566  21.674  24.602  1.00  0.00     0.004 A 
ATOM      9  C   UNL A   1      34.636  23.319  22.836  1.00  0.00     0.031 A 
ATOM     10  C   UNL A   1      33.185  21.582  24.442  1.00  0.00     0.002 A 
ATOM     11  C   UNL A   1      33.251  23.232  22.669  1.00  0.00     0.049 A 
ATOM     12  C   UNL A   1      32.536  22.333  23.458  1.00  0.00     0.027 A 
BRANCH  11  13
ATOM     13  N   UNL A   1      32.661  24.163  21.768  1.00  0.00    -0.280 N 
ATOM     14  H   UNL A   1      32.230  23.792  20.965  1.00  0.00     0.180 HD
BRANCH  13  15
ATOM     15  S   UNL A   1      32.627  25.822  21.945  1.00  0.00     0.261 S 
ATOM     16  O   UNL A   1      33.960  26.290  21.629  1.00  0.00    -0.201 OA
ATOM     17  O   UNL A   1      31.461  26.331  21.262  1.00  0.00    -0.201 OA
BRANCH  15  18
ATOM     18  C   UNL A   1      32.398  26.095  23.686  1.00  0.00     0.089 A 
ATOM     19  C   UNL A   1      33.471  26.477  24.498  1.00  0.00     0.022 A 
ATOM     20  C   UNL A   1      31.159  25.760  24.243  1.00  0.00     0.042 A 
ATOM     21  C   UNL A   1      33.317  26.478  25.883  1.00  0.00     0.003 A 
ATOM     22  C   UNL A   1      31.013  25.784  25.626  1.00  0.00     0.042 A 
ATOM     23  C   UNL A   1      32.089  26.125  26.448  1.00  0.00     0.020 A 
ATOM     24  Cl  UNL A   1      29.505  25.353  26.333  1.00  0.00    -0.084 Cl
ENDBRANCH  15  18
ENDBRANCH  13  15
ENDBRANCH  11  13
ENDBRANCH   6   7
ENDBRANCH   4   6
ENDBRANCH   1   2
BRANCH   1  25
ATOM     25  C   UNL A   1      40.558  22.348  27.014  1.00  0.00     0.042 C 
BRANCH  25  26
ATOM     26  C   UNL A   1      41.804  23.214  27.184  1.00  0.00     0.118 C 
BRANCH  26  27
ATOM     27  N   UNL A   1      42.131  24.001  26.006  1.00  0.00    -0.352 N 
ATOM     28  C   UNL A   1      42.106  25.362  25.812  1.00  0.00     0.251 C 
ATOM     29  H   UNL A   1      42.417  23.477  25.222  1.00  0.00     0.163 HD
ATOM     30  O   UNL A   1      42.304  25.807  24.684  1.00  0.00    -0.269 OA
BRANCH  28  31
ATOM     31  C   UNL A   1      41.814  26.296  26.927  1.00  0.00     0.039 A 
ATOM     32  C   UNL A   1      40.735  26.008  27.771  1.00  0.00     0.014 A 
ATOM     33  C   UNL A   1      42.557  27.462  27.131  1.00  0.00     0.014 A 
ATOM     34  C   UNL A   1      40.449  26.844  28.853  1.00  0.00     0.010 A 
ATOM     35  C   UNL A   1      42.311  28.263  28.248  1.00  0.00     0.010 A 
ATOM     36  C   UNL A   1      41.255  27.961  29.123  1.00  0.00    -0.014 A 
BRANCH  36  37
ATOM     37  C   UNL A   1      41.017  28.807  30.321  1.00  0.00     0.031 A 
ATOM     38  C   UNL A   1      41.849  28.631  31.562  1.00  0.00     0.074 A 
ATOM     39  C   UNL A   1      40.007  29.700  30.313  1.00  0.00     0.049 A 
ATOM     40  N   UNL A   1      41.747  29.237  32.718  1.00  0.00    -0.248 NA
ATOM     41  C   UNL A   1      42.923  27.627  31.504  1.00  0.00     0.031 C 
ATOM     42  C   UNL A   1      39.091  29.933  29.195  1.00  0.00     0.029 A 
ATOM     43  N   UNL A   1      39.574  30.572  31.282  1.00  0.00    -0.354 N 
ATOM     44  C   UNL A   1      42.725  28.676  33.530  1.00  0.00     0.074 A 
ATOM     45  C   UNL A   1      43.388  27.656  32.745  1.00  0.00     0.031 C 
ATOM     46  C   UNL A   1      38.220  30.898  29.532  1.00  0.00     0.029 A 
ATOM     47  C   UNL A   1      38.496  31.333  30.898  1.00  0.00     0.049 A 
ATOM     48  H   UNL A   1      39.997  30.646  32.167  1.00  0.00     0.167 HD
ATOM     49  C   UNL A   1      43.053  28.992  34.806  1.00  0.00     0.037 A 
ATOM     50  C   UNL A   1      37.805  32.276  31.568  1.00  0.00     0.037 A 
ATOM     51  C   UNL A   1      42.421  30.030  35.576  1.00  0.00     0.049 A 
ATOM     52  C   UNL A   1      38.215  32.637  32.969  1.00  0.00     0.074 A 
ATOM     53  C   UNL A   1      42.724  30.462  36.857  1.00  0.00     0.029 A 
ATOM     54  N   UNL A   1      41.358  30.807  35.136  1.00  0.00    -0.354 N 
ATOM     55  N   UNL A   1      39.175  32.129  33.702  1.00  0.00    -0.248 NA
ATOM     56  C   UNL A   1      37.451  33.706  33.629  1.00  0.00     0.031 C 
ATOM     57  C   UNL A   1      41.832  31.486  37.198  1.00  0.00     0.029 A 
ATOM     58  C   UNL A   1      40.992  31.710  36.120  1.00  0.00     0.049 A 
ATOM     59  H   UNL A   1      40.930  30.729  34.253  1.00  0.00     0.167 HD
ATOM     60  C   UNL A   1      39.145  32.829  34.902  1.00  0.00     0.074 A 
ATOM     61  C   UNL A   1      38.078  33.802  34.794  1.00  0.00     0.031 C 
ATOM     62  C   UNL A   1      39.932  32.677  35.996  1.00  0.00     0.037 A 
BRANCH  49  63
ATOM     63  C   UNL A   1      44.159  28.203  35.450  1.00  0.00     0.058 A 
ATOM     64  C   UNL A   1      43.896  27.033  36.178  1.00  0.00     0.135 A 
ATOM     65  C   UNL A   1      45.496  28.610  35.318  1.00  0.00     0.135 A 
ATOM     66  F   UNL A   1      42.633  26.611  36.346  1.00  0.00    -0.206 F 
ATOM     67  C   UNL A   1      44.919  26.308  36.782  1.00  0.00     0.059 A 
ATOM     68  C   UNL A   1      46.537  27.888  35.894  1.00  0.00     0.059 A 
ATOM     69  F   UNL A   1      45.801  29.721  34.631  1.00  0.00    -0.206 F 
ATOM     70  C   UNL A   1      46.237  26.747  36.639  1.00  0.00     0.060 A 
BRANCH  70  71
ATOM     71  S   UNL A   1      47.556  25.805  37.433  1.00  0.00     0.124 S 
ATOM     72  O   UNL A   1      48.674  26.054  36.527  1.00  0.00    -0.237 OA
ATOM     73  O   UNL A   1      47.652  26.436  38.745  1.00  0.00    -0.237 OA
ATOM     74  O   UNL A   1      47.041  24.439  37.435  1.00  0.00    -0.744 OA
ENDBRANCH  70  71
ENDBRANCH  49  63
BRANCH  50  75
ATOM     75  C   UNL A   1      36.671  32.969  30.907  1.00  0.00     0.058 A 
ATOM     76  C   UNL A   1      35.347  32.684  31.268  1.00  0.00     0.135 A 
ATOM     77  C   UNL A   1      36.889  33.941  29.919  1.00  0.00     0.135 A 
ATOM     78  F   UNL A   1      35.093  31.757  32.205  1.00  0.00    -0.206 F 
ATOM     79  C   UNL A   1      34.273  33.329  30.666  1.00  0.00     0.059 A 
ATOM     80  C   UNL A   1      35.832  34.614  29.316  1.00  0.00     0.059 A 
ATOM     81  F   UNL A   1      38.140  34.259  29.552  1.00  0.00    -0.206 F 
ATOM     82  C   UNL A   1      34.525  34.295  29.690  1.00  0.00     0.060 A 
BRANCH  82  83
ATOM     83  S   UNL A   1      33.130  35.173  28.952  1.00  0.00     0.124 S 
ATOM     84  O   UNL A   1      32.300  35.437  30.121  1.00  0.00    -0.237 OA
ATOM     85  O   UNL A   1      33.776  36.335  28.351  1.00  0.00    -0.237 OA
ATOM     86  O   UNL A   1      32.594  34.203  28.001  1.00  0.00    -0.744 OA
ENDBRANCH  82  83
ENDBRANCH  50  75
BRANCH  62  87
ATOM     87  C   UNL A   1      39.684  33.603  37.152  1.00  0.00     0.058 A 
ATOM     88  C   UNL A   1      38.797  33.265  38.185  1.00  0.00     0.135 A 
ATOM     89  C   UNL A   1      40.369  34.825  37.245  1.00  0.00     0.135 A 
ATOM     90  F   UNL A   1      38.113  32.111  38.137  1.00  0.00    -0.206 F 
ATOM     91  C   UNL A   1      38.578  34.118  39.262  1.00  0.00     0.059 A 
ATOM     92  C   UNL A   1      40.181  35.685  38.322  1.00  0.00     0.059 A 
ATOM     93  F   UNL A   1      41.234  35.190  36.286  1.00  0.00    -0.206 F 
ATOM     94  C   UNL A   1      39.274  35.328  39.320  1.00  0.00     0.060 A 
BRANCH  94  95
ATOM     95  S   UNL A   1      39.007  36.419  40.734  1.00  0.00     0.124 S 
ATOM     96  O   UNL A   1      40.346  36.484  41.310  1.00  0.00    -0.237 OA
ATOM     97  O   UNL A   1      38.528  37.645  40.104  1.00  0.00    -0.237 OA
ATOM     98  O   UNL A   1      38.014  35.703  41.530  1.00  0.00    -0.744 OA
ENDBRANCH  94  95
ENDBRANCH  62  87
ENDBRANCH  36  37
ENDBRANCH  28  31
ENDBRANCH  26  27
ENDBRANCH  25  26
ENDBRANCH   1  25
TORSDOF 17
ENDMDL
MODEL 2
REMARK VINA RESULT:     -11.9      1.872      2.953
REMARK SMILES O=C(Cc1cccc(NS(=O)(=O)c2cccc(Cl)c2)c1)NCCCNC(=O)c1ccc(-c2c3nc(c(-c4c(F)cc(S(=O)(=O)[O-])cc4F)c4ccc([nH]4)c(-c4c(F)cc(S(=O)(=O)[O-])cc4F)c4nc(c(-c5c(F)cc(S(=O)(=O)[O-])cc5F)c5ccc2[nH]5)C=C4)C=C3)cc1
REMARK SMILES IDX 22 1 21 2 1 3 2 4 3 6 4 7 5 8 20 9 6 10 8 11 7 12 9 13 10 15
REMARK SMILES IDX 11 16 12 17 13 18 14 19 19 20 15 21 17 22 16 23 18 24 23 25
REMARK SMILES IDX 24 26 25 27 26 28 27 30 28 31 29 32 93 33 30 34 92 35 31 36
REMARK SMILES IDX 32 37 33 38 86 39 34 40 91 41 85 42 87 43 35 44 90 45 84 46
REMARK SMILES IDX 83 47 36 49 70 50 49 51 69 52 50 53 53 54 68 55 88 56 51 57
REMARK SMILES IDX 52 58 67 60 89 61 54 62 37 63 38 64 47 65 39 66 40 67 46 68
REMARK SMILES IDX 48 69 41 70 42 71 43 72 44 73 45 74 71 75 72 76 81 77 73 78
REMARK SMILES IDX 74 79 80 80 82 81 75 82 76 83 77 84 78 85 79 86 55 87 56 88
REMARK SMILES IDX 65 89 57 90 58 91 64 92 66 93 59 94 60 95 61 96 62 97 63 98
REMARK H PARENT 21 5 9 14 25 29 87 48 53 59
REMARK Flexibility Score: inf
ROOT
ATOM      1  C   UNL A   1      44.670  22.404  26.929  1.00  0.00     0.117 C 
ENDROOT
BRANCH   1   2
ATOM      2  N   UNL A   1      43.298  22.022  27.199  1.00  0.00    -0.356 N 
ATOM      3  O   UNL A   1      42.510  22.321  25.056  1.00  0.00    -0.275 OA
ATOM      4  C   UNL A   1      42.340  21.934  26.209  1.00  0.00     0.224 C 
ATOM      5  H   UNL A   1      43.039  21.817  28.127  1.00  0.00     0.163 HD
BRANCH   4   6
ATOM      6  C   UNL A   1      41.027  21.302  26.657  1.00  0.00     0.135 C 
BRANCH   6   7
ATOM      7  C   UNL A   1      39.821  22.181  26.401  1.00  0.00    -0.037 A 
ATOM      8  C   UNL A   1      39.800  23.501  26.859  1.00  0.00     0.004 A 
ATOM      9  C   UNL A   1      38.705  21.685  25.705  1.00  0.00     0.031 A 
ATOM     10  C   UNL A   1      38.650  24.272  26.708  1.00  0.00     0.002 A 
ATOM     11  C   UNL A   1      37.547  22.452  25.550  1.00  0.00     0.049 A 
ATOM     12  C   UNL A   1      37.518  23.738  26.087  1.00  0.00     0.027 A 
BRANCH  11  13
ATOM     13  N   UNL A   1      36.514  21.887  24.750  1.00  0.00    -0.280 N 
ATOM     14  H   UNL A   1      36.680  21.838  23.781  1.00  0.00     0.180 HD
BRANCH  13  15
ATOM     15  S   UNL A   1      35.050  21.301  25.297  1.00  0.00     0.261 S 
ATOM     16  O   UNL A   1      34.892  19.990  24.703  1.00  0.00    -0.201 OA
ATOM     17  O   UNL A   1      34.983  21.501  26.726  1.00  0.00    -0.201 OA
BRANCH  15  18
ATOM     18  C   UNL A   1      33.826  22.346  24.545  1.00  0.00     0.089 A 
ATOM     19  C   UNL A   1      32.509  21.902  24.382  1.00  0.00     0.022 A 
ATOM     20  C   UNL A   1      34.252  23.552  23.979  1.00  0.00     0.042 A 
ATOM     21  C   UNL A   1      31.625  22.649  23.604  1.00  0.00     0.003 A 
ATOM     22  C   UNL A   1      33.355  24.297  23.221  1.00  0.00     0.042 A 
ATOM     23  C   UNL A   1      32.050  23.844  23.019  1.00  0.00     0.020 A 
ATOM     24  Cl  UNL A   1      33.867  25.770  22.497  1.00  0.00    -0.084 Cl
ENDBRANCH  15  18
ENDBRANCH  13  15
ENDBRANCH  11  13
ENDBRANCH   6   7
ENDBRANCH   4   6
ENDBRANCH   1   2
BRANCH   1  25
ATOM     25  C   UNL A   1      45.124  23.613  27.735  1.00  0.00     0.042 C 
BRANCH  25  26
ATOM     26  C   UNL A   1      45.192  24.928  26.962  1.00  0.00     0.118 C 
BRANCH  26  27
ATOM     27  N   UNL A   1      44.187  25.041  25.917  1.00  0.00    -0.352 N 
ATOM     28  C   UNL A   1      42.994  25.725  25.903  1.00  0.00     0.251 C 
ATOM     29  H   UNL A   1      44.392  24.551  25.088  1.00  0.00     0.163 HD
ATOM     30  O   UNL A   1      42.235  25.578  24.948  1.00  0.00    -0.269 OA
BRANCH  28  31
ATOM     31  C   UNL A   1      42.596  26.608  27.027  1.00  0.00     0.039 A 
ATOM     32  C   UNL A   1      41.774  26.079  28.028  1.00  0.00     0.014 A 
ATOM     33  C   UNL A   1      42.987  27.948  27.091  1.00  0.00     0.014 A 
ATOM     34  C   UNL A   1      41.406  26.868  29.122  1.00  0.00     0.010 A 
ATOM     35  C   UNL A   1      42.671  28.716  28.213  1.00  0.00     0.010 A 
ATOM     36  C   UNL A   1      41.880  28.183  29.242  1.00  0.00    -0.014 A 
BRANCH  36  37
ATOM     37  C   UNL A   1      41.569  29.003  30.443  1.00  0.00     0.031 A 
ATOM     38  C   UNL A   1      42.390  28.867  31.696  1.00  0.00     0.074 A 
ATOM     39  C   UNL A   1      40.507  29.832  30.424  1.00  0.00     0.049 A 
ATOM     40  N   UNL A   1      42.231  29.455  32.855  1.00  0.00    -0.248 NA
ATOM     41  C   UNL A   1      43.524  27.931  31.649  1.00  0.00     0.031 C 
ATOM     42  C   UNL A   1      39.598  30.019  29.292  1.00  0.00     0.029 A 
ATOM     43  N   UNL A   1      40.005  30.668  31.392  1.00  0.00    -0.354 N 
ATOM     44  C   UNL A   1      43.228  28.948  33.680  1.00  0.00     0.074 A 
ATOM     45  C   UNL A   1      43.965  27.977  32.898  1.00  0.00     0.031 C 
ATOM     46  C   UNL A   1      38.664  30.926  29.622  1.00  0.00     0.029 A 
ATOM     47  C   UNL A   1      38.889  31.365  30.995  1.00  0.00     0.049 A 
ATOM     48  H   UNL A   1      40.408  30.760  32.285  1.00  0.00     0.167 HD
ATOM     49  C   UNL A   1      43.514  29.272  34.964  1.00  0.00     0.037 A 
ATOM     50  C   UNL A   1      38.130  32.257  31.660  1.00  0.00     0.037 A 
ATOM     51  C   UNL A   1      42.806  30.263  35.730  1.00  0.00     0.049 A 
ATOM     52  C   UNL A   1      38.493  32.630  33.071  1.00  0.00     0.074 A 
ATOM     53  C   UNL A   1      43.061  30.701  37.020  1.00  0.00     0.029 A 
ATOM     54  N   UNL A   1      41.706  30.977  35.278  1.00  0.00    -0.354 N 
ATOM     55  N   UNL A   1      39.471  32.176  33.817  1.00  0.00    -0.248 NA
ATOM     56  C   UNL A   1      37.654  33.645  33.726  1.00  0.00     0.031 C 
ATOM     57  C   UNL A   1      42.103  31.666  37.354  1.00  0.00     0.029 A 
ATOM     58  C   UNL A   1      41.268  31.847  36.263  1.00  0.00     0.049 A 
ATOM     59  H   UNL A   1      41.299  30.881  34.387  1.00  0.00     0.167 HD
ATOM     60  C   UNL A   1      39.377  32.862  35.022  1.00  0.00     0.074 A 
ATOM     61  C   UNL A   1      38.254  33.769  34.902  1.00  0.00     0.031 C 
ATOM     62  C   UNL A   1      40.153  32.749  36.128  1.00  0.00     0.037 A 
BRANCH  49  63
ATOM     63  C   UNL A   1      44.656  28.547  35.620  1.00  0.00     0.058 A 
ATOM     64  C   UNL A   1      44.448  27.374  36.362  1.00  0.00     0.135 A 
ATOM     65  C   UNL A   1      45.971  29.018  35.488  1.00  0.00     0.135 A 
ATOM     66  F   UNL A   1      43.207  26.892  36.531  1.00  0.00    -0.206 F 
ATOM     67  C   UNL A   1      45.503  26.708  36.978  1.00  0.00     0.059 A 
ATOM     68  C   UNL A   1      47.044  28.355  36.076  1.00  0.00     0.059 A 
ATOM     69  F   UNL A   1      46.223  30.135  34.789  1.00  0.00    -0.206 F 
ATOM     70  C   UNL A   1      46.798  27.210  36.834  1.00  0.00     0.060 A 
BRANCH  70  71
ATOM     71  S   UNL A   1      48.159  26.344  37.644  1.00  0.00     0.124 S 
ATOM     72  O   UNL A   1      48.247  27.065  38.911  1.00  0.00    -0.237 OA
ATOM     73  O   UNL A   1      47.660  24.976  37.727  1.00  0.00    -0.237 OA
ATOM     74  O   UNL A   1      49.279  26.544  36.728  1.00  0.00    -0.744 OA
ENDBRANCH  70  71
ENDBRANCH  49  63
BRANCH  50  75
ATOM     75  C   UNL A   1      36.967  32.886  30.985  1.00  0.00     0.058 A 
ATOM     76  C   UNL A   1      37.150  33.920  30.057  1.00  0.00     0.135 A 
ATOM     77  C   UNL A   1      35.657  32.453  31.238  1.00  0.00     0.135 A 
ATOM     78  F   UNL A   1      38.386  34.370  29.789  1.00  0.00    -0.206 F 
ATOM     79  C   UNL A   1      36.073  34.515  29.409  1.00  0.00     0.059 A 
ATOM     80  C   UNL A   1      34.566  33.019  30.588  1.00  0.00     0.059 A 
ATOM     81  F   UNL A   1      35.435  31.454  32.106  1.00  0.00    -0.206 F 
ATOM     82  C   UNL A   1      34.783  34.057  29.681  1.00  0.00     0.060 A 
BRANCH  82  83
ATOM     83  S   UNL A   1      33.393  34.792  28.793  1.00  0.00     0.124 S 
ATOM     84  O   UNL A   1      32.473  35.088  29.884  1.00  0.00    -0.237 OA
ATOM     85  O   UNL A   1      34.011  35.945  28.147  1.00  0.00    -0.237 OA
ATOM     86  O   UNL A   1      32.977  33.726  27.886  1.00  0.00    -0.744 OA
ENDBRANCH  82  83
ENDBRANCH  50  75
BRANCH  62  87
ATOM     87  C   UNL A   1      39.830  33.647  37.286  1.00  0.00     0.058 A 
ATOM     88  C   UNL A   1      38.893  33.277  38.263  1.00  0.00     0.135 A 
ATOM     89  C   UNL A   1      40.490  34.877  37.441  1.00  0.00     0.135 A 
ATOM     90  F   UNL A   1      38.231  32.114  38.156  1.00  0.00    -0.206 F 
ATOM     91  C   UNL A   1      38.604  34.104  39.343  1.00  0.00     0.059 A 
ATOM     92  C   UNL A   1      40.231  35.712  38.522  1.00  0.00     0.059 A 
ATOM     93  F   UNL A   1      41.400  35.273  36.537  1.00  0.00    -0.206 F 
ATOM     94  C   UNL A   1      39.277  35.322  39.462  1.00  0.00     0.060 A 
BRANCH  94  95
ATOM     95  S   UNL A   1      38.918  36.381  40.881  1.00  0.00     0.124 S 
ATOM     96  O   UNL A   1      40.202  36.387  41.573  1.00  0.00    -0.237 OA
ATOM     97  O   UNL A   1      38.532  37.638  40.249  1.00  0.00    -0.237 OA
ATOM     98  O   UNL A   1      37.838  35.673  41.564  1.00  0.00    -0.744 OA
ENDBRANCH  94  95
ENDBRANCH  62  87
ENDBRANCH  36  37
ENDBRANCH  28  31
ENDBRANCH  26  27
ENDBRANCH  25  26
ENDBRANCH   1  25
TORSDOF 17
ENDMDL
MODEL 3
REMARK VINA RESULT:     -11.9      5.533     12.314
REMARK SMILES O=C(Cc1cccc(NS(=O)(=O)c2cccc(Cl)c2)c1)NCCCNC(=O)c1ccc(-c2c3nc(c(-c4c(F)cc(S(=O)(=O)[O-])cc4F)c4ccc([nH]4)c(-c4c(F)cc(S(=O)(=O)[O-])cc4F)c4nc(c(-c5c(F)cc(S(=O)(=O)[O-])cc5F)c5ccc2[nH]5)C=C4)C=C3)cc1
REMARK SMILES IDX 22 1 21 2 1 3 2 4 3 6 4 7 5 8 20 9 6 10 8 11 7 12 9 13 10 15
REMARK SMILES IDX 11 16 12 17 13 18 14 19 19 20 15 21 17 22 16 23 18 24 23 25
REMARK SMILES IDX 24 26 25 27 26 28 27 30 28 31 29 32 93 33 30 34 92 35 31 36
REMARK SMILES IDX 32 37 33 38 86 39 34 40 91 41 85 42 87 43 35 44 90 45 84 46
REMARK SMILES IDX 83 47 36 49 70 50 49 51 69 52 50 53 53 54 68 55 88 56 51 57
REMARK SMILES IDX 52 58 67 60 89 61 54 62 37 63 38 64 47 65 39 66 40 67 46 68
REMARK SMILES IDX 48 69 41 70 42 71 43 72 44 73 45 74 71 75 72 76 81 77 73 78
REMARK SMILES IDX 74 79 80 80 82 81 75 82 76 83 77 84 78 85 79 86 55 87 56 88
REMARK SMILES IDX 65 89 57 90 58 91 64 92 66 93 59 94 60 95 61 96 62 97 63 98
REMARK H PARENT 21 5 9 14 25 29 87 48 53 59
REMARK Flexibility Score: inf
ROOT
ATOM      1  C   UNL A   1      35.002  33.846  31.254  1.00  0.00     0.117 C 
ENDROOT
BRANCH   1   2
ATOM      2  N   UNL A   1      35.863  32.717  31.545  1.00  0.00    -0.356 N 
ATOM      3  O   UNL A   1      35.494  32.680  33.818  1.00  0.00    -0.275 OA
ATOM      4  C   UNL A   1      35.974  32.171  32.809  1.00  0.00     0.224 C 
ATOM      5  H   UNL A   1      36.389  32.323  30.812  1.00  0.00     0.163 HD
BRANCH   4   6
ATOM      6  C   UNL A   1      36.748  30.859  32.862  1.00  0.00     0.135 C 
BRANCH   6   7
ATOM      7  C   UNL A   1      38.194  31.032  33.280  1.00  0.00    -0.037 A 
ATOM      8  C   UNL A   1      38.697  32.303  33.569  1.00  0.00     0.004 A 
ATOM      9  C   UNL A   1      39.050  29.922  33.380  1.00  0.00     0.031 A 
ATOM     10  C   UNL A   1      40.050  32.467  33.856  1.00  0.00     0.002 A 
ATOM     11  C   UNL A   1      40.409  30.078  33.666  1.00  0.00     0.049 A 
ATOM     12  C   UNL A   1      40.907  31.364  33.871  1.00  0.00     0.027 A 
BRANCH  11  13
ATOM     13  N   UNL A   1      41.164  28.883  33.836  1.00  0.00    -0.280 N 
ATOM     14  H   UNL A   1      41.332  28.346  33.029  1.00  0.00     0.180 HD
BRANCH  13  15
ATOM     15  S   UNL A   1      41.791  28.308  35.271  1.00  0.00     0.261 S 
ATOM     16  O   UNL A   1      43.065  28.971  35.451  1.00  0.00    -0.201 OA
ATOM     17  O   UNL A   1      40.756  28.363  36.277  1.00  0.00    -0.201 OA
BRANCH  15  18
ATOM     18  C   UNL A   1      42.154  26.596  34.961  1.00  0.00     0.089 A 
ATOM     19  C   UNL A   1      41.528  25.587  35.700  1.00  0.00     0.022 A 
ATOM     20  C   UNL A   1      43.194  26.297  34.076  1.00  0.00     0.042 A 
ATOM     21  C   UNL A   1      41.981  24.273  35.589  1.00  0.00     0.003 A 
ATOM     22  C   UNL A   1      43.624  24.979  33.959  1.00  0.00     0.042 A 
ATOM     23  C   UNL A   1      43.033  23.970  34.722  1.00  0.00     0.020 A 
ATOM     24  Cl  UNL A   1      44.919  24.594  32.894  1.00  0.00    -0.084 Cl
ENDBRANCH  15  18
ENDBRANCH  13  15
ENDBRANCH  11  13
ENDBRANCH   6   7
ENDBRANCH   4   6
ENDBRANCH   1   2
BRANCH   1  25
ATOM     25  C   UNL A   1      34.365  33.772  29.873  1.00  0.00     0.042 C 
BRANCH  25  26
ATOM     26  C   UNL A   1      35.080  32.869  28.870  1.00  0.00     0.118 C 
BRANCH  26  27
ATOM     27  N   UNL A   1      34.290  31.721  28.455  1.00  0.00    -0.352 N 
ATOM     28  C   UNL A   1      34.672  30.424  28.202  1.00  0.00     0.251 C 
ATOM     29  H   UNL A   1      33.329  31.899  28.336  1.00  0.00     0.163 HD
ATOM     30  O   UNL A   1      33.848  29.641  27.737  1.00  0.00    -0.269 OA
BRANCH  28  31
ATOM     31  C   UNL A   1      36.061  29.966  28.449  1.00  0.00     0.039 A 
ATOM     32  C   UNL A   1      36.983  30.040  27.399  1.00  0.00     0.014 A 
ATOM     33  C   UNL A   1      36.458  29.435  29.679  1.00  0.00     0.014 A 
ATOM     34  C   UNL A   1      38.310  29.651  27.602  1.00  0.00     0.010 A 
ATOM     35  C   UNL A   1      37.797  29.105  29.900  1.00  0.00     0.010 A 
ATOM     36  C   UNL A   1      38.738  29.212  28.864  1.00  0.00    -0.014 A 
BRANCH  36  37
ATOM     37  C   UNL A   1      40.165  28.881  29.117  1.00  0.00     0.031 A 
ATOM     38  C   UNL A   1      41.094  29.902  29.714  1.00  0.00     0.074 A 
ATOM     39  C   UNL A   1      40.640  27.672  28.755  1.00  0.00     0.049 A 
ATOM     40  N   UNL A   1      42.379  29.811  29.950  1.00  0.00    -0.248 NA
ATOM     41  C   UNL A   1      40.510  31.205  30.069  1.00  0.00     0.031 C 
ATOM     42  C   UNL A   1      39.857  26.610  28.120  1.00  0.00     0.029 A 
ATOM     43  N   UNL A   1      41.900  27.137  28.861  1.00  0.00    -0.354 N 
ATOM     44  C   UNL A   1      42.761  31.045  30.462  1.00  0.00     0.074 A 
ATOM     45  C   UNL A   1      41.578  31.880  30.468  1.00  0.00     0.031 C 
ATOM     46  C   UNL A   1      40.649  25.545  27.912  1.00  0.00     0.029 A 
ATOM     47  C   UNL A   1      41.998  25.856  28.371  1.00  0.00     0.049 A 
ATOM     48  H   UNL A   1      42.661  27.624  29.251  1.00  0.00     0.167 HD
ATOM     49  C   UNL A   1      43.979  31.441  30.902  1.00  0.00     0.037 A 
ATOM     50  C   UNL A   1      43.055  25.024  28.301  1.00  0.00     0.037 A 
ATOM     51  C   UNL A   1      45.147  30.601  30.931  1.00  0.00     0.049 A 
ATOM     52  C   UNL A   1      44.387  25.473  28.833  1.00  0.00     0.074 A 
ATOM     53  C   UNL A   1      46.412  30.897  31.413  1.00  0.00     0.029 A 
ATOM     54  N   UNL A   1      45.195  29.295  30.465  1.00  0.00    -0.354 N 
ATOM     55  N   UNL A   1      44.717  26.628  29.359  1.00  0.00    -0.248 NA
ATOM     56  C   UNL A   1      45.489  24.501  28.769  1.00  0.00     0.031 C 
ATOM     57  C   UNL A   1      47.229  29.777  31.220  1.00  0.00     0.029 A 
ATOM     58  C   UNL A   1      46.467  28.775  30.642  1.00  0.00     0.049 A 
ATOM     59  H   UNL A   1      44.437  28.810  30.068  1.00  0.00     0.167 HD
ATOM     60  C   UNL A   1      46.057  26.516  29.707  1.00  0.00     0.074 A 
ATOM     61  C   UNL A   1      46.476  25.178  29.342  1.00  0.00     0.031 C 
ATOM     62  C   UNL A   1      46.868  27.440  30.279  1.00  0.00     0.037 A 
BRANCH  49  63
ATOM     63  C   UNL A   1      44.108  32.854  31.398  1.00  0.00     0.058 A 
ATOM     64  C   UNL A   1      44.020  33.161  32.765  1.00  0.00     0.135 A 
ATOM     65  C   UNL A   1      44.344  33.908  30.501  1.00  0.00     0.135 A 
ATOM     66  F   UNL A   1      43.780  32.191  33.662  1.00  0.00    -0.206 F 
ATOM     67  C   UNL A   1      44.130  34.470  33.224  1.00  0.00     0.059 A 
ATOM     68  C   UNL A   1      44.479  35.222  30.941  1.00  0.00     0.059 A 
ATOM     69  F   UNL A   1      44.436  33.667  29.185  1.00  0.00    -0.206 F 
ATOM     70  C   UNL A   1      44.354  35.495  32.303  1.00  0.00     0.060 A 
BRANCH  70  71
ATOM     71  S   UNL A   1      44.486  37.191  32.907  1.00  0.00     0.124 S 
ATOM     72  O   UNL A   1      45.935  37.359  32.979  1.00  0.00    -0.237 OA
ATOM     73  O   UNL A   1      43.811  37.954  31.862  1.00  0.00    -0.237 OA
ATOM     74  O   UNL A   1      43.794  37.147  34.192  1.00  0.00    -0.744 OA
ENDBRANCH  70  71
ENDBRANCH  49  63
BRANCH  50  75
ATOM     75  C   UNL A   1      42.886  23.664  27.729  1.00  0.00     0.058 A 
ATOM     76  C   UNL A   1      42.565  22.575  28.553  1.00  0.00     0.135 A 
ATOM     77  C   UNL A   1      43.021  23.430  26.353  1.00  0.00     0.135 A 
ATOM     78  F   UNL A   1      42.432  22.752  29.876  1.00  0.00    -0.206 F 
ATOM     79  C   UNL A   1      42.395  21.296  28.034  1.00  0.00     0.059 A 
ATOM     80  C   UNL A   1      42.837  22.164  25.808  1.00  0.00     0.059 A 
ATOM     81  F   UNL A   1      43.311  24.445  25.524  1.00  0.00    -0.206 F 
ATOM     82  C   UNL A   1      42.532  21.100  26.659  1.00  0.00     0.060 A 
BRANCH  82  83
ATOM     83  S   UNL A   1      42.253  19.449  25.982  1.00  0.00     0.124 S 
ATOM     84  O   UNL A   1      40.810  19.459  25.776  1.00  0.00    -0.237 OA
ATOM     85  O   UNL A   1      43.072  19.465  24.775  1.00  0.00    -0.237 OA
ATOM     86  O   UNL A   1      42.734  18.570  27.044  1.00  0.00    -0.744 OA
ENDBRANCH  82  83
ENDBRANCH  50  75
BRANCH  62  87
ATOM     87  C   UNL A   1      48.282  27.027  30.568  1.00  0.00     0.058 A 
ATOM     88  C   UNL A   1      49.323  27.293  29.666  1.00  0.00     0.135 A 
ATOM     89  C   UNL A   1      48.605  26.388  31.776  1.00  0.00     0.135 A 
ATOM     90  F   UNL A   1      49.063  27.895  28.494  1.00  0.00    -0.206 F 
ATOM     91  C   UNL A   1      50.635  26.921  29.941  1.00  0.00     0.059 A 
ATOM     92  C   UNL A   1      49.912  26.024  32.081  1.00  0.00     0.059 A 
ATOM     93  F   UNL A   1      47.645  26.118  32.675  1.00  0.00    -0.206 F 
ATOM     94  C   UNL A   1      50.919  26.284  31.151  1.00  0.00     0.060 A 
BRANCH  94  95
ATOM     95  S   UNL A   1      52.628  25.827  31.515  1.00  0.00     0.124 S 
ATOM     96  O   UNL A   1      53.241  25.912  30.193  1.00  0.00    -0.237 OA
ATOM     97  O   UNL A   1      53.035  26.854  32.469  1.00  0.00    -0.237 OA
ATOM     98  O   UNL A   1      52.507  24.481  32.067  1.00  0.00    -0.744 OA
ENDBRANCH  94  95
ENDBRANCH  62  87
ENDBRANCH  36  37
ENDBRANCH  28  31
ENDBRANCH  26  27
ENDBRANCH  25  26
ENDBRANCH   1  25
TORSDOF 17
ENDMDL
