MODEL 1
REMARK VINA RESULT:     -13.4      0.000      0.000
REMARK SMILES COc1cc(C)cc2c1[C@@H](C)[C@@H](CC(=O)N[C@@H](Cc1c[nH]c3ccccc13)C(=O)NCCCNC(=O)c1ccc(-c3c4nc(c(-c5c(F)cc(S(=O)(=O)[O-])cc5F)c5ccc([nH]5)c(-c5c(F)cc(S(=O)(=O)[O-])cc5F)c5nc(c(-c6c(F)cc(S(=O)(=O)[O-])cc6F)c6ccc3[nH]6)C=C5)C=C4)cc1)C(=O)O2
REMARK SMILES IDX 31 1 30 2 28 3 29 4 17 6 16 7 14 8 15 9 13 11 12 12 3 13
REMARK SMILES IDX 4 14 9 15 5 16 8 17 10 18 6 19 7 20 105 21 11 22 103 23
REMARK SMILES IDX 104 24 2 25 1 26 18 27 19 28 20 29 27 30 21 31 22 32 26 33
REMARK SMILES IDX 23 35 25 36 24 37 32 38 33 39 34 40 35 41 36 43 37 44 38 45
REMARK SMILES IDX 102 46 39 47 101 48 40 49 41 50 42 51 95 52 43 53 100 54
REMARK SMILES IDX 94 55 96 56 44 57 99 58 93 59 92 60 45 62 79 63 58 64 78 65
REMARK SMILES IDX 59 66 62 67 77 68 97 69 60 70 61 71 76 73 98 74 63 75 46 76
REMARK SMILES IDX 47 77 56 78 48 79 49 80 55 81 57 82 50 83 51 84 52 85 53 86
REMARK SMILES IDX 54 87 80 88 81 89 90 90 82 91 83 92 89 93 91 94 84 95 85 96
REMARK SMILES IDX 86 97 87 98 88 99 64 100 65 101 74 102 66 103 67 104 73 105
REMARK SMILES IDX 75 106 68 107 69 108 70 109 71 110 72 111
REMARK H PARENT 30 5 16 10 21 34 34 42 96 61 62 72
REMARK Flexibility Score: inf
ROOT
ATOM      1  C   UNL A   1      33.115  27.675  25.027  1.00  0.00     0.117 C 
ENDROOT
BRANCH   1   2
ATOM      2  N   UNL A   1      32.174  27.096  25.956  1.00  0.00    -0.354 N 
ATOM      3  C   UNL A   1      30.950  26.566  25.730  1.00  0.00     0.242 C 
ATOM      4  O   UNL A   1      30.246  26.379  26.732  1.00  0.00    -0.273 OA
ATOM      5  H   UNL A   1      32.467  27.085  26.896  1.00  0.00     0.163 HD
BRANCH   3   6
ATOM      6  C   UNL A   1      30.432  26.125  24.341  1.00  0.00     0.175 C 
BRANCH   6   7
ATOM      7  N   UNL A   1      30.163  24.708  24.172  1.00  0.00    -0.344 N 
ATOM      8  C   UNL A   1      31.075  23.771  23.768  1.00  0.00     0.221 C 
ATOM      9  O   UNL A   1      30.707  22.814  23.091  1.00  0.00    -0.275 OA
ATOM     10  H   UNL A   1      29.249  24.395  24.363  1.00  0.00     0.164 HD
BRANCH   8  11
ATOM     11  C   UNL A   1      32.501  23.866  24.294  1.00  0.00     0.116 C 
BRANCH  11  12
ATOM     12  C   UNL A   1      32.732  23.811  25.825  1.00  0.00     0.116 C 
ATOM     13  C   UNL A   1      35.225  20.992  25.374  1.00  0.00     0.126 A 
ATOM     14  C   UNL A   1      35.098  19.723  24.785  1.00  0.00     0.050 A 
ATOM     15  C   UNL A   1      34.092  21.728  25.726  1.00  0.00     0.041 A 
ATOM     16  C   UNL A   1      33.837  19.162  24.532  1.00  0.00    -0.044 A 
ATOM     17  C   UNL A   1      32.853  21.079  25.595  1.00  0.00     0.138 A 
ATOM     18  C   UNL A   1      34.091  23.171  26.224  1.00  0.00     0.038 C 
ATOM     19  C   UNL A   1      33.711  17.829  23.857  1.00  0.00     0.044 C 
ATOM     20  C   UNL A   1      32.706  19.837  24.981  1.00  0.00     0.051 A 
ATOM     21  O   UNL A   1      31.675  21.637  26.116  1.00  0.00    -0.426 OA
ATOM     22  C   UNL A   1      35.241  24.075  25.769  1.00  0.00     0.014 C 
ATOM     23  C   UNL A   1      31.760  22.934  26.579  1.00  0.00     0.315 C 
ATOM     24  O   UNL A   1      31.092  23.314  27.535  1.00  0.00    -0.251 OA
BRANCH  13  25
ATOM     25  O   UNL A   1      36.452  21.480  25.734  1.00  0.00    -0.496 OA
ATOM     26  C   UNL A   1      37.459  21.245  24.757  1.00  0.00     0.278 C 
ENDBRANCH  13  25
ENDBRANCH  11  12
ENDBRANCH   8  11
ENDBRANCH   6   7
BRANCH   6  27
ATOM     27  C   UNL A   1      29.573  26.987  23.431  1.00  0.00     0.072 C 
BRANCH  27  28
ATOM     28  C   UNL A   1      29.770  28.421  23.025  1.00  0.00    -0.020 A 
ATOM     29  C   UNL A   1      30.914  28.733  22.301  1.00  0.00     0.087 A 
ATOM     30  C   UNL A   1      28.960  29.618  23.018  1.00  0.00     0.003 A 
ATOM     31  N   UNL A   1      30.689  29.889  21.626  1.00  0.00    -0.361 N 
ATOM     32  C   UNL A   1      29.593  30.519  22.147  1.00  0.00     0.046 A 
ATOM     33  C   UNL A   1      27.747  30.065  23.592  1.00  0.00     0.010 A 
ATOM     34  H   UNL A   1      31.232  30.224  20.877  1.00  0.00     0.166 HD
ATOM     35  C   UNL A   1      29.113  31.802  21.854  1.00  0.00     0.026 A 
ATOM     36  C   UNL A   1      27.273  31.366  23.345  1.00  0.00     0.001 A 
ATOM     37  C   UNL A   1      27.953  32.225  22.493  1.00  0.00     0.002 A 
ENDBRANCH  27  28
ENDBRANCH   6  27
ENDBRANCH   3   6
ENDBRANCH   1   2
BRANCH   1  38
ATOM     38  C   UNL A   1      34.094  28.579  25.757  1.00  0.00     0.042 C 
BRANCH  38  39
ATOM     39  C   UNL A   1      33.814  28.619  27.249  1.00  0.00     0.118 C 
BRANCH  39  40
ATOM     40  N   UNL A   1      33.717  29.988  27.743  1.00  0.00    -0.352 N 
ATOM     41  C   UNL A   1      34.632  30.717  28.469  1.00  0.00     0.251 C 
ATOM     42  H   UNL A   1      32.879  30.457  27.527  1.00  0.00     0.163 HD
ATOM     43  O   UNL A   1      34.301  31.756  29.010  1.00  0.00    -0.269 OA
BRANCH  41  44
ATOM     44  C   UNL A   1      36.012  30.202  28.584  1.00  0.00     0.039 A 
ATOM     45  C   UNL A   1      36.452  29.669  29.797  1.00  0.00     0.014 A 
ATOM     46  C   UNL A   1      36.875  30.292  27.492  1.00  0.00     0.014 A 
ATOM     47  C   UNL A   1      37.800  29.408  29.977  1.00  0.00     0.010 A 
ATOM     48  C   UNL A   1      38.210  29.912  27.642  1.00  0.00     0.010 A 
ATOM     49  C   UNL A   1      38.692  29.507  28.898  1.00  0.00    -0.014 A 
BRANCH  49  50
ATOM     50  C   UNL A   1      40.118  29.159  29.108  1.00  0.00     0.031 A 
ATOM     51  C   UNL A   1      40.647  27.809  28.708  1.00  0.00     0.074 A 
ATOM     52  C   UNL A   1      40.941  30.094  29.626  1.00  0.00     0.049 A 
ATOM     53  N   UNL A   1      41.850  27.321  28.868  1.00  0.00    -0.248 NA
ATOM     54  C   UNL A   1      39.709  26.883  28.050  1.00  0.00     0.031 C 
ATOM     55  C   UNL A   1      40.534  31.444  30.032  1.00  0.00     0.029 A 
ATOM     56  N   UNL A   1      42.285  30.066  29.883  1.00  0.00    -0.354 N 
ATOM     57  C   UNL A   1      41.808  26.027  28.360  1.00  0.00     0.074 A 
ATOM     58  C   UNL A   1      40.455  25.796  27.903  1.00  0.00     0.031 C 
ATOM     59  C   UNL A   1      41.611  32.127  30.438  1.00  0.00     0.029 A 
ATOM     60  C   UNL A   1      42.768  31.242  30.409  1.00  0.00     0.049 A 
ATOM     61  H   UNL A   1      42.852  29.280  29.710  1.00  0.00     0.167 HD
ATOM     62  C   UNL A   1      42.813  25.124  28.279  1.00  0.00     0.037 A 
ATOM     63  C   UNL A   1      43.996  31.564  30.853  1.00  0.00     0.037 A 
ATOM     64  C   UNL A   1      44.164  25.385  28.708  1.00  0.00     0.049 A 
ATOM     65  C   UNL A   1      45.080  30.527  30.786  1.00  0.00     0.074 A 
ATOM     66  C   UNL A   1      45.262  24.545  28.646  1.00  0.00     0.029 A 
ATOM     67  N   UNL A   1      44.604  26.575  29.271  1.00  0.00    -0.354 N 
ATOM     68  N   UNL A   1      45.019  29.305  30.313  1.00  0.00    -0.248 NA
ATOM     69  C   UNL A   1      46.393  30.906  31.321  1.00  0.00     0.031 C 
ATOM     70  C   UNL A   1      46.352  25.207  29.217  1.00  0.00     0.029 A 
ATOM     71  C   UNL A   1      45.950  26.482  29.582  1.00  0.00     0.049 A 
ATOM     72  H   UNL A   1      44.042  27.368  29.427  1.00  0.00     0.167 HD
ATOM     73  C   UNL A   1      46.290  28.773  30.481  1.00  0.00     0.074 A 
ATOM     74  C   UNL A   1      47.104  29.813  31.076  1.00  0.00     0.031 C 
ATOM     75  C   UNL A   1      46.742  27.532  30.174  1.00  0.00     0.037 A 
BRANCH  62  76
ATOM     76  C   UNL A   1      42.508  23.762  27.717  1.00  0.00     0.058 A 
ATOM     77  C   UNL A   1      42.440  23.528  26.335  1.00  0.00     0.135 A 
ATOM     78  C   UNL A   1      42.379  22.655  28.575  1.00  0.00     0.135 A 
ATOM     79  F   UNL A   1      42.536  24.551  25.471  1.00  0.00    -0.206 F 
ATOM     80  C   UNL A   1      42.259  22.247  25.823  1.00  0.00     0.059 A 
ATOM     81  C   UNL A   1      42.222  21.363  28.084  1.00  0.00     0.059 A 
ATOM     82  F   UNL A   1      42.430  22.823  29.905  1.00  0.00    -0.206 F 
ATOM     83  C   UNL A   1      42.161  21.169  26.706  1.00  0.00     0.060 A 
BRANCH  83  84
ATOM     84  S   UNL A   1      41.976  19.509  26.019  1.00  0.00     0.124 S 
ATOM     85  O   UNL A   1      42.354  18.678  27.158  1.00  0.00    -0.237 OA
ATOM     86  O   UNL A   1      40.563  19.481  25.654  1.00  0.00    -0.237 OA
ATOM     87  O   UNL A   1      42.911  19.496  24.897  1.00  0.00    -0.744 OA
ENDBRANCH  83  84
ENDBRANCH  62  76
BRANCH  63  88
ATOM     88  C   UNL A   1      44.246  32.913  31.426  1.00  0.00     0.058 A 
ATOM     89  C   UNL A   1      44.054  33.169  32.790  1.00  0.00     0.135 A 
ATOM     90  C   UNL A   1      44.711  33.967  30.622  1.00  0.00     0.135 A 
ATOM     91  F   UNL A   1      43.607  32.196  33.599  1.00  0.00    -0.206 F 
ATOM     92  C   UNL A   1      44.297  34.425  33.336  1.00  0.00     0.059 A 
ATOM     93  C   UNL A   1      44.993  35.222  31.150  1.00  0.00     0.059 A 
ATOM     94  F   UNL A   1      44.929  33.771  29.312  1.00  0.00    -0.206 F 
ATOM     95  C   UNL A   1      44.772  35.444  32.508  1.00  0.00     0.060 A 
BRANCH  95  96
ATOM     96  S   UNL A   1      45.125  37.058  33.236  1.00  0.00     0.124 S 
ATOM     97  O   UNL A   1      44.990  36.772  34.660  1.00  0.00    -0.237 OA
ATOM     98  O   UNL A   1      46.481  37.316  32.762  1.00  0.00    -0.237 OA
ATOM     99  O   UNL A   1      44.094  37.919  32.664  1.00  0.00    -0.744 OA
ENDBRANCH  95  96
ENDBRANCH  63  88
BRANCH  75 100
ATOM    100  C   UNL A   1      48.189  27.239  30.455  1.00  0.00     0.058 A 
ATOM    101  C   UNL A   1      48.602  26.672  31.671  1.00  0.00     0.135 A 
ATOM    102  C   UNL A   1      49.167  27.480  29.476  1.00  0.00     0.135 A 
ATOM    103  F   UNL A   1      47.708  26.428  32.641  1.00  0.00    -0.206 F 
ATOM    104  C   UNL A   1      49.938  26.377  31.915  1.00  0.00     0.059 A 
ATOM    105  C   UNL A   1      50.504  27.165  29.687  1.00  0.00     0.059 A 
ATOM    106  F   UNL A   1      48.821  28.012  28.293  1.00  0.00    -0.206 F 
ATOM    107  C   UNL A   1      50.882  26.623  30.915  1.00  0.00     0.060 A 
BRANCH 107 108
ATOM    108  S   UNL A   1      52.607  26.207  31.239  1.00  0.00     0.124 S 
ATOM    109  O   UNL A   1      53.016  27.306  32.108  1.00  0.00    -0.237 OA
ATOM    110  O   UNL A   1      52.497  24.900  31.879  1.00  0.00    -0.237 OA
ATOM    111  O   UNL A   1      53.211  26.201  29.910  1.00  0.00    -0.744 OA
ENDBRANCH 107 108
ENDBRANCH  75 100
ENDBRANCH  49  50
ENDBRANCH  41  44
ENDBRANCH  39  40
ENDBRANCH  38  39
ENDBRANCH   1  38
TORSDOF 19
ENDMDL
MODEL 2
REMARK VINA RESULT:     -13.2      0.223      7.797
REMARK SMILES COc1cc(C)cc2c1[C@@H](C)[C@@H](CC(=O)N[C@@H](Cc1c[nH]c3ccccc13)C(=O)NCCCNC(=O)c1ccc(-c3c4nc(c(-c5c(F)cc(S(=O)(=O)[O-])cc5F)c5ccc([nH]5)c(-c5c(F)cc(S(=O)(=O)[O-])cc5F)c5nc(c(-c6c(F)cc(S(=O)(=O)[O-])cc6F)c6ccc3[nH]6)C=C5)C=C4)cc1)C(=O)O2
REMARK SMILES IDX 31 1 30 2 28 3 29 4 17 6 16 7 14 8 15 9 13 11 12 12 3 13
REMARK SMILES IDX 4 14 9 15 5 16 8 17 10 18 6 19 7 20 105 21 11 22 103 23
REMARK SMILES IDX 104 24 2 25 1 26 18 27 19 28 20 29 27 30 21 31 22 32 26 33
REMARK SMILES IDX 23 35 25 36 24 37 32 38 33 39 34 40 35 41 36 43 37 44 38 45
REMARK SMILES IDX 102 46 39 47 101 48 40 49 41 50 42 51 95 52 43 53 100 54
REMARK SMILES IDX 94 55 96 56 44 57 99 58 93 59 92 60 45 62 79 63 58 64 78 65
REMARK SMILES IDX 59 66 62 67 77 68 97 69 60 70 61 71 76 73 98 74 63 75 46 76
REMARK SMILES IDX 47 77 56 78 48 79 49 80 55 81 57 82 50 83 51 84 52 85 53 86
REMARK SMILES IDX 54 87 80 88 81 89 90 90 82 91 83 92 89 93 91 94 84 95 85 96
REMARK SMILES IDX 86 97 87 98 88 99 64 100 65 101 74 102 66 103 67 104 73 105
REMARK SMILES IDX 75 106 68 107 69 108 70 109 71 110 72 111
REMARK H PARENT 30 5 16 10 21 34 34 42 96 61 62 72
REMARK Flexibility Score: inf
ROOT
ATOM      1  C   UNL A   1      33.194  27.458  24.971  1.00  0.00     0.117 C 
ENDROOT
BRANCH   1   2
ATOM      2  N   UNL A   1      32.191  26.980  25.893  1.00  0.00    -0.354 N 
ATOM      3  C   UNL A   1      30.933  26.545  25.653  1.00  0.00     0.242 C 
ATOM      4  O   UNL A   1      30.197  26.440  26.644  1.00  0.00    -0.273 OA
ATOM      5  H   UNL A   1      32.464  26.969  26.839  1.00  0.00     0.163 HD
BRANCH   3   6
ATOM      6  C   UNL A   1      30.408  26.112  24.265  1.00  0.00     0.175 C 
BRANCH   6   7
ATOM      7  N   UNL A   1      30.087  24.705  24.105  1.00  0.00    -0.344 N 
ATOM      8  C   UNL A   1      30.968  23.730  23.723  1.00  0.00     0.221 C 
ATOM      9  O   UNL A   1      30.573  22.781  23.050  1.00  0.00    -0.275 OA
ATOM     10  H   UNL A   1      29.159  24.429  24.285  1.00  0.00     0.164 HD
BRANCH   8  11
ATOM     11  C   UNL A   1      32.388  23.775  24.270  1.00  0.00     0.116 C 
BRANCH  11  12
ATOM     12  C   UNL A   1      32.598  23.666  25.801  1.00  0.00     0.116 C 
ATOM     13  C   UNL A   1      35.025  20.800  25.291  1.00  0.00     0.126 A 
ATOM     14  C   UNL A   1      34.874  19.553  24.659  1.00  0.00     0.050 A 
ATOM     15  C   UNL A   1      33.907  21.553  25.652  1.00  0.00     0.041 A 
ATOM     16  C   UNL A   1      33.603  19.033  24.373  1.00  0.00    -0.044 A 
ATOM     17  C   UNL A   1      32.654  20.940  25.485  1.00  0.00     0.138 A 
ATOM     18  C   UNL A   1      33.935  22.979  26.196  1.00  0.00     0.038 C 
ATOM     19  C   UNL A   1      33.452  17.726  23.654  1.00  0.00     0.044 C 
ATOM     20  C   UNL A   1      32.483  19.722  24.830  1.00  0.00     0.051 A 
ATOM     21  O   UNL A   1      31.483  21.511  26.009  1.00  0.00    -0.426 OA
ATOM     22  C   UNL A   1      35.114  23.867  25.784  1.00  0.00     0.014 C 
ATOM     23  C   UNL A   1      31.594  22.790  26.514  1.00  0.00     0.315 C 
ATOM     24  O   UNL A   1      30.923  23.157  27.474  1.00  0.00    -0.251 OA
BRANCH  13  25
ATOM     25  O   UNL A   1      36.259  21.245  25.681  1.00  0.00    -0.496 OA
ATOM     26  C   UNL A   1      37.325  20.679  24.927  1.00  0.00     0.278 C 
ENDBRANCH  13  25
ENDBRANCH  11  12
ENDBRANCH   8  11
ENDBRANCH   6   7
BRANCH   6  27
ATOM     27  C   UNL A   1      29.588  26.998  23.342  1.00  0.00     0.072 C 
BRANCH  27  28
ATOM     28  C   UNL A   1      29.790  28.448  22.998  1.00  0.00    -0.020 A 
ATOM     29  C   UNL A   1      30.933  28.787  22.285  1.00  0.00     0.087 A 
ATOM     30  C   UNL A   1      28.985  29.648  23.046  1.00  0.00     0.003 A 
ATOM     31  N   UNL A   1      30.711  29.972  21.662  1.00  0.00    -0.361 N 
ATOM     32  C   UNL A   1      29.619  30.583  22.213  1.00  0.00     0.046 A 
ATOM     33  C   UNL A   1      27.775  30.074  23.642  1.00  0.00     0.010 A 
ATOM     34  H   UNL A   1      31.254  30.337  20.926  1.00  0.00     0.166 HD
ATOM     35  C   UNL A   1      29.143  31.879  21.978  1.00  0.00     0.026 A 
ATOM     36  C   UNL A   1      27.305  31.387  23.454  1.00  0.00     0.001 A 
ATOM     37  C   UNL A   1      27.987  32.279  22.637  1.00  0.00     0.002 A 
ENDBRANCH  27  28
ENDBRANCH   6  27
ENDBRANCH   3   6
ENDBRANCH   1   2
BRANCH   1  38
ATOM     38  C   UNL A   1      34.090  28.483  25.645  1.00  0.00     0.042 C 
BRANCH  38  39
ATOM     39  C   UNL A   1      33.832  28.555  27.140  1.00  0.00     0.118 C 
BRANCH  39  40
ATOM     40  N   UNL A   1      33.709  29.933  27.601  1.00  0.00    -0.352 N 
ATOM     41  C   UNL A   1      34.601  30.689  28.328  1.00  0.00     0.251 C 
ATOM     42  H   UNL A   1      32.871  30.388  27.358  1.00  0.00     0.163 HD
ATOM     43  O   UNL A   1      34.246  31.737  28.839  1.00  0.00    -0.269 OA
BRANCH  41  44
ATOM     44  C   UNL A   1      35.983  30.193  28.484  1.00  0.00     0.039 A 
ATOM     45  C   UNL A   1      36.394  29.662  29.708  1.00  0.00     0.014 A 
ATOM     46  C   UNL A   1      36.878  30.301  27.419  1.00  0.00     0.014 A 
ATOM     47  C   UNL A   1      37.739  29.419  29.927  1.00  0.00     0.010 A 
ATOM     48  C   UNL A   1      38.213  29.939  27.608  1.00  0.00     0.010 A 
ATOM     49  C   UNL A   1      38.662  29.536  28.876  1.00  0.00    -0.014 A 
BRANCH  49  50
ATOM     50  C   UNL A   1      40.087  29.207  29.129  1.00  0.00     0.031 A 
ATOM     51  C   UNL A   1      41.005  30.212  29.770  1.00  0.00     0.074 A 
ATOM     52  C   UNL A   1      40.531  27.975  28.810  1.00  0.00     0.049 A 
ATOM     53  N   UNL A   1      42.286  30.110  30.014  1.00  0.00    -0.248 NA
ATOM     54  C   UNL A   1      40.417  31.497  30.185  1.00  0.00     0.031 C 
ATOM     55  C   UNL A   1      39.717  26.917  28.200  1.00  0.00     0.029 A 
ATOM     56  N   UNL A   1      41.759  27.392  28.970  1.00  0.00    -0.354 N 
ATOM     57  C   UNL A   1      42.664  31.321  30.583  1.00  0.00     0.074 A 
ATOM     58  C   UNL A   1      41.482  32.153  30.631  1.00  0.00     0.031 C 
ATOM     59  C   UNL A   1      40.453  25.804  28.084  1.00  0.00     0.029 A 
ATOM     60  C   UNL A   1      41.812  26.091  28.524  1.00  0.00     0.049 A 
ATOM     61  H   UNL A   1      42.531  27.858  29.364  1.00  0.00     0.167 HD
ATOM     62  C   UNL A   1      43.886  31.694  31.029  1.00  0.00     0.037 A 
ATOM     63  C   UNL A   1      42.845  25.234  28.444  1.00  0.00     0.037 A 
ATOM     64  C   UNL A   1      45.045  30.839  31.004  1.00  0.00     0.049 A 
ATOM     65  C   UNL A   1      44.197  25.692  28.910  1.00  0.00     0.074 A 
ATOM     66  C   UNL A   1      46.325  31.114  31.455  1.00  0.00     0.029 A 
ATOM     67  N   UNL A   1      45.067  29.542  30.509  1.00  0.00    -0.354 N 
ATOM     68  N   UNL A   1      44.538  26.844  29.435  1.00  0.00    -0.248 NA
ATOM     69  C   UNL A   1      45.305  24.740  28.765  1.00  0.00     0.031 C 
ATOM     70  C   UNL A   1      47.131  30.004  31.187  1.00  0.00     0.029 A 
ATOM     71  C   UNL A   1      46.342  29.014  30.623  1.00  0.00     0.049 A 
ATOM     72  H   UNL A   1      44.291  29.068  30.133  1.00  0.00     0.167 HD
ATOM     73  C   UNL A   1      45.899  26.752  29.696  1.00  0.00     0.074 A 
ATOM     74  C   UNL A   1      46.312  25.423  29.293  1.00  0.00     0.031 C 
ATOM     75  C   UNL A   1      46.732  27.686  30.216  1.00  0.00     0.037 A 
BRANCH  62  76
ATOM     76  C   UNL A   1      44.055  33.087  31.575  1.00  0.00     0.058 A 
ATOM     77  C   UNL A   1      43.932  33.365  32.945  1.00  0.00     0.135 A 
ATOM     78  C   UNL A   1      44.443  34.138  30.727  1.00  0.00     0.135 A 
ATOM     79  F   UNL A   1      43.544  32.404  33.798  1.00  0.00    -0.206 F 
ATOM     80  C   UNL A   1      44.190  34.634  33.455  1.00  0.00     0.059 A 
ATOM     81  C   UNL A   1      44.729  35.408  31.217  1.00  0.00     0.059 A 
ATOM     82  F   UNL A   1      44.569  33.928  29.407  1.00  0.00    -0.206 F 
ATOM     83  C   UNL A   1      44.598  35.647  32.584  1.00  0.00     0.060 A 
BRANCH  83  84
ATOM     84  S   UNL A   1      44.975  37.273  33.273  1.00  0.00     0.124 S 
ATOM     85  O   UNL A   1      43.899  38.084  32.712  1.00  0.00    -0.237 OA
ATOM     86  O   UNL A   1      44.900  37.025  34.709  1.00  0.00    -0.237 OA
ATOM     87  O   UNL A   1      46.311  37.561  32.758  1.00  0.00    -0.744 OA
ENDBRANCH  83  84
ENDBRANCH  62  76
BRANCH  63  88
ATOM     88  C   UNL A   1      42.639  23.878  27.871  1.00  0.00     0.058 A 
ATOM     89  C   UNL A   1      42.554  23.680  26.487  1.00  0.00     0.135 A 
ATOM     90  C   UNL A   1      42.552  22.746  28.700  1.00  0.00     0.135 A 
ATOM     91  F   UNL A   1      42.628  24.729  25.654  1.00  0.00    -0.206 F 
ATOM     92  C   UNL A   1      42.374  22.413  25.943  1.00  0.00     0.059 A 
ATOM     93  C   UNL A   1      42.405  21.466  28.179  1.00  0.00     0.059 A 
ATOM     94  F   UNL A   1      42.645  22.878  30.033  1.00  0.00    -0.206 F 
ATOM     95  C   UNL A   1      42.305  21.311  26.798  1.00  0.00     0.060 A 
BRANCH  95  96
ATOM     96  S   UNL A   1      42.114  19.666  26.077  1.00  0.00     0.124 S 
ATOM     97  O   UNL A   1      42.471  18.810  27.203  1.00  0.00    -0.237 OA
ATOM     98  O   UNL A   1      40.707  19.664  25.693  1.00  0.00    -0.237 OA
ATOM     99  O   UNL A   1      43.061  19.674  24.966  1.00  0.00    -0.744 OA
ENDBRANCH  95  96
ENDBRANCH  63  88
BRANCH  75 100
ATOM    100  C   UNL A   1      48.171  27.294  30.403  1.00  0.00     0.058 A 
ATOM    101  C   UNL A   1      49.136  27.547  29.416  1.00  0.00     0.135 A 
ATOM    102  C   UNL A   1      48.597  26.707  31.606  1.00  0.00     0.135 A 
ATOM    103  F   UNL A   1      48.778  28.099  28.247  1.00  0.00    -0.206 F 
ATOM    104  C   UNL A   1      50.471  27.208  29.606  1.00  0.00     0.059 A 
ATOM    105  C   UNL A   1      49.932  26.388  31.829  1.00  0.00     0.059 A 
ATOM    106  F   UNL A   1      47.715  26.454  32.585  1.00  0.00    -0.206 F 
ATOM    107  C   UNL A   1      50.860  26.632  30.817  1.00  0.00     0.060 A 
BRANCH 107 108
ATOM    108  S   UNL A   1      52.602  26.226  31.056  1.00  0.00     0.124 S 
ATOM    109  O   UNL A   1      53.071  26.122  29.678  1.00  0.00    -0.237 OA
ATOM    110  O   UNL A   1      53.090  27.378  31.807  1.00  0.00    -0.237 OA
ATOM    111  O   UNL A   1      52.559  24.970  31.800  1.00  0.00    -0.744 OA
ENDBRANCH 107 108
ENDBRANCH  75 100
ENDBRANCH  49  50
ENDBRANCH  41  44
ENDBRANCH  39  40
ENDBRANCH  38  39
ENDBRANCH   1  38
TORSDOF 19
ENDMDL
MODEL 3
REMARK VINA RESULT:     -13.2      4.407      5.809
REMARK SMILES COc1cc(C)cc2c1[C@@H](C)[C@@H](CC(=O)N[C@@H](Cc1c[nH]c3ccccc13)C(=O)NCCCNC(=O)c1ccc(-c3c4nc(c(-c5c(F)cc(S(=O)(=O)[O-])cc5F)c5ccc([nH]5)c(-c5c(F)cc(S(=O)(=O)[O-])cc5F)c5nc(c(-c6c(F)cc(S(=O)(=O)[O-])cc6F)c6ccc3[nH]6)C=C5)C=C4)cc1)C(=O)O2
REMARK SMILES IDX 31 1 30 2 28 3 29 4 17 6 16 7 14 8 15 9 13 11 12 12 3 13
REMARK SMILES IDX 4 14 9 15 5 16 8 17 10 18 6 19 7 20 105 21 11 22 103 23
REMARK SMILES IDX 104 24 2 25 1 26 18 27 19 28 20 29 27 30 21 31 22 32 26 33
REMARK SMILES IDX 23 35 25 36 24 37 32 38 33 39 34 40 35 41 36 43 37 44 38 45
REMARK SMILES IDX 102 46 39 47 101 48 40 49 41 50 42 51 95 52 43 53 100 54
REMARK SMILES IDX 94 55 96 56 44 57 99 58 93 59 92 60 45 62 79 63 58 64 78 65
REMARK SMILES IDX 59 66 62 67 77 68 97 69 60 70 61 71 76 73 98 74 63 75 46 76
REMARK SMILES IDX 47 77 56 78 48 79 49 80 55 81 57 82 50 83 51 84 52 85 53 86
REMARK SMILES IDX 54 87 80 88 81 89 90 90 82 91 83 92 89 93 91 94 84 95 85 96
REMARK SMILES IDX 86 97 87 98 88 99 64 100 65 101 74 102 66 103 67 104 73 105
REMARK SMILES IDX 75 106 68 107 69 108 70 109 71 110 72 111
REMARK H PARENT 30 5 16 10 21 34 34 42 96 61 62 72
REMARK Flexibility Score: inf
ROOT
ATOM      1  C   UNL A   1      31.813  30.613  26.845  1.00  0.00     0.117 C 
ENDROOT
BRANCH   1   2
ATOM      2  N   UNL A   1      32.973  30.083  26.170  1.00  0.00    -0.354 N 
ATOM      3  C   UNL A   1      33.198  28.842  25.680  1.00  0.00     0.242 C 
ATOM      4  O   UNL A   1      34.372  28.579  25.385  1.00  0.00    -0.273 OA
ATOM      5  H   UNL A   1      33.714  30.721  26.048  1.00  0.00     0.163 HD
BRANCH   3   6
ATOM      6  C   UNL A   1      32.091  27.798  25.408  1.00  0.00     0.175 C 
BRANCH   6   7
ATOM      7  N   UNL A   1      31.873  26.802  26.442  1.00  0.00    -0.344 N 
ATOM      8  C   UNL A   1      31.897  25.447  26.255  1.00  0.00     0.221 C 
ATOM      9  O   UNL A   1      31.160  24.726  26.923  1.00  0.00    -0.275 OA
ATOM     10  H   UNL A   1      31.693  27.128  27.353  1.00  0.00     0.164 HD
BRANCH   8  11
ATOM     11  C   UNL A   1      32.945  24.857  25.321  1.00  0.00     0.116 C 
BRANCH  11  12
ATOM     12  C   UNL A   1      32.487  24.297  23.951  1.00  0.00     0.116 C 
ATOM     13  C   UNL A   1      34.237  21.015  24.677  1.00  0.00     0.126 A 
ATOM     14  C   UNL A   1      35.579  20.722  24.977  1.00  0.00     0.050 A 
ATOM     15  C   UNL A   1      33.887  22.245  24.118  1.00  0.00     0.041 A 
ATOM     16  C   UNL A   1      36.599  21.652  24.728  1.00  0.00    -0.044 A 
ATOM     17  C   UNL A   1      34.944  23.093  23.748  1.00  0.00     0.138 A 
ATOM     18  C   UNL A   1      32.462  22.744  23.893  1.00  0.00     0.038 C 
ATOM     19  C   UNL A   1      38.020  21.351  25.098  1.00  0.00     0.044 C 
ATOM     20  C   UNL A   1      36.276  22.835  24.069  1.00  0.00     0.051 A 
ATOM     21  O   UNL A   1      34.723  24.252  22.987  1.00  0.00    -0.426 OA
ATOM     22  C   UNL A   1      31.372  22.209  24.827  1.00  0.00     0.014 C 
ATOM     23  C   UNL A   1      33.407  24.621  22.796  1.00  0.00     0.315 C 
ATOM     24  O   UNL A   1      33.041  25.161  21.758  1.00  0.00    -0.251 OA
BRANCH  13  25
ATOM     25  O   UNL A   1      33.265  20.061  24.803  1.00  0.00    -0.496 OA
ATOM     26  C   UNL A   1      33.726  18.746  24.516  1.00  0.00     0.278 C 
ENDBRANCH  13  25
ENDBRANCH  11  12
ENDBRANCH   8  11
ENDBRANCH   6   7
BRANCH   6  27
ATOM     27  C   UNL A   1      30.835  28.069  24.596  1.00  0.00     0.072 C 
BRANCH  27  28
ATOM     28  C   UNL A   1      30.588  29.135  23.565  1.00  0.00    -0.020 A 
ATOM     29  C   UNL A   1      31.436  29.176  22.465  1.00  0.00     0.087 A 
ATOM     30  C   UNL A   1      29.533  30.083  23.284  1.00  0.00     0.003 A 
ATOM     31  N   UNL A   1      30.798  29.825  21.459  1.00  0.00    -0.361 N 
ATOM     32  C   UNL A   1      29.724  30.508  21.960  1.00  0.00     0.046 A 
ATOM     33  C   UNL A   1      28.404  30.619  23.947  1.00  0.00     0.010 A 
ATOM     34  H   UNL A   1      31.067  29.808  20.512  1.00  0.00     0.166 HD
ATOM     35  C   UNL A   1      28.897  31.425  21.299  1.00  0.00     0.026 A 
ATOM     36  C   UNL A   1      27.588  31.576  23.315  1.00  0.00     0.001 A 
ATOM     37  C   UNL A   1      27.839  31.978  22.010  1.00  0.00     0.002 A 
ENDBRANCH  27  28
ENDBRANCH   6  27
ENDBRANCH   3   6
ENDBRANCH   1   2
BRANCH   1  38
ATOM     38  C   UNL A   1      31.769  32.126  26.717  1.00  0.00     0.042 C 
BRANCH  38  39
ATOM     39  C   UNL A   1      32.898  32.786  27.490  1.00  0.00     0.118 C 
BRANCH  39  40
ATOM     40  N   UNL A   1      32.636  34.202  27.723  1.00  0.00    -0.352 N 
ATOM     41  C   UNL A   1      33.130  35.027  28.708  1.00  0.00     0.251 C 
ATOM     42  H   UNL A   1      32.018  34.629  27.086  1.00  0.00     0.163 HD
ATOM     43  O   UNL A   1      32.625  36.118  28.908  1.00  0.00    -0.269 OA
BRANCH  41  44
ATOM     44  C   UNL A   1      34.270  34.553  29.518  1.00  0.00     0.039 A 
ATOM     45  C   UNL A   1      35.564  34.624  29.000  1.00  0.00     0.014 A 
ATOM     46  C   UNL A   1      34.038  33.998  30.777  1.00  0.00     0.014 A 
ATOM     47  C   UNL A   1      36.596  33.971  29.651  1.00  0.00     0.010 A 
ATOM     48  C   UNL A   1      35.105  33.446  31.488  1.00  0.00     0.010 A 
ATOM     49  C   UNL A   1      36.385  33.390  30.911  1.00  0.00    -0.014 A 
BRANCH  49  50
ATOM     50  C   UNL A   1      37.526  32.752  31.611  1.00  0.00     0.031 A 
ATOM     51  C   UNL A   1      38.236  31.572  31.006  1.00  0.00     0.074 A 
ATOM     52  C   UNL A   1      37.941  33.279  32.781  1.00  0.00     0.049 A 
ATOM     53  N   UNL A   1      39.215  30.862  31.505  1.00  0.00    -0.248 NA
ATOM     54  C   UNL A   1      37.790  31.124  29.676  1.00  0.00     0.031 C 
ATOM     55  C   UNL A   1      37.334  34.436  33.448  1.00  0.00     0.029 A 
ATOM     56  N   UNL A   1      38.976  32.931  33.607  1.00  0.00    -0.354 N 
ATOM     57  C   UNL A   1      39.484  29.870  30.569  1.00  0.00     0.074 A 
ATOM     58  C   UNL A   1      38.552  30.055  29.478  1.00  0.00     0.031 C 
ATOM     59  C   UNL A   1      38.036  34.730  34.550  1.00  0.00     0.029 A 
ATOM     60  C   UNL A   1      39.085  33.734  34.719  1.00  0.00     0.049 A 
ATOM     61  H   UNL A   1      39.584  32.179  33.425  1.00  0.00     0.167 HD
ATOM     62  C   UNL A   1      40.428  28.902  30.619  1.00  0.00     0.037 A 
ATOM     63  C   UNL A   1      39.912  33.658  35.777  1.00  0.00     0.037 A 
ATOM     64  C   UNL A   1      41.371  28.755  31.698  1.00  0.00     0.049 A 
ATOM     65  C   UNL A   1      40.923  32.549  35.822  1.00  0.00     0.074 A 
ATOM     66  C   UNL A   1      42.384  27.821  31.832  1.00  0.00     0.029 A 
ATOM     67  N   UNL A   1      41.423  29.564  32.825  1.00  0.00    -0.354 N 
ATOM     68  N   UNL A   1      41.155  31.613  34.932  1.00  0.00    -0.248 NA
ATOM     69  C   UNL A   1      41.775  32.477  37.014  1.00  0.00     0.031 C 
ATOM     70  C   UNL A   1      43.015  28.034  33.061  1.00  0.00     0.029 A 
ATOM     71  C   UNL A   1      42.435  29.136  33.668  1.00  0.00     0.049 A 
ATOM     72  H   UNL A   1      40.828  30.329  33.000  1.00  0.00     0.167 HD
ATOM     73  C   UNL A   1      42.190  30.848  35.452  1.00  0.00     0.074 A 
ATOM     74  C   UNL A   1      42.555  31.445  36.720  1.00  0.00     0.031 C 
ATOM     75  C   UNL A   1      42.783  29.747  34.928  1.00  0.00     0.037 A 
BRANCH  62  76
ATOM     76  C   UNL A   1      40.498  27.911  29.488  1.00  0.00     0.058 A 
ATOM     77  C   UNL A   1      41.464  28.011  28.474  1.00  0.00     0.135 A 
ATOM     78  C   UNL A   1      39.650  26.791  29.475  1.00  0.00     0.135 A 
ATOM     79  F   UNL A   1      42.286  29.071  28.425  1.00  0.00    -0.206 F 
ATOM     80  C   UNL A   1      41.587  27.035  27.489  1.00  0.00     0.059 A 
ATOM     81  C   UNL A   1      39.771  25.791  28.515  1.00  0.00     0.059 A 
ATOM     82  F   UNL A   1      38.705  26.649  30.418  1.00  0.00    -0.206 F 
ATOM     83  C   UNL A   1      40.743  25.923  27.524  1.00  0.00     0.060 A 
BRANCH  83  84
ATOM     84  S   UNL A   1      40.952  24.645  26.267  1.00  0.00     0.124 S 
ATOM     85  O   UNL A   1      41.505  25.414  25.157  1.00  0.00    -0.237 OA
ATOM     86  O   UNL A   1      41.874  23.719  26.918  1.00  0.00    -0.237 OA
ATOM     87  O   UNL A   1      39.598  24.138  26.065  1.00  0.00    -0.744 OA
ENDBRANCH  83  84
ENDBRANCH  62  76
BRANCH  63  88
ATOM     88  C   UNL A   1      39.788  34.642  36.886  1.00  0.00     0.058 A 
ATOM     89  C   UNL A   1      40.532  35.829  36.888  1.00  0.00     0.135 A 
ATOM     90  C   UNL A   1      38.898  34.425  37.951  1.00  0.00     0.135 A 
ATOM     91  F   UNL A   1      41.398  36.079  35.895  1.00  0.00    -0.206 F 
ATOM     92  C   UNL A   1      40.413  36.760  37.914  1.00  0.00     0.059 A 
ATOM     93  C   UNL A   1      38.736  35.356  38.971  1.00  0.00     0.059 A 
ATOM     94  F   UNL A   1      38.147  33.312  37.988  1.00  0.00    -0.206 F 
ATOM     95  C   UNL A   1      39.508  36.516  38.950  1.00  0.00     0.060 A 
BRANCH  95  96
ATOM     96  S   UNL A   1      39.330  37.752  40.253  1.00  0.00     0.124 S 
ATOM     97  O   UNL A   1      40.655  38.361  40.262  1.00  0.00    -0.237 OA
ATOM     98  O   UNL A   1      38.247  38.584  39.738  1.00  0.00    -0.237 OA
ATOM     99  O   UNL A   1      38.994  36.955  41.429  1.00  0.00    -0.744 OA
ENDBRANCH  95  96
ENDBRANCH  63  88
BRANCH  75 100
ATOM    100  C   UNL A   1      43.905  29.130  35.715  1.00  0.00     0.058 A 
ATOM    101  C   UNL A   1      45.224  29.593  35.601  1.00  0.00     0.135 A 
ATOM    102  C   UNL A   1      43.645  28.100  36.634  1.00  0.00     0.135 A 
ATOM    103  F   UNL A   1      45.525  30.571  34.732  1.00  0.00    -0.206 F 
ATOM    104  C   UNL A   1      46.254  29.038  36.353  1.00  0.00     0.059 A 
ATOM    105  C   UNL A   1      44.654  27.552  37.418  1.00  0.00     0.059 A 
ATOM    106  F   UNL A   1      42.398  27.629  36.788  1.00  0.00    -0.206 F 
ATOM    107  C   UNL A   1      45.958  28.020  37.262  1.00  0.00     0.060 A 
BRANCH 107 108
ATOM    108  S   UNL A   1      47.302  27.332  38.250  1.00  0.00     0.124 S 
ATOM    109  O   UNL A   1      47.846  26.325  37.345  1.00  0.00    -0.237 OA
ATOM    110  O   UNL A   1      48.147  28.500  38.481  1.00  0.00    -0.237 OA
ATOM    111  O   UNL A   1      46.622  26.812  39.433  1.00  0.00    -0.744 OA
ENDBRANCH 107 108
ENDBRANCH  75 100
ENDBRANCH  49  50
ENDBRANCH  41  44
ENDBRANCH  39  40
ENDBRANCH  38  39
ENDBRANCH   1  38
TORSDOF 19
ENDMDL
