MODEL 1
REMARK VINA RESULT:     -11.9      0.000      0.000
REMARK SMILES C[C@@H](NC(=O)N1CC[N@@H+]2CCCC[C@H]2C1)C(=O)NCCCNC(=O)c1ccc(-c2c3nc(c(-c4c(F)cc(S(=O)(=O)[O-])cc4F)c4ccc([nH]4)c(-c4c(F)cc(S(=O)(=O)[O-])cc4F)c4nc(c(-c5c(F)cc(S(=O)(=O)[O-])cc5F)c5ccc2[nH]5)C=C4)C=C3)cc1
REMARK SMILES IDX 20 1 19 2 18 3 16 4 17 5 2 7 1 8 3 9 4 10 5 12 6 13 7 14
REMARK SMILES IDX 15 15 8 16 14 17 9 18 13 19 10 20 12 22 11 23 21 24 22 25
REMARK SMILES IDX 23 26 24 28 25 29 26 30 90 31 27 32 89 33 28 34 29 35 30 36
REMARK SMILES IDX 83 37 31 38 88 39 82 40 84 41 32 42 87 43 81 44 80 45 33 47
REMARK SMILES IDX 67 48 46 49 66 50 47 51 50 52 65 53 85 54 48 55 49 56 64 58
REMARK SMILES IDX 86 59 51 60 34 61 35 62 44 63 36 64 37 65 43 66 45 67 38 68
REMARK SMILES IDX 39 69 40 70 41 71 42 72 68 73 69 74 78 75 70 76 71 77 77 78
REMARK SMILES IDX 79 79 72 80 73 81 74 82 75 83 76 84 52 85 53 86 62 87 54 88
REMARK SMILES IDX 55 89 61 90 63 91 56 92 57 93 58 94 59 95 60 96
REMARK H PARENT 18 6 3 11 9 21 22 27 84 46 50 57
REMARK Flexibility Score: inf
ROOT
ATOM      1  C   UNL A   1      32.140  28.558  26.574  1.00  0.00     0.042 C 
ENDROOT
BRANCH   1   2
ATOM      2  C   UNL A   1      31.863  29.493  25.404  1.00  0.00     0.117 C 
BRANCH   2   3
ATOM      3  N   UNL A   1      32.971  29.550  24.467  1.00  0.00    -0.354 N 
ATOM      4  C   UNL A   1      33.143  28.872  23.299  1.00  0.00     0.242 C 
ATOM      5  O   UNL A   1      34.219  29.020  22.707  1.00  0.00    -0.273 OA
ATOM      6  H   UNL A   1      33.701  30.164  24.711  1.00  0.00     0.163 HD
BRANCH   4   7
ATOM      7  C   UNL A   1      32.139  27.813  22.802  1.00  0.00     0.170 C 
ATOM      8  C   UNL A   1      30.829  28.556  22.510  1.00  0.00     0.041 C 
BRANCH   7   9
ATOM      9  N   UNL A   1      32.525  27.018  21.641  1.00  0.00    -0.326 N 
ATOM     10  C   UNL A   1      32.686  25.694  21.438  1.00  0.00     0.318 C 
ATOM     11  H   UNL A   1      32.705  27.561  20.839  1.00  0.00     0.166 HD
ATOM     12  O   UNL A   1      33.081  25.359  20.319  1.00  0.00    -0.249 OA
BRANCH  10  13
ATOM     13  N   UNL A   1      32.611  24.816  22.475  1.00  0.00    -0.313 N 
ATOM     14  C   UNL A   1      31.403  24.346  23.149  1.00  0.00     0.183 C 
ATOM     15  C   UNL A   1      33.782  23.993  22.772  1.00  0.00     0.186 C 
ATOM     16  C   UNL A   1      31.612  24.157  24.668  1.00  0.00     0.284 C 
ATOM     17  C   UNL A   1      34.028  23.997  24.295  1.00  0.00     0.203 C 
ATOM     18  N   UNL A   1      32.867  23.467  25.054  1.00  0.00    -0.330 N 
ATOM     19  C   UNL A   1      35.285  23.197  24.648  1.00  0.00     0.067 C 
ATOM     20  C   UNL A   1      33.096  23.633  26.504  1.00  0.00     0.262 C 
ATOM     21  H   UNL A   1      32.771  22.476  24.833  1.00  0.00     0.348 HD
ATOM     22  C   UNL A   1      35.583  23.325  26.138  1.00  0.00     0.012 C 
ATOM     23  C   UNL A   1      34.371  22.929  26.972  1.00  0.00     0.062 C 
ENDBRANCH  10  13
ENDBRANCH   7   9
ENDBRANCH   4   7
ENDBRANCH   2   3
ENDBRANCH   1   2
BRANCH   1  24
ATOM     24  C   UNL A   1      33.446  28.850  27.305  1.00  0.00     0.118 C 
BRANCH  24  25
ATOM     25  N   UNL A   1      33.530  30.204  27.837  1.00  0.00    -0.352 N 
ATOM     26  C   UNL A   1      34.614  30.831  28.411  1.00  0.00     0.251 C 
ATOM     27  H   UNL A   1      32.706  30.739  27.778  1.00  0.00     0.163 HD
ATOM     28  O   UNL A   1      34.499  31.968  28.861  1.00  0.00    -0.269 OA
BRANCH  26  29
ATOM     29  C   UNL A   1      35.895  30.105  28.541  1.00  0.00     0.039 A 
ATOM     30  C   UNL A   1      36.762  30.095  27.445  1.00  0.00     0.014 A 
ATOM     31  C   UNL A   1      36.279  29.517  29.749  1.00  0.00     0.014 A 
ATOM     32  C   UNL A   1      38.059  29.603  27.598  1.00  0.00     0.010 A 
ATOM     33  C   UNL A   1      37.588  29.078  29.918  1.00  0.00     0.010 A 
ATOM     34  C   UNL A   1      38.498  29.154  28.854  1.00  0.00    -0.014 A 
BRANCH  34  35
ATOM     35  C   UNL A   1      39.932  28.878  29.103  1.00  0.00     0.031 A 
ATOM     36  C   UNL A   1      40.835  29.938  29.655  1.00  0.00     0.074 A 
ATOM     37  C   UNL A   1      40.424  27.678  28.731  1.00  0.00     0.049 A 
ATOM     38  N   UNL A   1      42.117  29.876  29.904  1.00  0.00    -0.248 NA
ATOM     39  C   UNL A   1      40.226  31.246  29.942  1.00  0.00     0.031 C 
ATOM     40  C   UNL A   1      39.647  26.604  28.106  1.00  0.00     0.029 A 
ATOM     41  N   UNL A   1      41.693  27.164  28.809  1.00  0.00    -0.354 N 
ATOM     42  C   UNL A   1      42.471  31.133  30.377  1.00  0.00     0.074 A 
ATOM     43  C   UNL A   1      41.278  31.951  30.334  1.00  0.00     0.031 C 
ATOM     44  C   UNL A   1      40.450  25.554  27.875  1.00  0.00     0.029 A 
ATOM     45  C   UNL A   1      41.802  25.887  28.312  1.00  0.00     0.049 A 
ATOM     46  H   UNL A   1      42.454  27.662  29.184  1.00  0.00     0.167 HD
ATOM     47  C   UNL A   1      43.678  31.554  30.826  1.00  0.00     0.037 A 
ATOM     48  C   UNL A   1      42.871  25.074  28.219  1.00  0.00     0.037 A 
ATOM     49  C   UNL A   1      44.854  30.723  30.867  1.00  0.00     0.049 A 
ATOM     50  C   UNL A   1      44.193  25.556  28.745  1.00  0.00     0.074 A 
ATOM     51  C   UNL A   1      46.110  31.031  31.358  1.00  0.00     0.029 A 
ATOM     52  N   UNL A   1      44.919  29.421  30.393  1.00  0.00    -0.354 N 
ATOM     53  N   UNL A   1      44.491  26.720  29.273  1.00  0.00    -0.248 NA
ATOM     54  C   UNL A   1      45.319  24.616  28.677  1.00  0.00     0.031 C 
ATOM     55  C   UNL A   1      46.944  29.926  31.150  1.00  0.00     0.029 A 
ATOM     56  C   UNL A   1      46.196  28.916  30.564  1.00  0.00     0.049 A 
ATOM     57  H   UNL A   1      44.166  28.926  29.994  1.00  0.00     0.167 HD
ATOM     58  C   UNL A   1      45.835  26.645  29.620  1.00  0.00     0.074 A 
ATOM     59  C   UNL A   1      46.286  25.318  29.253  1.00  0.00     0.031 C 
ATOM     60  C   UNL A   1      46.623  27.590  30.191  1.00  0.00     0.037 A 
BRANCH  47  61
ATOM     61  C   UNL A   1      43.780  32.972  31.314  1.00  0.00     0.058 A 
ATOM     62  C   UNL A   1      43.608  33.293  32.671  1.00  0.00     0.135 A 
ATOM     63  C   UNL A   1      44.078  34.019  30.428  1.00  0.00     0.135 A 
ATOM     64  F   UNL A   1      43.307  32.332  33.559  1.00  0.00    -0.206 F 
ATOM     65  C   UNL A   1      43.697  34.603  33.126  1.00  0.00     0.059 A 
ATOM     66  C   UNL A   1      44.196  35.335  30.866  1.00  0.00     0.059 A 
ATOM     67  F   UNL A   1      44.252  33.768  29.121  1.00  0.00    -0.206 F 
ATOM     68  C   UNL A   1      43.989  35.619  32.215  1.00  0.00     0.060 A 
BRANCH  68  69
ATOM     69  S   UNL A   1      44.098  37.316  32.820  1.00  0.00     0.124 S 
ATOM     70  O   UNL A   1      42.946  37.380  33.716  1.00  0.00    -0.237 OA
ATOM     71  O   UNL A   1      45.405  37.336  33.468  1.00  0.00    -0.237 OA
ATOM     72  O   UNL A   1      43.992  38.118  31.605  1.00  0.00    -0.744 OA
ENDBRANCH  68  69
ENDBRANCH  47  61
BRANCH  48  73
ATOM     73  C   UNL A   1      42.720  23.714  27.641  1.00  0.00     0.058 A 
ATOM     74  C   UNL A   1      42.866  23.497  26.264  1.00  0.00     0.135 A 
ATOM     75  C   UNL A   1      42.463  22.601  28.456  1.00  0.00     0.135 A 
ATOM     76  F   UNL A   1      43.111  24.531  25.445  1.00  0.00    -0.206 F 
ATOM     77  C   UNL A   1      42.749  22.226  25.710  1.00  0.00     0.059 A 
ATOM     78  C   UNL A   1      42.363  21.316  27.929  1.00  0.00     0.059 A 
ATOM     79  F   UNL A   1      42.337  22.752  29.784  1.00  0.00    -0.206 F 
ATOM     80  C   UNL A   1      42.499  21.141  26.552  1.00  0.00     0.060 A 
BRANCH  80  81
ATOM     81  S   UNL A   1      42.409  19.487  25.832  1.00  0.00     0.124 S 
ATOM     82  O   UNL A   1      42.795  18.652  26.965  1.00  0.00    -0.237 OA
ATOM     83  O   UNL A   1      41.010  19.403  25.424  1.00  0.00    -0.237 OA
ATOM     84  O   UNL A   1      43.370  19.548  24.735  1.00  0.00    -0.744 OA
ENDBRANCH  80  81
ENDBRANCH  48  73
BRANCH  60  85
ATOM     85  C   UNL A   1      48.049  27.210  30.470  1.00  0.00     0.058 A 
ATOM     86  C   UNL A   1      49.084  27.545  29.584  1.00  0.00     0.135 A 
ATOM     87  C   UNL A   1      48.386  26.544  31.659  1.00  0.00     0.135 A 
ATOM     88  F   UNL A   1      48.809  28.174  28.431  1.00  0.00    -0.206 F 
ATOM     89  C   UNL A   1      50.406  27.213  29.857  1.00  0.00     0.059 A 
ATOM     90  C   UNL A   1      49.705  26.222  31.963  1.00  0.00     0.059 A 
ATOM     91  F   UNL A   1      47.432  26.209  32.542  1.00  0.00    -0.206 F 
ATOM     92  C   UNL A   1      50.706  26.552  31.050  1.00  0.00     0.060 A 
BRANCH  92  93
ATOM     93  S   UNL A   1      52.431  26.156  31.412  1.00  0.00     0.124 S 
ATOM     94  O   UNL A   1      52.302  24.855  32.060  1.00  0.00    -0.237 OA
ATOM     95  O   UNL A   1      53.036  26.145  30.083  1.00  0.00    -0.237 OA
ATOM     96  O   UNL A   1      52.854  27.251  32.278  1.00  0.00    -0.744 OA
ENDBRANCH  92  93
ENDBRANCH  60  85
ENDBRANCH  34  35
ENDBRANCH  26  29
ENDBRANCH  24  25
ENDBRANCH   1  24
TORSDOF 15
ENDMDL
MODEL 2
REMARK VINA RESULT:     -11.8      0.891      1.796
REMARK SMILES C[C@@H](NC(=O)N1CC[N@@H+]2CCCC[C@H]2C1)C(=O)NCCCNC(=O)c1ccc(-c2c3nc(c(-c4c(F)cc(S(=O)(=O)[O-])cc4F)c4ccc([nH]4)c(-c4c(F)cc(S(=O)(=O)[O-])cc4F)c4nc(c(-c5c(F)cc(S(=O)(=O)[O-])cc5F)c5ccc2[nH]5)C=C4)C=C3)cc1
REMARK SMILES IDX 20 1 19 2 18 3 16 4 17 5 2 7 1 8 3 9 4 10 5 12 6 13 7 14
REMARK SMILES IDX 15 15 8 16 14 17 9 18 13 19 10 20 12 22 11 23 21 24 22 25
REMARK SMILES IDX 23 26 24 28 25 29 26 30 90 31 27 32 89 33 28 34 29 35 30 36
REMARK SMILES IDX 83 37 31 38 88 39 82 40 84 41 32 42 87 43 81 44 80 45 33 47
REMARK SMILES IDX 67 48 46 49 66 50 47 51 50 52 65 53 85 54 48 55 49 56 64 58
REMARK SMILES IDX 86 59 51 60 34 61 35 62 44 63 36 64 37 65 43 66 45 67 38 68
REMARK SMILES IDX 39 69 40 70 41 71 42 72 68 73 69 74 78 75 70 76 71 77 77 78
REMARK SMILES IDX 79 79 72 80 73 81 74 82 75 83 76 84 52 85 53 86 62 87 54 88
REMARK SMILES IDX 55 89 61 90 63 91 56 92 57 93 58 94 59 95 60 96
REMARK H PARENT 18 6 3 11 9 21 22 27 84 46 50 57
REMARK Flexibility Score: inf
ROOT
ATOM      1  C   UNL A   1      33.064  29.342  25.348  1.00  0.00     0.042 C 
ENDROOT
BRANCH   1   2
ATOM      2  C   UNL A   1      31.552  29.527  25.308  1.00  0.00     0.117 C 
BRANCH   2   3
ATOM      3  N   UNL A   1      31.064  29.814  23.971  1.00  0.00    -0.354 N 
ATOM      4  C   UNL A   1      30.853  28.957  22.933  1.00  0.00     0.242 C 
ATOM      5  O   UNL A   1      30.513  29.449  21.850  1.00  0.00    -0.273 OA
ATOM      6  H   UNL A   1      30.858  30.759  23.789  1.00  0.00     0.163 HD
BRANCH   4   7
ATOM      7  C   UNL A   1      31.195  27.458  23.015  1.00  0.00     0.170 C 
ATOM      8  C   UNL A   1      29.876  26.723  23.288  1.00  0.00     0.041 C 
BRANCH   7   9
ATOM      9  N   UNL A   1      31.864  26.859  21.864  1.00  0.00    -0.326 N 
ATOM     10  C   UNL A   1      32.631  25.760  21.708  1.00  0.00     0.318 C 
ATOM     11  H   UNL A   1      31.727  27.362  21.029  1.00  0.00     0.166 HD
ATOM     12  O   UNL A   1      33.090  25.573  20.579  1.00  0.00    -0.249 OA
BRANCH  10  13
ATOM     13  N   UNL A   1      33.030  25.031  22.785  1.00  0.00    -0.313 N 
ATOM     14  C   UNL A   1      34.030  25.403  23.783  1.00  0.00     0.183 C 
ATOM     15  C   UNL A   1      32.191  23.912  23.214  1.00  0.00     0.186 C 
ATOM     16  C   UNL A   1      34.867  24.193  24.256  1.00  0.00     0.284 C 
ATOM     17  C   UNL A   1      33.087  22.690  23.500  1.00  0.00     0.203 C 
ATOM     18  N   UNL A   1      34.093  22.965  24.557  1.00  0.00    -0.330 N 
ATOM     19  C   UNL A   1      32.244  21.473  23.892  1.00  0.00     0.067 C 
ATOM     20  C   UNL A   1      35.015  21.818  24.683  1.00  0.00     0.262 C 
ATOM     21  H   UNL A   1      33.597  23.104  25.437  1.00  0.00     0.348 HD
ATOM     22  C   UNL A   1      33.136  20.246  24.040  1.00  0.00     0.012 C 
ATOM     23  C   UNL A   1      34.279  20.517  25.010  1.00  0.00     0.062 C 
ENDBRANCH  10  13
ENDBRANCH   7   9
ENDBRANCH   4   7
ENDBRANCH   2   3
ENDBRANCH   1   2
BRANCH   1  24
ATOM     24  C   UNL A   1      33.632  29.187  26.755  1.00  0.00     0.118 C 
BRANCH  24  25
ATOM     25  N   UNL A   1      33.610  30.418  27.535  1.00  0.00    -0.352 N 
ATOM     26  C   UNL A   1      34.595  30.931  28.349  1.00  0.00     0.251 C 
ATOM     27  H   UNL A   1      32.784  30.950  27.471  1.00  0.00     0.163 HD
ATOM     28  O   UNL A   1      34.392  31.963  28.984  1.00  0.00    -0.269 OA
BRANCH  26  29
ATOM     29  C   UNL A   1      35.871  30.200  28.504  1.00  0.00     0.039 A 
ATOM     30  C   UNL A   1      36.750  30.168  27.419  1.00  0.00     0.014 A 
ATOM     31  C   UNL A   1      36.237  29.628  29.726  1.00  0.00     0.014 A 
ATOM     32  C   UNL A   1      38.042  29.672  27.594  1.00  0.00     0.010 A 
ATOM     33  C   UNL A   1      37.542  29.185  29.916  1.00  0.00     0.010 A 
ATOM     34  C   UNL A   1      38.464  29.239  28.861  1.00  0.00    -0.014 A 
BRANCH  34  35
ATOM     35  C   UNL A   1      39.894  28.959  29.131  1.00  0.00     0.031 A 
ATOM     36  C   UNL A   1      40.795  30.021  29.681  1.00  0.00     0.074 A 
ATOM     37  C   UNL A   1      40.384  27.753  28.780  1.00  0.00     0.049 A 
ATOM     38  N   UNL A   1      42.074  29.956  29.946  1.00  0.00    -0.248 NA
ATOM     39  C   UNL A   1      40.190  31.335  29.945  1.00  0.00     0.031 C 
ATOM     40  C   UNL A   1      39.609  26.674  28.159  1.00  0.00     0.029 A 
ATOM     41  N   UNL A   1      41.649  27.233  28.879  1.00  0.00    -0.354 N 
ATOM     42  C   UNL A   1      42.428  31.216  30.409  1.00  0.00     0.074 A 
ATOM     43  C   UNL A   1      41.241  32.040  30.341  1.00  0.00     0.031 C 
ATOM     44  C   UNL A   1      40.409  25.618  27.950  1.00  0.00     0.029 A 
ATOM     45  C   UNL A   1      41.757  25.949  28.399  1.00  0.00     0.049 A 
ATOM     46  H   UNL A   1      42.408  27.732  29.258  1.00  0.00     0.167 HD
ATOM     47  C   UNL A   1      43.632  31.637  30.867  1.00  0.00     0.037 A 
ATOM     48  C   UNL A   1      42.824  25.130  28.328  1.00  0.00     0.037 A 
ATOM     49  C   UNL A   1      44.803  30.800  30.933  1.00  0.00     0.049 A 
ATOM     50  C   UNL A   1      44.141  25.612  28.865  1.00  0.00     0.074 A 
ATOM     51  C   UNL A   1      46.055  31.108  31.435  1.00  0.00     0.029 A 
ATOM     52  N   UNL A   1      44.867  29.492  30.475  1.00  0.00    -0.354 N 
ATOM     53  N   UNL A   1      44.439  26.780  29.382  1.00  0.00    -0.248 NA
ATOM     54  C   UNL A   1      45.263  24.665  28.822  1.00  0.00     0.031 C 
ATOM     55  C   UNL A   1      46.886  29.997  31.250  1.00  0.00     0.029 A 
ATOM     56  C   UNL A   1      46.140  28.983  30.667  1.00  0.00     0.049 A 
ATOM     57  H   UNL A   1      44.117  28.997  30.073  1.00  0.00     0.167 HD
ATOM     58  C   UNL A   1      45.778  26.703  29.746  1.00  0.00     0.074 A 
ATOM     59  C   UNL A   1      46.227  25.369  29.401  1.00  0.00     0.031 C 
ATOM     60  C   UNL A   1      46.565  27.650  30.315  1.00  0.00     0.037 A 
BRANCH  47  61
ATOM     61  C   UNL A   1      43.736  33.060  31.339  1.00  0.00     0.058 A 
ATOM     62  C   UNL A   1      43.454  33.412  32.670  1.00  0.00     0.135 A 
ATOM     63  C   UNL A   1      44.144  34.080  30.466  1.00  0.00     0.135 A 
ATOM     64  F   UNL A   1      43.046  32.477  33.543  1.00  0.00    -0.206 F 
ATOM     65  C   UNL A   1      43.545  34.727  33.110  1.00  0.00     0.059 A 
ATOM     66  C   UNL A   1      44.265  35.401  30.892  1.00  0.00     0.059 A 
ATOM     67  F   UNL A   1      44.425  33.800  29.184  1.00  0.00    -0.206 F 
ATOM     68  C   UNL A   1      43.948  35.716  32.212  1.00  0.00     0.060 A 
BRANCH  68  69
ATOM     69  S   UNL A   1      44.057  37.421  32.797  1.00  0.00     0.124 S 
ATOM     70  O   UNL A   1      43.841  38.166  31.560  1.00  0.00    -0.237 OA
ATOM     71  O   UNL A   1      42.975  37.488  33.774  1.00  0.00    -0.237 OA
ATOM     72  O   UNL A   1      45.405  37.504  33.351  1.00  0.00    -0.744 OA
ENDBRANCH  68  69
ENDBRANCH  47  61
BRANCH  48  73
ATOM     73  C   UNL A   1      42.672  23.764  27.765  1.00  0.00     0.058 A 
ATOM     74  C   UNL A   1      42.496  22.655  28.605  1.00  0.00     0.135 A 
ATOM     75  C   UNL A   1      42.664  23.543  26.379  1.00  0.00     0.135 A 
ATOM     76  F   UNL A   1      42.498  22.817  29.937  1.00  0.00    -0.206 F 
ATOM     77  C   UNL A   1      42.331  21.372  28.094  1.00  0.00     0.059 A 
ATOM     78  C   UNL A   1      42.479  22.273  25.843  1.00  0.00     0.059 A 
ATOM     79  F   UNL A   1      42.806  24.575  25.532  1.00  0.00    -0.206 F 
ATOM     80  C   UNL A   1      42.321  21.191  26.709  1.00  0.00     0.060 A 
BRANCH  80  81
ATOM     81  S   UNL A   1      42.046  19.531  26.053  1.00  0.00     0.124 S 
ATOM     82  O   UNL A   1      42.494  18.699  27.164  1.00  0.00    -0.237 OA
ATOM     83  O   UNL A   1      40.609  19.535  25.796  1.00  0.00    -0.237 OA
ATOM     84  O   UNL A   1      42.887  19.501  24.860  1.00  0.00    -0.744 OA
ENDBRANCH  80  81
ENDBRANCH  48  73
BRANCH  60  85
ATOM     85  C   UNL A   1      47.985  27.267  30.616  1.00  0.00     0.058 A 
ATOM     86  C   UNL A   1      48.338  26.662  31.831  1.00  0.00     0.135 A 
ATOM     87  C   UNL A   1      48.993  27.468  29.661  1.00  0.00     0.135 A 
ATOM     88  F   UNL A   1      47.410  26.457  32.780  1.00  0.00    -0.206 F 
ATOM     89  C   UNL A   1      49.650  26.286  32.098  1.00  0.00     0.059 A 
ATOM     90  C   UNL A   1      50.307  27.080  29.897  1.00  0.00     0.059 A 
ATOM     91  F   UNL A   1      48.703  28.037  28.480  1.00  0.00    -0.206 F 
ATOM     92  C   UNL A   1      50.628  26.500  31.124  1.00  0.00     0.060 A 
BRANCH  92  93
ATOM     93  S   UNL A   1      52.322  25.977  31.467  1.00  0.00     0.124 S 
ATOM     94  O   UNL A   1      52.935  26.087  30.147  1.00  0.00    -0.237 OA
ATOM     95  O   UNL A   1      52.760  26.958  32.454  1.00  0.00    -0.237 OA
ATOM     96  O   UNL A   1      52.161  24.618  31.973  1.00  0.00    -0.744 OA
ENDBRANCH  92  93
ENDBRANCH  60  85
ENDBRANCH  34  35
ENDBRANCH  26  29
ENDBRANCH  24  25
ENDBRANCH   1  24
TORSDOF 15
ENDMDL
MODEL 3
REMARK VINA RESULT:     -11.7      5.865     11.866
REMARK SMILES C[C@@H](NC(=O)N1CC[N@@H+]2CCCC[C@H]2C1)C(=O)NCCCNC(=O)c1ccc(-c2c3nc(c(-c4c(F)cc(S(=O)(=O)[O-])cc4F)c4ccc([nH]4)c(-c4c(F)cc(S(=O)(=O)[O-])cc4F)c4nc(c(-c5c(F)cc(S(=O)(=O)[O-])cc5F)c5ccc2[nH]5)C=C4)C=C3)cc1
REMARK SMILES IDX 20 1 19 2 18 3 16 4 17 5 2 7 1 8 3 9 4 10 5 12 6 13 7 14
REMARK SMILES IDX 15 15 8 16 14 17 9 18 13 19 10 20 12 22 11 23 21 24 22 25
REMARK SMILES IDX 23 26 24 28 25 29 26 30 90 31 27 32 89 33 28 34 29 35 30 36
REMARK SMILES IDX 83 37 31 38 88 39 82 40 84 41 32 42 87 43 81 44 80 45 33 47
REMARK SMILES IDX 67 48 46 49 66 50 47 51 50 52 65 53 85 54 48 55 49 56 64 58
REMARK SMILES IDX 86 59 51 60 34 61 35 62 44 63 36 64 37 65 43 66 45 67 38 68
REMARK SMILES IDX 39 69 40 70 41 71 42 72 68 73 69 74 78 75 70 76 71 77 77 78
REMARK SMILES IDX 79 79 72 80 73 81 74 82 75 83 76 84 52 85 53 86 62 87 54 88
REMARK SMILES IDX 55 89 61 90 63 91 56 92 57 93 58 94 59 95 60 96
REMARK H PARENT 18 6 3 11 9 21 22 27 84 46 50 57
REMARK Flexibility Score: inf
ROOT
ATOM      1  C   UNL A   1      40.590  21.588  26.670  1.00  0.00     0.042 C 
ENDROOT
BRANCH   1   2
ATOM      2  C   UNL A   1      41.283  20.602  27.602  1.00  0.00     0.117 C 
BRANCH   2   3
ATOM      3  N   UNL A   1      41.509  19.313  26.975  1.00  0.00    -0.354 N 
ATOM      4  C   UNL A   1      42.567  18.898  26.223  1.00  0.00     0.242 C 
ATOM      5  O   UNL A   1      42.498  17.771  25.717  1.00  0.00    -0.273 OA
ATOM      6  H   UNL A   1      40.799  18.645  27.112  1.00  0.00     0.163 HD
BRANCH   4   7
ATOM      7  C   UNL A   1      43.730  19.835  25.844  1.00  0.00     0.170 C 
ATOM      8  C   UNL A   1      44.785  18.962  25.152  1.00  0.00     0.041 C 
BRANCH   7   9
ATOM      9  N   UNL A   1      43.415  20.987  25.006  1.00  0.00    -0.326 N 
ATOM     10  C   UNL A   1      43.777  22.287  25.046  1.00  0.00     0.318 C 
ATOM     11  H   UNL A   1      42.815  20.772  24.256  1.00  0.00     0.166 HD
ATOM     12  O   UNL A   1      43.272  23.018  24.191  1.00  0.00    -0.249 OA
BRANCH  10  13
ATOM     13  N   UNL A   1      44.490  22.779  26.095  1.00  0.00    -0.313 N 
ATOM     14  C   UNL A   1      44.133  22.723  27.511  1.00  0.00     0.183 C 
ATOM     15  C   UNL A   1      45.897  23.117  25.879  1.00  0.00     0.186 C 
ATOM     16  C   UNL A   1      44.551  24.001  28.273  1.00  0.00     0.284 C 
ATOM     17  C   UNL A   1      46.190  24.488  26.520  1.00  0.00     0.203 C 
ATOM     18  N   UNL A   1      45.917  24.497  27.980  1.00  0.00    -0.330 N 
ATOM     19  C   UNL A   1      47.639  24.914  26.263  1.00  0.00     0.067 C 
ATOM     20  C   UNL A   1      46.070  25.867  28.511  1.00  0.00     0.262 C 
ATOM     21  H   UNL A   1      46.589  23.877  28.431  1.00  0.00     0.348 HD
ATOM     22  C   UNL A   1      47.869  26.326  26.788  1.00  0.00     0.012 C 
ATOM     23  C   UNL A   1      47.467  26.434  28.254  1.00  0.00     0.062 C 
ENDBRANCH  10  13
ENDBRANCH   7   9
ENDBRANCH   4   7
ENDBRANCH   2   3
ENDBRANCH   1   2
BRANCH   1  24
ATOM     24  C   UNL A   1      40.620  23.032  27.161  1.00  0.00     0.118 C 
BRANCH  24  25
ATOM     25  N   UNL A   1      40.885  24.003  26.107  1.00  0.00    -0.352 N 
ATOM     26  C   UNL A   1      41.131  25.353  26.231  1.00  0.00     0.251 C 
ATOM     27  H   UNL A   1      40.888  23.649  25.189  1.00  0.00     0.163 HD
ATOM     28  O   UNL A   1      41.282  26.045  25.228  1.00  0.00    -0.269 OA
BRANCH  26  29
ATOM     29  C   UNL A   1      41.148  25.973  27.574  1.00  0.00     0.039 A 
ATOM     30  C   UNL A   1      42.277  26.706  27.948  1.00  0.00     0.014 A 
ATOM     31  C   UNL A   1      40.036  25.909  28.419  1.00  0.00     0.014 A 
ATOM     32  C   UNL A   1      42.245  27.474  29.113  1.00  0.00     0.010 A 
ATOM     33  C   UNL A   1      39.983  26.717  29.550  1.00  0.00     0.010 A 
ATOM     34  C   UNL A   1      41.072  27.534  29.883  1.00  0.00    -0.014 A 
BRANCH  34  35
ATOM     35  C   UNL A   1      40.925  28.534  30.966  1.00  0.00     0.031 A 
ATOM     36  C   UNL A   1      41.757  28.450  32.209  1.00  0.00     0.074 A 
ATOM     37  C   UNL A   1      39.958  29.466  30.846  1.00  0.00     0.049 A 
ATOM     38  N   UNL A   1      41.736  29.221  33.265  1.00  0.00    -0.248 NA
ATOM     39  C   UNL A   1      42.721  27.342  32.290  1.00  0.00     0.031 C 
ATOM     40  C   UNL A   1      39.036  29.585  29.712  1.00  0.00     0.029 A 
ATOM     41  N   UNL A   1      39.577  30.480  31.687  1.00  0.00    -0.354 N 
ATOM     42  C   UNL A   1      42.681  28.696  34.135  1.00  0.00     0.074 A 
ATOM     43  C   UNL A   1      43.223  27.511  33.505  1.00  0.00     0.031 C 
ATOM     44  C   UNL A   1      38.210  30.622  29.920  1.00  0.00     0.029 A 
ATOM     45  C   UNL A   1      38.527  31.228  31.209  1.00  0.00     0.049 A 
ATOM     46  H   UNL A   1      40.014  30.656  32.551  1.00  0.00     0.167 HD
ATOM     47  C   UNL A   1      43.073  29.174  35.341  1.00  0.00     0.037 A 
ATOM     48  C   UNL A   1      37.889  32.284  31.749  1.00  0.00     0.037 A 
ATOM     49  C   UNL A   1      42.526  30.359  35.950  1.00  0.00     0.049 A 
ATOM     50  C   UNL A   1      38.359  32.809  33.076  1.00  0.00     0.074 A 
ATOM     51  C   UNL A   1      42.893  30.964  37.139  1.00  0.00     0.029 A 
ATOM     52  N   UNL A   1      41.491  31.115  35.420  1.00  0.00    -0.354 N 
ATOM     53  N   UNL A   1      39.316  32.352  33.848  1.00  0.00    -0.248 NA
ATOM     54  C   UNL A   1      37.674  33.998  33.600  1.00  0.00     0.031 C 
ATOM     55  C   UNL A   1      42.056  32.068  37.345  1.00  0.00     0.029 A 
ATOM     56  C   UNL A   1      41.194  32.172  36.264  1.00  0.00     0.049 A 
ATOM     57  H   UNL A   1      41.034  30.930  34.568  1.00  0.00     0.167 HD
ATOM     58  C   UNL A   1      39.364  33.210  34.940  1.00  0.00     0.074 A 
ATOM     59  C   UNL A   1      38.347  34.219  34.721  1.00  0.00     0.031 C 
ATOM     60  C   UNL A   1      40.176  33.166  36.026  1.00  0.00     0.037 A 
BRANCH  47  61
ATOM     61  C   UNL A   1      44.147  28.419  36.071  1.00  0.00     0.058 A 
ATOM     62  C   UNL A   1      43.835  27.359  36.940  1.00  0.00     0.135 A 
ATOM     63  C   UNL A   1      45.502  28.735  35.887  1.00  0.00     0.135 A 
ATOM     64  F   UNL A   1      42.555  27.024  37.164  1.00  0.00    -0.206 F 
ATOM     65  C   UNL A   1      44.826  26.660  37.621  1.00  0.00     0.059 A 
ATOM     66  C   UNL A   1      46.512  28.033  36.540  1.00  0.00     0.059 A 
ATOM     67  F   UNL A   1      45.856  29.739  35.069  1.00  0.00    -0.206 F 
ATOM     68  C   UNL A   1      46.162  27.007  37.417  1.00  0.00     0.060 A 
BRANCH  68  69
ATOM     69  S   UNL A   1      47.436  26.094  38.312  1.00  0.00     0.124 S 
ATOM     70  O   UNL A   1      47.314  24.766  37.715  1.00  0.00    -0.237 OA
ATOM     71  O   UNL A   1      48.649  26.831  37.971  1.00  0.00    -0.237 OA
ATOM     72  O   UNL A   1      47.014  26.196  39.705  1.00  0.00    -0.744 OA
ENDBRANCH  68  69
ENDBRANCH  47  61
BRANCH  48  73
ATOM     73  C   UNL A   1      36.772  32.930  31.014  1.00  0.00     0.058 A 
ATOM     74  C   UNL A   1      35.439  32.667  31.356  1.00  0.00     0.135 A 
ATOM     75  C   UNL A   1      37.015  33.849  29.981  1.00  0.00     0.135 A 
ATOM     76  F   UNL A   1      35.158  31.796  32.337  1.00  0.00    -0.206 F 
ATOM     77  C   UNL A   1      34.381  33.281  30.692  1.00  0.00     0.059 A 
ATOM     78  C   UNL A   1      35.975  34.492  29.316  1.00  0.00     0.059 A 
ATOM     79  F   UNL A   1      38.275  34.152  29.631  1.00  0.00    -0.206 F 
ATOM     80  C   UNL A   1      34.660  34.195  29.674  1.00  0.00     0.060 A 
BRANCH  80  81
ATOM     81  S   UNL A   1      33.283  35.032  28.858  1.00  0.00     0.124 S 
ATOM     82  O   UNL A   1      32.793  33.988  27.965  1.00  0.00    -0.237 OA
ATOM     83  O   UNL A   1      32.416  35.369  29.983  1.00  0.00    -0.237 OA
ATOM     84  O   UNL A   1      33.924  36.172  28.209  1.00  0.00    -0.744 OA
ENDBRANCH  80  81
ENDBRANCH  48  73
BRANCH  60  85
ATOM     85  C   UNL A   1      40.008  34.253  37.047  1.00  0.00     0.058 A 
ATOM     86  C   UNL A   1      40.702  35.468  36.946  1.00  0.00     0.135 A 
ATOM     87  C   UNL A   1      39.109  34.093  38.114  1.00  0.00     0.135 A 
ATOM     88  F   UNL A   1      41.579  35.664  35.948  1.00  0.00    -0.206 F 
ATOM     89  C   UNL A   1      40.528  36.482  37.880  1.00  0.00     0.059 A 
ATOM     90  C   UNL A   1      38.902  35.103  39.047  1.00  0.00     0.059 A 
ATOM     91  F   UNL A   1      38.416  32.952  38.250  1.00  0.00    -0.206 F 
ATOM     92  C   UNL A   1      39.624  36.290  38.928  1.00  0.00     0.060 A 
BRANCH  92  93
ATOM     93  S   UNL A   1      39.378  37.627  40.117  1.00  0.00     0.124 S 
ATOM     94  O   UNL A   1      40.646  38.342  40.019  1.00  0.00    -0.237 OA
ATOM     95  O   UNL A   1      38.215  38.321  39.573  1.00  0.00    -0.237 OA
ATOM     96  O   UNL A   1      39.148  36.923  41.374  1.00  0.00    -0.744 OA
ENDBRANCH  92  93
ENDBRANCH  60  85
ENDBRANCH  34  35
ENDBRANCH  26  29
ENDBRANCH  24  25
ENDBRANCH   1  24
TORSDOF 15
ENDMDL
