MODEL 1
REMARK VINA RESULT:     -13.8      0.000      0.000
REMARK SMILES C[C@H]1c2ccc(O)cc2OC(=O)[C@@H]1CC(=O)N[C@@H](CC1=c2ccccc2=NC1)C(=O)NCCCNC(=O)c1ccc(-c2c3nc(c(-c4c(F)cc(S(=O)(=O)[O-])cc4F)c4ccc([nH]4)c(-c4c(F)cc(S(=O)(=O)[O-])cc4F)c4nc(c(-c5c(F)cc(S(=O)(=O)[O-])cc5F)c5ccc2[nH]5)C=C4)C=C3)cc1
REMARK SMILES IDX 32 1 31 2 29 3 30 4 18 6 17 7 15 8 16 9 14 11 13 12 1 13
REMARK SMILES IDX 2 14 3 15 4 16 9 17 11 18 5 19 8 20 10 21 12 22 6 23 7 24
REMARK SMILES IDX 19 26 20 27 21 28 28 29 22 30 26 31 27 32 23 33 25 34 24 35
REMARK SMILES IDX 33 36 34 37 35 38 36 39 37 41 38 42 39 43 103 44 40 45
REMARK SMILES IDX 102 46 41 47 42 48 43 49 96 50 44 51 101 52 95 53 97 54
REMARK SMILES IDX 45 55 100 56 94 57 93 58 46 60 80 61 59 62 79 63 60 64 63 65
REMARK SMILES IDX 78 66 98 67 61 68 62 69 77 71 99 72 64 73 47 74 48 75 57 76
REMARK SMILES IDX 49 77 50 78 56 79 58 80 51 81 52 82 53 83 54 84 55 85 81 86
REMARK SMILES IDX 82 87 91 88 83 89 84 90 90 91 92 92 85 93 86 94 87 95 88 96
REMARK SMILES IDX 89 97 65 98 66 99 75 100 67 101 68 102 74 103 76 104 69 105
REMARK SMILES IDX 70 106 71 107 72 108 73 109
REMARK H PARENT 31 5 17 10 7 25 35 40 97 59 63 70
REMARK Flexibility Score: inf
ROOT
ATOM      1  C   UNL A   1      33.021  29.861  27.566  1.00  0.00     0.117 C 
ENDROOT
BRANCH   1   2
ATOM      2  N   UNL A   1      33.802  28.686  27.304  1.00  0.00    -0.354 N 
ATOM      3  C   UNL A   1      33.512  27.726  26.383  1.00  0.00     0.242 C 
ATOM      4  O   UNL A   1      34.333  26.819  26.221  1.00  0.00    -0.273 OA
ATOM      5  H   UNL A   1      34.620  28.564  27.837  1.00  0.00     0.163 HD
BRANCH   3   6
ATOM      6  C   UNL A   1      32.212  27.786  25.539  1.00  0.00     0.175 C 
BRANCH   6   7
ATOM      7  N   UNL A   1      31.099  26.977  26.065  1.00  0.00    -0.344 N 
ATOM      8  C   UNL A   1      30.869  25.635  26.030  1.00  0.00     0.221 C 
ATOM      9  O   UNL A   1      29.829  25.202  26.528  1.00  0.00    -0.275 OA
ATOM     10  H   UNL A   1      30.398  27.497  26.520  1.00  0.00     0.164 HD
BRANCH   8  11
ATOM     11  C   UNL A   1      31.857  24.685  25.386  1.00  0.00     0.116 C 
BRANCH  11  12
ATOM     12  C   UNL A   1      32.084  23.418  26.236  1.00  0.00     0.116 C 
ATOM     13  C   UNL A   1      33.614  22.204  27.879  1.00  0.00     0.014 C 
ATOM     14  C   UNL A   1      33.495  23.342  26.857  1.00  0.00     0.034 C 
ATOM     15  C   UNL A   1      34.512  23.175  25.756  1.00  0.00    -0.001 A 
ATOM     16  C   UNL A   1      35.820  23.655  25.871  1.00  0.00     0.011 A 
ATOM     17  C   UNL A   1      34.127  22.565  24.562  1.00  0.00     0.138 A 
ATOM     18  C   UNL A   1      31.885  22.185  25.389  1.00  0.00     0.315 C 
ATOM     19  C   UNL A   1      36.690  23.584  24.779  1.00  0.00     0.047 A 
ATOM     20  C   UNL A   1      34.968  22.517  23.457  1.00  0.00     0.093 A 
ATOM     21  O   UNL A   1      32.872  21.946  24.443  1.00  0.00    -0.426 OA
ATOM     22  O   UNL A   1      30.889  21.476  25.460  1.00  0.00    -0.251 OA
ATOM     23  C   UNL A   1      36.246  23.044  23.573  1.00  0.00     0.119 A 
BRANCH  23  24
ATOM     24  O   UNL A   1      37.052  23.007  22.475  1.00  0.00    -0.508 OA
ATOM     25  H   UNL A   1      37.878  22.564  22.514  1.00  0.00     0.293 HD
ENDBRANCH  23  24
ENDBRANCH  11  12
ENDBRANCH   8  11
ENDBRANCH   6   7
BRANCH   6  26
ATOM     26  C   UNL A   1      31.838  29.245  25.088  1.00  0.00     0.068 C 
BRANCH  26  27
ATOM     27  C   UNL A   1      30.994  29.429  23.846  1.00  0.00    -0.037 C 
ATOM     28  C   UNL A   1      29.909  30.140  23.535  1.00  0.00     0.001 A 
ATOM     29  C   UNL A   1      31.330  28.623  22.614  1.00  0.00     0.174 C 
ATOM     30  C   UNL A   1      29.184  31.300  23.942  1.00  0.00     0.010 A 
ATOM     31  C   UNL A   1      29.265  29.177  22.606  1.00  0.00     0.065 A 
ATOM     32  N   UNL A   1      30.023  28.308  22.014  1.00  0.00    -0.280 NA
ATOM     33  C   UNL A   1      27.870  31.387  23.676  1.00  0.00     0.001 A 
ATOM     34  C   UNL A   1      27.785  29.209  22.572  1.00  0.00     0.028 A 
ATOM     35  C   UNL A   1      27.150  30.255  23.125  1.00  0.00     0.002 A 
ENDBRANCH  26  27
ENDBRANCH   6  26
ENDBRANCH   3   6
ENDBRANCH   1   2
BRANCH   1  36
ATOM     36  C   UNL A   1      33.810  31.149  27.623  1.00  0.00     0.042 C 
BRANCH  36  37
ATOM     37  C   UNL A   1      35.244  30.923  28.063  1.00  0.00     0.118 C 
BRANCH  37  38
ATOM     38  N   UNL A   1      35.401  30.858  29.516  1.00  0.00    -0.352 N 
ATOM     39  C   UNL A   1      36.366  30.291  30.334  1.00  0.00     0.251 C 
ATOM     40  H   UNL A   1      34.678  31.305  30.012  1.00  0.00     0.163 HD
ATOM     41  O   UNL A   1      36.174  30.245  31.533  1.00  0.00    -0.269 OA
BRANCH  39  42
ATOM     42  C   UNL A   1      37.592  29.690  29.750  1.00  0.00     0.039 A 
ATOM     43  C   UNL A   1      38.449  28.934  30.532  1.00  0.00     0.014 A 
ATOM     44  C   UNL A   1      37.908  29.903  28.404  1.00  0.00     0.014 A 
ATOM     45  C   UNL A   1      39.737  28.685  30.092  1.00  0.00     0.010 A 
ATOM     46  C   UNL A   1      39.146  29.471  27.899  1.00  0.00     0.010 A 
ATOM     47  C   UNL A   1      40.110  28.930  28.762  1.00  0.00    -0.014 A 
BRANCH  47  48
ATOM     48  C   UNL A   1      41.508  28.623  28.339  1.00  0.00     0.031 A 
ATOM     49  C   UNL A   1      42.612  29.639  28.514  1.00  0.00     0.074 A 
ATOM     50  C   UNL A   1      41.809  27.376  27.914  1.00  0.00     0.049 A 
ATOM     51  N   UNL A   1      43.878  29.540  28.192  1.00  0.00    -0.248 NA
ATOM     52  C   UNL A   1      42.258  30.936  29.115  1.00  0.00     0.031 C 
ATOM     53  C   UNL A   1      40.841  26.287  27.730  1.00  0.00     0.029 A 
ATOM     54  N   UNL A   1      43.013  26.784  27.623  1.00  0.00    -0.354 N 
ATOM     55  C   UNL A   1      44.457  30.762  28.517  1.00  0.00     0.074 A 
ATOM     56  C   UNL A   1      43.403  31.601  29.042  1.00  0.00     0.031 C 
ATOM     57  C   UNL A   1      41.496  25.144  27.491  1.00  0.00     0.029 A 
ATOM     58  C   UNL A   1      42.918  25.434  27.372  1.00  0.00     0.049 A 
ATOM     59  H   UNL A   1      43.863  27.279  27.596  1.00  0.00     0.167 HD
ATOM     60  C   UNL A   1      45.752  31.144  28.403  1.00  0.00     0.037 A 
ATOM     61  C   UNL A   1      43.861  24.527  27.054  1.00  0.00     0.037 A 
ATOM     62  C   UNL A   1      46.806  30.287  27.927  1.00  0.00     0.049 A 
ATOM     63  C   UNL A   1      45.276  24.994  26.883  1.00  0.00     0.074 A 
ATOM     64  C   UNL A   1      48.145  30.589  27.741  1.00  0.00     0.029 A 
ATOM     65  N   UNL A   1      46.650  28.951  27.591  1.00  0.00    -0.354 N 
ATOM     66  N   UNL A   1      45.783  26.182  27.109  1.00  0.00    -0.248 NA
ATOM     67  C   UNL A   1      46.241  24.010  26.375  1.00  0.00     0.031 C 
ATOM     68  C   UNL A   1      48.793  29.444  27.271  1.00  0.00     0.029 A 
ATOM     69  C   UNL A   1      47.866  28.417  27.199  1.00  0.00     0.049 A 
ATOM     70  H   UNL A   1      45.800  28.454  27.627  1.00  0.00     0.167 HD
ATOM     71  C   UNL A   1      47.126  26.087  26.774  1.00  0.00     0.074 A 
ATOM     72  C   UNL A   1      47.361  24.720  26.356  1.00  0.00     0.031 C 
ATOM     73  C   UNL A   1      48.078  27.051  26.796  1.00  0.00     0.037 A 
BRANCH  60  74
ATOM     74  C   UNL A   1      46.116  32.550  28.795  1.00  0.00     0.058 A 
ATOM     75  C   UNL A   1      46.739  32.833  30.020  1.00  0.00     0.135 A 
ATOM     76  C   UNL A   1      45.924  33.614  27.897  1.00  0.00     0.135 A 
ATOM     77  F   UNL A   1      46.926  31.858  30.923  1.00  0.00    -0.206 F 
ATOM     78  C   UNL A   1      47.157  34.120  30.342  1.00  0.00     0.059 A 
ATOM     79  C   UNL A   1      46.355  34.905  28.189  1.00  0.00     0.059 A 
ATOM     80  F   UNL A   1      45.330  33.398  26.712  1.00  0.00    -0.206 F 
ATOM     81  C   UNL A   1      46.968  35.149  29.417  1.00  0.00     0.060 A 
BRANCH  81  82
ATOM     82  S   UNL A   1      47.556  36.804  29.837  1.00  0.00     0.124 S 
ATOM     83  O   UNL A   1      48.876  36.513  30.385  1.00  0.00    -0.237 OA
ATOM     84  O   UNL A   1      47.539  37.477  28.542  1.00  0.00    -0.237 OA
ATOM     85  O   UNL A   1      46.569  37.281  30.801  1.00  0.00    -0.744 OA
ENDBRANCH  81  82
ENDBRANCH  60  74
BRANCH  61  86
ATOM     86  C   UNL A   1      43.494  23.102  26.832  1.00  0.00     0.058 A 
ATOM     87  C   UNL A   1      43.484  22.553  25.541  1.00  0.00     0.135 A 
ATOM     88  C   UNL A   1      43.147  22.261  27.901  1.00  0.00     0.135 A 
ATOM     89  F   UNL A   1      43.800  23.318  24.484  1.00  0.00    -0.206 F 
ATOM     90  C   UNL A   1      43.129  21.227  25.315  1.00  0.00     0.059 A 
ATOM     91  C   UNL A   1      42.819  20.924  27.705  1.00  0.00     0.059 A 
ATOM     92  F   UNL A   1      43.153  22.732  29.157  1.00  0.00    -0.206 F 
ATOM     93  C   UNL A   1      42.799  20.420  26.406  1.00  0.00     0.060 A 
BRANCH  93  94
ATOM     94  S   UNL A   1      42.371  18.692  26.111  1.00  0.00     0.124 S 
ATOM     95  O   UNL A   1      42.671  18.092  27.406  1.00  0.00    -0.237 OA
ATOM     96  O   UNL A   1      40.958  18.779  25.759  1.00  0.00    -0.237 OA
ATOM     97  O   UNL A   1      43.259  18.310  25.017  1.00  0.00    -0.744 OA
ENDBRANCH  93  94
ENDBRANCH  61  86
BRANCH  73  98
ATOM     98  C   UNL A   1      49.463  26.655  26.379  1.00  0.00     0.058 A 
ATOM     99  C   UNL A   1      50.356  26.063  27.285  1.00  0.00     0.135 A 
ATOM    100  C   UNL A   1      49.881  26.820  25.049  1.00  0.00     0.135 A 
ATOM    101  F   UNL A   1      50.004  25.894  28.569  1.00  0.00    -0.206 F 
ATOM    102  C   UNL A   1      51.625  25.657  26.888  1.00  0.00     0.059 A 
ATOM    103  C   UNL A   1      51.137  26.402  24.626  1.00  0.00     0.059 A 
ATOM    104  F   UNL A   1      49.059  27.378  24.147  1.00  0.00    -0.206 F 
ATOM    105  C   UNL A   1      52.004  25.827  25.555  1.00  0.00     0.060 A 
BRANCH 105 106
ATOM    106  S   UNL A   1      53.639  25.257  25.046  1.00  0.00     0.124 S 
ATOM    107  O   UNL A   1      53.523  23.816  25.247  1.00  0.00    -0.237 OA
ATOM    108  O   UNL A   1      53.705  25.700  23.657  1.00  0.00    -0.237 OA
ATOM    109  O   UNL A   1      54.541  25.948  25.962  1.00  0.00    -0.744 OA
ENDBRANCH 105 106
ENDBRANCH  73  98
ENDBRANCH  47  48
ENDBRANCH  39  42
ENDBRANCH  37  38
ENDBRANCH  36  37
ENDBRANCH   1  36
TORSDOF 19
ENDMDL
MODEL 2
REMARK VINA RESULT:     -13.8      6.411     11.470
REMARK SMILES C[C@H]1c2ccc(O)cc2OC(=O)[C@@H]1CC(=O)N[C@@H](CC1=c2ccccc2=NC1)C(=O)NCCCNC(=O)c1ccc(-c2c3nc(c(-c4c(F)cc(S(=O)(=O)[O-])cc4F)c4ccc([nH]4)c(-c4c(F)cc(S(=O)(=O)[O-])cc4F)c4nc(c(-c5c(F)cc(S(=O)(=O)[O-])cc5F)c5ccc2[nH]5)C=C4)C=C3)cc1
REMARK SMILES IDX 32 1 31 2 29 3 30 4 18 6 17 7 15 8 16 9 14 11 13 12 1 13
REMARK SMILES IDX 2 14 3 15 4 16 9 17 11 18 5 19 8 20 10 21 12 22 6 23 7 24
REMARK SMILES IDX 19 26 20 27 21 28 28 29 22 30 26 31 27 32 23 33 25 34 24 35
REMARK SMILES IDX 33 36 34 37 35 38 36 39 37 41 38 42 39 43 103 44 40 45
REMARK SMILES IDX 102 46 41 47 42 48 43 49 96 50 44 51 101 52 95 53 97 54
REMARK SMILES IDX 45 55 100 56 94 57 93 58 46 60 80 61 59 62 79 63 60 64 63 65
REMARK SMILES IDX 78 66 98 67 61 68 62 69 77 71 99 72 64 73 47 74 48 75 57 76
REMARK SMILES IDX 49 77 50 78 56 79 58 80 51 81 52 82 53 83 54 84 55 85 81 86
REMARK SMILES IDX 82 87 91 88 83 89 84 90 90 91 92 92 85 93 86 94 87 95 88 96
REMARK SMILES IDX 89 97 65 98 66 99 75 100 67 101 68 102 74 103 76 104 69 105
REMARK SMILES IDX 70 106 71 107 72 108 73 109
REMARK H PARENT 31 5 17 10 7 25 35 40 97 59 63 70
REMARK Flexibility Score: inf
ROOT
ATOM      1  C   UNL A   1      37.395  23.396  24.930  1.00  0.00     0.117 C 
ENDROOT
BRANCH   1   2
ATOM      2  N   UNL A   1      37.137  21.990  25.052  1.00  0.00    -0.354 N 
ATOM      3  C   UNL A   1      35.907  21.408  25.107  1.00  0.00     0.242 C 
ATOM      4  O   UNL A   1      35.855  20.175  25.126  1.00  0.00    -0.273 OA
ATOM      5  H   UNL A   1      37.918  21.394  25.101  1.00  0.00     0.163 HD
BRANCH   3   6
ATOM      6  C   UNL A   1      34.611  22.261  25.107  1.00  0.00     0.175 C 
BRANCH   6   7
ATOM      7  N   UNL A   1      34.372  23.017  23.866  1.00  0.00    -0.344 N 
ATOM      8  C   UNL A   1      33.819  24.243  23.653  1.00  0.00     0.221 C 
ATOM      9  O   UNL A   1      33.705  24.646  22.495  1.00  0.00    -0.275 OA
ATOM     10  H   UNL A   1      34.661  22.555  23.046  1.00  0.00     0.164 HD
BRANCH   8  11
ATOM     11  C   UNL A   1      33.339  25.100  24.807  1.00  0.00     0.116 C 
BRANCH  11  12
ATOM     12  C   UNL A   1      31.811  25.011  25.001  1.00  0.00     0.116 C 
ATOM     13  C   UNL A   1      29.530  25.984  24.399  1.00  0.00     0.014 C 
ATOM     14  C   UNL A   1      31.047  26.211  24.402  1.00  0.00     0.034 C 
ATOM     15  C   UNL A   1      31.396  27.456  25.177  1.00  0.00    -0.001 A 
ATOM     16  C   UNL A   1      31.388  28.725  24.590  1.00  0.00     0.011 A 
ATOM     17  C   UNL A   1      31.788  27.340  26.511  1.00  0.00     0.138 A 
ATOM     18  C   UNL A   1      31.481  24.939  26.471  1.00  0.00     0.315 C 
ATOM     19  C   UNL A   1      31.835  29.835  25.315  1.00  0.00     0.047 A 
ATOM     20  C   UNL A   1      32.267  28.425  27.234  1.00  0.00     0.093 A 
ATOM     21  O   UNL A   1      31.684  26.112  27.186  1.00  0.00    -0.426 OA
ATOM     22  O   UNL A   1      31.132  23.908  27.032  1.00  0.00    -0.251 OA
ATOM     23  C   UNL A   1      32.299  29.668  26.619  1.00  0.00     0.119 A 
BRANCH  23  24
ATOM     24  O   UNL A   1      32.790  30.720  27.335  1.00  0.00    -0.508 OA
ATOM     25  H   UNL A   1      33.091  30.589  28.213  1.00  0.00     0.293 HD
ENDBRANCH  23  24
ENDBRANCH  11  12
ENDBRANCH   8  11
ENDBRANCH   6   7
BRANCH   6  26
ATOM     26  C   UNL A   1      33.368  21.492  25.686  1.00  0.00     0.068 C 
BRANCH  26  27
ATOM     27  C   UNL A   1      32.705  20.433  24.833  1.00  0.00    -0.037 C 
ATOM     28  C   UNL A   1      32.603  19.104  24.883  1.00  0.00     0.001 A 
ATOM     29  C   UNL A   1      32.010  20.856  23.561  1.00  0.00     0.174 C 
ATOM     30  C   UNL A   1      32.673  18.017  25.805  1.00  0.00     0.010 A 
ATOM     31  C   UNL A   1      32.642  18.818  23.427  1.00  0.00     0.065 A 
ATOM     32  N   UNL A   1      32.278  19.761  22.615  1.00  0.00    -0.280 NA
ATOM     33  C   UNL A   1      33.004  16.793  25.361  1.00  0.00     0.001 A 
ATOM     34  C   UNL A   1      33.249  17.523  23.043  1.00  0.00     0.028 A 
ATOM     35  C   UNL A   1      33.445  16.595  23.994  1.00  0.00     0.002 A 
ENDBRANCH  26  27
ENDBRANCH   6  26
ENDBRANCH   3   6
ENDBRANCH   1   2
BRANCH   1  36
ATOM     36  C   UNL A   1      37.894  24.064  26.190  1.00  0.00     0.042 C 
BRANCH  36  37
ATOM     37  C   UNL A   1      39.058  23.315  26.811  1.00  0.00     0.118 C 
BRANCH  37  38
ATOM     38  N   UNL A   1      40.355  23.686  26.244  1.00  0.00    -0.352 N 
ATOM     39  C   UNL A   1      41.157  24.807  26.384  1.00  0.00     0.251 C 
ATOM     40  H   UNL A   1      40.733  23.004  25.643  1.00  0.00     0.163 HD
ATOM     41  O   UNL A   1      42.131  24.933  25.668  1.00  0.00    -0.269 OA
BRANCH  39  42
ATOM     42  C   UNL A   1      40.800  25.875  27.352  1.00  0.00     0.039 A 
ATOM     43  C   UNL A   1      41.269  27.168  27.184  1.00  0.00     0.014 A 
ATOM     44  C   UNL A   1      40.002  25.580  28.464  1.00  0.00     0.014 A 
ATOM     45  C   UNL A   1      41.236  28.052  28.248  1.00  0.00     0.010 A 
ATOM     46  C   UNL A   1      39.802  26.550  29.459  1.00  0.00     0.010 A 
ATOM     47  C   UNL A   1      40.488  27.772  29.401  1.00  0.00    -0.014 A 
BRANCH  47  48
ATOM     48  C   UNL A   1      40.475  28.773  30.509  1.00  0.00     0.031 A 
ATOM     49  C   UNL A   1      39.422  29.855  30.565  1.00  0.00     0.074 A 
ATOM     50  C   UNL A   1      41.339  28.626  31.539  1.00  0.00     0.049 A 
ATOM     51  N   UNL A   1      39.271  30.808  31.450  1.00  0.00    -0.248 NA
ATOM     52  C   UNL A   1      38.415  29.884  29.491  1.00  0.00     0.031 C 
ATOM     53  C   UNL A   1      42.386  27.602  31.626  1.00  0.00     0.029 A 
ATOM     54  N   UNL A   1      41.438  29.287  32.738  1.00  0.00    -0.354 N 
ATOM     55  C   UNL A   1      38.183  31.563  31.024  1.00  0.00     0.074 A 
ATOM     56  C   UNL A   1      37.721  30.974  29.787  1.00  0.00     0.031 C 
ATOM     57  C   UNL A   1      42.925  27.618  32.852  1.00  0.00     0.029 A 
ATOM     58  C   UNL A   1      42.360  28.734  33.598  1.00  0.00     0.049 A 
ATOM     59  H   UNL A   1      40.900  30.081  32.962  1.00  0.00     0.167 HD
ATOM     60  C   UNL A   1      37.613  32.639  31.617  1.00  0.00     0.037 A 
ATOM     61  C   UNL A   1      42.735  29.094  34.840  1.00  0.00     0.037 A 
ATOM     62  C   UNL A   1      38.046  33.189  32.876  1.00  0.00     0.049 A 
ATOM     63  C   UNL A   1      42.122  30.322  35.447  1.00  0.00     0.074 A 
ATOM     64  C   UNL A   1      37.556  34.298  33.545  1.00  0.00     0.029 A 
ATOM     65  N   UNL A   1      39.049  32.656  33.671  1.00  0.00    -0.354 N 
ATOM     66  N   UNL A   1      41.155  31.074  34.979  1.00  0.00    -0.248 NA
ATOM     67  C   UNL A   1      42.677  30.774  36.729  1.00  0.00     0.031 C 
ATOM     68  C   UNL A   1      38.278  34.449  34.732  1.00  0.00     0.029 A 
ATOM     69  C   UNL A   1      39.193  33.412  34.821  1.00  0.00     0.049 A 
ATOM     70  H   UNL A   1      39.580  31.856  33.450  1.00  0.00     0.167 HD
ATOM     71  C   UNL A   1      40.984  32.087  35.913  1.00  0.00     0.074 A 
ATOM     72  C   UNL A   1      41.927  31.838  36.983  1.00  0.00     0.031 C 
ATOM     73  C   UNL A   1      40.131  33.140  35.878  1.00  0.00     0.037 A 
BRANCH  60  74
ATOM     74  C   UNL A   1      36.456  33.304  30.924  1.00  0.00     0.058 A 
ATOM     75  C   UNL A   1      35.157  33.258  31.453  1.00  0.00     0.135 A 
ATOM     76  C   UNL A   1      36.664  34.074  29.766  1.00  0.00     0.135 A 
ATOM     77  F   UNL A   1      34.898  32.519  32.544  1.00  0.00    -0.206 F 
ATOM     78  C   UNL A   1      34.105  33.949  30.859  1.00  0.00     0.059 A 
ATOM     79  C   UNL A   1      35.632  34.791  29.169  1.00  0.00     0.059 A 
ATOM     80  F   UNL A   1      37.887  34.150  29.218  1.00  0.00    -0.206 F 
ATOM     81  C   UNL A   1      34.354  34.720  29.722  1.00  0.00     0.060 A 
BRANCH  81  82
ATOM     82  S   UNL A   1      32.984  35.643  28.991  1.00  0.00     0.124 S 
ATOM     83  O   UNL A   1      32.361  34.622  28.155  1.00  0.00    -0.237 OA
ATOM     84  O   UNL A   1      32.223  36.051  30.167  1.00  0.00    -0.237 OA
ATOM     85  O   UNL A   1      33.648  36.724  28.270  1.00  0.00    -0.744 OA
ENDBRANCH  81  82
ENDBRANCH  60  74
BRANCH  61  86
ATOM     86  C   UNL A   1      43.769  28.315  35.572  1.00  0.00     0.058 A 
ATOM     87  C   UNL A   1      45.135  28.566  35.373  1.00  0.00     0.135 A 
ATOM     88  C   UNL A   1      43.418  27.306  36.482  1.00  0.00     0.135 A 
ATOM     89  F   UNL A   1      45.524  29.515  34.506  1.00  0.00    -0.206 F 
ATOM     90  C   UNL A   1      46.115  27.837  36.038  1.00  0.00     0.059 A 
ATOM     91  C   UNL A   1      44.378  26.584  37.184  1.00  0.00     0.059 A 
ATOM     92  F   UNL A   1      42.126  27.034  36.720  1.00  0.00    -0.206 F 
ATOM     93  C   UNL A   1      45.725  26.847  36.943  1.00  0.00     0.060 A 
BRANCH  93  94
ATOM     94  S   UNL A   1      47.000  25.926  37.828  1.00  0.00     0.124 S 
ATOM     95  O   UNL A   1      48.216  26.530  37.299  1.00  0.00    -0.237 OA
ATOM     96  O   UNL A   1      46.689  26.229  39.221  1.00  0.00    -0.237 OA
ATOM     97  O   UNL A   1      46.753  24.545  37.426  1.00  0.00    -0.744 OA
ENDBRANCH  93  94
ENDBRANCH  61  86
BRANCH  73  98
ATOM     98  C   UNL A   1      40.164  34.085  37.041  1.00  0.00     0.058 A 
ATOM     99  C   UNL A   1      40.978  35.228  37.029  1.00  0.00     0.135 A 
ATOM    100  C   UNL A   1      39.335  33.875  38.154  1.00  0.00     0.135 A 
ATOM    101  F   UNL A   1      41.796  35.465  35.991  1.00  0.00    -0.206 F 
ATOM    102  C   UNL A   1      40.978  36.128  38.089  1.00  0.00     0.059 A 
ATOM    103  C   UNL A   1      39.302  34.773  39.215  1.00  0.00     0.059 A 
ATOM    104  F   UNL A   1      38.536  32.798  38.207  1.00  0.00    -0.206 F 
ATOM    105  C   UNL A   1      40.132  35.892  39.176  1.00  0.00     0.060 A 
BRANCH 105 106
ATOM    106  S   UNL A   1      40.112  37.091  40.525  1.00  0.00     0.124 S 
ATOM    107  O   UNL A   1      38.685  37.372  40.647  1.00  0.00    -0.237 OA
ATOM    108  O   UNL A   1      40.706  36.334  41.623  1.00  0.00    -0.237 OA
ATOM    109  O   UNL A   1      40.928  38.190  40.016  1.00  0.00    -0.744 OA
ENDBRANCH 105 106
ENDBRANCH  73  98
ENDBRANCH  47  48
ENDBRANCH  39  42
ENDBRANCH  37  38
ENDBRANCH  36  37
ENDBRANCH   1  36
TORSDOF 19
ENDMDL
MODEL 3
REMARK VINA RESULT:     -13.7      2.906      9.097
REMARK SMILES C[C@H]1c2ccc(O)cc2OC(=O)[C@@H]1CC(=O)N[C@@H](CC1=c2ccccc2=NC1)C(=O)NCCCNC(=O)c1ccc(-c2c3nc(c(-c4c(F)cc(S(=O)(=O)[O-])cc4F)c4ccc([nH]4)c(-c4c(F)cc(S(=O)(=O)[O-])cc4F)c4nc(c(-c5c(F)cc(S(=O)(=O)[O-])cc5F)c5ccc2[nH]5)C=C4)C=C3)cc1
REMARK SMILES IDX 32 1 31 2 29 3 30 4 18 6 17 7 15 8 16 9 14 11 13 12 1 13
REMARK SMILES IDX 2 14 3 15 4 16 9 17 11 18 5 19 8 20 10 21 12 22 6 23 7 24
REMARK SMILES IDX 19 26 20 27 21 28 28 29 22 30 26 31 27 32 23 33 25 34 24 35
REMARK SMILES IDX 33 36 34 37 35 38 36 39 37 41 38 42 39 43 103 44 40 45
REMARK SMILES IDX 102 46 41 47 42 48 43 49 96 50 44 51 101 52 95 53 97 54
REMARK SMILES IDX 45 55 100 56 94 57 93 58 46 60 80 61 59 62 79 63 60 64 63 65
REMARK SMILES IDX 78 66 98 67 61 68 62 69 77 71 99 72 64 73 47 74 48 75 57 76
REMARK SMILES IDX 49 77 50 78 56 79 58 80 51 81 52 82 53 83 54 84 55 85 81 86
REMARK SMILES IDX 82 87 91 88 83 89 84 90 90 91 92 92 85 93 86 94 87 95 88 96
REMARK SMILES IDX 89 97 65 98 66 99 75 100 67 101 68 102 74 103 76 104 69 105
REMARK SMILES IDX 70 106 71 107 72 108 73 109
REMARK H PARENT 31 5 17 10 7 25 35 40 97 59 63 70
REMARK Flexibility Score: inf
ROOT
ATOM      1  C   UNL A   1      36.947  21.386  25.676  1.00  0.00     0.117 C 
ENDROOT
BRANCH   1   2
ATOM      2  N   UNL A   1      36.342  22.213  24.671  1.00  0.00    -0.354 N 
ATOM      3  C   UNL A   1      35.027  22.205  24.317  1.00  0.00     0.242 C 
ATOM      4  O   UNL A   1      34.649  23.040  23.492  1.00  0.00    -0.273 OA
ATOM      5  H   UNL A   1      36.930  22.843  24.196  1.00  0.00     0.163 HD
BRANCH   3   6
ATOM      6  C   UNL A   1      34.028  21.203  24.955  1.00  0.00     0.175 C 
BRANCH   6   7
ATOM      7  N   UNL A   1      33.709  21.468  26.368  1.00  0.00    -0.344 N 
ATOM      8  C   UNL A   1      33.418  22.627  27.021  1.00  0.00     0.221 C 
ATOM      9  O   UNL A   1      33.211  22.584  28.234  1.00  0.00    -0.275 OA
ATOM     10  H   UNL A   1      33.707  20.668  26.941  1.00  0.00     0.164 HD
BRANCH   8  11
ATOM     11  C   UNL A   1      33.357  23.950  26.286  1.00  0.00     0.116 C 
BRANCH  11  12
ATOM     12  C   UNL A   1      31.998  24.168  25.591  1.00  0.00     0.116 C 
ATOM     13  C   UNL A   1      30.780  25.044  23.526  1.00  0.00     0.014 C 
ATOM     14  C   UNL A   1      32.092  25.041  24.321  1.00  0.00     0.034 C 
ATOM     15  C   UNL A   1      32.480  26.443  24.714  1.00  0.00    -0.001 A 
ATOM     16  C   UNL A   1      33.206  27.282  23.862  1.00  0.00     0.011 A 
ATOM     17  C   UNL A   1      32.147  26.911  25.985  1.00  0.00     0.138 A 
ATOM     18  C   UNL A   1      31.034  24.835  26.540  1.00  0.00     0.315 C 
ATOM     19  C   UNL A   1      33.646  28.529  24.315  1.00  0.00     0.047 A 
ATOM     20  C   UNL A   1      32.605  28.133  26.463  1.00  0.00     0.093 A 
ATOM     21  O   UNL A   1      31.304  26.166  26.827  1.00  0.00    -0.426 OA
ATOM     22  O   UNL A   1      30.117  24.241  27.094  1.00  0.00    -0.251 OA
ATOM     23  C   UNL A   1      33.368  28.929  25.621  1.00  0.00     0.119 A 
BRANCH  23  24
ATOM     24  O   UNL A   1      33.825  30.116  26.110  1.00  0.00    -0.508 OA
ATOM     25  H   UNL A   1      33.326  30.899  25.984  1.00  0.00     0.293 HD
ENDBRANCH  23  24
ENDBRANCH  11  12
ENDBRANCH   8  11
ENDBRANCH   6   7
BRANCH   6  26
ATOM     26  C   UNL A   1      32.798  20.885  24.027  1.00  0.00     0.068 C 
BRANCH  26  27
ATOM     27  C   UNL A   1      32.513  19.445  23.665  1.00  0.00    -0.037 C 
ATOM     28  C   UNL A   1      32.576  18.277  24.307  1.00  0.00     0.001 A 
ATOM     29  C   UNL A   1      32.106  19.119  22.249  1.00  0.00     0.174 C 
ATOM     30  C   UNL A   1      32.556  17.728  25.625  1.00  0.00     0.010 A 
ATOM     31  C   UNL A   1      33.013  17.419  23.177  1.00  0.00     0.065 A 
ATOM     32  N   UNL A   1      32.742  17.820  21.974  1.00  0.00    -0.280 NA
ATOM     33  C   UNL A   1      33.143  16.544  25.858  1.00  0.00     0.001 A 
ATOM     34  C   UNL A   1      33.860  16.260  23.540  1.00  0.00     0.028 A 
ATOM     35  C   UNL A   1      33.933  15.894  24.829  1.00  0.00     0.002 A 
ENDBRANCH  26  27
ENDBRANCH   6  26
ENDBRANCH   3   6
ENDBRANCH   1   2
BRANCH   1  36
ATOM     36  C   UNL A   1      38.136  20.580  25.206  1.00  0.00     0.042 C 
BRANCH  36  37
ATOM     37  C   UNL A   1      39.321  20.709  26.144  1.00  0.00     0.118 C 
BRANCH  37  38
ATOM     38  N   UNL A   1      40.266  19.597  26.040  1.00  0.00    -0.352 N 
ATOM     39  C   UNL A   1      41.649  19.530  26.085  1.00  0.00     0.251 C 
ATOM     40  H   UNL A   1      39.833  18.722  25.912  1.00  0.00     0.163 HD
ATOM     41  O   UNL A   1      42.201  18.482  25.812  1.00  0.00    -0.269 OA
BRANCH  39  42
ATOM     42  C   UNL A   1      42.453  20.738  26.401  1.00  0.00     0.039 A 
ATOM     43  C   UNL A   1      42.617  21.155  27.712  1.00  0.00     0.014 A 
ATOM     44  C   UNL A   1      43.036  21.486  25.372  1.00  0.00     0.014 A 
ATOM     45  C   UNL A   1      43.048  22.444  27.972  1.00  0.00     0.010 A 
ATOM     46  C   UNL A   1      43.655  22.712  25.662  1.00  0.00     0.010 A 
ATOM     47  C   UNL A   1      43.594  23.244  26.958  1.00  0.00    -0.014 A 
BRANCH  47  48
ATOM     48  C   UNL A   1      44.062  24.620  27.302  1.00  0.00     0.031 A 
ATOM     49  C   UNL A   1      45.501  25.026  27.088  1.00  0.00     0.074 A 
ATOM     50  C   UNL A   1      43.155  25.546  27.688  1.00  0.00     0.049 A 
ATOM     51  N   UNL A   1      46.075  26.176  27.341  1.00  0.00    -0.248 NA
ATOM     52  C   UNL A   1      46.419  24.020  26.530  1.00  0.00     0.031 C 
ATOM     53  C   UNL A   1      41.725  25.293  27.902  1.00  0.00     0.029 A 
ATOM     54  N   UNL A   1      43.277  26.896  27.905  1.00  0.00    -0.354 N 
ATOM     55  C   UNL A   1      47.416  26.020  27.008  1.00  0.00     0.074 A 
ATOM     56  C   UNL A   1      47.582  24.658  26.555  1.00  0.00     0.031 C 
ATOM     57  C   UNL A   1      41.090  26.458  28.086  1.00  0.00     0.029 A 
ATOM     58  C   UNL A   1      42.076  27.528  28.136  1.00  0.00     0.049 A 
ATOM     59  H   UNL A   1      44.141  27.367  27.896  1.00  0.00     0.167 HD
ATOM     60  C   UNL A   1      48.416  26.933  27.062  1.00  0.00     0.037 A 
ATOM     61  C   UNL A   1      41.793  28.821  28.387  1.00  0.00     0.037 A 
ATOM     62  C   UNL A   1      48.234  28.303  27.465  1.00  0.00     0.049 A 
ATOM     63  C   UNL A   1      42.927  29.796  28.493  1.00  0.00     0.074 A 
ATOM     64  C   UNL A   1      49.189  29.299  27.586  1.00  0.00     0.029 A 
ATOM     65  N   UNL A   1      47.015  28.881  27.785  1.00  0.00    -0.354 N 
ATOM     66  N   UNL A   1      44.203  29.600  28.262  1.00  0.00    -0.248 NA
ATOM     67  C   UNL A   1      42.592  31.157  28.931  1.00  0.00     0.031 C 
ATOM     68  C   UNL A   1      48.551  30.471  28.001  1.00  0.00     0.029 A 
ATOM     69  C   UNL A   1      47.193  30.216  28.103  1.00  0.00     0.049 A 
ATOM     70  H   UNL A   1      46.149  28.410  27.785  1.00  0.00     0.167 HD
ATOM     71  C   UNL A   1      44.822  30.815  28.524  1.00  0.00     0.074 A 
ATOM     72  C   UNL A   1      43.780  31.745  28.904  1.00  0.00     0.031 C 
ATOM     73  C   UNL A   1      46.140  31.127  28.469  1.00  0.00     0.037 A 
BRANCH  60  74
ATOM     74  C   UNL A   1      49.802  26.495  26.677  1.00  0.00     0.058 A 
ATOM     75  C   UNL A   1      50.670  25.902  27.606  1.00  0.00     0.135 A 
ATOM     76  C   UNL A   1      50.235  26.586  25.342  1.00  0.00     0.135 A 
ATOM     77  F   UNL A   1      50.316  25.811  28.898  1.00  0.00    -0.206 F 
ATOM     78  C   UNL A   1      51.917  25.416  27.228  1.00  0.00     0.059 A 
ATOM     79  C   UNL A   1      51.469  26.086  24.937  1.00  0.00     0.059 A 
ATOM     80  F   UNL A   1      49.444  27.148  24.414  1.00  0.00    -0.206 F 
ATOM     81  C   UNL A   1      52.305  25.504  25.889  1.00  0.00     0.060 A 
BRANCH  81  82
ATOM     82  S   UNL A   1      53.911  24.829  25.412  1.00  0.00     0.124 S 
ATOM     83  O   UNL A   1      54.684  25.027  26.633  1.00  0.00    -0.237 OA
ATOM     84  O   UNL A   1      53.580  23.445  25.086  1.00  0.00    -0.237 OA
ATOM     85  O   UNL A   1      54.306  25.660  24.278  1.00  0.00    -0.744 OA
ENDBRANCH  81  82
ENDBRANCH  60  74
BRANCH  61  86
ATOM     86  C   UNL A   1      40.387  29.257  28.602  1.00  0.00     0.058 A 
ATOM     87  C   UNL A   1      39.525  29.471  27.515  1.00  0.00     0.135 A 
ATOM     88  C   UNL A   1      39.875  29.469  29.891  1.00  0.00     0.135 A 
ATOM     89  F   UNL A   1      39.969  29.290  26.261  1.00  0.00    -0.206 F 
ATOM     90  C   UNL A   1      38.213  29.894  27.698  1.00  0.00     0.059 A 
ATOM     91  C   UNL A   1      38.557  29.861  30.102  1.00  0.00     0.059 A 
ATOM     92  F   UNL A   1      40.652  29.267  30.966  1.00  0.00    -0.206 F 
ATOM     93  C   UNL A   1      37.737  30.085  28.997  1.00  0.00     0.060 A 
BRANCH  93  94
ATOM     94  S   UNL A   1      36.024  30.601  29.230  1.00  0.00     0.124 S 
ATOM     95  O   UNL A   1      35.301  29.503  28.601  1.00  0.00    -0.237 OA
ATOM     96  O   UNL A   1      35.922  30.685  30.684  1.00  0.00    -0.237 OA
ATOM     97  O   UNL A   1      35.963  31.881  28.532  1.00  0.00    -0.744 OA
ENDBRANCH  93  94
ENDBRANCH  61  86
BRANCH  73  98
ATOM     98  C   UNL A   1      46.523  32.536  28.806  1.00  0.00     0.058 A 
ATOM     99  C   UNL A   1      46.873  32.904  30.115  1.00  0.00     0.135 A 
ATOM    100  C   UNL A   1      46.594  33.515  27.803  1.00  0.00     0.135 A 
ATOM    101  F   UNL A   1      46.810  32.004  31.109  1.00  0.00    -0.206 F 
ATOM    102  C   UNL A   1      47.269  34.201  30.420  1.00  0.00     0.059 A 
ATOM    103  C   UNL A   1      47.009  34.812  28.082  1.00  0.00     0.059 A 
ATOM    104  F   UNL A   1      46.274  33.208  26.536  1.00  0.00    -0.206 F 
ATOM    105  C   UNL A   1      47.338  35.147  29.395  1.00  0.00     0.060 A 
BRANCH 105 106
ATOM    106  S   UNL A   1      47.895  36.815  29.800  1.00  0.00     0.124 S 
ATOM    107  O   UNL A   1      48.252  37.333  28.483  1.00  0.00    -0.237 OA
ATOM    108  O   UNL A   1      46.705  37.400  30.411  1.00  0.00    -0.237 OA
ATOM    109  O   UNL A   1      49.013  36.588  30.710  1.00  0.00    -0.744 OA
ENDBRANCH 105 106
ENDBRANCH  73  98
ENDBRANCH  47  48
ENDBRANCH  39  42
ENDBRANCH  37  38
ENDBRANCH  36  37
ENDBRANCH   1  36
TORSDOF 19
ENDMDL
