MODEL 1
REMARK VINA RESULT:     -13.3      0.000      0.000
REMARK SMILES O=C(CN1C(=O)/C(=C\c2c(F)cccc2Cl)Oc2ccccc21)NCCCNC(=O)c1ccc(-c2c3nc(c(-c4c(F)cc(S(=O)(=O)[O-])cc4F)c4ccc([nH]4)c(-c4c(F)cc(S(=O)(=O)[O-])cc4F)c4nc(c(-c5c(F)cc(S(=O)(=O)[O-])cc5F)c5ccc2[nH]5)C=C4)C=C3)cc1
REMARK SMILES IDX 26 1 25 2 24 3 1 4 2 5 3 7 4 8 5 9 23 10 6 11 7 12 18 13
REMARK SMILES IDX 22 14 8 15 17 16 19 17 21 18 20 19 9 20 10 21 15 22 11 23
REMARK SMILES IDX 12 24 14 25 16 26 13 27 27 28 28 29 29 30 30 32 31 33 32 34
REMARK SMILES IDX 96 35 33 36 95 37 34 38 35 39 36 40 89 41 37 42 94 43 88 44
REMARK SMILES IDX 90 45 38 46 93 47 87 48 86 49 39 51 73 52 52 53 72 54 53 55
REMARK SMILES IDX 56 56 71 57 91 58 54 59 55 60 70 62 92 63 57 64 40 65 41 66
REMARK SMILES IDX 50 67 42 68 43 69 49 70 51 71 44 72 45 73 46 74 47 75 48 76
REMARK SMILES IDX 74 77 75 78 84 79 76 80 77 81 83 82 85 83 78 84 79 85 80 86
REMARK SMILES IDX 81 87 82 88 58 89 59 90 68 91 60 92 61 93 67 94 69 95 62 96
REMARK SMILES IDX 63 97 64 98 65 99 66 100
REMARK H PARENT 24 6 28 31 90 50 56 61
REMARK Flexibility Score: inf
ROOT
ATOM      1  C   UNL A   1      40.301  22.165  27.321  1.00  0.00     0.042 C 
ENDROOT
BRANCH   1   2
ATOM      2  C   UNL A   1      39.378  22.166  26.099  1.00  0.00     0.117 C 
BRANCH   2   3
ATOM      3  N   UNL A   1      37.971  22.294  26.422  1.00  0.00    -0.354 N 
ATOM      4  O   UNL A   1      37.250  22.105  24.268  1.00  0.00    -0.273 OA
ATOM      5  C   UNL A   1      36.985  22.260  25.459  1.00  0.00     0.240 C 
ATOM      6  H   UNL A   1      37.710  22.409  27.364  1.00  0.00     0.163 HD
BRANCH   5   7
ATOM      7  C   UNL A   1      35.579  22.691  25.905  1.00  0.00     0.226 C 
BRANCH   7   8
ATOM      8  N   UNL A   1      34.507  22.740  24.911  1.00  0.00    -0.293 N 
ATOM      9  C   UNL A   1      34.165  23.996  24.421  1.00  0.00     0.294 C 
ATOM     10  C   UNL A   1      33.790  21.585  24.493  1.00  0.00     0.088 A 
ATOM     11  O   UNL A   1      34.838  25.003  24.609  1.00  0.00    -0.265 OA
ATOM     12  C   UNL A   1      32.858  24.045  23.682  1.00  0.00     0.193 C 
ATOM     13  C   UNL A   1      32.825  21.712  23.482  1.00  0.00     0.151 A 
ATOM     14  C   UNL A   1      34.046  20.307  25.004  1.00  0.00     0.030 A 
ATOM     15  C   UNL A   1      32.034  25.104  23.773  1.00  0.00     0.065 C 
ATOM     16  O   UNL A   1      32.444  22.929  22.970  1.00  0.00    -0.449 OA
ATOM     17  C   UNL A   1      32.179  20.593  22.954  1.00  0.00     0.049 A 
ATOM     18  C   UNL A   1      33.399  19.184  24.479  1.00  0.00     0.002 A 
ATOM     19  C   UNL A   1      32.474  19.326  23.448  1.00  0.00     0.004 A 
BRANCH  15  20
ATOM     20  C   UNL A   1      32.247  26.260  24.658  1.00  0.00     0.033 A 
ATOM     21  C   UNL A   1      31.796  26.213  25.980  1.00  0.00     0.132 A 
ATOM     22  C   UNL A   1      32.838  27.452  24.202  1.00  0.00     0.051 A 
ATOM     23  F   UNL A   1      31.242  25.090  26.463  1.00  0.00    -0.206 F 
ATOM     24  C   UNL A   1      31.897  27.319  26.824  1.00  0.00     0.040 A 
ATOM     25  C   UNL A   1      32.950  28.563  25.047  1.00  0.00     0.021 A 
ATOM     26  Cl  UNL A   1      33.451  27.607  22.591  1.00  0.00    -0.084 Cl
ATOM     27  C   UNL A   1      32.471  28.499  26.355  1.00  0.00     0.005 A 
ENDBRANCH  15  20
ENDBRANCH   7   8
ENDBRANCH   5   7
ENDBRANCH   2   3
ENDBRANCH   1   2
BRANCH   1  28
ATOM     28  C   UNL A   1      41.539  23.054  27.221  1.00  0.00     0.118 C 
BRANCH  28  29
ATOM     29  N   UNL A   1      41.501  24.003  26.119  1.00  0.00    -0.352 N 
ATOM     30  C   UNL A   1      41.292  25.364  26.129  1.00  0.00     0.251 C 
ATOM     31  H   UNL A   1      41.647  23.612  25.228  1.00  0.00     0.163 HD
ATOM     32  O   UNL A   1      41.214  25.965  25.060  1.00  0.00    -0.269 OA
BRANCH  30  33
ATOM     33  C   UNL A   1      41.131  26.105  27.404  1.00  0.00     0.039 A 
ATOM     34  C   UNL A   1      40.026  25.903  28.233  1.00  0.00     0.014 A 
ATOM     35  C   UNL A   1      42.128  27.011  27.788  1.00  0.00     0.014 A 
ATOM     36  C   UNL A   1      39.845  26.708  29.357  1.00  0.00     0.010 A 
ATOM     37  C   UNL A   1      41.974  27.775  28.951  1.00  0.00     0.010 A 
ATOM     38  C   UNL A   1      40.807  27.666  29.720  1.00  0.00    -0.014 A 
BRANCH  38  39
ATOM     39  C   UNL A   1      40.545  28.560  30.882  1.00  0.00     0.031 A 
ATOM     40  C   UNL A   1      41.431  28.513  32.100  1.00  0.00     0.074 A 
ATOM     41  C   UNL A   1      39.557  29.473  30.812  1.00  0.00     0.049 A 
ATOM     42  N   UNL A   1      41.422  29.288  33.156  1.00  0.00    -0.248 NA
ATOM     43  C   UNL A   1      42.461  27.462  32.141  1.00  0.00     0.031 C 
ATOM     44  C   UNL A   1      38.621  29.617  29.695  1.00  0.00     0.029 A 
ATOM     45  N   UNL A   1      39.195  30.473  31.680  1.00  0.00    -0.354 N 
ATOM     46  C   UNL A   1      42.434  28.818  33.985  1.00  0.00     0.074 A 
ATOM     47  C   UNL A   1      43.015  27.668  33.328  1.00  0.00     0.031 C 
ATOM     48  C   UNL A   1      37.834  30.682  29.917  1.00  0.00     0.029 A 
ATOM     49  C   UNL A   1      38.185  31.276  31.205  1.00  0.00     0.049 A 
ATOM     50  H   UNL A   1      39.620  30.604  32.558  1.00  0.00     0.167 HD
ATOM     51  C   UNL A   1      42.857  29.311  35.174  1.00  0.00     0.037 A 
ATOM     52  C   UNL A   1      37.612  32.373  31.736  1.00  0.00     0.037 A 
ATOM     53  C   UNL A   1      42.300  30.469  35.822  1.00  0.00     0.049 A 
ATOM     54  C   UNL A   1      38.086  32.891  33.064  1.00  0.00     0.074 A 
ATOM     55  C   UNL A   1      42.687  31.058  37.014  1.00  0.00     0.029 A 
ATOM     56  N   UNL A   1      41.240  31.217  35.334  1.00  0.00    -0.354 N 
ATOM     57  N   UNL A   1      39.061  32.446  33.819  1.00  0.00    -0.248 NA
ATOM     58  C   UNL A   1      37.378  34.054  33.617  1.00  0.00     0.031 C 
ATOM     59  C   UNL A   1      41.842  32.145  37.261  1.00  0.00     0.029 A 
ATOM     60  C   UNL A   1      40.948  32.251  36.208  1.00  0.00     0.049 A 
ATOM     61  H   UNL A   1      40.765  31.039  34.490  1.00  0.00     0.167 HD
ATOM     62  C   UNL A   1      39.086  33.275  34.934  1.00  0.00     0.074 A 
ATOM     63  C   UNL A   1      38.041  34.261  34.748  1.00  0.00     0.031 C 
ATOM     64  C   UNL A   1      39.899  33.219  36.016  1.00  0.00     0.037 A 
BRANCH  51  65
ATOM     65  C   UNL A   1      43.990  28.600  35.857  1.00  0.00     0.058 A 
ATOM     66  C   UNL A   1      45.325  28.981  35.647  1.00  0.00     0.135 A 
ATOM     67  C   UNL A   1      43.739  27.561  36.767  1.00  0.00     0.135 A 
ATOM     68  F   UNL A   1      45.618  29.958  34.775  1.00  0.00    -0.206 F 
ATOM     69  C   UNL A   1      46.373  28.343  36.302  1.00  0.00     0.059 A 
ATOM     70  C   UNL A   1      44.771  26.921  37.448  1.00  0.00     0.059 A 
ATOM     71  F   UNL A   1      42.481  27.159  37.004  1.00  0.00    -0.206 F 
ATOM     72  C   UNL A   1      46.087  27.313  37.199  1.00  0.00     0.060 A 
BRANCH  72  73
ATOM     73  S   UNL A   1      47.458  26.499  38.045  1.00  0.00     0.124 S 
ATOM     74  O   UNL A   1      46.772  25.405  38.724  1.00  0.00    -0.237 OA
ATOM     75  O   UNL A   1      48.325  26.110  36.936  1.00  0.00    -0.237 OA
ATOM     76  O   UNL A   1      47.990  27.543  38.915  1.00  0.00    -0.744 OA
ENDBRANCH  72  73
ENDBRANCH  51  65
BRANCH  52  77
ATOM     77  C   UNL A   1      36.538  33.073  30.986  1.00  0.00     0.058 A 
ATOM     78  C   UNL A   1      35.202  32.993  31.405  1.00  0.00     0.135 A 
ATOM     79  C   UNL A   1      36.830  33.866  29.867  1.00  0.00     0.135 A 
ATOM     80  F   UNL A   1      34.875  32.240  32.465  1.00  0.00    -0.206 F 
ATOM     81  C   UNL A   1      34.191  33.678  30.741  1.00  0.00     0.059 A 
ATOM     82  C   UNL A   1      35.840  34.576  29.198  1.00  0.00     0.059 A 
ATOM     83  F   UNL A   1      38.097  33.981  29.438  1.00  0.00    -0.206 F 
ATOM     84  C   UNL A   1      34.521  34.474  29.641  1.00  0.00     0.060 A 
BRANCH  84  85
ATOM     85  S   UNL A   1      33.216  35.426  28.834  1.00  0.00     0.124 S 
ATOM     86  O   UNL A   1      33.989  36.390  28.061  1.00  0.00    -0.237 OA
ATOM     87  O   UNL A   1      32.518  34.401  28.064  1.00  0.00    -0.237 OA
ATOM     88  O   UNL A   1      32.461  35.973  29.959  1.00  0.00    -0.744 OA
ENDBRANCH  84  85
ENDBRANCH  52  77
BRANCH  64  89
ATOM     89  C   UNL A   1      39.693  34.244  37.094  1.00  0.00     0.058 A 
ATOM     90  C   UNL A   1      38.936  33.950  38.238  1.00  0.00     0.135 A 
ATOM     91  C   UNL A   1      40.315  35.499  37.020  1.00  0.00     0.135 A 
ATOM     92  F   UNL A   1      38.316  32.765  38.351  1.00  0.00    -0.206 F 
ATOM     93  C   UNL A   1      38.798  34.870  39.272  1.00  0.00     0.059 A 
ATOM     94  C   UNL A   1      40.205  36.429  38.049  1.00  0.00     0.059 A 
ATOM     95  F   UNL A   1      41.055  35.825  35.947  1.00  0.00    -0.206 F 
ATOM     96  C   UNL A   1      39.440  36.106  39.171  1.00  0.00     0.060 A 
BRANCH  96  97
ATOM     97  S   UNL A   1      39.299  37.270  40.544  1.00  0.00     0.124 S 
ATOM     98  O   UNL A   1      40.646  37.825  40.600  1.00  0.00    -0.237 OA
ATOM     99  O   UNL A   1      38.258  38.181  40.076  1.00  0.00    -0.237 OA
ATOM    100  O   UNL A   1      38.920  36.422  41.670  1.00  0.00    -0.744 OA
ENDBRANCH  96  97
ENDBRANCH  64  89
ENDBRANCH  38  39
ENDBRANCH  30  33
ENDBRANCH  28  29
ENDBRANCH   1  28
TORSDOF 15
ENDMDL
MODEL 2
REMARK VINA RESULT:     -13.2      6.586     12.113
REMARK SMILES O=C(CN1C(=O)/C(=C\c2c(F)cccc2Cl)Oc2ccccc21)NCCCNC(=O)c1ccc(-c2c3nc(c(-c4c(F)cc(S(=O)(=O)[O-])cc4F)c4ccc([nH]4)c(-c4c(F)cc(S(=O)(=O)[O-])cc4F)c4nc(c(-c5c(F)cc(S(=O)(=O)[O-])cc5F)c5ccc2[nH]5)C=C4)C=C3)cc1
REMARK SMILES IDX 26 1 25 2 24 3 1 4 2 5 3 7 4 8 5 9 23 10 6 11 7 12 18 13
REMARK SMILES IDX 22 14 8 15 17 16 19 17 21 18 20 19 9 20 10 21 15 22 11 23
REMARK SMILES IDX 12 24 14 25 16 26 13 27 27 28 28 29 29 30 30 32 31 33 32 34
REMARK SMILES IDX 96 35 33 36 95 37 34 38 35 39 36 40 89 41 37 42 94 43 88 44
REMARK SMILES IDX 90 45 38 46 93 47 87 48 86 49 39 51 73 52 52 53 72 54 53 55
REMARK SMILES IDX 56 56 71 57 91 58 54 59 55 60 70 62 92 63 57 64 40 65 41 66
REMARK SMILES IDX 50 67 42 68 43 69 49 70 51 71 44 72 45 73 46 74 47 75 48 76
REMARK SMILES IDX 74 77 75 78 84 79 76 80 77 81 83 82 85 83 78 84 79 85 80 86
REMARK SMILES IDX 81 87 82 88 58 89 59 90 68 91 60 92 61 93 67 94 69 95 62 96
REMARK SMILES IDX 63 97 64 98 65 99 66 100
REMARK H PARENT 24 6 28 31 90 50 56 61
REMARK Flexibility Score: inf
ROOT
ATOM      1  C   UNL A   1      34.672  31.495  27.639  1.00  0.00     0.042 C 
ENDROOT
BRANCH   1   2
ATOM      2  C   UNL A   1      34.418  30.000  27.431  1.00  0.00     0.117 C 
BRANCH   2   3
ATOM      3  N   UNL A   1      34.050  29.648  26.073  1.00  0.00    -0.354 N 
ATOM      4  O   UNL A   1      31.813  29.950  26.385  1.00  0.00    -0.273 OA
ATOM      5  C   UNL A   1      32.742  29.642  25.640  1.00  0.00     0.240 C 
ATOM      6  H   UNL A   1      34.761  29.403  25.438  1.00  0.00     0.163 HD
BRANCH   5   7
ATOM      7  C   UNL A   1      32.476  28.978  24.279  1.00  0.00     0.226 C 
BRANCH   7   8
ATOM      8  N   UNL A   1      31.236  28.223  24.092  1.00  0.00    -0.293 N 
ATOM      9  C   UNL A   1      31.265  26.877  24.441  1.00  0.00     0.294 C 
ATOM     10  C   UNL A   1      30.063  28.795  23.527  1.00  0.00     0.088 A 
ATOM     11  O   UNL A   1      32.177  26.361  25.077  1.00  0.00    -0.265 OA
ATOM     12  C   UNL A   1      30.109  26.071  23.920  1.00  0.00     0.193 C 
ATOM     13  C   UNL A   1      28.897  28.018  23.450  1.00  0.00     0.151 A 
ATOM     14  C   UNL A   1      30.000  30.126  23.096  1.00  0.00     0.030 A 
ATOM     15  C   UNL A   1      30.263  24.802  23.502  1.00  0.00     0.065 C 
ATOM     16  O   UNL A   1      28.873  26.684  23.773  1.00  0.00    -0.449 OA
ATOM     17  C   UNL A   1      27.690  28.568  23.014  1.00  0.00     0.049 A 
ATOM     18  C   UNL A   1      28.793  30.679  22.657  1.00  0.00     0.002 A 
ATOM     19  C   UNL A   1      27.637  29.904  22.626  1.00  0.00     0.004 A 
BRANCH  15  20
ATOM     20  C   UNL A   1      31.553  24.102  23.403  1.00  0.00     0.033 A 
ATOM     21  C   UNL A   1      31.882  23.118  24.340  1.00  0.00     0.132 A 
ATOM     22  C   UNL A   1      32.510  24.432  22.427  1.00  0.00     0.051 A 
ATOM     23  F   UNL A   1      30.992  22.758  25.279  1.00  0.00    -0.206 F 
ATOM     24  C   UNL A   1      33.130  22.496  24.336  1.00  0.00     0.040 A 
ATOM     25  C   UNL A   1      33.762  23.804  22.412  1.00  0.00     0.021 A 
ATOM     26  Cl  UNL A   1      32.195  25.618  21.206  1.00  0.00    -0.084 Cl
ATOM     27  C   UNL A   1      34.075  22.843  23.373  1.00  0.00     0.005 A 
ENDBRANCH  15  20
ENDBRANCH   7   8
ENDBRANCH   5   7
ENDBRANCH   2   3
ENDBRANCH   1   2
BRANCH   1  28
ATOM     28  C   UNL A   1      35.697  31.853  28.713  1.00  0.00     0.118 C 
BRANCH  28  29
ATOM     29  N   UNL A   1      35.581  31.065  29.931  1.00  0.00    -0.352 N 
ATOM     30  C   UNL A   1      36.480  30.206  30.519  1.00  0.00     0.251 C 
ATOM     31  H   UNL A   1      34.726  31.162  30.409  1.00  0.00     0.163 HD
ATOM     32  O   UNL A   1      36.139  29.569  31.513  1.00  0.00    -0.269 OA
BRANCH  30  33
ATOM     33  C   UNL A   1      37.839  30.015  29.954  1.00  0.00     0.039 A 
ATOM     34  C   UNL A   1      38.047  29.862  28.582  1.00  0.00     0.014 A 
ATOM     35  C   UNL A   1      38.937  30.011  30.824  1.00  0.00     0.014 A 
ATOM     36  C   UNL A   1      39.320  29.558  28.101  1.00  0.00     0.010 A 
ATOM     37  C   UNL A   1      40.224  29.767  30.331  1.00  0.00     0.010 A 
ATOM     38  C   UNL A   1      40.421  29.488  28.971  1.00  0.00    -0.014 A 
BRANCH  38  39
ATOM     39  C   UNL A   1      41.750  29.087  28.435  1.00  0.00     0.031 A 
ATOM     40  C   UNL A   1      42.900  30.061  28.428  1.00  0.00     0.074 A 
ATOM     41  C   UNL A   1      41.950  27.818  28.028  1.00  0.00     0.049 A 
ATOM     42  N   UNL A   1      44.152  29.855  28.102  1.00  0.00    -0.248 NA
ATOM     43  C   UNL A   1      42.610  31.445  28.836  1.00  0.00     0.031 C 
ATOM     44  C   UNL A   1      40.919  26.779  27.975  1.00  0.00     0.029 A 
ATOM     45  N   UNL A   1      43.090  27.176  27.613  1.00  0.00    -0.354 N 
ATOM     46  C   UNL A   1      44.795  31.077  28.262  1.00  0.00     0.074 A 
ATOM     47  C   UNL A   1      43.789  32.030  28.677  1.00  0.00     0.031 C 
ATOM     48  C   UNL A   1      41.487  25.617  27.612  1.00  0.00     0.029 A 
ATOM     49  C   UNL A   1      42.912  25.834  27.374  1.00  0.00     0.049 A 
ATOM     50  H   UNL A   1      43.955  27.634  27.500  1.00  0.00     0.167 HD
ATOM     51  C   UNL A   1      46.106  31.376  28.098  1.00  0.00     0.037 A 
ATOM     52  C   UNL A   1      43.793  24.881  27.015  1.00  0.00     0.037 A 
ATOM     53  C   UNL A   1      47.117  30.429  27.708  1.00  0.00     0.049 A 
ATOM     54  C   UNL A   1      45.240  25.240  26.823  1.00  0.00     0.074 A 
ATOM     55  C   UNL A   1      48.476  30.637  27.549  1.00  0.00     0.029 A 
ATOM     56  N   UNL A   1      46.882  29.093  27.420  1.00  0.00    -0.354 N 
ATOM     57  N   UNL A   1      45.830  26.396  27.003  1.00  0.00    -0.248 NA
ATOM     58  C   UNL A   1      46.138  24.168  26.372  1.00  0.00     0.031 C 
ATOM     59  C   UNL A   1      49.059  29.434  27.135  1.00  0.00     0.029 A 
ATOM     60  C   UNL A   1      48.067  28.470  27.066  1.00  0.00     0.049 A 
ATOM     61  H   UNL A   1      46.002  28.653  27.460  1.00  0.00     0.167 HD
ATOM     62  C   UNL A   1      47.168  26.192  26.689  1.00  0.00     0.074 A 
ATOM     63  C   UNL A   1      47.306  24.796  26.327  1.00  0.00     0.031 C 
ATOM     64  C   UNL A   1      48.188  27.082  26.698  1.00  0.00     0.037 A 
BRANCH  51  65
ATOM     65  C   UNL A   1      46.532  32.795  28.348  1.00  0.00     0.058 A 
ATOM     66  C   UNL A   1      46.507  33.756  27.326  1.00  0.00     0.135 A 
ATOM     67  C   UNL A   1      46.921  33.210  29.632  1.00  0.00     0.135 A 
ATOM     68  F   UNL A   1      46.157  33.406  26.078  1.00  0.00    -0.206 F 
ATOM     69  C   UNL A   1      46.873  35.077  27.563  1.00  0.00     0.059 A 
ATOM     70  C   UNL A   1      47.273  34.531  29.896  1.00  0.00     0.059 A 
ATOM     71  F   UNL A   1      46.961  32.330  30.643  1.00  0.00    -0.206 F 
ATOM     72  C   UNL A   1      47.256  35.455  28.851  1.00  0.00     0.060 A 
BRANCH  72  73
ATOM     73  S   UNL A   1      47.722  37.174  29.144  1.00  0.00     0.124 S 
ATOM     74  O   UNL A   1      46.816  37.878  28.242  1.00  0.00    -0.237 OA
ATOM     75  O   UNL A   1      47.447  37.335  30.569  1.00  0.00    -0.237 OA
ATOM     76  O   UNL A   1      49.133  37.213  28.773  1.00  0.00    -0.744 OA
ENDBRANCH  72  73
ENDBRANCH  51  65
BRANCH  52  77
ATOM     77  C   UNL A   1      43.328  23.481  26.843  1.00  0.00     0.058 A 
ATOM     78  C   UNL A   1      43.162  22.933  25.563  1.00  0.00     0.135 A 
ATOM     79  C   UNL A   1      43.080  22.656  27.950  1.00  0.00     0.135 A 
ATOM     80  F   UNL A   1      43.379  23.688  24.476  1.00  0.00    -0.206 F 
ATOM     81  C   UNL A   1      42.770  21.611  25.385  1.00  0.00     0.059 A 
ATOM     82  C   UNL A   1      42.707  21.326  27.797  1.00  0.00     0.059 A 
ATOM     83  F   UNL A   1      43.238  23.135  29.193  1.00  0.00    -0.206 F 
ATOM     84  C   UNL A   1      42.551  20.812  26.510  1.00  0.00     0.060 A 
BRANCH  84  85
ATOM     85  S   UNL A   1      42.123  19.074  26.271  1.00  0.00     0.124 S 
ATOM     86  O   UNL A   1      42.280  18.544  27.620  1.00  0.00    -0.237 OA
ATOM     87  O   UNL A   1      40.754  19.160  25.773  1.00  0.00    -0.237 OA
ATOM     88  O   UNL A   1      43.108  18.621  25.293  1.00  0.00    -0.744 OA
ENDBRANCH  84  85
ENDBRANCH  52  77
BRANCH  64  89
ATOM     89  C   UNL A   1      49.547  26.586  26.295  1.00  0.00     0.058 A 
ATOM     90  C   UNL A   1      50.047  26.812  25.003  1.00  0.00     0.135 A 
ATOM     91  C   UNL A   1      50.384  25.950  27.224  1.00  0.00     0.135 A 
ATOM     92  F   UNL A   1      49.282  27.411  24.078  1.00  0.00    -0.206 F 
ATOM     93  C   UNL A   1      51.331  26.417  24.644  1.00  0.00     0.059 A 
ATOM     94  C   UNL A   1      51.678  25.561  26.892  1.00  0.00     0.059 A 
ATOM     95  F   UNL A   1      49.953  25.718  28.475  1.00  0.00    -0.206 F 
ATOM     96  C   UNL A   1      52.142  25.795  25.597  1.00  0.00     0.060 A 
BRANCH  96  97
ATOM     97  S   UNL A   1      53.826  25.336  25.134  1.00  0.00     0.124 S 
ATOM     98  O   UNL A   1      54.610  26.041  26.142  1.00  0.00    -0.237 OA
ATOM     99  O   UNL A   1      53.799  23.882  25.256  1.00  0.00    -0.237 OA
ATOM    100  O   UNL A   1      53.953  25.842  23.771  1.00  0.00    -0.744 OA
ENDBRANCH  96  97
ENDBRANCH  64  89
ENDBRANCH  38  39
ENDBRANCH  30  33
ENDBRANCH  28  29
ENDBRANCH   1  28
TORSDOF 15
ENDMDL
MODEL 3
REMARK VINA RESULT:     -12.7      1.466      3.298
REMARK SMILES O=C(CN1C(=O)/C(=C\c2c(F)cccc2Cl)Oc2ccccc21)NCCCNC(=O)c1ccc(-c2c3nc(c(-c4c(F)cc(S(=O)(=O)[O-])cc4F)c4ccc([nH]4)c(-c4c(F)cc(S(=O)(=O)[O-])cc4F)c4nc(c(-c5c(F)cc(S(=O)(=O)[O-])cc5F)c5ccc2[nH]5)C=C4)C=C3)cc1
REMARK SMILES IDX 26 1 25 2 24 3 1 4 2 5 3 7 4 8 5 9 23 10 6 11 7 12 18 13
REMARK SMILES IDX 22 14 8 15 17 16 19 17 21 18 20 19 9 20 10 21 15 22 11 23
REMARK SMILES IDX 12 24 14 25 16 26 13 27 27 28 28 29 29 30 30 32 31 33 32 34
REMARK SMILES IDX 96 35 33 36 95 37 34 38 35 39 36 40 89 41 37 42 94 43 88 44
REMARK SMILES IDX 90 45 38 46 93 47 87 48 86 49 39 51 73 52 52 53 72 54 53 55
REMARK SMILES IDX 56 56 71 57 91 58 54 59 55 60 70 62 92 63 57 64 40 65 41 66
REMARK SMILES IDX 50 67 42 68 43 69 49 70 51 71 44 72 45 73 46 74 47 75 48 76
REMARK SMILES IDX 74 77 75 78 84 79 76 80 77 81 83 82 85 83 78 84 79 85 80 86
REMARK SMILES IDX 81 87 82 88 58 89 59 90 68 91 60 92 61 93 67 94 69 95 62 96
REMARK SMILES IDX 63 97 64 98 65 99 66 100
REMARK H PARENT 24 6 28 31 90 50 56 61
REMARK Flexibility Score: inf
ROOT
ATOM      1  C   UNL A   1      40.549  21.963  26.103  1.00  0.00     0.042 C 
ENDROOT
BRANCH   1   2
ATOM      2  C   UNL A   1      39.100  21.562  26.392  1.00  0.00     0.117 C 
BRANCH   2   3
ATOM      3  N   UNL A   1      38.215  21.684  25.251  1.00  0.00    -0.354 N 
ATOM      4  O   UNL A   1      36.937  23.337  26.160  1.00  0.00    -0.273 OA
ATOM      5  C   UNL A   1      37.168  22.579  25.219  1.00  0.00     0.240 C 
ATOM      6  H   UNL A   1      38.367  21.104  24.470  1.00  0.00     0.163 HD
BRANCH   5   7
ATOM      7  C   UNL A   1      36.150  22.401  24.082  1.00  0.00     0.226 C 
BRANCH   7   8
ATOM      8  N   UNL A   1      34.723  22.468  24.395  1.00  0.00    -0.293 N 
ATOM      9  C   UNL A   1      34.151  21.330  24.953  1.00  0.00     0.294 C 
ATOM     10  C   UNL A   1      33.920  23.605  24.097  1.00  0.00     0.088 A 
ATOM     11  O   UNL A   1      34.803  20.385  25.382  1.00  0.00    -0.265 OA
ATOM     12  C   UNL A   1      32.648  21.312  24.938  1.00  0.00     0.193 C 
ATOM     13  C   UNL A   1      32.575  23.611  24.497  1.00  0.00     0.151 A 
ATOM     14  C   UNL A   1      34.429  24.750  23.474  1.00  0.00     0.030 A 
ATOM     15  C   UNL A   1      31.957  20.178  24.725  1.00  0.00     0.065 C 
ATOM     16  O   UNL A   1      31.960  22.512  25.044  1.00  0.00    -0.449 OA
ATOM     17  C   UNL A   1      31.778  24.745  24.335  1.00  0.00     0.049 A 
ATOM     18  C   UNL A   1      33.633  25.887  23.309  1.00  0.00     0.002 A 
ATOM     19  C   UNL A   1      32.312  25.889  23.748  1.00  0.00     0.004 A 
BRANCH  15  20
ATOM     20  C   UNL A   1      32.559  18.880  24.386  1.00  0.00     0.033 A 
ATOM     21  C   UNL A   1      32.993  18.029  25.407  1.00  0.00     0.132 A 
ATOM     22  C   UNL A   1      32.777  18.481  23.055  1.00  0.00     0.051 A 
ATOM     23  F   UNL A   1      32.790  18.361  26.691  1.00  0.00    -0.206 F 
ATOM     24  C   UNL A   1      33.650  16.831  25.127  1.00  0.00     0.040 A 
ATOM     25  C   UNL A   1      33.428  17.275  22.767  1.00  0.00     0.021 A 
ATOM     26  Cl  UNL A   1      32.257  19.448  21.717  1.00  0.00    -0.084 Cl
ATOM     27  C   UNL A   1      33.873  16.455  23.804  1.00  0.00     0.005 A 
ENDBRANCH  15  20
ENDBRANCH   7   8
ENDBRANCH   5   7
ENDBRANCH   2   3
ENDBRANCH   1   2
BRANCH   1  28
ATOM     28  C   UNL A   1      41.010  23.284  26.715  1.00  0.00     0.118 C 
BRANCH  28  29
ATOM     29  N   UNL A   1      41.498  24.250  25.744  1.00  0.00    -0.352 N 
ATOM     30  C   UNL A   1      41.712  25.604  25.871  1.00  0.00     0.251 C 
ATOM     31  H   UNL A   1      41.709  23.878  24.857  1.00  0.00     0.163 HD
ATOM     32  O   UNL A   1      42.050  26.253  24.884  1.00  0.00    -0.269 OA
BRANCH  30  33
ATOM     33  C   UNL A   1      41.510  26.292  27.170  1.00  0.00     0.039 A 
ATOM     34  C   UNL A   1      40.448  25.964  28.015  1.00  0.00     0.014 A 
ATOM     35  C   UNL A   1      42.425  27.278  27.560  1.00  0.00     0.014 A 
ATOM     36  C   UNL A   1      40.217  26.718  29.165  1.00  0.00     0.010 A 
ATOM     37  C   UNL A   1      42.225  27.993  28.747  1.00  0.00     0.010 A 
ATOM     38  C   UNL A   1      41.091  27.753  29.536  1.00  0.00    -0.014 A 
BRANCH  38  39
ATOM     39  C   UNL A   1      40.772  28.586  30.728  1.00  0.00     0.031 A 
ATOM     40  C   UNL A   1      41.631  28.516  31.965  1.00  0.00     0.074 A 
ATOM     41  C   UNL A   1      39.756  29.469  30.672  1.00  0.00     0.049 A 
ATOM     42  N   UNL A   1      41.570  29.243  33.052  1.00  0.00    -0.248 NA
ATOM     43  C   UNL A   1      42.693  27.498  31.987  1.00  0.00     0.031 C 
ATOM     44  C   UNL A   1      38.843  29.631  29.539  1.00  0.00     0.029 A 
ATOM     45  N   UNL A   1      39.340  30.419  31.572  1.00  0.00    -0.354 N 
ATOM     46  C   UNL A   1      42.578  28.772  33.885  1.00  0.00     0.074 A 
ATOM     47  C   UNL A   1      43.212  27.670  33.195  1.00  0.00     0.031 C 
ATOM     48  C   UNL A   1      38.015  30.659  29.787  1.00  0.00     0.029 A 
ATOM     49  C   UNL A   1      38.315  31.208  31.107  1.00  0.00     0.049 A 
ATOM     50  H   UNL A   1      39.740  30.525  32.466  1.00  0.00     0.167 HD
ATOM     51  C   UNL A   1      42.955  29.226  35.105  1.00  0.00     0.037 A 
ATOM     52  C   UNL A   1      37.693  32.262  31.670  1.00  0.00     0.037 A 
ATOM     53  C   UNL A   1      42.344  30.336  35.787  1.00  0.00     0.049 A 
ATOM     54  C   UNL A   1      38.118  32.737  33.030  1.00  0.00     0.074 A 
ATOM     55  C   UNL A   1      42.684  30.885  37.012  1.00  0.00     0.029 A 
ATOM     56  N   UNL A   1      41.272  31.069  35.305  1.00  0.00    -0.354 N 
ATOM     57  N   UNL A   1      39.089  32.291  33.790  1.00  0.00    -0.248 NA
ATOM     58  C   UNL A   1      37.358  33.851  33.614  1.00  0.00     0.031 C 
ATOM     59  C   UNL A   1      41.796  31.932  37.284  1.00  0.00     0.029 A 
ATOM     60  C   UNL A   1      40.925  32.054  36.215  1.00  0.00     0.049 A 
ATOM     61  H   UNL A   1      40.823  30.913  34.442  1.00  0.00     0.167 HD
ATOM     62  C   UNL A   1      39.060  33.071  34.940  1.00  0.00     0.074 A 
ATOM     63  C   UNL A   1      37.987  34.030  34.769  1.00  0.00     0.031 C 
ATOM     64  C   UNL A   1      39.849  32.995  36.038  1.00  0.00     0.037 A 
BRANCH  51  65
ATOM     65  C   UNL A   1      44.096  28.523  35.785  1.00  0.00     0.058 A 
ATOM     66  C   UNL A   1      43.875  27.440  36.649  1.00  0.00     0.135 A 
ATOM     67  C   UNL A   1      45.423  28.904  35.534  1.00  0.00     0.135 A 
ATOM     68  F   UNL A   1      42.623  27.047  36.933  1.00  0.00    -0.206 F 
ATOM     69  C   UNL A   1      44.931  26.769  37.257  1.00  0.00     0.059 A 
ATOM     70  C   UNL A   1      46.497  28.236  36.116  1.00  0.00     0.059 A 
ATOM     71  F   UNL A   1      45.688  29.934  34.715  1.00  0.00    -0.206 F 
ATOM     72  C   UNL A   1      46.239  27.175  36.986  1.00  0.00     0.060 A 
BRANCH  72  73
ATOM     73  S   UNL A   1      47.599  26.292  37.777  1.00  0.00     0.124 S 
ATOM     74  O   UNL A   1      46.904  25.148  38.359  1.00  0.00    -0.237 OA
ATOM     75  O   UNL A   1      48.477  25.991  36.650  1.00  0.00    -0.237 OA
ATOM     76  O   UNL A   1      48.124  27.261  38.734  1.00  0.00    -0.744 OA
ENDBRANCH  72  73
ENDBRANCH  51  65
BRANCH  52  77
ATOM     77  C   UNL A   1      36.613  32.958  30.924  1.00  0.00     0.058 A 
ATOM     78  C   UNL A   1      35.267  32.766  31.265  1.00  0.00     0.135 A 
ATOM     79  C   UNL A   1      36.909  33.856  29.888  1.00  0.00     0.135 A 
ATOM     80  F   UNL A   1      34.938  31.909  32.244  1.00  0.00    -0.206 F 
ATOM     81  C   UNL A   1      34.248  33.444  30.607  1.00  0.00     0.059 A 
ATOM     82  C   UNL A   1      35.908  34.561  29.228  1.00  0.00     0.059 A 
ATOM     83  F   UNL A   1      38.184  34.080  29.536  1.00  0.00    -0.206 F 
ATOM     84  C   UNL A   1      34.579  34.346  29.592  1.00  0.00     0.060 A 
BRANCH  84  85
ATOM     85  S   UNL A   1      33.256  35.285  28.798  1.00  0.00     0.124 S 
ATOM     86  O   UNL A   1      34.011  36.280  28.047  1.00  0.00    -0.237 OA
ATOM     87  O   UNL A   1      32.585  34.259  28.006  1.00  0.00    -0.237 OA
ATOM     88  O   UNL A   1      32.486  35.794  29.929  1.00  0.00    -0.744 OA
ENDBRANCH  84  85
ENDBRANCH  52  77
BRANCH  64  89
ATOM     89  C   UNL A   1      39.582  33.965  37.153  1.00  0.00     0.058 A 
ATOM     90  C   UNL A   1      38.826  33.591  38.274  1.00  0.00     0.135 A 
ATOM     91  C   UNL A   1      40.147  35.250  37.137  1.00  0.00     0.135 A 
ATOM     92  F   UNL A   1      38.261  32.375  38.331  1.00  0.00    -0.206 F 
ATOM     93  C   UNL A   1      38.634  34.461  39.342  1.00  0.00     0.059 A 
ATOM     94  C   UNL A   1      39.983  36.130  38.202  1.00  0.00     0.059 A 
ATOM     95  F   UNL A   1      40.884  35.652  36.089  1.00  0.00    -0.206 F 
ATOM     96  C   UNL A   1      39.220  35.728  39.299  1.00  0.00     0.060 A 
BRANCH  96  97
ATOM     97  S   UNL A   1      39.008  36.828  40.715  1.00  0.00     0.124 S 
ATOM     98  O   UNL A   1      38.161  36.024  41.588  1.00  0.00    -0.237 OA
ATOM     99  O   UNL A   1      40.382  37.022  41.170  1.00  0.00    -0.237 OA
ATOM    100  O   UNL A   1      38.375  38.008  40.136  1.00  0.00    -0.744 OA
ENDBRANCH  96  97
ENDBRANCH  64  89
ENDBRANCH  38  39
ENDBRANCH  30  33
ENDBRANCH  28  29
ENDBRANCH   1  28
TORSDOF 15
ENDMDL
