MODEL 1
REMARK VINA RESULT:     -13.7      0.000      0.000
REMARK SMILES COC(=O)c1c(NC(=O)[C@@H]2C[C@@H]2C(=O)NCCCNC(=O)c2ccc(-c3c4nc(c(-c5c(F)cc(S(=O)(=O)[O-])cc5F)c5ccc([nH]5)c(-c5c(F)cc(S(=O)(=O)[O-])cc5F)c5nc(c(-c6c(F)cc(S(=O)(=O)[O-])cc6F)c6ccc3[nH]6)C=C5)C=C4)cc2)sc2c1CC[N@@H+](Cc1ccccc1)C2
REMARK SMILES IDX 16 1 15 2 13 3 14 4 12 6 10 7 11 8 8 9 7 10 9 12 6 13 5 14
REMARK SMILES IDX 90 15 88 16 89 17 91 18 101 19 92 20 93 21 3 23 4 24 2 25
REMARK SMILES IDX 1 26 94 27 95 28 96 29 100 30 97 31 99 32 98 33 17 34 18 35
REMARK SMILES IDX 19 36 20 37 21 39 22 40 23 41 87 42 24 43 86 44 25 45 26 46
REMARK SMILES IDX 27 47 80 48 28 49 85 50 79 51 81 52 29 53 84 54 78 55 77 56
REMARK SMILES IDX 30 58 64 59 43 60 63 61 44 62 47 63 62 64 82 65 45 66 46 67
REMARK SMILES IDX 61 69 83 70 48 71 31 72 32 73 41 74 33 75 34 76 40 77 42 78
REMARK SMILES IDX 35 79 36 80 37 81 38 82 39 83 65 84 66 85 75 86 67 87 68 88
REMARK SMILES IDX 74 89 76 90 69 91 70 92 71 93 72 94 73 95 49 96 50 97 59 98
REMARK SMILES IDX 51 99 52 100 58 101 60 102 53 103 54 104 55 105 56 106
REMARK SMILES IDX 57 107
REMARK H PARENT 15 5 7 11 93 22 19 38 81 57 47 68
REMARK Flexibility Score: inf
ROOT
ATOM      1  C   UNL A   1      36.669  20.818  25.177  1.00  0.00     0.117 C 
ENDROOT
BRANCH   1   2
ATOM      2  N   UNL A   1      36.215  19.472  24.938  1.00  0.00    -0.356 N 
ATOM      3  C   UNL A   1      34.980  18.959  24.680  1.00  0.00     0.223 C 
ATOM      4  O   UNL A   1      34.925  17.780  24.335  1.00  0.00    -0.275 OA
ATOM      5  H   UNL A   1      36.931  18.796  24.967  1.00  0.00     0.163 HD
BRANCH   3   6
ATOM      6  C   UNL A   1      33.685  19.683  24.775  1.00  0.00     0.091 C 
ATOM      7  C   UNL A   1      32.971  20.691  25.636  1.00  0.00     0.092 C 
ATOM      8  C   UNL A   1      32.917  19.250  26.021  1.00  0.00     0.028 C 
BRANCH   7   9
ATOM      9  C   UNL A   1      33.523  21.726  26.506  1.00  0.00     0.228 C 
ATOM     10  N   UNL A   1      33.398  23.059  26.243  1.00  0.00    -0.317 N 
ATOM     11  H   UNL A   1      33.923  23.616  26.863  1.00  0.00     0.170 HD
ATOM     12  O   UNL A   1      34.110  21.390  27.534  1.00  0.00    -0.274 OA
BRANCH  10  13
ATOM     13  C   UNL A   1      32.714  23.805  25.317  1.00  0.00     0.110 A 
ATOM     14  C   UNL A   1      31.553  24.550  25.198  1.00  0.00     0.098 A 
ATOM     15  C   UNL A   1      31.539  25.235  23.914  1.00  0.00    -0.006 A 
ATOM     16  S   UNL A   1      33.628  23.775  23.855  1.00  0.00    -0.116 S 
ATOM     17  C   UNL A   1      32.657  24.962  23.157  1.00  0.00     0.065 A 
ATOM     18  C   UNL A   1      30.597  26.338  23.504  1.00  0.00     0.099 C 
ATOM     19  C   UNL A   1      33.063  25.732  21.942  1.00  0.00     0.310 C 
ATOM     20  C   UNL A   1      31.123  27.154  22.293  1.00  0.00     0.267 C 
ATOM     21  N   UNL A   1      32.571  27.120  22.015  1.00  0.00    -0.326 N 
ATOM     22  H   UNL A   1      32.683  27.522  21.084  1.00  0.00     0.348 HD
BRANCH  14  23
ATOM     23  C   UNL A   1      30.533  24.817  26.198  1.00  0.00     0.341 C 
ATOM     24  O   UNL A   1      29.856  25.841  26.193  1.00  0.00    -0.246 OA
BRANCH  23  25
ATOM     25  O   UNL A   1      30.489  23.882  27.185  1.00  0.00    -0.465 OA
ATOM     26  C   UNL A   1      29.741  22.705  26.862  1.00  0.00     0.282 C 
ENDBRANCH  23  25
ENDBRANCH  14  23
BRANCH  21  27
ATOM     27  C   UNL A   1      33.406  28.044  22.804  1.00  0.00     0.299 C 
BRANCH  27  28
ATOM     28  C   UNL A   1      33.065  28.290  24.261  1.00  0.00     0.006 A 
ATOM     29  C   UNL A   1      32.103  29.245  24.625  1.00  0.00     0.009 A 
ATOM     30  C   UNL A   1      33.679  27.548  25.282  1.00  0.00     0.009 A 
ATOM     31  C   UNL A   1      31.703  29.384  25.956  1.00  0.00     0.001 A 
ATOM     32  C   UNL A   1      33.263  27.670  26.610  1.00  0.00     0.001 A 
ATOM     33  C   UNL A   1      32.265  28.580  26.944  1.00  0.00     0.000 A 
ENDBRANCH  27  28
ENDBRANCH  21  27
ENDBRANCH  10  13
ENDBRANCH   7   9
ENDBRANCH   3   6
ENDBRANCH   1   2
BRANCH   1  34
ATOM     34  C   UNL A   1      38.183  20.991  25.059  1.00  0.00     0.042 C 
BRANCH  34  35
ATOM     35  C   UNL A   1      38.779  22.041  25.963  1.00  0.00     0.118 C 
BRANCH  35  36
ATOM     36  N   UNL A   1      39.828  21.494  26.837  1.00  0.00    -0.352 N 
ATOM     37  C   UNL A   1      40.893  22.160  27.425  1.00  0.00     0.251 C 
ATOM     38  H   UNL A   1      39.766  20.530  27.029  1.00  0.00     0.163 HD
ATOM     39  O   UNL A   1      41.891  21.553  27.792  1.00  0.00    -0.269 OA
BRANCH  37  40
ATOM     40  C   UNL A   1      40.779  23.618  27.582  1.00  0.00     0.039 A 
ATOM     41  C   UNL A   1      39.560  24.282  27.712  1.00  0.00     0.014 A 
ATOM     42  C   UNL A   1      41.976  24.288  27.766  1.00  0.00     0.014 A 
ATOM     43  C   UNL A   1      39.579  25.609  28.138  1.00  0.00     0.010 A 
ATOM     44  C   UNL A   1      41.956  25.427  28.508  1.00  0.00     0.010 A 
ATOM     45  C   UNL A   1      40.792  26.169  28.572  1.00  0.00    -0.014 A 
BRANCH  45  46
ATOM     46  C   UNL A   1      40.905  27.520  29.102  1.00  0.00     0.031 A 
ATOM     47  C   UNL A   1      41.952  28.369  28.482  1.00  0.00     0.074 A 
ATOM     48  C   UNL A   1      40.026  28.041  29.989  1.00  0.00     0.049 A 
ATOM     49  N   UNL A   1      43.103  28.673  28.977  1.00  0.00    -0.248 NA
ATOM     50  C   UNL A   1      41.764  28.811  27.094  1.00  0.00     0.031 C 
ATOM     51  C   UNL A   1      38.750  27.501  30.491  1.00  0.00     0.029 A 
ATOM     52  N   UNL A   1      40.077  29.256  30.591  1.00  0.00    -0.354 N 
ATOM     53  C   UNL A   1      43.710  29.521  28.057  1.00  0.00     0.074 A 
ATOM     54  C   UNL A   1      42.928  29.420  26.852  1.00  0.00     0.031 C 
ATOM     55  C   UNL A   1      38.054  28.471  31.120  1.00  0.00     0.029 A 
ATOM     56  C   UNL A   1      38.918  29.623  31.260  1.00  0.00     0.049 A 
ATOM     57  H   UNL A   1      40.874  29.832  30.555  1.00  0.00     0.167 HD
ATOM     58  C   UNL A   1      44.692  30.390  28.434  1.00  0.00     0.037 A 
ATOM     59  C   UNL A   1      38.689  30.791  31.901  1.00  0.00     0.037 A 
ATOM     60  C   UNL A   1      45.163  30.090  29.766  1.00  0.00     0.049 A 
ATOM     61  C   UNL A   1      40.024  31.367  32.212  1.00  0.00     0.074 A 
ATOM     62  C   UNL A   1      45.780  29.000  30.350  1.00  0.00     0.029 A 
ATOM     63  N   UNL A   1      44.648  30.829  30.806  1.00  0.00    -0.354 N 
ATOM     64  N   UNL A   1      40.875  30.818  33.039  1.00  0.00    -0.248 NA
ATOM     65  C   UNL A   1      40.604  32.287  31.245  1.00  0.00     0.031 C 
ATOM     66  C   UNL A   1      45.183  28.888  31.640  1.00  0.00     0.029 A 
ATOM     67  C   UNL A   1      44.289  29.950  31.798  1.00  0.00     0.049 A 
ATOM     68  H   UNL A   1      44.554  31.809  30.834  1.00  0.00     0.167 HD
ATOM     69  C   UNL A   1      42.120  30.994  32.448  1.00  0.00     0.074 A 
ATOM     70  C   UNL A   1      41.896  31.980  31.390  1.00  0.00     0.031 C 
ATOM     71  C   UNL A   1      43.153  30.131  32.682  1.00  0.00     0.037 A 
BRANCH  58  72
ATOM     72  C   UNL A   1      45.009  31.697  27.752  1.00  0.00     0.058 A 
ATOM     73  C   UNL A   1      46.235  31.841  27.069  1.00  0.00     0.135 A 
ATOM     74  C   UNL A   1      44.285  32.891  27.960  1.00  0.00     0.135 A 
ATOM     75  F   UNL A   1      47.007  30.772  26.814  1.00  0.00    -0.206 F 
ATOM     76  C   UNL A   1      46.740  33.086  26.693  1.00  0.00     0.059 A 
ATOM     77  C   UNL A   1      44.743  34.136  27.544  1.00  0.00     0.059 A 
ATOM     78  F   UNL A   1      43.149  32.922  28.666  1.00  0.00    -0.206 F 
ATOM     79  C   UNL A   1      45.993  34.230  26.953  1.00  0.00     0.060 A 
BRANCH  79  80
ATOM     80  S   UNL A   1      46.696  35.847  26.586  1.00  0.00     0.124 S 
ATOM     81  O   UNL A   1      47.416  35.575  25.348  1.00  0.00    -0.237 OA
ATOM     82  O   UNL A   1      45.501  36.677  26.462  1.00  0.00    -0.237 OA
ATOM     83  O   UNL A   1      47.526  36.125  27.753  1.00  0.00    -0.744 OA
ENDBRANCH  79  80
ENDBRANCH  58  72
BRANCH  59  84
ATOM     84  C   UNL A   1      37.428  31.570  31.915  1.00  0.00     0.058 A 
ATOM     85  C   UNL A   1      36.791  31.894  33.123  1.00  0.00     0.135 A 
ATOM     86  C   UNL A   1      36.973  32.253  30.766  1.00  0.00     0.135 A 
ATOM     87  F   UNL A   1      37.171  31.300  34.265  1.00  0.00    -0.206 F 
ATOM     88  C   UNL A   1      35.802  32.880  33.202  1.00  0.00     0.059 A 
ATOM     89  C   UNL A   1      35.984  33.234  30.818  1.00  0.00     0.059 A 
ATOM     90  F   UNL A   1      37.548  32.052  29.570  1.00  0.00    -0.206 F 
ATOM     91  C   UNL A   1      35.422  33.563  32.045  1.00  0.00     0.060 A 
BRANCH  91  92
ATOM     92  S   UNL A   1      34.288  34.966  32.177  1.00  0.00     0.124 S 
ATOM     93  O   UNL A   1      33.150  34.370  32.868  1.00  0.00    -0.237 OA
ATOM     94  O   UNL A   1      35.072  35.923  32.949  1.00  0.00    -0.237 OA
ATOM     95  O   UNL A   1      34.048  35.341  30.785  1.00  0.00    -0.744 OA
ENDBRANCH  91  92
ENDBRANCH  59  84
BRANCH  71  96
ATOM     96  C   UNL A   1      43.016  29.131  33.806  1.00  0.00     0.058 A 
ATOM     97  C   UNL A   1      43.245  29.422  35.164  1.00  0.00     0.135 A 
ATOM     98  C   UNL A   1      42.452  27.879  33.513  1.00  0.00     0.135 A 
ATOM     99  F   UNL A   1      43.691  30.626  35.544  1.00  0.00    -0.206 F 
ATOM    100  C   UNL A   1      42.951  28.505  36.176  1.00  0.00     0.059 A 
ATOM    101  C   UNL A   1      42.125  26.961  34.508  1.00  0.00     0.059 A 
ATOM    102  F   UNL A   1      42.154  27.560  32.243  1.00  0.00    -0.206 F 
ATOM    103  C   UNL A   1      42.384  27.277  35.839  1.00  0.00     0.060 A 
BRANCH 103 104
ATOM    104  S   UNL A   1      41.912  26.131  37.155  1.00  0.00     0.124 S 
ATOM    105  O   UNL A   1      41.928  24.846  36.464  1.00  0.00    -0.237 OA
ATOM    106  O   UNL A   1      42.965  26.331  38.146  1.00  0.00    -0.237 OA
ATOM    107  O   UNL A   1      40.590  26.604  37.561  1.00  0.00    -0.744 OA
ENDBRANCH 103 104
ENDBRANCH  71  96
ENDBRANCH  45  46
ENDBRANCH  37  40
ENDBRANCH  35  36
ENDBRANCH  34  35
ENDBRANCH   1  34
TORSDOF 19
ENDMDL
MODEL 2
REMARK VINA RESULT:     -13.5      1.515      2.178
REMARK SMILES COC(=O)c1c(NC(=O)[C@@H]2C[C@@H]2C(=O)NCCCNC(=O)c2ccc(-c3c4nc(c(-c5c(F)cc(S(=O)(=O)[O-])cc5F)c5ccc([nH]5)c(-c5c(F)cc(S(=O)(=O)[O-])cc5F)c5nc(c(-c6c(F)cc(S(=O)(=O)[O-])cc6F)c6ccc3[nH]6)C=C5)C=C4)cc2)sc2c1CC[N@@H+](Cc1ccccc1)C2
REMARK SMILES IDX 16 1 15 2 13 3 14 4 12 6 10 7 11 8 8 9 7 10 9 12 6 13 5 14
REMARK SMILES IDX 90 15 88 16 89 17 91 18 101 19 92 20 93 21 3 23 4 24 2 25
REMARK SMILES IDX 1 26 94 27 95 28 96 29 100 30 97 31 99 32 98 33 17 34 18 35
REMARK SMILES IDX 19 36 20 37 21 39 22 40 23 41 87 42 24 43 86 44 25 45 26 46
REMARK SMILES IDX 27 47 80 48 28 49 85 50 79 51 81 52 29 53 84 54 78 55 77 56
REMARK SMILES IDX 30 58 64 59 43 60 63 61 44 62 47 63 62 64 82 65 45 66 46 67
REMARK SMILES IDX 61 69 83 70 48 71 31 72 32 73 41 74 33 75 34 76 40 77 42 78
REMARK SMILES IDX 35 79 36 80 37 81 38 82 39 83 65 84 66 85 75 86 67 87 68 88
REMARK SMILES IDX 74 89 76 90 69 91 70 92 71 93 72 94 73 95 49 96 50 97 59 98
REMARK SMILES IDX 51 99 52 100 58 101 60 102 53 103 54 104 55 105 56 106
REMARK SMILES IDX 57 107
REMARK H PARENT 15 5 7 11 93 22 19 38 81 57 47 68
REMARK Flexibility Score: inf
ROOT
ATOM      1  C   UNL A   1      36.194  21.284  25.746  1.00  0.00     0.117 C 
ENDROOT
BRANCH   1   2
ATOM      2  N   UNL A   1      35.362  20.195  25.301  1.00  0.00    -0.356 N 
ATOM      3  C   UNL A   1      34.153  20.169  24.672  1.00  0.00     0.223 C 
ATOM      4  O   UNL A   1      33.766  19.081  24.250  1.00  0.00    -0.275 OA
ATOM      5  H   UNL A   1      35.735  19.303  25.487  1.00  0.00     0.163 HD
BRANCH   3   6
ATOM      6  C   UNL A   1      33.251  21.328  24.445  1.00  0.00     0.091 C 
ATOM      7  C   UNL A   1      32.580  22.450  25.192  1.00  0.00     0.092 C 
ATOM      8  C   UNL A   1      31.914  21.115  25.150  1.00  0.00     0.028 C 
BRANCH   7   9
ATOM      9  C   UNL A   1      32.974  23.103  26.438  1.00  0.00     0.228 C 
ATOM     10  N   UNL A   1      33.485  24.367  26.483  1.00  0.00    -0.317 N 
ATOM     11  H   UNL A   1      33.804  24.612  27.381  1.00  0.00     0.170 HD
ATOM     12  O   UNL A   1      32.823  22.500  27.501  1.00  0.00    -0.274 OA
BRANCH  10  13
ATOM     13  C   UNL A   1      33.656  25.377  25.570  1.00  0.00     0.110 A 
ATOM     14  C   UNL A   1      33.970  25.563  24.235  1.00  0.00     0.098 A 
ATOM     15  C   UNL A   1      33.805  26.965  23.883  1.00  0.00    -0.006 A 
ATOM     16  S   UNL A   1      33.383  26.867  26.395  1.00  0.00    -0.116 S 
ATOM     17  C   UNL A   1      33.397  27.734  24.951  1.00  0.00     0.065 A 
ATOM     18  C   UNL A   1      33.790  27.536  22.488  1.00  0.00     0.099 C 
ATOM     19  C   UNL A   1      32.868  29.127  24.835  1.00  0.00     0.310 C 
ATOM     20  C   UNL A   1      33.145  28.947  22.426  1.00  0.00     0.267 C 
ATOM     21  N   UNL A   1      32.235  29.338  23.519  1.00  0.00    -0.326 N 
ATOM     22  H   UNL A   1      32.096  30.343  23.417  1.00  0.00     0.348 HD
BRANCH  14  23
ATOM     23  C   UNL A   1      34.259  24.566  23.218  1.00  0.00     0.341 C 
ATOM     24  O   UNL A   1      35.306  23.927  23.200  1.00  0.00    -0.246 OA
BRANCH  23  25
ATOM     25  O   UNL A   1      33.313  24.502  22.243  1.00  0.00    -0.465 OA
ATOM     26  C   UNL A   1      33.222  23.237  21.579  1.00  0.00     0.282 C 
ENDBRANCH  23  25
ENDBRANCH  14  23
BRANCH  21  27
ATOM     27  C   UNL A   1      30.843  28.865  23.406  1.00  0.00     0.299 C 
BRANCH  27  28
ATOM     28  C   UNL A   1      29.758  29.848  23.013  1.00  0.00     0.006 A 
ATOM     29  C   UNL A   1      29.019  29.671  21.833  1.00  0.00     0.009 A 
ATOM     30  C   UNL A   1      29.443  30.943  23.832  1.00  0.00     0.009 A 
ATOM     31  C   UNL A   1      27.940  30.507  21.533  1.00  0.00     0.001 A 
ATOM     32  C   UNL A   1      28.351  31.765  23.546  1.00  0.00     0.001 A 
ATOM     33  C   UNL A   1      27.591  31.538  22.402  1.00  0.00     0.000 A 
ENDBRANCH  27  28
ENDBRANCH  21  27
ENDBRANCH  10  13
ENDBRANCH   7   9
ENDBRANCH   3   6
ENDBRANCH   1   2
BRANCH   1  34
ATOM     34  C   UNL A   1      37.573  21.317  25.088  1.00  0.00     0.042 C 
BRANCH  34  35
ATOM     35  C   UNL A   1      38.551  22.287  25.703  1.00  0.00     0.118 C 
BRANCH  35  36
ATOM     36  N   UNL A   1      39.419  21.645  26.701  1.00  0.00    -0.352 N 
ATOM     37  C   UNL A   1      40.470  22.203  27.415  1.00  0.00     0.251 C 
ATOM     38  H   UNL A   1      39.230  20.698  26.888  1.00  0.00     0.163 HD
ATOM     39  O   UNL A   1      41.343  21.498  27.905  1.00  0.00    -0.269 OA
BRANCH  37  40
ATOM     40  C   UNL A   1      40.498  23.667  27.550  1.00  0.00     0.039 A 
ATOM     41  C   UNL A   1      39.371  24.473  27.390  1.00  0.00     0.014 A 
ATOM     42  C   UNL A   1      41.689  24.195  28.019  1.00  0.00     0.014 A 
ATOM     43  C   UNL A   1      39.447  25.798  27.818  1.00  0.00     0.010 A 
ATOM     44  C   UNL A   1      41.629  25.344  28.743  1.00  0.00     0.010 A 
ATOM     45  C   UNL A   1      40.581  26.220  28.533  1.00  0.00    -0.014 A 
BRANCH  45  46
ATOM     46  C   UNL A   1      40.725  27.559  29.084  1.00  0.00     0.031 A 
ATOM     47  C   UNL A   1      41.797  28.390  28.482  1.00  0.00     0.074 A 
ATOM     48  C   UNL A   1      39.855  28.089  29.975  1.00  0.00     0.049 A 
ATOM     49  N   UNL A   1      42.953  28.657  28.987  1.00  0.00    -0.248 NA
ATOM     50  C   UNL A   1      41.627  28.858  27.100  1.00  0.00     0.031 C 
ATOM     51  C   UNL A   1      38.564  27.574  30.463  1.00  0.00     0.029 A 
ATOM     52  N   UNL A   1      39.935  29.292  30.596  1.00  0.00    -0.354 N 
ATOM     53  C   UNL A   1      43.586  29.504  28.083  1.00  0.00     0.074 A 
ATOM     54  C   UNL A   1      42.807  29.441  26.872  1.00  0.00     0.031 C 
ATOM     55  C   UNL A   1      37.890  28.552  31.104  1.00  0.00     0.029 A 
ATOM     56  C   UNL A   1      38.783  29.679  31.265  1.00  0.00     0.049 A 
ATOM     57  H   UNL A   1      40.746  29.848  30.573  1.00  0.00     0.167 HD
ATOM     58  C   UNL A   1      44.587  30.341  28.477  1.00  0.00     0.037 A 
ATOM     59  C   UNL A   1      38.580  30.843  31.923  1.00  0.00     0.037 A 
ATOM     60  C   UNL A   1      45.044  30.009  29.806  1.00  0.00     0.049 A 
ATOM     61  C   UNL A   1      39.928  31.379  32.249  1.00  0.00     0.074 A 
ATOM     62  C   UNL A   1      45.631  28.895  30.376  1.00  0.00     0.029 A 
ATOM     63  N   UNL A   1      44.543  30.745  30.855  1.00  0.00    -0.354 N 
ATOM     64  N   UNL A   1      40.761  30.797  33.071  1.00  0.00    -0.248 NA
ATOM     65  C   UNL A   1      40.536  32.299  31.299  1.00  0.00     0.031 C 
ATOM     66  C   UNL A   1      45.025  28.778  31.662  1.00  0.00     0.029 A 
ATOM     67  C   UNL A   1      44.158  29.860  31.832  1.00  0.00     0.049 A 
ATOM     68  H   UNL A   1      44.474  31.727  30.898  1.00  0.00     0.167 HD
ATOM     69  C   UNL A   1      42.012  30.950  32.488  1.00  0.00     0.074 A 
ATOM     70  C   UNL A   1      41.819  31.957  31.445  1.00  0.00     0.031 C 
ATOM     71  C   UNL A   1      43.022  30.057  32.714  1.00  0.00     0.037 A 
BRANCH  58  72
ATOM     72  C   UNL A   1      44.941  31.650  27.816  1.00  0.00     0.058 A 
ATOM     73  C   UNL A   1      46.188  31.784  27.171  1.00  0.00     0.135 A 
ATOM     74  C   UNL A   1      44.226  32.851  28.015  1.00  0.00     0.135 A 
ATOM     75  F   UNL A   1      46.954  30.708  26.928  1.00  0.00    -0.206 F 
ATOM     76  C   UNL A   1      46.720  33.026  26.821  1.00  0.00     0.059 A 
ATOM     77  C   UNL A   1      44.713  34.094  27.623  1.00  0.00     0.059 A 
ATOM     78  F   UNL A   1      43.070  32.891  28.688  1.00  0.00    -0.206 F 
ATOM     79  C   UNL A   1      45.980  34.177  27.070  1.00  0.00     0.060 A 
BRANCH  79  80
ATOM     80  S   UNL A   1      46.714  35.788  26.738  1.00  0.00     0.124 S 
ATOM     81  O   UNL A   1      48.110  35.546  27.082  1.00  0.00    -0.237 OA
ATOM     82  O   UNL A   1      46.426  35.967  25.319  1.00  0.00    -0.237 OA
ATOM     83  O   UNL A   1      45.987  36.679  27.636  1.00  0.00    -0.744 OA
ENDBRANCH  79  80
ENDBRANCH  58  72
BRANCH  59  84
ATOM     84  C   UNL A   1      37.339  31.654  31.944  1.00  0.00     0.058 A 
ATOM     85  C   UNL A   1      36.701  31.970  33.154  1.00  0.00     0.135 A 
ATOM     86  C   UNL A   1      36.911  32.370  30.805  1.00  0.00     0.135 A 
ATOM     87  F   UNL A   1      37.058  31.346  34.286  1.00  0.00    -0.206 F 
ATOM     88  C   UNL A   1      35.737  32.980  33.244  1.00  0.00     0.059 A 
ATOM     89  C   UNL A   1      35.946  33.375  30.869  1.00  0.00     0.059 A 
ATOM     90  F   UNL A   1      37.488  32.177  29.609  1.00  0.00    -0.206 F 
ATOM     91  C   UNL A   1      35.384  33.694  32.098  1.00  0.00     0.060 A 
BRANCH  91  92
ATOM     92  S   UNL A   1      34.285  35.123  32.249  1.00  0.00     0.124 S 
ATOM     93  O   UNL A   1      33.149  34.555  32.966  1.00  0.00    -0.237 OA
ATOM     94  O   UNL A   1      35.107  36.065  33.001  1.00  0.00    -0.237 OA
ATOM     95  O   UNL A   1      34.024  35.499  30.862  1.00  0.00    -0.744 OA
ENDBRANCH  91  92
ENDBRANCH  59  84
BRANCH  71  96
ATOM     96  C   UNL A   1      42.854  29.044  33.822  1.00  0.00     0.058 A 
ATOM     97  C   UNL A   1      43.162  29.283  35.174  1.00  0.00     0.135 A 
ATOM     98  C   UNL A   1      42.182  27.847  33.528  1.00  0.00     0.135 A 
ATOM     99  F   UNL A   1      43.717  30.440  35.559  1.00  0.00    -0.206 F 
ATOM    100  C   UNL A   1      42.839  28.368  36.179  1.00  0.00     0.059 A 
ATOM    101  C   UNL A   1      41.825  26.933  34.517  1.00  0.00     0.059 A 
ATOM    102  F   UNL A   1      41.806  27.583  32.265  1.00  0.00    -0.206 F 
ATOM    103  C   UNL A   1      42.164  27.196  35.841  1.00  0.00     0.060 A 
BRANCH 103 104
ATOM    104  S   UNL A   1      41.659  26.059  37.152  1.00  0.00     0.124 S 
ATOM    105  O   UNL A   1      41.642  24.776  36.458  1.00  0.00    -0.237 OA
ATOM    106  O   UNL A   1      42.716  26.226  38.145  1.00  0.00    -0.237 OA
ATOM    107  O   UNL A   1      40.350  26.566  37.559  1.00  0.00    -0.744 OA
ENDBRANCH 103 104
ENDBRANCH  71  96
ENDBRANCH  45  46
ENDBRANCH  37  40
ENDBRANCH  35  36
ENDBRANCH  34  35
ENDBRANCH   1  34
TORSDOF 19
ENDMDL
MODEL 3
REMARK VINA RESULT:     -13.5      1.623      2.330
REMARK SMILES COC(=O)c1c(NC(=O)[C@@H]2C[C@@H]2C(=O)NCCCNC(=O)c2ccc(-c3c4nc(c(-c5c(F)cc(S(=O)(=O)[O-])cc5F)c5ccc([nH]5)c(-c5c(F)cc(S(=O)(=O)[O-])cc5F)c5nc(c(-c6c(F)cc(S(=O)(=O)[O-])cc6F)c6ccc3[nH]6)C=C5)C=C4)cc2)sc2c1CC[N@@H+](Cc1ccccc1)C2
REMARK SMILES IDX 16 1 15 2 13 3 14 4 12 6 10 7 11 8 8 9 7 10 9 12 6 13 5 14
REMARK SMILES IDX 90 15 88 16 89 17 91 18 101 19 92 20 93 21 3 23 4 24 2 25
REMARK SMILES IDX 1 26 94 27 95 28 96 29 100 30 97 31 99 32 98 33 17 34 18 35
REMARK SMILES IDX 19 36 20 37 21 39 22 40 23 41 87 42 24 43 86 44 25 45 26 46
REMARK SMILES IDX 27 47 80 48 28 49 85 50 79 51 81 52 29 53 84 54 78 55 77 56
REMARK SMILES IDX 30 58 64 59 43 60 63 61 44 62 47 63 62 64 82 65 45 66 46 67
REMARK SMILES IDX 61 69 83 70 48 71 31 72 32 73 41 74 33 75 34 76 40 77 42 78
REMARK SMILES IDX 35 79 36 80 37 81 38 82 39 83 65 84 66 85 75 86 67 87 68 88
REMARK SMILES IDX 74 89 76 90 69 91 70 92 71 93 72 94 73 95 49 96 50 97 59 98
REMARK SMILES IDX 51 99 52 100 58 101 60 102 53 103 54 104 55 105 56 106
REMARK SMILES IDX 57 107
REMARK H PARENT 15 5 7 11 93 22 19 38 81 57 47 68
REMARK Flexibility Score: inf
ROOT
ATOM      1  C   UNL A   1      38.567  21.251  25.750  1.00  0.00     0.117 C 
ENDROOT
BRANCH   1   2
ATOM      2  N   UNL A   1      38.580  22.691  25.715  1.00  0.00    -0.356 N 
ATOM      3  C   UNL A   1      37.665  23.621  26.107  1.00  0.00     0.223 C 
ATOM      4  O   UNL A   1      38.033  24.795  26.122  1.00  0.00    -0.275 OA
ATOM      5  H   UNL A   1      39.404  23.075  25.336  1.00  0.00     0.163 HD
BRANCH   3   6
ATOM      6  C   UNL A   1      36.261  23.360  26.518  1.00  0.00     0.091 C 
ATOM      7  C   UNL A   1      34.954  22.861  25.961  1.00  0.00     0.092 C 
ATOM      8  C   UNL A   1      35.304  24.302  25.792  1.00  0.00     0.028 C 
BRANCH   7   9
ATOM      9  C   UNL A   1      34.707  21.966  24.834  1.00  0.00     0.228 C 
ATOM     10  N   UNL A   1      33.670  22.139  23.964  1.00  0.00    -0.317 N 
ATOM     11  H   UNL A   1      33.577  21.389  23.335  1.00  0.00     0.170 HD
ATOM     12  O   UNL A   1      35.474  21.023  24.642  1.00  0.00    -0.274 OA
BRANCH  10  13
ATOM     13  C   UNL A   1      32.727  23.115  23.761  1.00  0.00     0.110 A 
ATOM     14  C   UNL A   1      31.715  23.775  24.436  1.00  0.00     0.098 A 
ATOM     15  C   UNL A   1      31.207  24.865  23.617  1.00  0.00    -0.006 A 
ATOM     16  S   UNL A   1      32.896  23.662  22.134  1.00  0.00    -0.116 S 
ATOM     17  C   UNL A   1      31.843  24.950  22.398  1.00  0.00     0.065 A 
ATOM     18  C   UNL A   1      30.298  25.975  24.077  1.00  0.00     0.099 C 
ATOM     19  C   UNL A   1      31.748  26.123  21.476  1.00  0.00     0.310 C 
ATOM     20  C   UNL A   1      30.316  27.198  23.122  1.00  0.00     0.267 C 
ATOM     21  N   UNL A   1      31.482  27.361  22.233  1.00  0.00    -0.326 N 
ATOM     22  H   UNL A   1      31.213  28.071  21.551  1.00  0.00     0.348 HD
BRANCH  14  23
ATOM     23  C   UNL A   1      31.273  23.605  25.810  1.00  0.00     0.341 C 
ATOM     24  O   UNL A   1      31.737  24.258  26.739  1.00  0.00    -0.246 OA
BRANCH  23  25
ATOM     25  O   UNL A   1      30.388  22.584  25.968  1.00  0.00    -0.465 OA
ATOM     26  C   UNL A   1      29.520  22.713  27.099  1.00  0.00     0.282 C 
ENDBRANCH  23  25
ENDBRANCH  14  23
BRANCH  21  27
ATOM     27  C   UNL A   1      32.668  28.003  22.829  1.00  0.00     0.299 C 
BRANCH  27  28
ATOM     28  C   UNL A   1      32.697  28.265  24.322  1.00  0.00     0.006 A 
ATOM     29  C   UNL A   1      31.987  29.340  24.878  1.00  0.00     0.009 A 
ATOM     30  C   UNL A   1      33.409  27.423  25.190  1.00  0.00     0.009 A 
ATOM     31  C   UNL A   1      31.916  29.509  26.263  1.00  0.00     0.001 A 
ATOM     32  C   UNL A   1      33.319  27.576  26.575  1.00  0.00     0.001 A 
ATOM     33  C   UNL A   1      32.561  28.613  27.111  1.00  0.00     0.000 A 
ENDBRANCH  27  28
ENDBRANCH  21  27
ENDBRANCH  10  13
ENDBRANCH   7   9
ENDBRANCH   3   6
ENDBRANCH   1   2
BRANCH   1  34
ATOM     34  C   UNL A   1      39.930  20.626  26.043  1.00  0.00     0.042 C 
BRANCH  34  35
ATOM     35  C   UNL A   1      40.874  21.495  26.836  1.00  0.00     0.118 C 
BRANCH  35  36
ATOM     36  N   UNL A   1      42.069  21.867  26.063  1.00  0.00    -0.352 N 
ATOM     37  C   UNL A   1      42.558  23.136  25.790  1.00  0.00     0.251 C 
ATOM     38  H   UNL A   1      42.590  21.119  25.692  1.00  0.00     0.163 HD
ATOM     39  O   UNL A   1      43.305  23.333  24.841  1.00  0.00    -0.269 OA
BRANCH  37  40
ATOM     40  C   UNL A   1      42.137  24.231  26.678  1.00  0.00     0.039 A 
ATOM     41  C   UNL A   1      42.620  24.394  27.976  1.00  0.00     0.014 A 
ATOM     42  C   UNL A   1      41.351  25.204  26.085  1.00  0.00     0.014 A 
ATOM     43  C   UNL A   1      42.379  25.609  28.617  1.00  0.00     0.010 A 
ATOM     44  C   UNL A   1      41.441  26.472  26.569  1.00  0.00     0.010 A 
ATOM     45  C   UNL A   1      41.812  26.666  27.885  1.00  0.00    -0.014 A 
BRANCH  45  46
ATOM     46  C   UNL A   1      41.587  27.993  28.440  1.00  0.00     0.031 A 
ATOM     47  C   UNL A   1      42.651  28.991  28.170  1.00  0.00     0.074 A 
ATOM     48  C   UNL A   1      40.427  28.358  29.031  1.00  0.00     0.049 A 
ATOM     49  N   UNL A   1      43.556  29.407  28.989  1.00  0.00    -0.248 NA
ATOM     50  C   UNL A   1      42.822  29.476  26.794  1.00  0.00     0.031 C 
ATOM     51  C   UNL A   1      39.142  27.644  29.125  1.00  0.00     0.029 A 
ATOM     52  N   UNL A   1      40.140  29.539  29.635  1.00  0.00    -0.354 N 
ATOM     53  C   UNL A   1      44.290  30.367  28.300  1.00  0.00     0.074 A 
ATOM     54  C   UNL A   1      43.916  30.232  26.916  1.00  0.00     0.031 C 
ATOM     55  C   UNL A   1      38.171  28.490  29.529  1.00  0.00     0.029 A 
ATOM     56  C   UNL A   1      38.799  29.729  29.934  1.00  0.00     0.049 A 
ATOM     57  H   UNL A   1      40.830  30.208  29.845  1.00  0.00     0.167 HD
ATOM     58  C   UNL A   1      44.996  31.329  28.962  1.00  0.00     0.037 A 
ATOM     59  C   UNL A   1      38.242  30.828  30.491  1.00  0.00     0.037 A 
ATOM     60  C   UNL A   1      45.091  31.022  30.371  1.00  0.00     0.049 A 
ATOM     61  C   UNL A   1      39.339  31.545  31.192  1.00  0.00     0.074 A 
ATOM     62  C   UNL A   1      45.646  29.987  31.099  1.00  0.00     0.029 A 
ATOM     63  N   UNL A   1      44.201  31.640  31.219  1.00  0.00    -0.354 N 
ATOM     64  N   UNL A   1      39.974  31.063  32.228  1.00  0.00    -0.248 NA
ATOM     65  C   UNL A   1      40.053  32.575  30.452  1.00  0.00     0.031 C 
ATOM     66  C   UNL A   1      44.716  29.739  32.152  1.00  0.00     0.029 A 
ATOM     67  C   UNL A   1      43.685  30.676  32.049  1.00  0.00     0.049 A 
ATOM     68  H   UNL A   1      43.976  32.600  31.229  1.00  0.00     0.167 HD
ATOM     69  C   UNL A   1      41.303  31.417  32.036  1.00  0.00     0.074 A 
ATOM     70  C   UNL A   1      41.274  32.419  30.971  1.00  0.00     0.031 C 
ATOM     71  C   UNL A   1      42.326  30.674  32.557  1.00  0.00     0.037 A 
BRANCH  58  72
ATOM     72  C   UNL A   1      45.326  32.697  28.421  1.00  0.00     0.058 A 
ATOM     73  C   UNL A   1      46.677  33.088  28.308  1.00  0.00     0.135 A 
ATOM     74  C   UNL A   1      44.378  33.729  28.257  1.00  0.00     0.135 A 
ATOM     75  F   UNL A   1      47.665  32.189  28.444  1.00  0.00    -0.206 F 
ATOM     76  C   UNL A   1      47.058  34.418  28.125  1.00  0.00     0.059 A 
ATOM     77  C   UNL A   1      44.734  35.052  28.018  1.00  0.00     0.059 A 
ATOM     78  F   UNL A   1      43.066  33.526  28.421  1.00  0.00    -0.206 F 
ATOM     79  C   UNL A   1      46.076  35.396  28.001  1.00  0.00     0.060 A 
BRANCH  79  80
ATOM     80  S   UNL A   1      46.562  37.127  27.893  1.00  0.00     0.124 S 
ATOM     81  O   UNL A   1      45.751  37.585  26.771  1.00  0.00    -0.237 OA
ATOM     82  O   UNL A   1      46.179  37.632  29.208  1.00  0.00    -0.237 OA
ATOM     83  O   UNL A   1      47.999  37.058  27.648  1.00  0.00    -0.744 OA
ENDBRANCH  79  80
ENDBRANCH  58  72
BRANCH  59  84
ATOM     84  C   UNL A   1      36.941  31.447  30.139  1.00  0.00     0.058 A 
ATOM     85  C   UNL A   1      36.121  32.020  31.124  1.00  0.00     0.135 A 
ATOM     86  C   UNL A   1      36.607  31.742  28.799  1.00  0.00     0.135 A 
ATOM     87  F   UNL A   1      36.377  31.801  32.422  1.00  0.00    -0.206 F 
ATOM     88  C   UNL A   1      35.067  32.883  30.805  1.00  0.00     0.059 A 
ATOM     89  C   UNL A   1      35.557  32.592  28.456  1.00  0.00     0.059 A 
ATOM     90  F   UNL A   1      37.355  31.283  27.783  1.00  0.00    -0.206 F 
ATOM     91  C   UNL A   1      34.808  33.182  29.467  1.00  0.00     0.060 A 
BRANCH  91  92
ATOM     92  S   UNL A   1      33.576  34.443  29.064  1.00  0.00     0.124 S 
ATOM     93  O   UNL A   1      32.695  33.723  28.151  1.00  0.00    -0.237 OA
ATOM     94  O   UNL A   1      33.016  34.756  30.375  1.00  0.00    -0.237 OA
ATOM     95  O   UNL A   1      34.367  35.510  28.458  1.00  0.00    -0.744 OA
ENDBRANCH  91  92
ENDBRANCH  59  84
BRANCH  71  96
ATOM     96  C   UNL A   1      41.996  29.611  33.578  1.00  0.00     0.058 A 
ATOM     97  C   UNL A   1      41.829  28.245  33.281  1.00  0.00     0.135 A 
ATOM     98  C   UNL A   1      42.034  29.963  34.937  1.00  0.00     0.135 A 
ATOM     99  F   UNL A   1      41.876  27.805  32.017  1.00  0.00    -0.206 F 
ATOM    100  C   UNL A   1      41.682  27.283  34.283  1.00  0.00     0.059 A 
ATOM    101  C   UNL A   1      41.918  29.018  35.953  1.00  0.00     0.059 A 
ATOM    102  F   UNL A   1      42.250  31.241  35.291  1.00  0.00    -0.206 F 
ATOM    103  C   UNL A   1      41.734  27.678  35.619  1.00  0.00     0.060 A 
BRANCH 103 104
ATOM    104  S   UNL A   1      41.643  26.422  36.915  1.00  0.00     0.124 S 
ATOM    105  O   UNL A   1      42.904  26.618  37.623  1.00  0.00    -0.237 OA
ATOM    106  O   UNL A   1      40.440  26.805  37.648  1.00  0.00    -0.237 OA
ATOM    107  O   UNL A   1      41.535  25.170  36.171  1.00  0.00    -0.744 OA
ENDBRANCH 103 104
ENDBRANCH  71  96
ENDBRANCH  45  46
ENDBRANCH  37  40
ENDBRANCH  35  36
ENDBRANCH  34  35
ENDBRANCH   1  34
TORSDOF 19
ENDMDL
