MODEL 1
REMARK VINA RESULT:     -12.9      0.000      0.000
REMARK SMILES Cc1cccc2nc(C(=O)N3CCC[C@@H](C(=O)NCCCNC(=O)c4ccc(-c5c6nc(c(-c7c(F)cc(S(=O)(=O)[O-])cc7F)c7ccc([nH]7)c(-c7c(F)cc(S(=O)(=O)[O-])cc7F)c7nc(c(-c8c(F)cc(S(=O)(=O)[O-])cc8F)c8ccc5[nH]8)C=C7)C=C6)cc4)C3)cn12
REMARK SMILES IDX 20 1 19 2 18 3 16 4 17 5 15 7 11 8 12 9 91 10 13 11 14 12
REMARK SMILES IDX 9 13 10 14 8 15 1 16 2 17 3 18 93 19 4 20 6 21 92 22 5 23
REMARK SMILES IDX 7 24 21 25 22 26 23 27 24 29 25 30 26 31 90 32 27 33 89 34
REMARK SMILES IDX 28 35 29 36 30 37 83 38 31 39 88 40 82 41 84 42 32 43 87 44
REMARK SMILES IDX 81 45 80 46 33 48 67 49 46 50 66 51 47 52 50 53 65 54 85 55
REMARK SMILES IDX 48 56 49 57 64 59 86 60 51 61 34 62 35 63 44 64 36 65 37 66
REMARK SMILES IDX 43 67 45 68 38 69 39 70 40 71 41 72 42 73 68 74 69 75 78 76
REMARK SMILES IDX 70 77 71 78 77 79 79 80 72 81 73 82 74 83 75 84 76 85 52 86
REMARK SMILES IDX 53 87 62 88 54 89 55 90 61 91 63 92 56 93 57 94 58 95 59 96
REMARK SMILES IDX 60 97
REMARK H PARENT 18 6 22 28 84 47 50 58
REMARK Flexibility Score: inf
ROOT
ATOM      1  C   UNL A   1      38.927  21.456  25.801  1.00  0.00     0.042 C 
ENDROOT
BRANCH   1   2
ATOM      2  C   UNL A   1      37.920  22.598  25.658  1.00  0.00     0.117 C 
BRANCH   2   3
ATOM      3  N   UNL A   1      37.380  22.715  24.310  1.00  0.00    -0.356 N 
ATOM      4  C   UNL A   1      36.090  22.756  23.874  1.00  0.00     0.224 C 
ATOM      5  O   UNL A   1      35.878  22.958  22.679  1.00  0.00    -0.275 OA
ATOM      6  H   UNL A   1      38.058  22.773  23.598  1.00  0.00     0.163 HD
BRANCH   4   7
ATOM      7  C   UNL A   1      34.956  22.520  24.849  1.00  0.00     0.098 C 
ATOM      8  N   UNL A   1      32.634  23.035  25.377  1.00  0.00    -0.336 N 
ATOM      9  C   UNL A   1      32.282  21.634  25.550  1.00  0.00     0.120 C 
ATOM     10  C   UNL A   1      33.712  23.317  24.424  1.00  0.00     0.133 C 
ATOM     11  C   UNL A   1      33.494  20.786  25.918  1.00  0.00     0.022 C 
ATOM     12  C   UNL A   1      34.643  21.021  24.937  1.00  0.00     0.017 C 
BRANCH   8  13
ATOM     13  C   UNL A   1      32.088  23.989  26.228  1.00  0.00     0.274 C 
ATOM     14  O   UNL A   1      31.441  23.670  27.226  1.00  0.00    -0.267 OA
BRANCH  13  15
ATOM     15  C   UNL A   1      32.198  25.399  25.823  1.00  0.00     0.147 A 
ATOM     16  C   UNL A   1      34.485  28.964  27.057  1.00  0.00     0.065 C 
ATOM     17  C   UNL A   1      33.254  28.816  26.216  1.00  0.00     0.021 A 
ATOM     18  C   UNL A   1      32.592  29.898  25.752  1.00  0.00     0.022 A 
ATOM     19  N   UNL A   1      32.733  27.542  25.909  1.00  0.00    -0.304 N 
ATOM     20  C   UNL A   1      31.396  29.725  24.944  1.00  0.00     0.006 A 
ATOM     21  C   UNL A   1      31.583  27.346  25.143  1.00  0.00     0.137 A 
ATOM     22  C   UNL A   1      33.143  26.291  26.299  1.00  0.00     0.127 A 
ATOM     23  C   UNL A   1      30.920  28.502  24.646  1.00  0.00     0.048 A 
ATOM     24  N   UNL A   1      31.266  26.072  25.053  1.00  0.00    -0.223 NA
ENDBRANCH  13  15
ENDBRANCH   8  13
ENDBRANCH   4   7
ENDBRANCH   2   3
ENDBRANCH   1   2
BRANCH   1  25
ATOM     25  C   UNL A   1      40.158  21.878  26.586  1.00  0.00     0.118 C 
BRANCH  25  26
ATOM     26  N   UNL A   1      41.383  21.795  25.790  1.00  0.00    -0.352 N 
ATOM     27  C   UNL A   1      42.248  22.807  25.427  1.00  0.00     0.251 C 
ATOM     28  H   UNL A   1      41.622  20.895  25.468  1.00  0.00     0.163 HD
ATOM     29  O   UNL A   1      43.055  22.635  24.528  1.00  0.00    -0.269 OA
BRANCH  27  30
ATOM     30  C   UNL A   1      42.186  24.093  26.147  1.00  0.00     0.039 A 
ATOM     31  C   UNL A   1      41.474  25.176  25.617  1.00  0.00     0.014 A 
ATOM     32  C   UNL A   1      42.874  24.216  27.352  1.00  0.00     0.014 A 
ATOM     33  C   UNL A   1      41.418  26.366  26.338  1.00  0.00     0.010 A 
ATOM     34  C   UNL A   1      42.712  25.337  28.122  1.00  0.00     0.010 A 
ATOM     35  C   UNL A   1      42.040  26.433  27.590  1.00  0.00    -0.014 A 
BRANCH  35  36
ATOM     36  C   UNL A   1      41.946  27.624  28.425  1.00  0.00     0.031 A 
ATOM     37  C   UNL A   1      43.044  28.613  28.221  1.00  0.00     0.074 A 
ATOM     38  C   UNL A   1      40.801  27.914  29.080  1.00  0.00     0.049 A 
ATOM     39  N   UNL A   1      43.908  29.044  29.080  1.00  0.00    -0.248 NA
ATOM     40  C   UNL A   1      43.290  29.090  26.846  1.00  0.00     0.031 C 
ATOM     41  C   UNL A   1      39.532  27.170  29.049  1.00  0.00     0.029 A 
ATOM     42  N   UNL A   1      40.474  29.014  29.807  1.00  0.00    -0.354 N 
ATOM     43  C   UNL A   1      44.659  30.011  28.411  1.00  0.00     0.074 A 
ATOM     44  C   UNL A   1      44.372  29.851  27.011  1.00  0.00     0.031 C 
ATOM     45  C   UNL A   1      38.535  27.955  29.510  1.00  0.00     0.029 A 
ATOM     46  C   UNL A   1      39.108  29.188  30.015  1.00  0.00     0.049 A 
ATOM     47  H   UNL A   1      41.150  29.639  30.158  1.00  0.00     0.167 HD
ATOM     48  C   UNL A   1      45.273  31.031  29.075  1.00  0.00     0.037 A 
ATOM     49  C   UNL A   1      38.502  30.295  30.516  1.00  0.00     0.037 A 
ATOM     50  C   UNL A   1      45.335  30.773  30.490  1.00  0.00     0.049 A 
ATOM     51  C   UNL A   1      39.558  31.077  31.213  1.00  0.00     0.074 A 
ATOM     52  C   UNL A   1      45.924  29.804  31.275  1.00  0.00     0.029 A 
ATOM     53  N   UNL A   1      44.386  31.374  31.280  1.00  0.00    -0.354 N 
ATOM     54  N   UNL A   1      40.193  30.664  32.276  1.00  0.00    -0.248 NA
ATOM     55  C   UNL A   1      40.226  32.125  30.458  1.00  0.00     0.031 C 
ATOM     56  C   UNL A   1      44.986  29.553  32.318  1.00  0.00     0.029 A 
ATOM     57  C   UNL A   1      43.910  30.428  32.154  1.00  0.00     0.049 A 
ATOM     58  H   UNL A   1      44.098  32.314  31.230  1.00  0.00     0.167 HD
ATOM     59  C   UNL A   1      41.506  31.078  32.092  1.00  0.00     0.074 A 
ATOM     60  C   UNL A   1      41.444  32.049  31.001  1.00  0.00     0.031 C 
ATOM     61  C   UNL A   1      42.548  30.388  32.643  1.00  0.00     0.037 A 
BRANCH  48  62
ATOM     62  C   UNL A   1      45.499  32.407  28.494  1.00  0.00     0.058 A 
ATOM     63  C   UNL A   1      46.807  32.926  28.408  1.00  0.00     0.135 A 
ATOM     64  C   UNL A   1      44.460  33.335  28.259  1.00  0.00     0.135 A 
ATOM     65  F   UNL A   1      47.871  32.140  28.642  1.00  0.00    -0.206 F 
ATOM     66  C   UNL A   1      47.059  34.274  28.142  1.00  0.00     0.059 A 
ATOM     67  C   UNL A   1      44.690  34.668  27.936  1.00  0.00     0.059 A 
ATOM     68  F   UNL A   1      43.171  33.015  28.426  1.00  0.00    -0.206 F 
ATOM     69  C   UNL A   1      45.992  35.138  27.914  1.00  0.00     0.060 A 
BRANCH  69  70
ATOM     70  S   UNL A   1      46.311  36.891  27.647  1.00  0.00     0.124 S 
ATOM     71  O   UNL A   1      47.233  37.190  28.735  1.00  0.00    -0.237 OA
ATOM     72  O   UNL A   1      46.885  36.892  26.304  1.00  0.00    -0.237 OA
ATOM     73  O   UNL A   1      44.987  37.494  27.756  1.00  0.00    -0.744 OA
ENDBRANCH  69  70
ENDBRANCH  48  62
BRANCH  49  74
ATOM     74  C   UNL A   1      37.204  30.904  30.109  1.00  0.00     0.058 A 
ATOM     75  C   UNL A   1      36.344  31.470  31.070  1.00  0.00     0.135 A 
ATOM     76  C   UNL A   1      36.922  31.221  28.765  1.00  0.00     0.135 A 
ATOM     77  F   UNL A   1      36.542  31.231  32.375  1.00  0.00    -0.206 F 
ATOM     78  C   UNL A   1      35.319  32.358  30.726  1.00  0.00     0.059 A 
ATOM     79  C   UNL A   1      35.898  32.095  28.398  1.00  0.00     0.059 A 
ATOM     80  F   UNL A   1      37.698  30.770  27.769  1.00  0.00    -0.206 F 
ATOM     81  C   UNL A   1      35.122  32.688  29.386  1.00  0.00     0.060 A 
BRANCH  81  82
ATOM     82  S   UNL A   1      33.941  33.991  28.956  1.00  0.00     0.124 S 
ATOM     83  O   UNL A   1      33.077  33.312  27.996  1.00  0.00    -0.237 OA
ATOM     84  O   UNL A   1      33.340  34.295  30.250  1.00  0.00    -0.237 OA
ATOM     85  O   UNL A   1      34.786  35.044  28.401  1.00  0.00    -0.744 OA
ENDBRANCH  81  82
ENDBRANCH  49  74
BRANCH  61  86
ATOM     86  C   UNL A   1      42.234  29.351  33.697  1.00  0.00     0.058 A 
ATOM     87  C   UNL A   1      42.073  27.975  33.450  1.00  0.00     0.135 A 
ATOM     88  C   UNL A   1      42.235  29.757  35.040  1.00  0.00     0.135 A 
ATOM     89  F   UNL A   1      42.161  27.482  32.208  1.00  0.00    -0.206 F 
ATOM     90  C   UNL A   1      41.877  27.055  34.483  1.00  0.00     0.059 A 
ATOM     91  C   UNL A   1      42.075  28.854  36.088  1.00  0.00     0.059 A 
ATOM     92  F   UNL A   1      42.444  31.046  35.351  1.00  0.00    -0.206 F 
ATOM     93  C   UNL A   1      41.881  27.505  35.802  1.00  0.00     0.060 A 
BRANCH  93  94
ATOM     94  S   UNL A   1      41.685  26.310  37.142  1.00  0.00     0.124 S 
ATOM     95  O   UNL A   1      42.866  26.566  37.959  1.00  0.00    -0.237 OA
ATOM     96  O   UNL A   1      40.408  26.705  37.733  1.00  0.00    -0.237 OA
ATOM     97  O   UNL A   1      41.670  25.022  36.454  1.00  0.00    -0.744 OA
ENDBRANCH  93  94
ENDBRANCH  61  86
ENDBRANCH  35  36
ENDBRANCH  27  30
ENDBRANCH  25  26
ENDBRANCH   1  25
TORSDOF 15
ENDMDL
MODEL 2
REMARK VINA RESULT:     -12.6      1.757      3.435
REMARK SMILES Cc1cccc2nc(C(=O)N3CCC[C@@H](C(=O)NCCCNC(=O)c4ccc(-c5c6nc(c(-c7c(F)cc(S(=O)(=O)[O-])cc7F)c7ccc([nH]7)c(-c7c(F)cc(S(=O)(=O)[O-])cc7F)c7nc(c(-c8c(F)cc(S(=O)(=O)[O-])cc8F)c8ccc5[nH]8)C=C7)C=C6)cc4)C3)cn12
REMARK SMILES IDX 20 1 19 2 18 3 16 4 17 5 15 7 11 8 12 9 91 10 13 11 14 12
REMARK SMILES IDX 9 13 10 14 8 15 1 16 2 17 3 18 93 19 4 20 6 21 92 22 5 23
REMARK SMILES IDX 7 24 21 25 22 26 23 27 24 29 25 30 26 31 90 32 27 33 89 34
REMARK SMILES IDX 28 35 29 36 30 37 83 38 31 39 88 40 82 41 84 42 32 43 87 44
REMARK SMILES IDX 81 45 80 46 33 48 67 49 46 50 66 51 47 52 50 53 65 54 85 55
REMARK SMILES IDX 48 56 49 57 64 59 86 60 51 61 34 62 35 63 44 64 36 65 37 66
REMARK SMILES IDX 43 67 45 68 38 69 39 70 40 71 41 72 42 73 68 74 69 75 78 76
REMARK SMILES IDX 70 77 71 78 77 79 79 80 72 81 73 82 74 83 75 84 76 85 52 86
REMARK SMILES IDX 53 87 62 88 54 89 55 90 61 91 63 92 56 93 57 94 58 95 59 96
REMARK SMILES IDX 60 97
REMARK H PARENT 18 6 22 28 84 47 50 58
REMARK Flexibility Score: inf
ROOT
ATOM      1  C   UNL A   1      40.532  20.134  26.121  1.00  0.00     0.042 C 
ENDROOT
BRANCH   1   2
ATOM      2  C   UNL A   1      39.248  20.870  25.731  1.00  0.00     0.117 C 
BRANCH   2   3
ATOM      3  N   UNL A   1      39.239  22.262  26.158  1.00  0.00    -0.356 N 
ATOM      4  C   UNL A   1      38.247  23.196  26.110  1.00  0.00     0.224 C 
ATOM      5  O   UNL A   1      38.447  24.294  26.627  1.00  0.00    -0.275 OA
ATOM      6  H   UNL A   1      40.087  22.581  26.544  1.00  0.00     0.163 HD
BRANCH   4   7
ATOM      7  C   UNL A   1      36.948  22.880  25.401  1.00  0.00     0.098 C 
ATOM      8  N   UNL A   1      34.539  23.242  25.388  1.00  0.00    -0.336 N 
ATOM      9  C   UNL A   1      34.524  23.615  23.982  1.00  0.00     0.120 C 
ATOM     10  C   UNL A   1      35.768  23.549  26.125  1.00  0.00     0.133 C 
ATOM     11  C   UNL A   1      35.708  23.022  23.226  1.00  0.00     0.022 C 
ATOM     12  C   UNL A   1      37.024  23.337  23.938  1.00  0.00     0.017 C 
BRANCH   8  13
ATOM     13  C   UNL A   1      33.504  22.471  25.904  1.00  0.00     0.274 C 
ATOM     14  O   UNL A   1      32.882  22.814  26.911  1.00  0.00    -0.267 OA
BRANCH  13  15
ATOM     15  C   UNL A   1      33.261  21.160  25.282  1.00  0.00     0.147 A 
ATOM     16  C   UNL A   1      35.362  17.298  24.918  1.00  0.00     0.065 C 
ATOM     17  C   UNL A   1      34.205  17.875  24.160  1.00  0.00     0.021 A 
ATOM     18  C   UNL A   1      33.666  17.223  23.107  1.00  0.00     0.022 A 
ATOM     19  N   UNL A   1      33.664  19.131  24.505  1.00  0.00    -0.304 N 
ATOM     20  C   UNL A   1      32.549  17.809  22.386  1.00  0.00     0.006 A 
ATOM     21  C   UNL A   1      32.597  19.722  23.826  1.00  0.00     0.137 A 
ATOM     22  C   UNL A   1      34.049  20.037  25.461  1.00  0.00     0.127 A 
ATOM     23  C   UNL A   1      32.033  19.001  22.737  1.00  0.00     0.048 A 
ATOM     24  N   UNL A   1      32.321  20.919  24.296  1.00  0.00    -0.223 NA
ENDBRANCH  13  15
ENDBRANCH   8  13
ENDBRANCH   4   7
ENDBRANCH   2   3
ENDBRANCH   1   2
BRANCH   1  25
ATOM     25  C   UNL A   1      41.615  21.090  26.594  1.00  0.00     0.118 C 
BRANCH  25  26
ATOM     26  N   UNL A   1      42.567  21.423  25.534  1.00  0.00    -0.352 N 
ATOM     27  C   UNL A   1      43.043  22.662  25.158  1.00  0.00     0.251 C 
ATOM     28  H   UNL A   1      42.914  20.658  25.019  1.00  0.00     0.163 HD
ATOM     29  O   UNL A   1      43.597  22.808  24.080  1.00  0.00    -0.269 OA
BRANCH  27  30
ATOM     30  C   UNL A   1      42.877  23.802  26.079  1.00  0.00     0.039 A 
ATOM     31  C   UNL A   1      43.677  23.921  27.221  1.00  0.00     0.014 A 
ATOM     32  C   UNL A   1      41.889  24.743  25.803  1.00  0.00     0.014 A 
ATOM     33  C   UNL A   1      43.508  25.025  28.054  1.00  0.00     0.010 A 
ATOM     34  C   UNL A   1      41.809  25.891  26.545  1.00  0.00     0.010 A 
ATOM     35  C   UNL A   1      42.571  26.004  27.703  1.00  0.00    -0.014 A 
BRANCH  35  36
ATOM     36  C   UNL A   1      42.407  27.218  28.492  1.00  0.00     0.031 A 
ATOM     37  C   UNL A   1      43.474  28.239  28.288  1.00  0.00     0.074 A 
ATOM     38  C   UNL A   1      41.231  27.487  29.100  1.00  0.00     0.049 A 
ATOM     39  N   UNL A   1      44.293  28.732  29.159  1.00  0.00    -0.248 NA
ATOM     40  C   UNL A   1      43.749  28.678  26.906  1.00  0.00     0.031 C 
ATOM     41  C   UNL A   1      39.992  26.695  29.055  1.00  0.00     0.029 A 
ATOM     42  N   UNL A   1      40.840  28.599  29.776  1.00  0.00    -0.354 N 
ATOM     43  C   UNL A   1      45.031  29.702  28.481  1.00  0.00     0.074 A 
ATOM     44  C   UNL A   1      44.797  29.485  27.079  1.00  0.00     0.031 C 
ATOM     45  C   UNL A   1      38.952  27.459  29.455  1.00  0.00     0.029 A 
ATOM     46  C   UNL A   1      39.463  28.728  29.935  1.00  0.00     0.049 A 
ATOM     47  H   UNL A   1      41.481  29.260  30.126  1.00  0.00     0.167 HD
ATOM     48  C   UNL A   1      45.585  30.766  29.127  1.00  0.00     0.037 A 
ATOM     49  C   UNL A   1      38.801  29.829  30.377  1.00  0.00     0.037 A 
ATOM     50  C   UNL A   1      45.609  30.560  30.552  1.00  0.00     0.049 A 
ATOM     51  C   UNL A   1      39.804  30.673  31.079  1.00  0.00     0.074 A 
ATOM     52  C   UNL A   1      46.207  29.640  31.390  1.00  0.00     0.029 A 
ATOM     53  N   UNL A   1      44.613  31.151  31.290  1.00  0.00    -0.354 N 
ATOM     54  N   UNL A   1      40.418  30.320  32.175  1.00  0.00    -0.248 NA
ATOM     55  C   UNL A   1      40.458  31.719  30.309  1.00  0.00     0.031 C 
ATOM     56  C   UNL A   1      45.244  29.391  32.411  1.00  0.00     0.029 A 
ATOM     57  C   UNL A   1      44.143  30.219  32.181  1.00  0.00     0.049 A 
ATOM     58  H   UNL A   1      44.293  32.077  31.197  1.00  0.00     0.167 HD
ATOM     59  C   UNL A   1      41.720  30.776  32.019  1.00  0.00     0.074 A 
ATOM     60  C   UNL A   1      41.659  31.707  30.894  1.00  0.00     0.031 C 
ATOM     61  C   UNL A   1      42.768  30.144  32.627  1.00  0.00     0.037 A 
BRANCH  48  62
ATOM     62  C   UNL A   1      45.781  32.130  28.506  1.00  0.00     0.058 A 
ATOM     63  C   UNL A   1      47.063  32.714  28.484  1.00  0.00     0.135 A 
ATOM     64  C   UNL A   1      44.714  32.992  28.165  1.00  0.00     0.135 A 
ATOM     65  F   UNL A   1      48.147  31.995  28.820  1.00  0.00    -0.206 F 
ATOM     66  C   UNL A   1      47.265  34.062  28.180  1.00  0.00     0.059 A 
ATOM     67  C   UNL A   1      44.898  34.321  27.803  1.00  0.00     0.059 A 
ATOM     68  F   UNL A   1      43.434  32.611  28.261  1.00  0.00    -0.206 F 
ATOM     69  C   UNL A   1      46.174  34.859  27.846  1.00  0.00     0.060 A 
BRANCH  69  70
ATOM     70  S   UNL A   1      46.422  36.615  27.528  1.00  0.00     0.124 S 
ATOM     71  O   UNL A   1      45.112  37.161  27.862  1.00  0.00    -0.237 OA
ATOM     72  O   UNL A   1      47.504  36.939  28.452  1.00  0.00    -0.237 OA
ATOM     73  O   UNL A   1      46.781  36.653  26.114  1.00  0.00    -0.744 OA
ENDBRANCH  69  70
ENDBRANCH  48  62
BRANCH  49  74
ATOM     74  C   UNL A   1      37.496  30.374  29.907  1.00  0.00     0.058 A 
ATOM     75  C   UNL A   1      36.622  31.018  30.805  1.00  0.00     0.135 A 
ATOM     76  C   UNL A   1      37.217  30.556  28.537  1.00  0.00     0.135 A 
ATOM     77  F   UNL A   1      36.816  30.908  32.128  1.00  0.00    -0.206 F 
ATOM     78  C   UNL A   1      35.585  31.851  30.372  1.00  0.00     0.059 A 
ATOM     79  C   UNL A   1      36.181  31.373  28.083  1.00  0.00     0.059 A 
ATOM     80  F   UNL A   1      38.005  30.023  27.593  1.00  0.00    -0.206 F 
ATOM     81  C   UNL A   1      35.391  32.046  29.005  1.00  0.00     0.060 A 
BRANCH  81  82
ATOM     82  S   UNL A   1      34.192  33.282  28.447  1.00  0.00     0.124 S 
ATOM     83  O   UNL A   1      35.026  34.169  27.642  1.00  0.00    -0.237 OA
ATOM     84  O   UNL A   1      33.233  32.467  27.710  1.00  0.00    -0.237 OA
ATOM     85  O   UNL A   1      33.692  33.856  29.693  1.00  0.00    -0.744 OA
ENDBRANCH  81  82
ENDBRANCH  49  74
BRANCH  61  86
ATOM     86  C   UNL A   1      42.456  29.133  33.707  1.00  0.00     0.058 A 
ATOM     87  C   UNL A   1      42.179  27.773  33.479  1.00  0.00     0.135 A 
ATOM     88  C   UNL A   1      42.584  29.538  35.044  1.00  0.00     0.135 A 
ATOM     89  F   UNL A   1      42.140  27.274  32.237  1.00  0.00    -0.206 F 
ATOM     90  C   UNL A   1      41.992  26.869  34.528  1.00  0.00     0.059 A 
ATOM     91  C   UNL A   1      42.436  28.649  36.105  1.00  0.00     0.059 A 
ATOM     92  F   UNL A   1      42.909  30.809  35.332  1.00  0.00    -0.206 F 
ATOM     93  C   UNL A   1      42.124  27.317  35.841  1.00  0.00     0.060 A 
BRANCH  93  94
ATOM     94  S   UNL A   1      41.939  26.140  37.198  1.00  0.00     0.124 S 
ATOM     95  O   UNL A   1      42.920  26.624  38.163  1.00  0.00    -0.237 OA
ATOM     96  O   UNL A   1      40.539  26.313  37.578  1.00  0.00    -0.237 OA
ATOM     97  O   UNL A   1      42.254  24.854  36.581  1.00  0.00    -0.744 OA
ENDBRANCH  93  94
ENDBRANCH  61  86
ENDBRANCH  35  36
ENDBRANCH  27  30
ENDBRANCH  25  26
ENDBRANCH   1  25
TORSDOF 15
ENDMDL
MODEL 3
REMARK VINA RESULT:     -12.4      2.452      9.294
REMARK SMILES Cc1cccc2nc(C(=O)N3CCC[C@@H](C(=O)NCCCNC(=O)c4ccc(-c5c6nc(c(-c7c(F)cc(S(=O)(=O)[O-])cc7F)c7ccc([nH]7)c(-c7c(F)cc(S(=O)(=O)[O-])cc7F)c7nc(c(-c8c(F)cc(S(=O)(=O)[O-])cc8F)c8ccc5[nH]8)C=C7)C=C6)cc4)C3)cn12
REMARK SMILES IDX 20 1 19 2 18 3 16 4 17 5 15 7 11 8 12 9 91 10 13 11 14 12
REMARK SMILES IDX 9 13 10 14 8 15 1 16 2 17 3 18 93 19 4 20 6 21 92 22 5 23
REMARK SMILES IDX 7 24 21 25 22 26 23 27 24 29 25 30 26 31 90 32 27 33 89 34
REMARK SMILES IDX 28 35 29 36 30 37 83 38 31 39 88 40 82 41 84 42 32 43 87 44
REMARK SMILES IDX 81 45 80 46 33 48 67 49 46 50 66 51 47 52 50 53 65 54 85 55
REMARK SMILES IDX 48 56 49 57 64 59 86 60 51 61 34 62 35 63 44 64 36 65 37 66
REMARK SMILES IDX 43 67 45 68 38 69 39 70 40 71 41 72 42 73 68 74 69 75 78 76
REMARK SMILES IDX 70 77 71 78 77 79 79 80 72 81 73 82 74 83 75 84 76 85 52 86
REMARK SMILES IDX 53 87 62 88 54 89 55 90 61 91 63 92 56 93 57 94 58 95 59 96
REMARK SMILES IDX 60 97
REMARK H PARENT 18 6 22 28 84 47 50 58
REMARK Flexibility Score: inf
ROOT
ATOM      1  C   UNL A   1      33.142  28.313  27.352  1.00  0.00     0.042 C 
ENDROOT
BRANCH   1   2
ATOM      2  C   UNL A   1      32.707  27.249  26.343  1.00  0.00     0.117 C 
BRANCH   2   3
ATOM      3  N   UNL A   1      31.833  26.240  26.922  1.00  0.00    -0.356 N 
ATOM      4  C   UNL A   1      31.555  24.970  26.513  1.00  0.00     0.224 C 
ATOM      5  O   UNL A   1      30.848  24.262  27.229  1.00  0.00    -0.275 OA
ATOM      6  H   UNL A   1      31.366  26.520  27.743  1.00  0.00     0.163 HD
BRANCH   4   7
ATOM      7  C   UNL A   1      32.084  24.472  25.186  1.00  0.00     0.098 C 
ATOM      8  N   UNL A   1      33.596  22.902  24.098  1.00  0.00    -0.336 N 
ATOM      9  C   UNL A   1      32.566  22.416  23.192  1.00  0.00     0.120 C 
ATOM     10  C   UNL A   1      33.135  23.373  25.407  1.00  0.00     0.133 C 
ATOM     11  C   UNL A   1      31.465  23.449  22.980  1.00  0.00     0.022 C 
ATOM     12  C   UNL A   1      30.927  23.956  24.319  1.00  0.00     0.017 C 
BRANCH   8  13
ATOM     13  C   UNL A   1      34.895  23.069  23.632  1.00  0.00     0.274 C 
ATOM     14  O   UNL A   1      35.126  23.400  22.468  1.00  0.00    -0.267 OA
BRANCH  13  15
ATOM     15  C   UNL A   1      35.993  22.710  24.542  1.00  0.00     0.147 A 
ATOM     16  C   UNL A   1      38.946  24.812  27.059  1.00  0.00     0.065 C 
ATOM     17  C   UNL A   1      38.886  23.397  26.568  1.00  0.00     0.021 A 
ATOM     18  C   UNL A   1      39.892  22.531  26.815  1.00  0.00     0.022 A 
ATOM     19  N   UNL A   1      37.791  22.937  25.809  1.00  0.00    -0.304 N 
ATOM     20  C   UNL A   1      39.811  21.166  26.321  1.00  0.00     0.006 A 
ATOM     21  C   UNL A   1      37.689  21.635  25.316  1.00  0.00     0.137 A 
ATOM     22  C   UNL A   1      36.681  23.601  25.349  1.00  0.00     0.127 A 
ATOM     23  C   UNL A   1      38.752  20.737  25.612  1.00  0.00     0.048 A 
ATOM     24  N   UNL A   1      36.608  21.472  24.585  1.00  0.00    -0.223 NA
ENDBRANCH  13  15
ENDBRANCH   8  13
ENDBRANCH   4   7
ENDBRANCH   2   3
ENDBRANCH   1   2
BRANCH   1  25
ATOM     25  C   UNL A   1      34.111  29.314  26.744  1.00  0.00     0.118 C 
BRANCH  25  26
ATOM     26  N   UNL A   1      33.928  30.664  27.278  1.00  0.00    -0.352 N 
ATOM     27  C   UNL A   1      34.682  31.330  28.222  1.00  0.00     0.251 C 
ATOM     28  H   UNL A   1      33.161  31.164  26.913  1.00  0.00     0.163 HD
ATOM     29  O   UNL A   1      34.240  32.324  28.774  1.00  0.00    -0.269 OA
BRANCH  27  30
ATOM     30  C   UNL A   1      36.029  30.824  28.547  1.00  0.00     0.039 A 
ATOM     31  C   UNL A   1      36.260  29.452  28.706  1.00  0.00     0.014 A 
ATOM     32  C   UNL A   1      37.061  31.743  28.721  1.00  0.00     0.014 A 
ATOM     33  C   UNL A   1      37.551  29.011  28.988  1.00  0.00     0.010 A 
ATOM     34  C   UNL A   1      38.351  31.306  28.868  1.00  0.00     0.010 A 
ATOM     35  C   UNL A   1      38.587  29.949  29.065  1.00  0.00    -0.014 A 
BRANCH  35  36
ATOM     36  C   UNL A   1      39.970  29.539  29.278  1.00  0.00     0.031 A 
ATOM     37  C   UNL A   1      40.367  29.413  30.709  1.00  0.00     0.074 A 
ATOM     38  C   UNL A   1      40.699  29.032  28.260  1.00  0.00     0.049 A 
ATOM     39  N   UNL A   1      41.290  30.054  31.348  1.00  0.00    -0.248 NA
ATOM     40  C   UNL A   1      39.542  28.549  31.577  1.00  0.00     0.031 C 
ATOM     41  C   UNL A   1      40.264  28.783  26.877  1.00  0.00     0.029 A 
ATOM     42  N   UNL A   1      41.947  28.495  28.272  1.00  0.00    -0.354 N 
ATOM     43  C   UNL A   1      41.311  29.512  32.633  1.00  0.00     0.074 A 
ATOM     44  C   UNL A   1      40.099  28.748  32.771  1.00  0.00     0.031 C 
ATOM     45  C   UNL A   1      41.129  27.938  26.275  1.00  0.00     0.029 A 
ATOM     46  C   UNL A   1      42.254  27.713  27.162  1.00  0.00     0.049 A 
ATOM     47  H   UNL A   1      42.583  28.647  29.009  1.00  0.00     0.167 HD
ATOM     48  C   UNL A   1      42.434  29.529  33.403  1.00  0.00     0.037 A 
ATOM     49  C   UNL A   1      43.333  26.900  27.020  1.00  0.00     0.037 A 
ATOM     50  C   UNL A   1      43.415  30.445  32.881  1.00  0.00     0.049 A 
ATOM     51  C   UNL A   1      44.330  27.339  28.032  1.00  0.00     0.074 A 
ATOM     52  C   UNL A   1      43.450  31.807  32.661  1.00  0.00     0.029 A 
ATOM     53  N   UNL A   1      44.432  29.914  32.127  1.00  0.00    -0.354 N 
ATOM     54  N   UNL A   1      44.919  28.504  28.022  1.00  0.00    -0.248 NA
ATOM     55  C   UNL A   1      44.332  26.654  29.315  1.00  0.00     0.031 C 
ATOM     56  C   UNL A   1      44.163  31.965  31.436  1.00  0.00     0.029 A 
ATOM     57  C   UNL A   1      44.582  30.701  31.012  1.00  0.00     0.049 A 
ATOM     58  H   UNL A   1      44.960  29.113  32.345  1.00  0.00     0.167 HD
ATOM     59  C   UNL A   1      44.983  28.884  29.355  1.00  0.00     0.074 A 
ATOM     60  C   UNL A   1      44.690  27.667  30.108  1.00  0.00     0.031 C 
ATOM     61  C   UNL A   1      44.986  30.203  29.714  1.00  0.00     0.037 A 
BRANCH  48  62
ATOM     62  C   UNL A   1      42.784  28.467  34.420  1.00  0.00     0.058 A 
ATOM     63  C   UNL A   1      42.984  28.825  35.768  1.00  0.00     0.135 A 
ATOM     64  C   UNL A   1      43.181  27.156  34.073  1.00  0.00     0.135 A 
ATOM     65  F   UNL A   1      42.669  30.057  36.202  1.00  0.00    -0.206 F 
ATOM     66  C   UNL A   1      43.568  27.956  36.693  1.00  0.00     0.059 A 
ATOM     67  C   UNL A   1      43.711  26.256  34.990  1.00  0.00     0.059 A 
ATOM     68  F   UNL A   1      43.165  26.720  32.807  1.00  0.00    -0.206 F 
ATOM     69  C   UNL A   1      43.933  26.675  36.291  1.00  0.00     0.060 A 
BRANCH  69  70
ATOM     70  S   UNL A   1      44.756  25.578  37.461  1.00  0.00     0.124 S 
ATOM     71  O   UNL A   1      44.308  24.270  37.001  1.00  0.00    -0.237 OA
ATOM     72  O   UNL A   1      46.163  25.891  37.229  1.00  0.00    -0.237 OA
ATOM     73  O   UNL A   1      44.230  26.009  38.752  1.00  0.00    -0.744 OA
ENDBRANCH  69  70
ENDBRANCH  48  62
BRANCH  49  74
ATOM     74  C   UNL A   1      43.404  25.563  26.366  1.00  0.00     0.058 A 
ATOM     75  C   UNL A   1      44.249  25.349  25.259  1.00  0.00     0.135 A 
ATOM     76  C   UNL A   1      42.897  24.404  26.988  1.00  0.00     0.135 A 
ATOM     77  F   UNL A   1      44.785  26.393  24.610  1.00  0.00    -0.206 F 
ATOM     78  C   UNL A   1      44.628  24.068  24.845  1.00  0.00     0.059 A 
ATOM     79  C   UNL A   1      43.253  23.117  26.585  1.00  0.00     0.059 A 
ATOM     80  F   UNL A   1      42.115  24.486  28.074  1.00  0.00    -0.206 F 
ATOM     81  C   UNL A   1      44.148  22.956  25.534  1.00  0.00     0.060 A 
BRANCH  81  82
ATOM     82  S   UNL A   1      44.800  21.315  25.137  1.00  0.00     0.124 S 
ATOM     83  O   UNL A   1      44.762  21.319  23.679  1.00  0.00    -0.237 OA
ATOM     84  O   UNL A   1      46.128  21.360  25.740  1.00  0.00    -0.237 OA
ATOM     85  O   UNL A   1      43.855  20.409  25.785  1.00  0.00    -0.744 OA
ENDBRANCH  81  82
ENDBRANCH  49  74
BRANCH  61  86
ATOM     86  C   UNL A   1      45.222  31.232  28.633  1.00  0.00     0.058 A 
ATOM     87  C   UNL A   1      44.217  31.796  27.826  1.00  0.00     0.135 A 
ATOM     88  C   UNL A   1      46.511  31.772  28.508  1.00  0.00     0.135 A 
ATOM     89  F   UNL A   1      42.938  31.416  27.949  1.00  0.00    -0.206 F 
ATOM     90  C   UNL A   1      44.488  32.813  26.907  1.00  0.00     0.059 A 
ATOM     91  C   UNL A   1      46.798  32.809  27.624  1.00  0.00     0.059 A 
ATOM     92  F   UNL A   1      47.505  31.324  29.292  1.00  0.00    -0.206 F 
ATOM     93  C   UNL A   1      45.784  33.316  26.814  1.00  0.00     0.060 A 
BRANCH  93  94
ATOM     94  S   UNL A   1      46.126  34.669  25.669  1.00  0.00     0.124 S 
ATOM     95  O   UNL A   1      47.550  34.496  25.403  1.00  0.00    -0.237 OA
ATOM     96  O   UNL A   1      45.233  34.371  24.552  1.00  0.00    -0.237 OA
ATOM     97  O   UNL A   1      45.775  35.863  26.434  1.00  0.00    -0.744 OA
ENDBRANCH  93  94
ENDBRANCH  61  86
ENDBRANCH  35  36
ENDBRANCH  27  30
ENDBRANCH  25  26
ENDBRANCH   1  25
TORSDOF 15
ENDMDL
