MODEL 1
REMARK VINA RESULT:     -10.7      0.000      0.000
REMARK SMILES CCN(C(=O)NC[C@]1(C)CCCO1)[C@@H](C)CC(=O)NCCCNC(=O)c1ccc(-c2c3nc(c(-c4c(F)cc(S(=O)(=O)[O-])cc4F)c4ccc([nH]4)c(-c4c(F)cc(S(=O)(=O)[O-])cc4F)c4nc(c(-c5c(F)cc(S(=O)(=O)[O-])cc5F)c5ccc2[nH]5)C=C4)C=C3)cc1
REMARK SMILES IDX 20 1 19 2 17 3 18 4 16 6 14 7 15 8 3 9 2 10 1 11 4 12 5 13
REMARK SMILES IDX 6 14 7 16 8 17 10 18 13 19 9 20 11 21 12 22 21 23 22 24
REMARK SMILES IDX 23 25 24 26 25 28 26 29 27 30 91 31 28 32 90 33 29 34 30 35
REMARK SMILES IDX 31 36 84 37 32 38 89 39 83 40 85 41 33 42 88 43 82 44 81 45
REMARK SMILES IDX 34 47 68 48 47 49 67 50 48 51 51 52 66 53 86 54 49 55 50 56
REMARK SMILES IDX 65 58 87 59 52 60 35 61 36 62 45 63 37 64 38 65 44 66 46 67
REMARK SMILES IDX 39 68 40 69 41 70 42 71 43 72 69 73 70 74 79 75 71 76 72 77
REMARK SMILES IDX 78 78 80 79 73 80 74 81 75 82 76 83 77 84 53 85 54 86 63 87
REMARK SMILES IDX 55 88 56 89 62 90 64 91 57 92 58 93 59 94 60 95 61 96
REMARK H PARENT 19 5 6 15 23 27 85 46 51 57
REMARK Flexibility Score: inf
ROOT
ATOM      1  C   UNL A   1      33.051  30.695  26.910  1.00  0.00     0.117 C 
ENDROOT
BRANCH   1   2
ATOM      2  N   UNL A   1      32.466  29.608  27.666  1.00  0.00    -0.356 N 
ATOM      3  C   UNL A   1      31.839  28.486  27.212  1.00  0.00     0.222 C 
ATOM      4  O   UNL A   1      31.313  27.738  28.038  1.00  0.00    -0.275 OA
ATOM      5  H   UNL A   1      32.531  29.690  28.645  1.00  0.00     0.163 HD
BRANCH   3   6
ATOM      6  C   UNL A   1      31.859  28.126  25.736  1.00  0.00     0.124 C 
BRANCH   6   7
ATOM      7  C   UNL A   1      32.461  26.742  25.431  1.00  0.00     0.093 C 
ATOM      8  C   UNL A   1      33.285  26.759  24.132  1.00  0.00     0.031 C 
BRANCH   7   9
ATOM      9  N   UNL A   1      31.512  25.578  25.418  1.00  0.00    -0.322 N 
BRANCH   9  10
ATOM     10  C   UNL A   1      30.814  25.244  24.165  1.00  0.00     0.118 C 
ATOM     11  C   UNL A   1      29.583  26.047  23.781  1.00  0.00     0.027 C 
ENDBRANCH   9  10
BRANCH   9  12
ATOM     12  C   UNL A   1      31.835  24.582  26.331  1.00  0.00     0.317 C 
ATOM     13  O   UNL A   1      31.123  24.325  27.306  1.00  0.00    -0.249 OA
ATOM     14  N   UNL A   1      32.936  23.816  26.232  1.00  0.00    -0.335 N 
ATOM     15  H   UNL A   1      33.224  23.478  27.110  1.00  0.00     0.165 HD
BRANCH  14  16
ATOM     16  C   UNL A   1      33.813  23.356  25.160  1.00  0.00     0.152 C 
BRANCH  16  17
ATOM     17  C   UNL A   1      35.042  22.558  25.658  1.00  0.00     0.083 C 
ATOM     18  C   UNL A   1      36.241  23.445  25.986  1.00  0.00     0.039 C 
ATOM     19  O   UNL A   1      35.470  21.713  24.566  1.00  0.00    -0.373 OA
ATOM     20  C   UNL A   1      34.666  21.663  26.840  1.00  0.00     0.044 C 
ATOM     21  C   UNL A   1      36.933  23.578  24.650  1.00  0.00     0.031 C 
ATOM     22  C   UNL A   1      36.702  22.217  24.033  1.00  0.00     0.161 C 
ENDBRANCH  16  17
ENDBRANCH  14  16
ENDBRANCH   9  12
ENDBRANCH   7   9
ENDBRANCH   6   7
ENDBRANCH   3   6
ENDBRANCH   1   2
BRANCH   1  23
ATOM     23  C   UNL A   1      34.083  31.444  27.737  1.00  0.00     0.042 C 
BRANCH  23  24
ATOM     24  C   UNL A   1      35.308  30.637  28.136  1.00  0.00     0.118 C 
BRANCH  24  25
ATOM     25  N   UNL A   1      35.415  30.477  29.582  1.00  0.00    -0.352 N 
ATOM     26  C   UNL A   1      36.437  30.040  30.393  1.00  0.00     0.251 C 
ATOM     27  H   UNL A   1      34.599  30.731  30.072  1.00  0.00     0.163 HD
ATOM     28  O   UNL A   1      36.174  29.838  31.580  1.00  0.00    -0.269 OA
BRANCH  26  29
ATOM     29  C   UNL A   1      37.817  29.788  29.895  1.00  0.00     0.039 A 
ATOM     30  C   UNL A   1      38.830  29.543  30.833  1.00  0.00     0.014 A 
ATOM     31  C   UNL A   1      38.160  29.849  28.545  1.00  0.00     0.014 A 
ATOM     32  C   UNL A   1      40.146  29.306  30.414  1.00  0.00     0.010 A 
ATOM     33  C   UNL A   1      39.443  29.496  28.122  1.00  0.00     0.010 A 
ATOM     34  C   UNL A   1      40.461  29.234  29.050  1.00  0.00    -0.014 A 
BRANCH  34  35
ATOM     35  C   UNL A   1      41.834  28.896  28.571  1.00  0.00     0.031 A 
ATOM     36  C   UNL A   1      42.166  27.491  28.128  1.00  0.00     0.074 A 
ATOM     37  C   UNL A   1      42.805  29.833  28.604  1.00  0.00     0.049 A 
ATOM     38  N   UNL A   1      43.323  26.984  27.782  1.00  0.00    -0.248 NA
ATOM     39  C   UNL A   1      41.061  26.518  28.095  1.00  0.00     0.031 C 
ATOM     40  C   UNL A   1      42.632  31.217  29.050  1.00  0.00     0.029 A 
ATOM     41  N   UNL A   1      44.138  29.763  28.271  1.00  0.00    -0.354 N 
ATOM     42  C   UNL A   1      43.090  25.639  27.517  1.00  0.00     0.074 A 
ATOM     43  C   UNL A   1      41.692  25.393  27.788  1.00  0.00     0.031 C 
ATOM     44  C   UNL A   1      43.803  31.867  28.952  1.00  0.00     0.029 A 
ATOM     45  C   UNL A   1      44.823  30.939  28.477  1.00  0.00     0.049 A 
ATOM     46  H   UNL A   1      44.562  28.947  27.919  1.00  0.00     0.167 HD
ATOM     47  C   UNL A   1      43.955  24.698  27.066  1.00  0.00     0.037 A 
ATOM     48  C   UNL A   1      46.128  31.237  28.314  1.00  0.00     0.037 A 
ATOM     49  C   UNL A   1      45.337  24.958  26.751  1.00  0.00     0.049 A 
ATOM     50  C   UNL A   1      47.066  30.174  27.808  1.00  0.00     0.074 A 
ATOM     51  C   UNL A   1      46.270  24.090  26.212  1.00  0.00     0.029 A 
ATOM     52  N   UNL A   1      45.983  26.169  26.943  1.00  0.00    -0.354 N 
ATOM     53  N   UNL A   1      46.805  28.927  27.493  1.00  0.00    -0.248 NA
ATOM     54  C   UNL A   1      48.474  30.557  27.628  1.00  0.00     0.031 C 
ATOM     55  C   UNL A   1      47.495  24.760  26.129  1.00  0.00     0.029 A 
ATOM     56  C   UNL A   1      47.309  26.063  26.560  1.00  0.00     0.049 A 
ATOM     57  H   UNL A   1      45.560  26.984  27.301  1.00  0.00     0.167 HD
ATOM     58  C   UNL A   1      48.009  28.390  27.047  1.00  0.00     0.074 A 
ATOM     59  C   UNL A   1      48.992  29.449  27.118  1.00  0.00     0.031 C 
ATOM     60  C   UNL A   1      48.275  27.130  26.621  1.00  0.00     0.037 A 
BRANCH  47  61
ATOM     61  C   UNL A   1      43.444  23.296  26.866  1.00  0.00     0.058 A 
ATOM     62  C   UNL A   1      43.185  22.780  25.587  1.00  0.00     0.135 A 
ATOM     63  C   UNL A   1      43.301  22.427  27.961  1.00  0.00     0.135 A 
ATOM     64  F   UNL A   1      43.291  23.568  24.505  1.00  0.00    -0.206 F 
ATOM     65  C   UNL A   1      42.792  21.458  25.400  1.00  0.00     0.059 A 
ATOM     66  C   UNL A   1      42.937  21.094  27.797  1.00  0.00     0.059 A 
ATOM     67  F   UNL A   1      43.534  22.868  29.208  1.00  0.00    -0.206 F 
ATOM     68  C   UNL A   1      42.679  20.621  26.510  1.00  0.00     0.060 A 
BRANCH  68  69
ATOM     69  S   UNL A   1      42.217  18.895  26.246  1.00  0.00     0.124 S 
ATOM     70  O   UNL A   1      40.853  19.033  25.741  1.00  0.00    -0.237 OA
ATOM     71  O   UNL A   1      43.210  18.456  25.267  1.00  0.00    -0.237 OA
ATOM     72  O   UNL A   1      42.340  18.300  27.569  1.00  0.00    -0.744 OA
ENDBRANCH  68  69
ENDBRANCH  47  61
BRANCH  48  73
ATOM     73  C   UNL A   1      46.634  32.603  28.630  1.00  0.00     0.058 A 
ATOM     74  C   UNL A   1      46.995  32.958  29.939  1.00  0.00     0.135 A 
ATOM     75  C   UNL A   1      46.744  33.589  27.636  1.00  0.00     0.135 A 
ATOM     76  F   UNL A   1      46.905  32.053  30.928  1.00  0.00    -0.206 F 
ATOM     77  C   UNL A   1      47.410  34.246  30.261  1.00  0.00     0.059 A 
ATOM     78  C   UNL A   1      47.186  34.876  27.927  1.00  0.00     0.059 A 
ATOM     79  F   UNL A   1      46.432  33.300  26.364  1.00  0.00    -0.206 F 
ATOM     80  C   UNL A   1      47.499  35.200  29.246  1.00  0.00     0.060 A 
BRANCH  80  81
ATOM     81  S   UNL A   1      48.049  36.868  29.669  1.00  0.00     0.124 S 
ATOM     82  O   UNL A   1      49.069  36.592  30.676  1.00  0.00    -0.237 OA
ATOM     83  O   UNL A   1      48.536  37.365  28.386  1.00  0.00    -0.237 OA
ATOM     84  O   UNL A   1      46.834  37.508  30.161  1.00  0.00    -0.744 OA
ENDBRANCH  80  81
ENDBRANCH  48  73
BRANCH  60  85
ATOM     85  C   UNL A   1      49.675  26.836  26.153  1.00  0.00     0.058 A 
ATOM     86  C   UNL A   1      50.650  26.318  27.020  1.00  0.00     0.135 A 
ATOM     87  C   UNL A   1      50.029  27.027  24.808  1.00  0.00     0.135 A 
ATOM     88  F   UNL A   1      50.366  26.121  28.318  1.00  0.00    -0.206 F 
ATOM     89  C   UNL A   1      51.935  26.024  26.574  1.00  0.00     0.059 A 
ATOM     90  C   UNL A   1      51.297  26.712  24.334  1.00  0.00     0.059 A 
ATOM     91  F   UNL A   1      49.131  27.510  23.935  1.00  0.00    -0.206 F 
ATOM     92  C   UNL A   1      52.248  26.222  25.228  1.00  0.00     0.060 A 
BRANCH  92  93
ATOM     93  S   UNL A   1      53.909  25.807  24.657  1.00  0.00     0.124 S 
ATOM     94  O   UNL A   1      54.737  26.602  25.558  1.00  0.00    -0.237 OA
ATOM     95  O   UNL A   1      53.957  24.363  24.861  1.00  0.00    -0.237 OA
ATOM     96  O   UNL A   1      53.908  26.238  23.262  1.00  0.00    -0.744 OA
ENDBRANCH  92  93
ENDBRANCH  60  85
ENDBRANCH  34  35
ENDBRANCH  26  29
ENDBRANCH  24  25
ENDBRANCH  23  24
ENDBRANCH   1  23
TORSDOF 19
ENDMDL
MODEL 2
REMARK VINA RESULT:     -10.7      6.490     11.730
REMARK SMILES CCN(C(=O)NC[C@]1(C)CCCO1)[C@@H](C)CC(=O)NCCCNC(=O)c1ccc(-c2c3nc(c(-c4c(F)cc(S(=O)(=O)[O-])cc4F)c4ccc([nH]4)c(-c4c(F)cc(S(=O)(=O)[O-])cc4F)c4nc(c(-c5c(F)cc(S(=O)(=O)[O-])cc5F)c5ccc2[nH]5)C=C4)C=C3)cc1
REMARK SMILES IDX 20 1 19 2 17 3 18 4 16 6 14 7 15 8 3 9 2 10 1 11 4 12 5 13
REMARK SMILES IDX 6 14 7 16 8 17 10 18 13 19 9 20 11 21 12 22 21 23 22 24
REMARK SMILES IDX 23 25 24 26 25 28 26 29 27 30 91 31 28 32 90 33 29 34 30 35
REMARK SMILES IDX 31 36 84 37 32 38 89 39 83 40 85 41 33 42 88 43 82 44 81 45
REMARK SMILES IDX 34 47 68 48 47 49 67 50 48 51 51 52 66 53 86 54 49 55 50 56
REMARK SMILES IDX 65 58 87 59 52 60 35 61 36 62 45 63 37 64 38 65 44 66 46 67
REMARK SMILES IDX 39 68 40 69 41 70 42 71 43 72 69 73 70 74 79 75 71 76 72 77
REMARK SMILES IDX 78 78 80 79 73 80 74 81 75 82 76 83 77 84 53 85 54 86 63 87
REMARK SMILES IDX 55 88 56 89 62 90 64 91 57 92 58 93 59 94 60 95 61 96
REMARK H PARENT 19 5 6 15 23 27 85 46 51 57
REMARK Flexibility Score: inf
ROOT
ATOM      1  C   UNL A   1      38.365  22.974  26.291  1.00  0.00     0.117 C 
ENDROOT
BRANCH   1   2
ATOM      2  N   UNL A   1      37.712  22.833  25.006  1.00  0.00    -0.356 N 
ATOM      3  C   UNL A   1      36.470  23.246  24.624  1.00  0.00     0.222 C 
ATOM      4  O   UNL A   1      36.067  22.922  23.506  1.00  0.00    -0.275 OA
ATOM      5  H   UNL A   1      38.237  22.374  24.312  1.00  0.00     0.163 HD
BRANCH   3   6
ATOM      6  C   UNL A   1      35.641  24.151  25.520  1.00  0.00     0.124 C 
BRANCH   6   7
ATOM      7  C   UNL A   1      34.489  23.434  26.249  1.00  0.00     0.093 C 
ATOM      8  C   UNL A   1      34.790  21.938  26.445  1.00  0.00     0.031 C 
BRANCH   7   9
ATOM      9  N   UNL A   1      33.112  23.607  25.674  1.00  0.00    -0.322 N 
BRANCH   9  10
ATOM     10  C   UNL A   1      32.549  22.530  24.840  1.00  0.00     0.118 C 
ATOM     11  C   UNL A   1      31.939  22.894  23.498  1.00  0.00     0.027 C 
ENDBRANCH   9  10
BRANCH   9  12
ATOM     12  C   UNL A   1      32.280  24.407  26.445  1.00  0.00     0.317 C 
ATOM     13  O   UNL A   1      31.565  23.945  27.340  1.00  0.00    -0.249 OA
ATOM     14  N   UNL A   1      32.182  25.739  26.291  1.00  0.00    -0.335 N 
ATOM     15  H   UNL A   1      31.308  26.078  26.594  1.00  0.00     0.165 HD
BRANCH  14  16
ATOM     16  C   UNL A   1      33.036  26.813  25.793  1.00  0.00     0.152 C 
BRANCH  16  17
ATOM     17  C   UNL A   1      32.695  27.264  24.353  1.00  0.00     0.083 C 
ATOM     18  C   UNL A   1      32.767  28.778  24.165  1.00  0.00     0.039 C 
ATOM     19  O   UNL A   1      31.314  26.908  24.113  1.00  0.00    -0.373 OA
ATOM     20  C   UNL A   1      33.566  26.530  23.332  1.00  0.00     0.044 C 
ATOM     21  C   UNL A   1      31.388  29.232  24.580  1.00  0.00     0.031 C 
ATOM     22  C   UNL A   1      30.516  28.099  24.088  1.00  0.00     0.161 C 
ENDBRANCH  16  17
ENDBRANCH  14  16
ENDBRANCH   9  12
ENDBRANCH   7   9
ENDBRANCH   6   7
ENDBRANCH   3   6
ENDBRANCH   1   2
BRANCH   1  23
ATOM     23  C   UNL A   1      39.653  22.168  26.341  1.00  0.00     0.042 C 
BRANCH  23  24
ATOM     24  C   UNL A   1      40.846  22.885  26.953  1.00  0.00     0.118 C 
BRANCH  24  25
ATOM     25  N   UNL A   1      41.552  23.710  25.979  1.00  0.00    -0.352 N 
ATOM     26  C   UNL A   1      41.883  25.046  25.963  1.00  0.00     0.251 C 
ATOM     27  H   UNL A   1      41.848  23.218  25.179  1.00  0.00     0.163 HD
ATOM     28  O   UNL A   1      42.329  25.508  24.912  1.00  0.00    -0.269 OA
BRANCH  26  29
ATOM     29  C   UNL A   1      41.710  25.939  27.141  1.00  0.00     0.039 A 
ATOM     30  C   UNL A   1      42.632  26.978  27.332  1.00  0.00     0.014 A 
ATOM     31  C   UNL A   1      40.712  25.750  28.097  1.00  0.00     0.014 A 
ATOM     32  C   UNL A   1      42.514  27.842  28.428  1.00  0.00     0.010 A 
ATOM     33  C   UNL A   1      40.525  26.681  29.121  1.00  0.00     0.010 A 
ATOM     34  C   UNL A   1      41.431  27.733  29.313  1.00  0.00    -0.014 A 
BRANCH  34  35
ATOM     35  C   UNL A   1      41.229  28.692  30.439  1.00  0.00     0.031 A 
ATOM     36  C   UNL A   1      42.072  28.596  31.688  1.00  0.00     0.074 A 
ATOM     37  C   UNL A   1      40.237  29.605  30.373  1.00  0.00     0.049 A 
ATOM     38  N   UNL A   1      41.973  29.268  32.807  1.00  0.00    -0.248 NA
ATOM     39  C   UNL A   1      43.151  27.593  31.694  1.00  0.00     0.031 C 
ATOM     40  C   UNL A   1      39.320  29.779  29.244  1.00  0.00     0.029 A 
ATOM     41  N   UNL A   1      39.819  30.552  31.279  1.00  0.00    -0.354 N 
ATOM     42  C   UNL A   1      42.953  28.756  33.651  1.00  0.00     0.074 A 
ATOM     43  C   UNL A   1      43.606  27.683  32.936  1.00  0.00     0.031 C 
ATOM     44  C   UNL A   1      38.460  30.774  29.516  1.00  0.00     0.029 A 
ATOM     45  C   UNL A   1      38.733  31.284  30.855  1.00  0.00     0.049 A 
ATOM     46  H   UNL A   1      40.256  30.691  32.150  1.00  0.00     0.167 HD
ATOM     47  C   UNL A   1      43.295  29.158  34.900  1.00  0.00     0.037 A 
ATOM     48  C   UNL A   1      38.026  32.250  31.476  1.00  0.00     0.037 A 
ATOM     49  C   UNL A   1      42.674  30.259  35.591  1.00  0.00     0.049 A 
ATOM     50  C   UNL A   1      38.431  32.679  32.861  1.00  0.00     0.074 A 
ATOM     51  C   UNL A   1      43.006  30.792  36.825  1.00  0.00     0.029 A 
ATOM     52  N   UNL A   1      41.600  30.994  35.114  1.00  0.00    -0.354 N 
ATOM     53  N   UNL A   1      39.411  32.230  33.610  1.00  0.00    -0.248 NA
ATOM     54  C   UNL A   1      37.641  33.750  33.485  1.00  0.00     0.031 C 
ATOM     55  C   UNL A   1      42.098  31.815  37.118  1.00  0.00     0.029 A 
ATOM     56  C   UNL A   1      41.240  31.958  36.041  1.00  0.00     0.049 A 
ATOM     57  H   UNL A   1      41.159  30.851  34.245  1.00  0.00     0.167 HD
ATOM     58  C   UNL A   1      39.373  32.987  34.777  1.00  0.00     0.074 A 
ATOM     59  C   UNL A   1      38.286  33.931  34.628  1.00  0.00     0.031 C 
ATOM     60  C   UNL A   1      40.165  32.904  35.874  1.00  0.00     0.037 A 
BRANCH  47  61
ATOM     61  C   UNL A   1      44.400  28.422  35.608  1.00  0.00     0.058 A 
ATOM     62  C   UNL A   1      45.734  28.857  35.549  1.00  0.00     0.135 A 
ATOM     63  C   UNL A   1      44.109  27.321  36.433  1.00  0.00     0.135 A 
ATOM     64  F   UNL A   1      46.073  29.894  34.767  1.00  0.00    -0.206 F 
ATOM     65  C   UNL A   1      46.740  28.223  36.272  1.00  0.00     0.059 A 
ATOM     66  C   UNL A   1      45.094  26.689  37.187  1.00  0.00     0.059 A 
ATOM     67  F   UNL A   1      42.851  26.862  36.526  1.00  0.00    -0.206 F 
ATOM     68  C   UNL A   1      46.409  27.145  37.094  1.00  0.00     0.060 A 
BRANCH  68  69
ATOM     69  S   UNL A   1      47.718  26.365  38.064  1.00  0.00     0.124 S 
ATOM     70  O   UNL A   1      48.279  25.428  37.094  1.00  0.00    -0.237 OA
ATOM     71  O   UNL A   1      48.569  27.504  38.406  1.00  0.00    -0.237 OA
ATOM     72  O   UNL A   1      47.005  25.762  39.180  1.00  0.00    -0.744 OA
ENDBRANCH  68  69
ENDBRANCH  47  61
BRANCH  48  73
ATOM     73  C   UNL A   1      36.860  32.885  30.798  1.00  0.00     0.058 A 
ATOM     74  C   UNL A   1      37.041  33.886  29.832  1.00  0.00     0.135 A 
ATOM     75  C   UNL A   1      35.543  32.523  31.121  1.00  0.00     0.135 A 
ATOM     76  F   UNL A   1      38.281  34.272  29.490  1.00  0.00    -0.206 F 
ATOM     77  C   UNL A   1      35.962  34.532  29.237  1.00  0.00     0.059 A 
ATOM     78  C   UNL A   1      34.447  33.132  30.517  1.00  0.00     0.059 A 
ATOM     79  F   UNL A   1      35.311  31.557  32.023  1.00  0.00    -0.206 F 
ATOM     80  C   UNL A   1      34.667  34.149  29.589  1.00  0.00     0.060 A 
BRANCH  80  81
ATOM     81  S   UNL A   1      33.271  34.984  28.803  1.00  0.00     0.124 S 
ATOM     82  O   UNL A   1      33.922  36.150  28.215  1.00  0.00    -0.237 OA
ATOM     83  O   UNL A   1      32.800  33.973  27.862  1.00  0.00    -0.237 OA
ATOM     84  O   UNL A   1      32.372  35.258  29.919  1.00  0.00    -0.744 OA
ENDBRANCH  80  81
ENDBRANCH  48  73
BRANCH  60  85
ATOM     85  C   UNL A   1      39.919  33.888  36.985  1.00  0.00     0.058 A 
ATOM     86  C   UNL A   1      40.431  35.195  36.943  1.00  0.00     0.135 A 
ATOM     87  C   UNL A   1      39.119  33.534  38.083  1.00  0.00     0.135 A 
ATOM     88  F   UNL A   1      41.207  35.584  35.918  1.00  0.00    -0.206 F 
ATOM     89  C   UNL A   1      40.178  36.106  37.962  1.00  0.00     0.059 A 
ATOM     90  C   UNL A   1      38.827  34.438  39.098  1.00  0.00     0.059 A 
ATOM     91  F   UNL A   1      38.596  32.300  38.168  1.00  0.00    -0.206 F 
ATOM     92  C   UNL A   1      39.372  35.719  39.036  1.00  0.00     0.060 A 
BRANCH  92  93
ATOM     93  S   UNL A   1      39.027  36.923  40.335  1.00  0.00     0.124 S 
ATOM     94  O   UNL A   1      38.454  38.025  39.570  1.00  0.00    -0.237 OA
ATOM     95  O   UNL A   1      38.097  36.197  41.194  1.00  0.00    -0.237 OA
ATOM     96  O   UNL A   1      40.340  37.181  40.919  1.00  0.00    -0.744 OA
ENDBRANCH  92  93
ENDBRANCH  60  85
ENDBRANCH  34  35
ENDBRANCH  26  29
ENDBRANCH  24  25
ENDBRANCH  23  24
ENDBRANCH   1  23
TORSDOF 19
ENDMDL
MODEL 3
REMARK VINA RESULT:     -10.7      6.630     11.689
REMARK SMILES CCN(C(=O)NC[C@]1(C)CCCO1)[C@@H](C)CC(=O)NCCCNC(=O)c1ccc(-c2c3nc(c(-c4c(F)cc(S(=O)(=O)[O-])cc4F)c4ccc([nH]4)c(-c4c(F)cc(S(=O)(=O)[O-])cc4F)c4nc(c(-c5c(F)cc(S(=O)(=O)[O-])cc5F)c5ccc2[nH]5)C=C4)C=C3)cc1
REMARK SMILES IDX 20 1 19 2 17 3 18 4 16 6 14 7 15 8 3 9 2 10 1 11 4 12 5 13
REMARK SMILES IDX 6 14 7 16 8 17 10 18 13 19 9 20 11 21 12 22 21 23 22 24
REMARK SMILES IDX 23 25 24 26 25 28 26 29 27 30 91 31 28 32 90 33 29 34 30 35
REMARK SMILES IDX 31 36 84 37 32 38 89 39 83 40 85 41 33 42 88 43 82 44 81 45
REMARK SMILES IDX 34 47 68 48 47 49 67 50 48 51 51 52 66 53 86 54 49 55 50 56
REMARK SMILES IDX 65 58 87 59 52 60 35 61 36 62 45 63 37 64 38 65 44 66 46 67
REMARK SMILES IDX 39 68 40 69 41 70 42 71 43 72 69 73 70 74 79 75 71 76 72 77
REMARK SMILES IDX 78 78 80 79 73 80 74 81 75 82 76 83 77 84 53 85 54 86 63 87
REMARK SMILES IDX 55 88 56 89 62 90 64 91 57 92 58 93 59 94 60 95 61 96
REMARK H PARENT 19 5 6 15 23 27 85 46 51 57
REMARK Flexibility Score: inf
ROOT
ATOM      1  C   UNL A   1      37.991  22.922  26.071  1.00  0.00     0.117 C 
ENDROOT
BRANCH   1   2
ATOM      2  N   UNL A   1      37.714  23.137  24.666  1.00  0.00    -0.356 N 
ATOM      3  C   UNL A   1      36.640  22.734  23.931  1.00  0.00     0.222 C 
ATOM      4  O   UNL A   1      36.659  22.930  22.714  1.00  0.00    -0.275 OA
ATOM      5  H   UNL A   1      38.398  23.646  24.173  1.00  0.00     0.163 HD
BRANCH   3   6
ATOM      6  C   UNL A   1      35.417  22.133  24.604  1.00  0.00     0.124 C 
BRANCH   6   7
ATOM      7  C   UNL A   1      34.365  23.168  25.043  1.00  0.00     0.093 C 
ATOM      8  C   UNL A   1      34.056  23.056  26.546  1.00  0.00     0.031 C 
BRANCH   7   9
ATOM      9  N   UNL A   1      33.083  23.205  24.260  1.00  0.00    -0.322 N 
BRANCH   9  10
ATOM     10  C   UNL A   1      33.149  23.324  22.793  1.00  0.00     0.118 C 
ATOM     11  C   UNL A   1      33.387  24.695  22.185  1.00  0.00     0.027 C 
ENDBRANCH   9  10
BRANCH   9  12
ATOM     12  C   UNL A   1      32.039  22.517  24.864  1.00  0.00     0.317 C 
ATOM     13  O   UNL A   1      31.094  23.097  25.409  1.00  0.00    -0.249 OA
ATOM     14  N   UNL A   1      31.963  21.175  24.907  1.00  0.00    -0.335 N 
ATOM     15  H   UNL A   1      31.434  20.865  25.677  1.00  0.00     0.165 HD
BRANCH  14  16
ATOM     16  C   UNL A   1      32.461  20.060  24.107  1.00  0.00     0.152 C 
BRANCH  16  17
ATOM     17  C   UNL A   1      33.034  18.895  24.949  1.00  0.00     0.083 C 
ATOM     18  C   UNL A   1      34.376  18.384  24.431  1.00  0.00     0.039 C 
ATOM     19  O   UNL A   1      32.117  17.785  24.816  1.00  0.00    -0.373 OA
ATOM     20  C   UNL A   1      33.112  19.280  26.427  1.00  0.00     0.044 C 
ATOM     21  C   UNL A   1      33.968  17.366  23.394  1.00  0.00     0.031 C 
ATOM     22  C   UNL A   1      32.720  16.769  24.004  1.00  0.00     0.161 C 
ENDBRANCH  16  17
ENDBRANCH  14  16
ENDBRANCH   9  12
ENDBRANCH   7   9
ENDBRANCH   6   7
ENDBRANCH   3   6
ENDBRANCH   1   2
BRANCH   1  23
ATOM     23  C   UNL A   1      39.237  22.072  26.259  1.00  0.00     0.042 C 
BRANCH  23  24
ATOM     24  C   UNL A   1      40.368  22.735  27.029  1.00  0.00     0.118 C 
BRANCH  24  25
ATOM     25  N   UNL A   1      41.296  23.437  26.149  1.00  0.00    -0.352 N 
ATOM     26  C   UNL A   1      41.818  24.709  26.179  1.00  0.00     0.251 C 
ATOM     27  H   UNL A   1      41.608  22.897  25.387  1.00  0.00     0.163 HD
ATOM     28  O   UNL A   1      42.447  25.089  25.190  1.00  0.00    -0.269 OA
BRANCH  26  29
ATOM     29  C   UNL A   1      41.641  25.632  27.334  1.00  0.00     0.039 A 
ATOM     30  C   UNL A   1      42.596  26.638  27.536  1.00  0.00     0.014 A 
ATOM     31  C   UNL A   1      40.605  25.502  28.257  1.00  0.00     0.014 A 
ATOM     32  C   UNL A   1      42.476  27.529  28.610  1.00  0.00     0.010 A 
ATOM     33  C   UNL A   1      40.421  26.460  29.257  1.00  0.00     0.010 A 
ATOM     34  C   UNL A   1      41.361  27.480  29.459  1.00  0.00    -0.014 A 
BRANCH  34  35
ATOM     35  C   UNL A   1      41.159  28.469  30.559  1.00  0.00     0.031 A 
ATOM     36  C   UNL A   1      41.988  28.393  31.820  1.00  0.00     0.074 A 
ATOM     37  C   UNL A   1      40.179  29.392  30.460  1.00  0.00     0.049 A 
ATOM     38  N   UNL A   1      41.886  29.094  32.921  1.00  0.00    -0.248 NA
ATOM     39  C   UNL A   1      43.054  27.377  31.862  1.00  0.00     0.031 C 
ATOM     40  C   UNL A   1      39.276  29.549  29.318  1.00  0.00     0.029 A 
ATOM     41  N   UNL A   1      39.764  30.365  31.339  1.00  0.00    -0.354 N 
ATOM     42  C   UNL A   1      42.850  28.591  33.788  1.00  0.00     0.074 A 
ATOM     43  C   UNL A   1      43.497  27.493  33.106  1.00  0.00     0.031 C 
ATOM     44  C   UNL A   1      38.426  30.561  29.557  1.00  0.00     0.029 A 
ATOM     45  C   UNL A   1      38.692  31.101  30.885  1.00  0.00     0.049 A 
ATOM     46  H   UNL A   1      40.194  30.521  32.210  1.00  0.00     0.167 HD
ATOM     47  C   UNL A   1      43.184  29.019  35.030  1.00  0.00     0.037 A 
ATOM     48  C   UNL A   1      37.991  32.090  31.475  1.00  0.00     0.037 A 
ATOM     49  C   UNL A   1      42.570  30.144  35.687  1.00  0.00     0.049 A 
ATOM     50  C   UNL A   1      38.386  32.548  32.854  1.00  0.00     0.074 A 
ATOM     51  C   UNL A   1      42.896  30.704  36.910  1.00  0.00     0.029 A 
ATOM     52  N   UNL A   1      41.511  30.881  35.181  1.00  0.00    -0.354 N 
ATOM     53  N   UNL A   1      39.352  32.106  33.624  1.00  0.00    -0.248 NA
ATOM     54  C   UNL A   1      37.603  33.644  33.442  1.00  0.00     0.031 C 
ATOM     55  C   UNL A   1      41.998  31.745  37.169  1.00  0.00     0.029 A 
ATOM     56  C   UNL A   1      41.153  31.871  36.080  1.00  0.00     0.049 A 
ATOM     57  H   UNL A   1      41.077  30.722  34.311  1.00  0.00     0.167 HD
ATOM     58  C   UNL A   1      39.312  32.892  34.771  1.00  0.00     0.074 A 
ATOM     59  C   UNL A   1      38.239  33.845  34.588  1.00  0.00     0.031 C 
ATOM     60  C   UNL A   1      40.092  32.826  35.878  1.00  0.00     0.037 A 
BRANCH  47  61
ATOM     61  C   UNL A   1      44.273  28.287  35.768  1.00  0.00     0.058 A 
ATOM     62  C   UNL A   1      45.619  28.674  35.672  1.00  0.00     0.135 A 
ATOM     63  C   UNL A   1      43.956  27.244  36.655  1.00  0.00     0.135 A 
ATOM     64  F   UNL A   1      45.983  29.654  34.830  1.00  0.00    -0.206 F 
ATOM     65  C   UNL A   1      46.612  28.048  36.419  1.00  0.00     0.059 A 
ATOM     66  C   UNL A   1      44.928  26.622  37.433  1.00  0.00     0.059 A 
ATOM     67  F   UNL A   1      42.684  26.832  36.785  1.00  0.00    -0.206 F 
ATOM     68  C   UNL A   1      46.256  27.029  37.303  1.00  0.00     0.060 A 
BRANCH  68  69
ATOM     69  S   UNL A   1      47.549  26.261  38.302  1.00  0.00     0.124 S 
ATOM     70  O   UNL A   1      47.745  24.994  37.601  1.00  0.00    -0.237 OA
ATOM     71  O   UNL A   1      48.644  27.223  38.183  1.00  0.00    -0.237 OA
ATOM     72  O   UNL A   1      46.949  26.161  39.624  1.00  0.00    -0.744 OA
ENDBRANCH  68  69
ENDBRANCH  47  61
BRANCH  48  73
ATOM     73  C   UNL A   1      36.840  32.723  30.770  1.00  0.00     0.058 A 
ATOM     74  C   UNL A   1      37.035  33.777  29.865  1.00  0.00     0.135 A 
ATOM     75  C   UNL A   1      35.520  32.303  31.004  1.00  0.00     0.135 A 
ATOM     76  F   UNL A   1      38.277  34.219  29.608  1.00  0.00    -0.206 F 
ATOM     77  C   UNL A   1      35.967  34.419  29.247  1.00  0.00     0.059 A 
ATOM     78  C   UNL A   1      34.437  32.908  30.375  1.00  0.00     0.059 A 
ATOM     79  F   UNL A   1      35.276  31.286  31.844  1.00  0.00    -0.206 F 
ATOM     80  C   UNL A   1      34.669  33.978  29.512  1.00  0.00     0.060 A 
BRANCH  80  81
ATOM     81  S   UNL A   1      33.288  34.808  28.696  1.00  0.00     0.124 S 
ATOM     82  O   UNL A   1      32.450  35.170  29.835  1.00  0.00    -0.237 OA
ATOM     83  O   UNL A   1      33.953  35.915  28.016  1.00  0.00    -0.237 OA
ATOM     84  O   UNL A   1      32.748  33.777  27.817  1.00  0.00    -0.744 OA
ENDBRANCH  80  81
ENDBRANCH  48  73
BRANCH  60  85
ATOM     85  C   UNL A   1      39.847  33.840  36.962  1.00  0.00     0.058 A 
ATOM     86  C   UNL A   1      38.929  33.608  37.999  1.00  0.00     0.135 A 
ATOM     87  C   UNL A   1      40.578  35.038  36.992  1.00  0.00     0.135 A 
ATOM     88  F   UNL A   1      38.199  32.480  38.016  1.00  0.00    -0.206 F 
ATOM     89  C   UNL A   1      38.727  34.539  39.012  1.00  0.00     0.059 A 
ATOM     90  C   UNL A   1      40.415  35.970  38.011  1.00  0.00     0.059 A 
ATOM     91  F   UNL A   1      41.477  35.306  36.030  1.00  0.00    -0.206 F 
ATOM     92  C   UNL A   1      39.477  35.718  39.011  1.00  0.00     0.060 A 
BRANCH  92  93
ATOM     93  S   UNL A   1      39.227  36.903  40.348  1.00  0.00     0.124 S 
ATOM     94  O   UNL A   1      38.530  37.983  39.658  1.00  0.00    -0.237 OA
ATOM     95  O   UNL A   1      38.427  36.136  41.298  1.00  0.00    -0.237 OA
ATOM     96  O   UNL A   1      40.585  37.212  40.787  1.00  0.00    -0.744 OA
ENDBRANCH  92  93
ENDBRANCH  60  85
ENDBRANCH  34  35
ENDBRANCH  26  29
ENDBRANCH  24  25
ENDBRANCH  23  24
ENDBRANCH   1  23
TORSDOF 19
ENDMDL
