MODEL 1
REMARK VINA RESULT:     -11.8      0.000      0.000
REMARK SMILES Cc1ccc(S(=O)(=O)Nc2ccc(N3CCNC3=O)cc2)cc1C(=O)NCCCNC(=O)c1ccc(-c2c3nc(c(-c4c(F)cc(S(=O)(=O)[O-])cc4F)c4ccc([nH]4)c(-c4c(F)cc(S(=O)(=O)[O-])cc4F)c4nc(c(-c5c(F)cc(S(=O)(=O)[O-])cc5F)c5ccc2[nH]5)C=C4)C=C3)cc1
REMARK SMILES IDX 27 1 26 2 24 3 25 4 23 6 1 7 2 8 3 9 4 10 22 11 5 12 6 13
REMARK SMILES IDX 7 14 8 15 9 16 10 18 11 19 21 20 12 21 20 22 13 23 14 24
REMARK SMILES IDX 15 25 18 26 16 27 17 28 19 29 28 31 29 32 30 33 31 34 32 36
REMARK SMILES IDX 33 37 34 38 98 39 35 40 97 41 36 42 37 43 38 44 91 45 39 46
REMARK SMILES IDX 96 47 90 48 92 49 40 50 95 51 89 52 88 53 41 55 75 56 54 57
REMARK SMILES IDX 74 58 55 59 58 60 73 61 93 62 56 63 57 64 72 66 94 67 59 68
REMARK SMILES IDX 42 69 43 70 52 71 44 72 45 73 51 74 53 75 46 76 47 77 48 78
REMARK SMILES IDX 49 79 50 80 76 81 77 82 86 83 78 84 79 85 85 86 87 87 80 88
REMARK SMILES IDX 81 89 82 90 83 91 84 92 60 93 61 94 70 95 62 96 63 97 69 98
REMARK SMILES IDX 71 99 64 100 65 101 66 102 67 103 68 104
REMARK H PARENT 26 5 9 17 17 30 30 35 92 54 58 65
REMARK Flexibility Score: inf
ROOT
ATOM      1  C   UNL A   1      34.487  29.555  27.244  1.00  0.00     0.118 C 
ENDROOT
BRANCH   1   2
ATOM      2  N   UNL A   1      33.126  29.136  27.641  1.00  0.00    -0.352 N 
ATOM      3  C   UNL A   1      32.187  28.191  27.275  1.00  0.00     0.251 C 
ATOM      4  O   UNL A   1      31.376  27.794  28.119  1.00  0.00    -0.269 OA
ATOM      5  H   UNL A   1      32.792  29.690  28.384  1.00  0.00     0.163 HD
BRANCH   3   6
ATOM      6  C   UNL A   1      32.028  27.621  25.901  1.00  0.00     0.044 A 
ATOM      7  C   UNL A   1      31.191  29.810  24.865  1.00  0.00     0.045 C 
ATOM      8  C   UNL A   1      31.653  28.384  24.785  1.00  0.00    -0.038 A 
ATOM      9  C   UNL A   1      31.561  27.763  23.531  1.00  0.00     0.005 A 
ATOM     10  C   UNL A   1      31.561  26.377  23.428  1.00  0.00     0.022 A 
ATOM     11  C   UNL A   1      32.012  26.196  25.784  1.00  0.00     0.036 A 
ATOM     12  C   UNL A   1      31.672  25.584  24.573  1.00  0.00     0.088 A 
BRANCH  12  13
ATOM     13  S   UNL A   1      31.169  23.895  24.322  1.00  0.00     0.261 S 
ATOM     14  O   UNL A   1      30.763  23.405  25.628  1.00  0.00    -0.201 OA
ATOM     15  O   UNL A   1      30.196  23.911  23.246  1.00  0.00    -0.201 OA
BRANCH  13  16
ATOM     16  N   UNL A   1      32.371  22.826  23.832  1.00  0.00    -0.280 N 
ATOM     17  H   UNL A   1      32.167  22.193  23.107  1.00  0.00     0.180 HD
BRANCH  16  18
ATOM     18  C   UNL A   1      33.667  22.793  24.415  1.00  0.00     0.049 A 
ATOM     19  C   UNL A   1      34.709  22.625  23.506  1.00  0.00     0.029 A 
ATOM     20  C   UNL A   1      33.922  22.796  25.782  1.00  0.00     0.029 A 
ATOM     21  C   UNL A   1      36.027  22.634  23.949  1.00  0.00     0.028 A 
ATOM     22  C   UNL A   1      35.253  22.778  26.227  1.00  0.00     0.028 A 
ATOM     23  C   UNL A   1      36.314  22.752  25.312  1.00  0.00     0.046 A 
BRANCH  23  24
ATOM     24  N   UNL A   1      37.648  22.927  25.724  1.00  0.00    -0.293 N 
ATOM     25  C   UNL A   1      38.143  24.189  26.233  1.00  0.00     0.149 C 
ATOM     26  C   UNL A   1      38.637  21.939  25.829  1.00  0.00     0.321 C 
ATOM     27  C   UNL A   1      39.399  23.805  26.998  1.00  0.00     0.139 C 
ATOM     28  N   UNL A   1      39.729  22.513  26.474  1.00  0.00    -0.336 N 
ATOM     29  O   UNL A   1      38.615  20.793  25.410  1.00  0.00    -0.248 OA
ATOM     30  H   UNL A   1      40.612  22.087  26.558  1.00  0.00     0.165 HD
ENDBRANCH  23  24
ENDBRANCH  16  18
ENDBRANCH  13  16
ENDBRANCH  12  13
ENDBRANCH   3   6
ENDBRANCH   1   2
BRANCH   1  31
ATOM     31  C   UNL A   1      35.585  29.813  28.402  1.00  0.00     0.042 C 
BRANCH  31  32
ATOM     32  C   UNL A   1      37.052  30.220  27.930  1.00  0.00     0.118 C 
BRANCH  32  33
ATOM     33  N   UNL A   1      38.270  29.252  27.878  1.00  0.00    -0.352 N 
ATOM     34  C   UNL A   1      38.799  28.229  28.760  1.00  0.00     0.251 C 
ATOM     35  H   UNL A   1      38.804  29.359  27.057  1.00  0.00     0.163 HD
ATOM     36  O   UNL A   1      38.666  27.073  28.325  1.00  0.00    -0.269 OA
BRANCH  34  37
ATOM     37  C   UNL A   1      39.582  28.311  30.125  1.00  0.00     0.039 A 
ATOM     38  C   UNL A   1      38.872  28.413  31.363  1.00  0.00     0.014 A 
ATOM     39  C   UNL A   1      40.958  28.422  30.277  1.00  0.00     0.014 A 
ATOM     40  C   UNL A   1      39.435  29.121  32.498  1.00  0.00     0.010 A 
ATOM     41  C   UNL A   1      41.517  29.128  31.392  1.00  0.00     0.010 A 
ATOM     42  C   UNL A   1      40.718  29.686  32.404  1.00  0.00    -0.014 A 
BRANCH  42  43
ATOM     43  C   UNL A   1      41.150  30.972  33.100  1.00  0.00     0.031 A 
ATOM     44  C   UNL A   1      42.187  30.986  34.126  1.00  0.00     0.074 A 
ATOM     45  C   UNL A   1      40.800  32.260  32.796  1.00  0.00     0.049 A 
ATOM     46  N   UNL A   1      42.089  31.593  35.267  1.00  0.00    -0.248 NA
ATOM     47  C   UNL A   1      43.491  30.421  33.841  1.00  0.00     0.031 C 
ATOM     48  C   UNL A   1      41.258  33.580  33.264  1.00  0.00     0.029 A 
ATOM     49  N   UNL A   1      39.905  32.685  31.847  1.00  0.00    -0.354 N 
ATOM     50  C   UNL A   1      43.387  31.781  35.692  1.00  0.00     0.074 A 
ATOM     51  C   UNL A   1      44.185  30.869  34.890  1.00  0.00     0.031 C 
ATOM     52  C   UNL A   1      40.375  34.535  32.883  1.00  0.00     0.029 A 
ATOM     53  C   UNL A   1      39.283  33.881  32.194  1.00  0.00     0.049 A 
ATOM     54  H   UNL A   1      39.721  32.198  31.011  1.00  0.00     0.167 HD
ATOM     55  C   UNL A   1      43.757  32.869  36.440  1.00  0.00     0.037 A 
ATOM     56  C   UNL A   1      37.931  33.878  32.442  1.00  0.00     0.037 A 
ATOM     57  C   UNL A   1      42.709  33.908  36.480  1.00  0.00     0.049 A 
ATOM     58  C   UNL A   1      37.704  34.016  33.928  1.00  0.00     0.074 A 
ATOM     59  C   UNL A   1      42.612  35.200  35.973  1.00  0.00     0.029 A 
ATOM     60  N   UNL A   1      41.418  33.586  36.871  1.00  0.00    -0.354 N 
ATOM     61  N   UNL A   1      38.616  34.475  34.735  1.00  0.00    -0.248 NA
ATOM     62  C   UNL A   1      36.508  33.579  34.648  1.00  0.00     0.031 C 
ATOM     63  C   UNL A   1      41.261  35.645  36.091  1.00  0.00     0.029 A 
ATOM     64  C   UNL A   1      40.530  34.634  36.684  1.00  0.00     0.049 A 
ATOM     65  H   UNL A   1      41.161  32.710  37.239  1.00  0.00     0.167 HD
ATOM     66  C   UNL A   1      38.255  34.243  36.028  1.00  0.00     0.074 A 
ATOM     67  C   UNL A   1      36.893  33.744  35.928  1.00  0.00     0.031 C 
ATOM     68  C   UNL A   1      39.132  34.435  37.058  1.00  0.00     0.037 A 
BRANCH  55  69
ATOM     69  C   UNL A   1      45.201  33.107  36.873  1.00  0.00     0.058 A 
ATOM     70  C   UNL A   1      45.750  32.509  38.026  1.00  0.00     0.135 A 
ATOM     71  C   UNL A   1      46.123  33.886  36.136  1.00  0.00     0.135 A 
ATOM     72  F   UNL A   1      45.067  31.610  38.745  1.00  0.00    -0.206 F 
ATOM     73  C   UNL A   1      47.051  32.763  38.473  1.00  0.00     0.059 A 
ATOM     74  C   UNL A   1      47.397  34.222  36.601  1.00  0.00     0.059 A 
ATOM     75  F   UNL A   1      45.855  34.289  34.884  1.00  0.00    -0.206 F 
ATOM     76  C   UNL A   1      47.860  33.647  37.771  1.00  0.00     0.060 A 
BRANCH  76  77
ATOM     77  S   UNL A   1      49.543  33.944  38.340  1.00  0.00     0.124 S 
ATOM     78  O   UNL A   1      50.193  34.457  37.139  1.00  0.00    -0.237 OA
ATOM     79  O   UNL A   1      49.331  34.910  39.412  1.00  0.00    -0.237 OA
ATOM     80  O   UNL A   1      49.994  32.623  38.773  1.00  0.00    -0.744 OA
ENDBRANCH  76  77
ENDBRANCH  55  69
BRANCH  56  81
ATOM     81  C   UNL A   1      37.072  33.021  31.473  1.00  0.00     0.058 A 
ATOM     82  C   UNL A   1      35.966  32.412  32.103  1.00  0.00     0.135 A 
ATOM     83  C   UNL A   1      36.723  33.702  30.320  1.00  0.00     0.135 A 
ATOM     84  F   UNL A   1      36.145  31.296  32.822  1.00  0.00    -0.206 F 
ATOM     85  C   UNL A   1      34.703  33.013  32.114  1.00  0.00     0.059 A 
ATOM     86  C   UNL A   1      35.471  34.333  30.336  1.00  0.00     0.059 A 
ATOM     87  F   UNL A   1      37.680  34.171  29.501  1.00  0.00    -0.206 F 
ATOM     88  C   UNL A   1      34.551  34.152  31.358  1.00  0.00     0.060 A 
BRANCH  88  89
ATOM     89  S   UNL A   1      33.348  35.561  31.943  1.00  0.00     0.124 S 
ATOM     90  O   UNL A   1      34.160  36.146  32.998  1.00  0.00    -0.237 OA
ATOM     91  O   UNL A   1      33.179  36.426  30.806  1.00  0.00    -0.237 OA
ATOM     92  O   UNL A   1      32.131  34.919  32.425  1.00  0.00    -0.744 OA
ENDBRANCH  88  89
ENDBRANCH  56  81
BRANCH  68  93
ATOM     93  C   UNL A   1      38.753  34.403  38.514  1.00  0.00     0.058 A 
ATOM     94  C   UNL A   1      38.899  35.517  39.358  1.00  0.00     0.135 A 
ATOM     95  C   UNL A   1      38.363  33.203  39.156  1.00  0.00     0.135 A 
ATOM     96  F   UNL A   1      39.417  36.669  38.904  1.00  0.00    -0.206 F 
ATOM     97  C   UNL A   1      38.562  35.477  40.710  1.00  0.00     0.059 A 
ATOM     98  C   UNL A   1      38.066  33.129  40.510  1.00  0.00     0.059 A 
ATOM     99  F   UNL A   1      38.252  32.041  38.502  1.00  0.00    -0.206 F 
ATOM    100  C   UNL A   1      38.129  34.281  41.272  1.00  0.00     0.060 A 
BRANCH 100 101
ATOM    101  S   UNL A   1      37.681  34.233  43.011  1.00  0.00     0.124 S 
ATOM    102  O   UNL A   1      36.343  33.652  42.972  1.00  0.00    -0.237 OA
ATOM    103  O   UNL A   1      38.729  33.376  43.556  1.00  0.00    -0.237 OA
ATOM    104  O   UNL A   1      37.738  35.633  43.420  1.00  0.00    -0.744 OA
ENDBRANCH 100 101
ENDBRANCH  68  93
ENDBRANCH  42  43
ENDBRANCH  34  37
ENDBRANCH  32  33
ENDBRANCH  31  32
ENDBRANCH   1  31
TORSDOF 17
ENDMDL
MODEL 2
REMARK VINA RESULT:     -11.8      5.426     10.516
REMARK SMILES Cc1ccc(S(=O)(=O)Nc2ccc(N3CCNC3=O)cc2)cc1C(=O)NCCCNC(=O)c1ccc(-c2c3nc(c(-c4c(F)cc(S(=O)(=O)[O-])cc4F)c4ccc([nH]4)c(-c4c(F)cc(S(=O)(=O)[O-])cc4F)c4nc(c(-c5c(F)cc(S(=O)(=O)[O-])cc5F)c5ccc2[nH]5)C=C4)C=C3)cc1
REMARK SMILES IDX 27 1 26 2 24 3 25 4 23 6 1 7 2 8 3 9 4 10 22 11 5 12 6 13
REMARK SMILES IDX 7 14 8 15 9 16 10 18 11 19 21 20 12 21 20 22 13 23 14 24
REMARK SMILES IDX 15 25 18 26 16 27 17 28 19 29 28 31 29 32 30 33 31 34 32 36
REMARK SMILES IDX 33 37 34 38 98 39 35 40 97 41 36 42 37 43 38 44 91 45 39 46
REMARK SMILES IDX 96 47 90 48 92 49 40 50 95 51 89 52 88 53 41 55 75 56 54 57
REMARK SMILES IDX 74 58 55 59 58 60 73 61 93 62 56 63 57 64 72 66 94 67 59 68
REMARK SMILES IDX 42 69 43 70 52 71 44 72 45 73 51 74 53 75 46 76 47 77 48 78
REMARK SMILES IDX 49 79 50 80 76 81 77 82 86 83 78 84 79 85 85 86 87 87 80 88
REMARK SMILES IDX 81 89 82 90 83 91 84 92 60 93 61 94 70 95 62 96 63 97 69 98
REMARK SMILES IDX 71 99 64 100 65 101 66 102 67 103 68 104
REMARK H PARENT 26 5 9 17 17 30 30 35 92 54 58 65
REMARK Flexibility Score: inf
ROOT
ATOM      1  C   UNL A   1      35.641  23.051  24.523  1.00  0.00     0.118 C 
ENDROOT
BRANCH   1   2
ATOM      2  N   UNL A   1      34.817  23.576  23.412  1.00  0.00    -0.352 N 
ATOM      3  C   UNL A   1      33.925  24.605  23.185  1.00  0.00     0.251 C 
ATOM      4  O   UNL A   1      33.805  25.052  22.039  1.00  0.00    -0.269 OA
ATOM      5  H   UNL A   1      34.942  23.036  22.598  1.00  0.00     0.163 HD
BRANCH   3   6
ATOM      6  C   UNL A   1      33.033  25.218  24.219  1.00  0.00     0.044 A 
ATOM      7  C   UNL A   1      30.958  23.891  23.512  1.00  0.00     0.045 C 
ATOM      8  C   UNL A   1      31.700  24.828  24.419  1.00  0.00    -0.038 A 
ATOM      9  C   UNL A   1      30.954  25.442  25.437  1.00  0.00     0.005 A 
ATOM     10  C   UNL A   1      31.414  26.601  26.049  1.00  0.00     0.022 A 
ATOM     11  C   UNL A   1      33.490  26.419  24.845  1.00  0.00     0.036 A 
ATOM     12  C   UNL A   1      32.639  27.160  25.672  1.00  0.00     0.088 A 
BRANCH  12  13
ATOM     13  S   UNL A   1      32.836  28.854  26.181  1.00  0.00     0.261 S 
ATOM     14  O   UNL A   1      32.451  29.660  25.035  1.00  0.00    -0.201 OA
ATOM     15  O   UNL A   1      32.097  29.001  27.421  1.00  0.00    -0.201 OA
BRANCH  13  16
ATOM     16  N   UNL A   1      34.406  29.350  26.527  1.00  0.00    -0.280 N 
ATOM     17  H   UNL A   1      35.149  28.917  26.050  1.00  0.00     0.180 HD
BRANCH  16  18
ATOM     18  C   UNL A   1      34.708  30.364  27.476  1.00  0.00     0.049 A 
ATOM     19  C   UNL A   1      35.726  30.039  28.370  1.00  0.00     0.029 A 
ATOM     20  C   UNL A   1      33.994  31.548  27.628  1.00  0.00     0.029 A 
ATOM     21  C   UNL A   1      36.151  30.971  29.309  1.00  0.00     0.028 A 
ATOM     22  C   UNL A   1      34.409  32.476  28.595  1.00  0.00     0.028 A 
ATOM     23  C   UNL A   1      35.523  32.217  29.405  1.00  0.00     0.046 A 
BRANCH  23  24
ATOM     24  N   UNL A   1      36.072  33.204  30.242  1.00  0.00    -0.293 N 
ATOM     25  C   UNL A   1      35.438  33.612  31.479  1.00  0.00     0.149 C 
ATOM     26  C   UNL A   1      37.316  33.836  30.102  1.00  0.00     0.321 C 
ATOM     27  C   UNL A   1      36.562  34.268  32.264  1.00  0.00     0.139 C 
ATOM     28  N   UNL A   1      37.539  34.575  31.260  1.00  0.00    -0.336 N 
ATOM     29  O   UNL A   1      38.077  33.814  29.149  1.00  0.00    -0.248 OA
ATOM     30  H   UNL A   1      38.270  35.223  31.375  1.00  0.00     0.165 HD
ENDBRANCH  23  24
ENDBRANCH  16  18
ENDBRANCH  13  16
ENDBRANCH  12  13
ENDBRANCH   3   6
ENDBRANCH   1   2
BRANCH   1  31
ATOM     31  C   UNL A   1      36.648  21.822  24.224  1.00  0.00     0.042 C 
BRANCH  31  32
ATOM     32  C   UNL A   1      37.596  21.356  25.417  1.00  0.00     0.118 C 
BRANCH  32  33
ATOM     33  N   UNL A   1      39.042  21.879  25.659  1.00  0.00    -0.352 N 
ATOM     34  C   UNL A   1      39.657  22.767  26.628  1.00  0.00     0.251 C 
ATOM     35  H   UNL A   1      39.688  21.525  25.005  1.00  0.00     0.163 HD
ATOM     36  O   UNL A   1      40.409  22.191  27.432  1.00  0.00    -0.269 OA
BRANCH  34  37
ATOM     37  C   UNL A   1      39.618  24.333  26.802  1.00  0.00     0.039 A 
ATOM     38  C   UNL A   1      40.563  25.162  26.118  1.00  0.00     0.014 A 
ATOM     39  C   UNL A   1      38.809  25.042  27.681  1.00  0.00     0.014 A 
ATOM     40  C   UNL A   1      41.015  26.417  26.689  1.00  0.00     0.010 A 
ATOM     41  C   UNL A   1      39.256  26.277  28.253  1.00  0.00     0.010 A 
ATOM     42  C   UNL A   1      40.491  26.857  27.916  1.00  0.00    -0.014 A 
BRANCH  42  43
ATOM     43  C   UNL A   1      41.275  27.650  28.957  1.00  0.00     0.031 A 
ATOM     44  C   UNL A   1      40.643  28.664  29.794  1.00  0.00     0.074 A 
ATOM     45  C   UNL A   1      42.561  27.454  29.380  1.00  0.00     0.049 A 
ATOM     46  N   UNL A   1      41.119  29.851  30.003  1.00  0.00    -0.248 NA
ATOM     47  C   UNL A   1      39.477  28.322  30.584  1.00  0.00     0.031 C 
ATOM     48  C   UNL A   1      43.375  28.022  30.470  1.00  0.00     0.029 A 
ATOM     49  N   UNL A   1      43.475  26.551  28.899  1.00  0.00    -0.354 N 
ATOM     50  C   UNL A   1      40.533  30.277  31.176  1.00  0.00     0.074 A 
ATOM     51  C   UNL A   1      39.393  29.397  31.372  1.00  0.00     0.031 C 
ATOM     52  C   UNL A   1      44.682  27.728  30.269  1.00  0.00     0.029 A 
ATOM     53  C   UNL A   1      44.787  26.999  29.023  1.00  0.00     0.049 A 
ATOM     54  H   UNL A   1      43.231  25.681  28.510  1.00  0.00     0.167 HD
ATOM     55  C   UNL A   1      41.181  31.107  32.054  1.00  0.00     0.037 A 
ATOM     56  C   UNL A   1      45.509  27.258  27.882  1.00  0.00     0.037 A 
ATOM     57  C   UNL A   1      42.619  31.241  31.745  1.00  0.00     0.049 A 
ATOM     58  C   UNL A   1      45.641  28.753  27.714  1.00  0.00     0.074 A 
ATOM     59  C   UNL A   1      43.785  30.840  32.390  1.00  0.00     0.029 A 
ATOM     60  N   UNL A   1      43.031  31.616  30.476  1.00  0.00    -0.354 N 
ATOM     61  N   UNL A   1      45.463  29.586  28.698  1.00  0.00    -0.248 NA
ATOM     62  C   UNL A   1      45.881  29.446  26.448  1.00  0.00     0.031 C 
ATOM     63  C   UNL A   1      44.888  31.006  31.501  1.00  0.00     0.029 A 
ATOM     64  C   UNL A   1      44.405  31.523  30.315  1.00  0.00     0.049 A 
ATOM     65  H   UNL A   1      42.416  31.916  29.768  1.00  0.00     0.167 HD
ATOM     66  C   UNL A   1      45.375  30.859  28.222  1.00  0.00     0.074 A 
ATOM     67  C   UNL A   1      45.715  30.733  26.814  1.00  0.00     0.031 C 
ATOM     68  C   UNL A   1      44.979  31.893  29.023  1.00  0.00     0.037 A 
BRANCH  55  69
ATOM     69  C   UNL A   1      40.556  31.544  33.375  1.00  0.00     0.058 A 
ATOM     70  C   UNL A   1      40.521  30.703  34.507  1.00  0.00     0.135 A 
ATOM     71  C   UNL A   1      40.019  32.833  33.602  1.00  0.00     0.135 A 
ATOM     72  F   UNL A   1      41.134  29.513  34.517  1.00  0.00    -0.206 F 
ATOM     73  C   UNL A   1      39.899  31.062  35.708  1.00  0.00     0.059 A 
ATOM     74  C   UNL A   1      39.321  33.188  34.759  1.00  0.00     0.059 A 
ATOM     75  F   UNL A   1      40.225  33.837  32.736  1.00  0.00    -0.206 F 
ATOM     76  C   UNL A   1      39.272  32.296  35.816  1.00  0.00     0.060 A 
BRANCH  76  77
ATOM     77  S   UNL A   1      38.500  32.759  37.376  1.00  0.00     0.124 S 
ATOM     78  O   UNL A   1      37.286  31.950  37.377  1.00  0.00    -0.237 OA
ATOM     79  O   UNL A   1      39.523  32.372  38.342  1.00  0.00    -0.237 OA
ATOM     80  O   UNL A   1      38.286  34.197  37.237  1.00  0.00    -0.744 OA
ENDBRANCH  76  77
ENDBRANCH  55  69
BRANCH  56  81
ATOM     81  C   UNL A   1      45.337  26.232  26.730  1.00  0.00     0.058 A 
ATOM     82  C   UNL A   1      45.201  26.838  25.462  1.00  0.00     0.135 A 
ATOM     83  C   UNL A   1      46.300  25.239  26.747  1.00  0.00     0.135 A 
ATOM     84  F   UNL A   1      44.017  27.345  25.095  1.00  0.00    -0.206 F 
ATOM     85  C   UNL A   1      46.302  27.048  24.625  1.00  0.00     0.059 A 
ATOM     86  C   UNL A   1      47.421  25.458  25.935  1.00  0.00     0.059 A 
ATOM     87  F   UNL A   1      46.418  24.437  27.819  1.00  0.00    -0.206 F 
ATOM     88  C   UNL A   1      47.500  26.506  25.028  1.00  0.00     0.060 A 
BRANCH  88  89
ATOM     89  S   UNL A   1      49.171  27.409  24.617  1.00  0.00     0.124 S 
ATOM     90  O   UNL A   1      49.083  28.512  25.561  1.00  0.00    -0.237 OA
ATOM     91  O   UNL A   1      50.211  26.467  24.934  1.00  0.00    -0.237 OA
ATOM     92  O   UNL A   1      49.106  27.823  23.221  1.00  0.00    -0.744 OA
ENDBRANCH  88  89
ENDBRANCH  56  81
BRANCH  68  93
ATOM     93  C   UNL A   1      45.055  33.346  28.636  1.00  0.00     0.058 A 
ATOM     94  C   UNL A   1      44.315  33.882  27.568  1.00  0.00     0.135 A 
ATOM     95  C   UNL A   1      45.987  34.228  29.232  1.00  0.00     0.135 A 
ATOM     96  F   UNL A   1      43.518  33.107  26.816  1.00  0.00    -0.206 F 
ATOM     97  C   UNL A   1      44.401  35.224  27.202  1.00  0.00     0.059 A 
ATOM     98  C   UNL A   1      46.122  35.557  28.854  1.00  0.00     0.059 A 
ATOM     99  F   UNL A   1      46.815  33.845  30.211  1.00  0.00    -0.206 F 
ATOM    100  C   UNL A   1      45.296  36.058  27.865  1.00  0.00     0.060 A 
BRANCH 100 101
ATOM    101  S   UNL A   1      45.397  37.791  27.404  1.00  0.00     0.124 S 
ATOM    102  O   UNL A   1      46.103  37.735  26.129  1.00  0.00    -0.237 OA
ATOM    103  O   UNL A   1      43.985  38.152  27.332  1.00  0.00    -0.237 OA
ATOM    104  O   UNL A   1      46.146  38.396  28.502  1.00  0.00    -0.744 OA
ENDBRANCH 100 101
ENDBRANCH  68  93
ENDBRANCH  42  43
ENDBRANCH  34  37
ENDBRANCH  32  33
ENDBRANCH  31  32
ENDBRANCH   1  31
TORSDOF 17
ENDMDL
MODEL 3
REMARK VINA RESULT:     -11.7      5.759      9.574
REMARK SMILES Cc1ccc(S(=O)(=O)Nc2ccc(N3CCNC3=O)cc2)cc1C(=O)NCCCNC(=O)c1ccc(-c2c3nc(c(-c4c(F)cc(S(=O)(=O)[O-])cc4F)c4ccc([nH]4)c(-c4c(F)cc(S(=O)(=O)[O-])cc4F)c4nc(c(-c5c(F)cc(S(=O)(=O)[O-])cc5F)c5ccc2[nH]5)C=C4)C=C3)cc1
REMARK SMILES IDX 27 1 26 2 24 3 25 4 23 6 1 7 2 8 3 9 4 10 22 11 5 12 6 13
REMARK SMILES IDX 7 14 8 15 9 16 10 18 11 19 21 20 12 21 20 22 13 23 14 24
REMARK SMILES IDX 15 25 18 26 16 27 17 28 19 29 28 31 29 32 30 33 31 34 32 36
REMARK SMILES IDX 33 37 34 38 98 39 35 40 97 41 36 42 37 43 38 44 91 45 39 46
REMARK SMILES IDX 96 47 90 48 92 49 40 50 95 51 89 52 88 53 41 55 75 56 54 57
REMARK SMILES IDX 74 58 55 59 58 60 73 61 93 62 56 63 57 64 72 66 94 67 59 68
REMARK SMILES IDX 42 69 43 70 52 71 44 72 45 73 51 74 53 75 46 76 47 77 48 78
REMARK SMILES IDX 49 79 50 80 76 81 77 82 86 83 78 84 79 85 85 86 87 87 80 88
REMARK SMILES IDX 81 89 82 90 83 91 84 92 60 93 61 94 70 95 62 96 63 97 69 98
REMARK SMILES IDX 71 99 64 100 65 101 66 102 67 103 68 104
REMARK H PARENT 26 5 9 17 17 30 30 35 92 54 58 65
REMARK Flexibility Score: inf
ROOT
ATOM      1  C   UNL A   1      35.038  21.400  26.483  1.00  0.00     0.118 C 
ENDROOT
BRANCH   1   2
ATOM      2  N   UNL A   1      33.877  20.483  26.480  1.00  0.00    -0.352 N 
ATOM      3  C   UNL A   1      33.022  19.903  25.564  1.00  0.00     0.251 C 
ATOM      4  O   UNL A   1      32.492  18.822  25.841  1.00  0.00    -0.269 OA
ATOM      5  H   UNL A   1      33.649  20.204  27.397  1.00  0.00     0.163 HD
BRANCH   3   6
ATOM      6  C   UNL A   1      32.633  20.501  24.248  1.00  0.00     0.044 A 
ATOM      7  C   UNL A   1      32.480  18.247  23.037  1.00  0.00     0.045 C 
ATOM      8  C   UNL A   1      32.306  19.735  23.118  1.00  0.00    -0.038 A 
ATOM      9  C   UNL A   1      31.923  20.388  21.937  1.00  0.00     0.005 A 
ATOM     10  C   UNL A   1      32.132  21.754  21.787  1.00  0.00     0.022 A 
ATOM     11  C   UNL A   1      32.858  21.901  24.076  1.00  0.00     0.036 A 
ATOM     12  C   UNL A   1      32.709  22.498  22.820  1.00  0.00     0.088 A 
BRANCH  12  13
ATOM     13  S   UNL A   1      33.343  24.077  22.294  1.00  0.00     0.261 S 
ATOM     14  O   UNL A   1      34.617  24.238  22.973  1.00  0.00    -0.201 OA
ATOM     15  O   UNL A   1      33.319  24.067  20.843  1.00  0.00    -0.201 OA
BRANCH  13  16
ATOM     16  N   UNL A   1      32.453  25.427  22.754  1.00  0.00    -0.280 N 
ATOM     17  H   UNL A   1      31.634  25.641  22.253  1.00  0.00     0.180 HD
BRANCH  16  18
ATOM     18  C   UNL A   1      32.827  26.274  23.833  1.00  0.00     0.049 A 
ATOM     19  C   UNL A   1      33.460  27.455  23.453  1.00  0.00     0.029 A 
ATOM     20  C   UNL A   1      32.712  25.941  25.179  1.00  0.00     0.029 A 
ATOM     21  C   UNL A   1      33.822  28.390  24.415  1.00  0.00     0.028 A 
ATOM     22  C   UNL A   1      33.104  26.877  26.148  1.00  0.00     0.028 A 
ATOM     23  C   UNL A   1      33.611  28.129  25.772  1.00  0.00     0.046 A 
BRANCH  23  24
ATOM     24  N   UNL A   1      33.828  29.150  26.714  1.00  0.00    -0.293 N 
ATOM     25  C   UNL A   1      35.144  29.456  27.236  1.00  0.00     0.149 C 
ATOM     26  C   UNL A   1      32.890  30.078  27.188  1.00  0.00     0.321 C 
ATOM     27  C   UNL A   1      35.001  30.868  27.779  1.00  0.00     0.139 C 
ATOM     28  N   UNL A   1      33.584  31.026  27.933  1.00  0.00    -0.336 N 
ATOM     29  O   UNL A   1      31.678  30.075  27.044  1.00  0.00    -0.248 OA
ATOM     30  H   UNL A   1      33.158  31.715  28.493  1.00  0.00     0.165 HD
ENDBRANCH  23  24
ENDBRANCH  16  18
ENDBRANCH  13  16
ENDBRANCH  12  13
ENDBRANCH   3   6
ENDBRANCH   1   2
BRANCH   1  31
ATOM     31  C   UNL A   1      36.144  21.250  25.314  1.00  0.00     0.042 C 
BRANCH  31  32
ATOM     32  C   UNL A   1      37.374  22.264  25.347  1.00  0.00     0.118 C 
BRANCH  32  33
ATOM     33  N   UNL A   1      38.872  21.847  25.301  1.00  0.00    -0.352 N 
ATOM     34  C   UNL A   1      39.854  21.460  26.297  1.00  0.00     0.251 C 
ATOM     35  H   UNL A   1      39.238  21.845  24.387  1.00  0.00     0.163 HD
ATOM     36  O   UNL A   1      40.173  20.259  26.249  1.00  0.00    -0.269 OA
BRANCH  34  37
ATOM     37  C   UNL A   1      40.653  22.288  27.373  1.00  0.00     0.039 A 
ATOM     38  C   UNL A   1      40.144  23.537  27.852  1.00  0.00     0.014 A 
ATOM     39  C   UNL A   1      41.924  21.999  27.855  1.00  0.00     0.014 A 
ATOM     40  C   UNL A   1      41.034  24.602  28.272  1.00  0.00     0.010 A 
ATOM     41  C   UNL A   1      42.808  23.050  28.263  1.00  0.00     0.010 A 
ATOM     42  C   UNL A   1      42.425  24.401  28.252  1.00  0.00    -0.014 A 
BRANCH  42  43
ATOM     43  C   UNL A   1      43.452  25.488  27.948  1.00  0.00     0.031 A 
ATOM     44  C   UNL A   1      44.887  25.236  28.014  1.00  0.00     0.074 A 
ATOM     45  C   UNL A   1      43.236  26.737  27.434  1.00  0.00     0.049 A 
ATOM     46  N   UNL A   1      45.744  26.003  28.610  1.00  0.00    -0.248 NA
ATOM     47  C   UNL A   1      45.464  24.144  27.255  1.00  0.00     0.031 C 
ATOM     48  C   UNL A   1      44.125  27.806  26.944  1.00  0.00     0.029 A 
ATOM     49  N   UNL A   1      42.033  27.336  27.157  1.00  0.00    -0.354 N 
ATOM     50  C   UNL A   1      46.961  25.703  28.036  1.00  0.00     0.074 A 
ATOM     51  C   UNL A   1      46.763  24.427  27.370  1.00  0.00     0.031 C 
ATOM     52  C   UNL A   1      43.433  28.966  26.835  1.00  0.00     0.029 A 
ATOM     53  C   UNL A   1      42.080  28.721  27.290  1.00  0.00     0.049 A 
ATOM     54  H   UNL A   1      41.224  26.841  26.893  1.00  0.00     0.167 HD
ATOM     55  C   UNL A   1      47.946  26.645  27.885  1.00  0.00     0.037 A 
ATOM     56  C   UNL A   1      41.339  29.317  28.283  1.00  0.00     0.037 A 
ATOM     57  C   UNL A   1      47.457  28.017  28.131  1.00  0.00     0.049 A 
ATOM     58  C   UNL A   1      42.269  29.773  29.383  1.00  0.00     0.074 A 
ATOM     59  C   UNL A   1      47.270  29.134  27.323  1.00  0.00     0.029 A 
ATOM     60  N   UNL A   1      46.800  28.325  29.312  1.00  0.00    -0.354 N 
ATOM     61  N   UNL A   1      43.546  29.936  29.196  1.00  0.00    -0.248 NA
ATOM     62  C   UNL A   1      41.888  29.991  30.778  1.00  0.00     0.031 C 
ATOM     63  C   UNL A   1      46.520  30.110  28.045  1.00  0.00     0.029 A 
ATOM     64  C   UNL A   1      46.259  29.601  29.302  1.00  0.00     0.049 A 
ATOM     65  H   UNL A   1      46.725  27.705  30.074  1.00  0.00     0.167 HD
ATOM     66  C   UNL A   1      44.177  30.086  30.394  1.00  0.00     0.074 A 
ATOM     67  C   UNL A   1      43.090  30.186  31.354  1.00  0.00     0.031 C 
ATOM     68  C   UNL A   1      45.540  30.060  30.488  1.00  0.00     0.037 A 
BRANCH  55  69
ATOM     69  C   UNL A   1      49.277  26.331  27.208  1.00  0.00     0.058 A 
ATOM     70  C   UNL A   1      49.495  26.557  25.833  1.00  0.00     0.135 A 
ATOM     71  C   UNL A   1      50.416  25.853  27.898  1.00  0.00     0.135 A 
ATOM     72  F   UNL A   1      48.579  27.162  25.066  1.00  0.00    -0.206 F 
ATOM     73  C   UNL A   1      50.686  26.219  25.181  1.00  0.00     0.059 A 
ATOM     74  C   UNL A   1      51.586  25.432  27.261  1.00  0.00     0.059 A 
ATOM     75  F   UNL A   1      50.471  25.854  29.239  1.00  0.00    -0.206 F 
ATOM     76  C   UNL A   1      51.717  25.627  25.897  1.00  0.00     0.060 A 
BRANCH  76  77
ATOM     77  S   UNL A   1      53.257  25.224  25.054  1.00  0.00     0.124 S 
ATOM     78  O   UNL A   1      53.343  23.778  25.233  1.00  0.00    -0.237 OA
ATOM     79  O   UNL A   1      52.984  25.682  23.696  1.00  0.00    -0.237 OA
ATOM     80  O   UNL A   1      54.258  25.999  25.783  1.00  0.00    -0.744 OA
ENDBRANCH  76  77
ENDBRANCH  55  69
BRANCH  56  81
ATOM     81  C   UNL A   1      39.909  28.749  28.487  1.00  0.00     0.058 A 
ATOM     82  C   UNL A   1      39.595  28.509  29.842  1.00  0.00     0.135 A 
ATOM     83  C   UNL A   1      38.939  29.490  27.836  1.00  0.00     0.135 A 
ATOM     84  F   UNL A   1      40.047  27.400  30.441  1.00  0.00    -0.206 F 
ATOM     85  C   UNL A   1      38.936  29.464  30.624  1.00  0.00     0.059 A 
ATOM     86  C   UNL A   1      38.297  30.470  28.606  1.00  0.00     0.059 A 
ATOM     87  F   UNL A   1      38.991  29.639  26.501  1.00  0.00    -0.206 F 
ATOM     88  C   UNL A   1      38.477  30.587  29.976  1.00  0.00     0.060 A 
BRANCH  88  89
ATOM     89  S   UNL A   1      38.445  32.301  30.892  1.00  0.00     0.124 S 
ATOM     90  O   UNL A   1      38.858  33.164  29.797  1.00  0.00    -0.237 OA
ATOM     91  O   UNL A   1      37.078  32.502  31.292  1.00  0.00    -0.237 OA
ATOM     92  O   UNL A   1      39.411  32.228  31.981  1.00  0.00    -0.744 OA
ENDBRANCH  88  89
ENDBRANCH  56  81
BRANCH  68  93
ATOM     93  C   UNL A   1      46.313  30.422  31.728  1.00  0.00     0.058 A 
ATOM     94  C   UNL A   1      46.467  29.535  32.808  1.00  0.00     0.135 A 
ATOM     95  C   UNL A   1      46.808  31.730  31.943  1.00  0.00     0.135 A 
ATOM     96  F   UNL A   1      45.900  28.319  32.794  1.00  0.00    -0.206 F 
ATOM     97  C   UNL A   1      47.169  29.880  33.961  1.00  0.00     0.059 A 
ATOM     98  C   UNL A   1      47.472  32.110  33.101  1.00  0.00     0.059 A 
ATOM     99  F   UNL A   1      46.672  32.707  31.039  1.00  0.00    -0.206 F 
ATOM    100  C   UNL A   1      47.683  31.167  34.090  1.00  0.00     0.060 A 
BRANCH 100 101
ATOM    101  S   UNL A   1      48.602  31.607  35.570  1.00  0.00     0.124 S 
ATOM    102  O   UNL A   1      49.645  32.480  35.041  1.00  0.00    -0.237 OA
ATOM    103  O   UNL A   1      47.569  32.263  36.365  1.00  0.00    -0.237 OA
ATOM    104  O   UNL A   1      49.068  30.322  36.080  1.00  0.00    -0.744 OA
ENDBRANCH 100 101
ENDBRANCH  68  93
ENDBRANCH  42  43
ENDBRANCH  34  37
ENDBRANCH  32  33
ENDBRANCH  31  32
ENDBRANCH   1  31
TORSDOF 17
ENDMDL
