MODEL 1
REMARK VINA RESULT:     -11.6      0.000      0.000
REMARK SMILES Cn1nc(C(=O)N2C[C@@H](O)C[C@H]2C(=O)NCCCNC(=O)c2ccc(-c3c4nc(c(-c5c(F)cc(S(=O)(=O)[O-])cc5F)c5ccc([nH]5)c(-c5c(F)cc(S(=O)(=O)[O-])cc5F)c5nc(c(-c6c(F)cc(S(=O)(=O)[O-])cc6F)c6ccc3[nH]6)C=C5)C=C4)cc2)ccc1=O
REMARK SMILES IDX 17 1 16 2 15 3 13 4 14 5 12 7 7 8 8 9 9 10 11 11 5 12 6 13
REMARK SMILES IDX 4 14 1 15 2 16 3 17 90 18 89 19 91 20 88 21 10 22 18 24
REMARK SMILES IDX 19 25 20 26 21 28 22 29 23 30 87 31 24 32 86 33 25 34 26 35
REMARK SMILES IDX 27 36 80 37 28 38 85 39 79 40 81 41 29 42 84 43 78 44 77 45
REMARK SMILES IDX 30 47 64 48 43 49 63 50 44 51 47 52 62 53 82 54 45 55 46 56
REMARK SMILES IDX 61 58 83 59 48 60 31 61 32 62 41 63 33 64 34 65 40 66 42 67
REMARK SMILES IDX 35 68 36 69 37 70 38 71 39 72 65 73 66 74 75 75 67 76 68 77
REMARK SMILES IDX 74 78 76 79 69 80 70 81 71 82 72 83 73 84 49 85 50 86 59 87
REMARK SMILES IDX 51 88 52 89 58 90 60 91 53 92 54 93 55 94 56 95 57 96
REMARK H PARENT 15 6 10 23 19 27 81 46 47 57
REMARK Flexibility Score: inf
ROOT
ATOM      1  C   UNL A   1      34.356  31.556  27.457  1.00  0.00     0.042 C 
ENDROOT
BRANCH   1   2
ATOM      2  C   UNL A   1      33.739  32.573  28.404  1.00  0.00     0.117 C 
BRANCH   2   3
ATOM      3  N   UNL A   1      34.014  33.940  28.016  1.00  0.00    -0.354 N 
ATOM      4  C   UNL A   1      33.946  35.100  28.727  1.00  0.00     0.242 C 
ATOM      5  O   UNL A   1      34.467  36.096  28.213  1.00  0.00    -0.273 OA
ATOM      6  H   UNL A   1      34.298  34.051  27.080  1.00  0.00     0.163 HD
BRANCH   4   7
ATOM      7  C   UNL A   1      33.424  35.153  30.174  1.00  0.00     0.177 C 
ATOM      8  N   UNL A   1      34.408  35.010  31.245  1.00  0.00    -0.323 N 
ATOM      9  C   UNL A   1      34.372  36.133  32.167  1.00  0.00     0.152 C 
ATOM     10  C   UNL A   1      33.026  36.806  31.909  1.00  0.00     0.136 C 
ATOM     11  C   UNL A   1      32.673  36.455  30.464  1.00  0.00     0.069 C 
BRANCH   8  12
ATOM     12  C   UNL A   1      34.891  33.731  31.493  1.00  0.00     0.275 C 
ATOM     13  O   UNL A   1      34.173  32.796  31.833  1.00  0.00    -0.267 OA
BRANCH  12  14
ATOM     14  C   UNL A   1      36.399  33.501  31.504  1.00  0.00     0.149 A 
ATOM     15  C   UNL A   1      38.845  32.237  33.792  1.00  0.00     0.178 C 
ATOM     16  N   UNL A   1      38.281  32.726  32.548  1.00  0.00    -0.232 N 
ATOM     17  N   UNL A   1      36.933  33.005  32.578  1.00  0.00    -0.165 NA
ATOM     18  C   UNL A   1      39.075  32.847  31.414  1.00  0.00     0.266 A 
ATOM     19  C   UNL A   1      38.410  33.416  30.219  1.00  0.00     0.076 A 
ATOM     20  O   UNL A   1      40.257  32.522  31.343  1.00  0.00    -0.268 OA
ATOM     21  C   UNL A   1      37.121  33.760  30.246  1.00  0.00     0.042 A 
ENDBRANCH  12  14
ENDBRANCH   8  12
BRANCH  10  22
ATOM     22  O   UNL A   1      33.073  38.215  32.085  1.00  0.00    -0.391 OA
ATOM     23  H   UNL A   1      33.726  38.595  31.476  1.00  0.00     0.211 HD
ENDBRANCH  10  22
ENDBRANCH   4   7
ENDBRANCH   2   3
ENDBRANCH   1   2
BRANCH   1  24
ATOM     24  C   UNL A   1      35.535  30.810  28.072  1.00  0.00     0.118 C 
BRANCH  24  25
ATOM     25  N   UNL A   1      35.435  30.728  29.524  1.00  0.00    -0.352 N 
ATOM     26  C   UNL A   1      36.283  30.141  30.429  1.00  0.00     0.251 C 
ATOM     27  H   UNL A   1      34.639  31.159  29.914  1.00  0.00     0.163 HD
ATOM     28  O   UNL A   1      35.907  29.950  31.583  1.00  0.00    -0.269 OA
BRANCH  26  29
ATOM     29  C   UNL A   1      37.639  29.736  30.009  1.00  0.00     0.039 A 
ATOM     30  C   UNL A   1      38.002  29.849  28.665  1.00  0.00     0.014 A 
ATOM     31  C   UNL A   1      38.539  29.216  30.944  1.00  0.00     0.014 A 
ATOM     32  C   UNL A   1      39.294  29.498  28.268  1.00  0.00     0.010 A 
ATOM     33  C   UNL A   1      39.843  28.927  30.561  1.00  0.00     0.010 A 
ATOM     34  C   UNL A   1      40.228  29.055  29.218  1.00  0.00    -0.014 A 
BRANCH  34  35
ATOM     35  C   UNL A   1      41.605  28.673  28.825  1.00  0.00     0.031 A 
ATOM     36  C   UNL A   1      42.678  29.725  28.784  1.00  0.00     0.074 A 
ATOM     37  C   UNL A   1      41.869  27.407  28.454  1.00  0.00     0.049 A 
ATOM     38  N   UNL A   1      43.921  29.619  28.394  1.00  0.00    -0.248 NA
ATOM     39  C   UNL A   1      42.297  31.080  29.218  1.00  0.00     0.031 C 
ATOM     40  C   UNL A   1      40.898  26.312  28.426  1.00  0.00     0.029 A 
ATOM     41  N   UNL A   1      43.034  26.830  28.016  1.00  0.00    -0.354 N 
ATOM     42  C   UNL A   1      44.469  30.888  28.535  1.00  0.00     0.074 A 
ATOM     43  C   UNL A   1      43.412  31.761  28.993  1.00  0.00     0.031 C 
ATOM     44  C   UNL A   1      41.510  25.193  28.004  1.00  0.00     0.029 A 
ATOM     45  C   UNL A   1      42.907  25.497  27.703  1.00  0.00     0.049 A 
ATOM     46  H   UNL A   1      43.882  27.324  27.933  1.00  0.00     0.167 HD
ATOM     47  C   UNL A   1      45.746  31.282  28.327  1.00  0.00     0.037 A 
ATOM     48  C   UNL A   1      43.814  24.624  27.223  1.00  0.00     0.037 A 
ATOM     49  C   UNL A   1      46.798  30.403  27.892  1.00  0.00     0.049 A 
ATOM     50  C   UNL A   1      45.222  25.093  26.976  1.00  0.00     0.074 A 
ATOM     51  C   UNL A   1      48.136  30.695  27.694  1.00  0.00     0.029 A 
ATOM     52  N   UNL A   1      46.632  29.059  27.591  1.00  0.00    -0.354 N 
ATOM     53  N   UNL A   1      45.736  26.287  27.160  1.00  0.00    -0.248 NA
ATOM     54  C   UNL A   1      46.175  24.100  26.463  1.00  0.00     0.031 C 
ATOM     55  C   UNL A   1      48.772  29.536  27.237  1.00  0.00     0.029 A 
ATOM     56  C   UNL A   1      47.839  28.512  27.191  1.00  0.00     0.049 A 
ATOM     57  H   UNL A   1      45.782  28.567  27.652  1.00  0.00     0.167 HD
ATOM     58  C   UNL A   1      47.077  26.182  26.804  1.00  0.00     0.074 A 
ATOM     59  C   UNL A   1      47.297  24.807  26.408  1.00  0.00     0.031 C 
ATOM     60  C   UNL A   1      48.038  27.137  26.806  1.00  0.00     0.037 A 
BRANCH  47  61
ATOM     61  C   UNL A   1      46.085  32.722  28.588  1.00  0.00     0.058 A 
ATOM     62  C   UNL A   1      46.515  33.151  29.854  1.00  0.00     0.135 A 
ATOM     63  C   UNL A   1      46.038  33.670  27.554  1.00  0.00     0.135 A 
ATOM     64  F   UNL A   1      46.557  32.289  30.882  1.00  0.00    -0.206 F 
ATOM     65  C   UNL A   1      46.874  34.473  30.089  1.00  0.00     0.059 A 
ATOM     66  C   UNL A   1      46.416  34.993  27.760  1.00  0.00     0.059 A 
ATOM     67  F   UNL A   1      45.627  33.312  26.327  1.00  0.00    -0.206 F 
ATOM     68  C   UNL A   1      46.827  35.386  29.033  1.00  0.00     0.060 A 
BRANCH  68  69
ATOM     69  S   UNL A   1      47.331  37.090  29.351  1.00  0.00     0.124 S 
ATOM     70  O   UNL A   1      48.536  36.892  30.151  1.00  0.00    -0.237 OA
ATOM     71  O   UNL A   1      47.543  37.608  28.004  1.00  0.00    -0.237 OA
ATOM     72  O   UNL A   1      46.190  37.655  30.066  1.00  0.00    -0.744 OA
ENDBRANCH  68  69
ENDBRANCH  47  61
BRANCH  48  73
ATOM     73  C   UNL A   1      43.425  23.213  26.965  1.00  0.00     0.058 A 
ATOM     74  C   UNL A   1      43.279  22.736  25.654  1.00  0.00     0.135 A 
ATOM     75  C   UNL A   1      43.201  22.313  28.018  1.00  0.00     0.135 A 
ATOM     76  F   UNL A   1      43.477  23.560  24.615  1.00  0.00    -0.206 F 
ATOM     77  C   UNL A   1      42.911  21.420  25.394  1.00  0.00     0.059 A 
ATOM     78  C   UNL A   1      42.852  20.986  27.783  1.00  0.00     0.059 A 
ATOM     79  F   UNL A   1      43.343  22.716  29.291  1.00  0.00    -0.206 F 
ATOM     80  C   UNL A   1      42.702  20.552  26.467  1.00  0.00     0.060 A 
BRANCH  80  81
ATOM     81  S   UNL A   1      42.271  18.833  26.115  1.00  0.00     0.124 S 
ATOM     82  O   UNL A   1      42.554  18.192  27.394  1.00  0.00    -0.237 OA
ATOM     83  O   UNL A   1      40.863  18.942  25.750  1.00  0.00    -0.237 OA
ATOM     84  O   UNL A   1      43.170  18.482  25.018  1.00  0.00    -0.744 OA
ENDBRANCH  80  81
ENDBRANCH  48  73
BRANCH  60  85
ATOM     85  C   UNL A   1      49.422  26.732  26.383  1.00  0.00     0.058 A 
ATOM     86  C   UNL A   1      50.320  26.147  27.289  1.00  0.00     0.135 A 
ATOM     87  C   UNL A   1      49.824  26.862  25.045  1.00  0.00     0.135 A 
ATOM     88  F   UNL A   1      49.984  26.007  28.581  1.00  0.00    -0.206 F 
ATOM     89  C   UNL A   1      51.578  25.715  26.882  1.00  0.00     0.059 A 
ATOM     90  C   UNL A   1      51.069  26.414  24.612  1.00  0.00     0.059 A 
ATOM     91  F   UNL A   1      48.996  27.407  24.139  1.00  0.00    -0.206 F 
ATOM     92  C   UNL A   1      51.940  25.847  25.540  1.00  0.00     0.060 A 
BRANCH  92  93
ATOM     93  S   UNL A   1      53.557  25.237  25.018  1.00  0.00     0.124 S 
ATOM     94  O   UNL A   1      53.444  23.813  25.316  1.00  0.00    -0.237 OA
ATOM     95  O   UNL A   1      53.581  25.589  23.602  1.00  0.00    -0.237 OA
ATOM     96  O   UNL A   1      54.490  25.982  25.860  1.00  0.00    -0.744 OA
ENDBRANCH  92  93
ENDBRANCH  60  85
ENDBRANCH  34  35
ENDBRANCH  26  29
ENDBRANCH  24  25
ENDBRANCH   1  24
TORSDOF 16
ENDMDL
MODEL 2
REMARK VINA RESULT:     -11.6      0.404      8.312
REMARK SMILES Cn1nc(C(=O)N2C[C@@H](O)C[C@H]2C(=O)NCCCNC(=O)c2ccc(-c3c4nc(c(-c5c(F)cc(S(=O)(=O)[O-])cc5F)c5ccc([nH]5)c(-c5c(F)cc(S(=O)(=O)[O-])cc5F)c5nc(c(-c6c(F)cc(S(=O)(=O)[O-])cc6F)c6ccc3[nH]6)C=C5)C=C4)cc2)ccc1=O
REMARK SMILES IDX 17 1 16 2 15 3 13 4 14 5 12 7 7 8 8 9 9 10 11 11 5 12 6 13
REMARK SMILES IDX 4 14 1 15 2 16 3 17 90 18 89 19 91 20 88 21 10 22 18 24
REMARK SMILES IDX 19 25 20 26 21 28 22 29 23 30 87 31 24 32 86 33 25 34 26 35
REMARK SMILES IDX 27 36 80 37 28 38 85 39 79 40 81 41 29 42 84 43 78 44 77 45
REMARK SMILES IDX 30 47 64 48 43 49 63 50 44 51 47 52 62 53 82 54 45 55 46 56
REMARK SMILES IDX 61 58 83 59 48 60 31 61 32 62 41 63 33 64 34 65 40 66 42 67
REMARK SMILES IDX 35 68 36 69 37 70 38 71 39 72 65 73 66 74 75 75 67 76 68 77
REMARK SMILES IDX 74 78 76 79 69 80 70 81 71 82 72 83 73 84 49 85 50 86 59 87
REMARK SMILES IDX 51 88 52 89 58 90 60 91 53 92 54 93 55 94 56 95 57 96
REMARK H PARENT 15 6 10 23 19 27 81 46 47 57
REMARK Flexibility Score: inf
ROOT
ATOM      1  C   UNL A   1      35.379  31.785  27.684  1.00  0.00     0.042 C 
ENDROOT
BRANCH   1   2
ATOM      2  C   UNL A   1      34.237  32.581  28.294  1.00  0.00     0.117 C 
BRANCH   2   3
ATOM      3  N   UNL A   1      34.306  33.991  27.981  1.00  0.00    -0.354 N 
ATOM      4  C   UNL A   1      34.036  35.089  28.741  1.00  0.00     0.242 C 
ATOM      5  O   UNL A   1      34.410  36.179  28.294  1.00  0.00    -0.273 OA
ATOM      6  H   UNL A   1      34.597  34.193  27.062  1.00  0.00     0.163 HD
BRANCH   4   7
ATOM      7  C   UNL A   1      33.469  34.986  30.169  1.00  0.00     0.177 C 
ATOM      8  N   UNL A   1      34.429  34.820  31.258  1.00  0.00    -0.323 N 
ATOM      9  C   UNL A   1      34.287  35.857  32.267  1.00  0.00     0.152 C 
ATOM     10  C   UNL A   1      32.906  36.458  32.017  1.00  0.00     0.136 C 
ATOM     11  C   UNL A   1      32.622  36.207  30.537  1.00  0.00     0.069 C 
BRANCH   8  12
ATOM     12  C   UNL A   1      34.992  33.560  31.418  1.00  0.00     0.275 C 
ATOM     13  O   UNL A   1      34.332  32.557  31.671  1.00  0.00    -0.267 OA
BRANCH  12  14
ATOM     14  C   UNL A   1      36.511  33.428  31.444  1.00  0.00     0.149 A 
ATOM     15  C   UNL A   1      39.023  32.460  33.805  1.00  0.00     0.178 C 
ATOM     16  N   UNL A   1      38.435  32.838  32.533  1.00  0.00    -0.232 N 
ATOM     17  N   UNL A   1      37.071  33.032  32.546  1.00  0.00    -0.165 NA
ATOM     18  C   UNL A   1      39.225  32.944  31.395  1.00  0.00     0.266 A 
ATOM     19  C   UNL A   1      38.530  33.399  30.168  1.00  0.00     0.076 A 
ATOM     20  O   UNL A   1      40.425  32.693  31.344  1.00  0.00    -0.268 OA
ATOM     21  C   UNL A   1      37.221  33.660  30.174  1.00  0.00     0.042 A 
ENDBRANCH  12  14
ENDBRANCH   8  12
BRANCH  10  22
ATOM     22  O   UNL A   1      32.850  37.847  32.309  1.00  0.00    -0.391 OA
ATOM     23  H   UNL A   1      33.057  38.354  31.508  1.00  0.00     0.211 HD
ENDBRANCH  10  22
ENDBRANCH   4   7
ENDBRANCH   2   3
ENDBRANCH   1   2
BRANCH   1  24
ATOM     24  C   UNL A   1      35.516  30.388  28.279  1.00  0.00     0.118 C 
BRANCH  24  25
ATOM     25  N   UNL A   1      35.548  30.414  29.737  1.00  0.00    -0.352 N 
ATOM     26  C   UNL A   1      36.522  29.978  30.599  1.00  0.00     0.251 C 
ATOM     27  H   UNL A   1      34.751  30.802  30.166  1.00  0.00     0.163 HD
ATOM     28  O   UNL A   1      36.266  29.847  31.794  1.00  0.00    -0.269 OA
BRANCH  26  29
ATOM     29  C   UNL A   1      37.869  29.662  30.087  1.00  0.00     0.039 A 
ATOM     30  C   UNL A   1      38.118  29.750  28.715  1.00  0.00     0.014 A 
ATOM     31  C   UNL A   1      38.878  29.251  30.964  1.00  0.00     0.014 A 
ATOM     32  C   UNL A   1      39.400  29.485  28.229  1.00  0.00     0.010 A 
ATOM     33  C   UNL A   1      40.167  29.048  30.488  1.00  0.00     0.010 A 
ATOM     34  C   UNL A   1      40.436  29.153  29.115  1.00  0.00    -0.014 A 
BRANCH  34  35
ATOM     35  C   UNL A   1      41.805  28.863  28.627  1.00  0.00     0.031 A 
ATOM     36  C   UNL A   1      42.158  27.462  28.212  1.00  0.00     0.074 A 
ATOM     37  C   UNL A   1      42.733  29.838  28.614  1.00  0.00     0.049 A 
ATOM     38  N   UNL A   1      43.313  26.981  27.834  1.00  0.00    -0.248 NA
ATOM     39  C   UNL A   1      41.075  26.465  28.249  1.00  0.00     0.031 C 
ATOM     40  C   UNL A   1      42.511  31.226  29.024  1.00  0.00     0.029 A 
ATOM     41  N   UNL A   1      44.057  29.807  28.254  1.00  0.00    -0.354 N 
ATOM     42  C   UNL A   1      43.096  25.632  27.588  1.00  0.00     0.074 A 
ATOM     43  C   UNL A   1      41.715  25.355  27.912  1.00  0.00     0.031 C 
ATOM     44  C   UNL A   1      43.654  31.915  28.882  1.00  0.00     0.029 A 
ATOM     45  C   UNL A   1      44.698  31.014  28.400  1.00  0.00     0.049 A 
ATOM     46  H   UNL A   1      44.505  28.996  27.922  1.00  0.00     0.167 HD
ATOM     47  C   UNL A   1      43.965  24.712  27.107  1.00  0.00     0.037 A 
ATOM     48  C   UNL A   1      45.983  31.351  28.177  1.00  0.00     0.037 A 
ATOM     49  C   UNL A   1      45.333  25.000  26.766  1.00  0.00     0.049 A 
ATOM     50  C   UNL A   1      46.936  30.304  27.666  1.00  0.00     0.074 A 
ATOM     51  C   UNL A   1      46.282  24.148  26.231  1.00  0.00     0.029 A 
ATOM     52  N   UNL A   1      45.944  26.235  26.922  1.00  0.00    -0.354 N 
ATOM     53  N   UNL A   1      46.703  29.041  27.394  1.00  0.00    -0.248 NA
ATOM     54  C   UNL A   1      48.324  30.725  27.428  1.00  0.00     0.031 C 
ATOM     55  C   UNL A   1      47.480  24.858  26.098  1.00  0.00     0.029 A 
ATOM     56  C   UNL A   1      47.264  26.164  26.511  1.00  0.00     0.049 A 
ATOM     57  H   UNL A   1      45.505  27.042  27.274  1.00  0.00     0.167 HD
ATOM     58  C   UNL A   1      47.908  28.523  26.933  1.00  0.00     0.074 A 
ATOM     59  C   UNL A   1      48.864  29.611  26.951  1.00  0.00     0.031 C 
ATOM     60  C   UNL A   1      48.198  27.261  26.532  1.00  0.00     0.037 A 
BRANCH  47  61
ATOM     61  C   UNL A   1      43.459  23.313  26.902  1.00  0.00     0.058 A 
ATOM     62  C   UNL A   1      43.213  22.809  25.615  1.00  0.00     0.135 A 
ATOM     63  C   UNL A   1      43.276  22.448  27.992  1.00  0.00     0.135 A 
ATOM     64  F   UNL A   1      43.353  23.602  24.540  1.00  0.00    -0.206 F 
ATOM     65  C   UNL A   1      42.790  21.501  25.416  1.00  0.00     0.059 A 
ATOM     66  C   UNL A   1      42.876  21.127  27.815  1.00  0.00     0.059 A 
ATOM     67  F   UNL A   1      43.491  22.883  29.244  1.00  0.00    -0.206 F 
ATOM     68  C   UNL A   1      42.629  20.665  26.523  1.00  0.00     0.060 A 
BRANCH  68  69
ATOM     69  S   UNL A   1      42.113  18.958  26.240  1.00  0.00     0.124 S 
ATOM     70  O   UNL A   1      43.073  18.527  25.229  1.00  0.00    -0.237 OA
ATOM     71  O   UNL A   1      42.274  18.362  27.561  1.00  0.00    -0.237 OA
ATOM     72  O   UNL A   1      40.734  19.091  25.778  1.00  0.00    -0.744 OA
ENDBRANCH  68  69
ENDBRANCH  47  61
BRANCH  48  73
ATOM     73  C   UNL A   1      46.439  32.746  28.411  1.00  0.00     0.058 A 
ATOM     74  C   UNL A   1      46.978  33.127  29.648  1.00  0.00     0.135 A 
ATOM     75  C   UNL A   1      46.354  33.721  27.406  1.00  0.00     0.135 A 
ATOM     76  F   UNL A   1      47.075  32.231  30.642  1.00  0.00    -0.206 F 
ATOM     77  C   UNL A   1      47.405  34.429  29.887  1.00  0.00     0.059 A 
ATOM     78  C   UNL A   1      46.794  35.025  27.614  1.00  0.00     0.059 A 
ATOM     79  F   UNL A   1      45.860  33.402  26.199  1.00  0.00    -0.206 F 
ATOM     80  C   UNL A   1      47.311  35.371  28.862  1.00  0.00     0.060 A 
BRANCH  80  81
ATOM     81  S   UNL A   1      47.913  37.045  29.169  1.00  0.00     0.124 S 
ATOM     82  O   UNL A   1      48.043  37.565  27.813  1.00  0.00    -0.237 OA
ATOM     83  O   UNL A   1      46.835  37.613  29.972  1.00  0.00    -0.237 OA
ATOM     84  O   UNL A   1      49.166  36.823  29.885  1.00  0.00    -0.744 OA
ENDBRANCH  80  81
ENDBRANCH  48  73
BRANCH  60  85
ATOM     85  C   UNL A   1      49.598  26.985  26.061  1.00  0.00     0.058 A 
ATOM     86  C   UNL A   1      50.588  26.523  26.941  1.00  0.00     0.135 A 
ATOM     87  C   UNL A   1      49.930  27.112  24.703  1.00  0.00     0.135 A 
ATOM     88  F   UNL A   1      50.320  26.391  28.250  1.00  0.00    -0.206 F 
ATOM     89  C   UNL A   1      51.865  26.208  26.492  1.00  0.00     0.059 A 
ATOM     90  C   UNL A   1      51.195  26.779  24.228  1.00  0.00     0.059 A 
ATOM     91  F   UNL A   1      49.014  27.541  23.819  1.00  0.00    -0.206 F 
ATOM     92  C   UNL A   1      52.157  26.333  25.132  1.00  0.00     0.060 A 
BRANCH  92  93
ATOM     93  S   UNL A   1      53.806  25.873  24.558  1.00  0.00     0.124 S 
ATOM     94  O   UNL A   1      53.800  24.430  24.775  1.00  0.00    -0.237 OA
ATOM     95  O   UNL A   1      53.781  26.304  23.164  1.00  0.00    -0.237 OA
ATOM     96  O   UNL A   1      54.695  26.636  25.429  1.00  0.00    -0.744 OA
ENDBRANCH  92  93
ENDBRANCH  60  85
ENDBRANCH  34  35
ENDBRANCH  26  29
ENDBRANCH  24  25
ENDBRANCH   1  24
TORSDOF 16
ENDMDL
MODEL 3
REMARK VINA RESULT:     -11.6      5.673     14.055
REMARK SMILES Cn1nc(C(=O)N2C[C@@H](O)C[C@H]2C(=O)NCCCNC(=O)c2ccc(-c3c4nc(c(-c5c(F)cc(S(=O)(=O)[O-])cc5F)c5ccc([nH]5)c(-c5c(F)cc(S(=O)(=O)[O-])cc5F)c5nc(c(-c6c(F)cc(S(=O)(=O)[O-])cc6F)c6ccc3[nH]6)C=C5)C=C4)cc2)ccc1=O
REMARK SMILES IDX 17 1 16 2 15 3 13 4 14 5 12 7 7 8 8 9 9 10 11 11 5 12 6 13
REMARK SMILES IDX 4 14 1 15 2 16 3 17 90 18 89 19 91 20 88 21 10 22 18 24
REMARK SMILES IDX 19 25 20 26 21 28 22 29 23 30 87 31 24 32 86 33 25 34 26 35
REMARK SMILES IDX 27 36 80 37 28 38 85 39 79 40 81 41 29 42 84 43 78 44 77 45
REMARK SMILES IDX 30 47 64 48 43 49 63 50 44 51 47 52 62 53 82 54 45 55 46 56
REMARK SMILES IDX 61 58 83 59 48 60 31 61 32 62 41 63 33 64 34 65 40 66 42 67
REMARK SMILES IDX 35 68 36 69 37 70 38 71 39 72 65 73 66 74 75 75 67 76 68 77
REMARK SMILES IDX 74 78 76 79 69 80 70 81 71 82 72 83 73 84 49 85 50 86 59 87
REMARK SMILES IDX 51 88 52 89 58 90 60 91 53 92 54 93 55 94 56 95 57 96
REMARK H PARENT 15 6 10 23 19 27 81 46 47 57
REMARK Flexibility Score: inf
ROOT
ATOM      1  C   UNL A   1      39.194  22.171  26.586  1.00  0.00     0.042 C 
ENDROOT
BRANCH   1   2
ATOM      2  C   UNL A   1      40.197  21.239  25.927  1.00  0.00     0.117 C 
BRANCH   2   3
ATOM      3  N   UNL A   1      40.781  20.296  26.856  1.00  0.00    -0.354 N 
ATOM      4  C   UNL A   1      41.983  19.656  26.839  1.00  0.00     0.242 C 
ATOM      5  O   UNL A   1      42.323  19.088  27.883  1.00  0.00    -0.273 OA
ATOM      6  H   UNL A   1      40.214  20.079  27.631  1.00  0.00     0.163 HD
BRANCH   4   7
ATOM      7  C   UNL A   1      42.969  19.778  25.663  1.00  0.00     0.177 C 
ATOM      8  N   UNL A   1      44.026  20.781  25.778  1.00  0.00    -0.323 N 
ATOM      9  C   UNL A   1      45.348  20.195  25.622  1.00  0.00     0.152 C 
ATOM     10  C   UNL A   1      45.098  18.840  24.963  1.00  0.00     0.136 C 
ATOM     11  C   UNL A   1      43.677  18.453  25.369  1.00  0.00     0.069 C 
BRANCH   8  12
ATOM     12  C   UNL A   1      43.664  22.107  25.580  1.00  0.00     0.275 C 
ATOM     13  O   UNL A   1      43.170  22.519  24.535  1.00  0.00    -0.267 OA
BRANCH  12  14
ATOM     14  C   UNL A   1      44.039  23.141  26.637  1.00  0.00     0.149 A 
ATOM     15  C   UNL A   1      45.839  26.233  26.763  1.00  0.00     0.178 C 
ATOM     16  N   UNL A   1      45.000  25.137  27.209  1.00  0.00    -0.232 N 
ATOM     17  N   UNL A   1      44.737  24.170  26.264  1.00  0.00    -0.165 NA
ATOM     18  C   UNL A   1      44.482  25.125  28.499  1.00  0.00     0.266 A 
ATOM     19  C   UNL A   1      43.692  23.927  28.865  1.00  0.00     0.076 A 
ATOM     20  O   UNL A   1      44.634  26.019  29.327  1.00  0.00    -0.268 OA
ATOM     21  C   UNL A   1      43.483  22.944  27.987  1.00  0.00     0.042 A 
ENDBRANCH  12  14
ENDBRANCH   8  12
BRANCH  10  22
ATOM     22  O   UNL A   1      46.025  17.848  25.377  1.00  0.00    -0.391 OA
ATOM     23  H   UNL A   1      46.927  18.201  25.310  1.00  0.00     0.211 HD
ENDBRANCH  10  22
ENDBRANCH   4   7
ENDBRANCH   2   3
ENDBRANCH   1   2
BRANCH   1  24
ATOM     24  C   UNL A   1      39.824  23.467  27.085  1.00  0.00     0.118 C 
BRANCH  24  25
ATOM     25  N   UNL A   1      40.745  24.039  26.109  1.00  0.00    -0.352 N 
ATOM     26  C   UNL A   1      41.262  25.307  26.032  1.00  0.00     0.251 C 
ATOM     27  H   UNL A   1      41.038  23.423  25.399  1.00  0.00     0.163 HD
ATOM     28  O   UNL A   1      41.817  25.679  25.001  1.00  0.00    -0.269 OA
BRANCH  26  29
ATOM     29  C   UNL A   1      41.143  26.220  27.185  1.00  0.00     0.039 A 
ATOM     30  C   UNL A   1      41.996  27.323  27.276  1.00  0.00     0.014 A 
ATOM     31  C   UNL A   1      40.204  25.966  28.190  1.00  0.00     0.014 A 
ATOM     32  C   UNL A   1      41.865  28.208  28.348  1.00  0.00     0.010 A 
ATOM     33  C   UNL A   1      40.033  26.880  29.223  1.00  0.00     0.010 A 
ATOM     34  C   UNL A   1      40.869  28.003  29.316  1.00  0.00    -0.014 A 
BRANCH  34  35
ATOM     35  C   UNL A   1      40.709  28.924  30.466  1.00  0.00     0.031 A 
ATOM     36  C   UNL A   1      41.571  28.740  31.683  1.00  0.00     0.074 A 
ATOM     37  C   UNL A   1      39.758  29.877  30.435  1.00  0.00     0.049 A 
ATOM     38  N   UNL A   1      41.539  29.382  32.821  1.00  0.00    -0.248 NA
ATOM     39  C   UNL A   1      42.591  27.679  31.620  1.00  0.00     0.031 C 
ATOM     40  C   UNL A   1      38.844  30.126  29.319  1.00  0.00     0.029 A 
ATOM     41  N   UNL A   1      39.394  30.806  31.377  1.00  0.00    -0.354 N 
ATOM     42  C   UNL A   1      42.528  28.805  33.606  1.00  0.00     0.074 A 
ATOM     43  C   UNL A   1      43.108  27.726  32.840  1.00  0.00     0.031 C 
ATOM     44  C   UNL A   1      38.032  31.148  29.636  1.00  0.00     0.029 A 
ATOM     45  C   UNL A   1      38.347  31.606  30.987  1.00  0.00     0.049 A 
ATOM     46  H   UNL A   1      39.841  30.891  32.250  1.00  0.00     0.167 HD
ATOM     47  C   UNL A   1      42.935  29.163  34.846  1.00  0.00     0.037 A 
ATOM     48  C   UNL A   1      37.710  32.592  31.649  1.00  0.00     0.037 A 
ATOM     49  C   UNL A   1      42.369  30.252  35.596  1.00  0.00     0.049 A 
ATOM     50  C   UNL A   1      38.166  32.955  33.037  1.00  0.00     0.074 A 
ATOM     51  C   UNL A   1      42.740  30.723  36.842  1.00  0.00     0.029 A 
ATOM     52  N   UNL A   1      41.313  31.044  35.165  1.00  0.00    -0.354 N 
ATOM     53  N   UNL A   1      39.136  32.429  33.748  1.00  0.00    -0.248 NA
ATOM     54  C   UNL A   1      37.446  34.044  33.711  1.00  0.00     0.031 C 
ATOM     55  C   UNL A   1      41.885  31.776  37.183  1.00  0.00     0.029 A 
ATOM     56  C   UNL A   1      41.008  31.988  36.130  1.00  0.00     0.049 A 
ATOM     57  H   UNL A   1      40.850  30.947  34.303  1.00  0.00     0.167 HD
ATOM     58  C   UNL A   1      39.156  33.139  34.944  1.00  0.00     0.074 A 
ATOM     59  C   UNL A   1      38.111  34.138  34.856  1.00  0.00     0.031 C 
ATOM     60  C   UNL A   1      39.966  32.978  36.019  1.00  0.00     0.037 A 
BRANCH  47  61
ATOM     61  C   UNL A   1      44.061  28.385  35.464  1.00  0.00     0.058 A 
ATOM     62  C   UNL A   1      45.400  28.763  35.273  1.00  0.00     0.135 A 
ATOM     63  C   UNL A   1      43.802  27.288  36.302  1.00  0.00     0.135 A 
ATOM     64  F   UNL A   1      45.703  29.791  34.465  1.00  0.00    -0.206 F 
ATOM     65  C   UNL A   1      46.443  28.075  35.881  1.00  0.00     0.059 A 
ATOM     66  C   UNL A   1      44.829  26.599  36.940  1.00  0.00     0.059 A 
ATOM     67  F   UNL A   1      42.540  26.882  36.512  1.00  0.00    -0.206 F 
ATOM     68  C   UNL A   1      46.147  26.997  36.717  1.00  0.00     0.060 A 
BRANCH  68  69
ATOM     69  S   UNL A   1      47.514  26.138  37.524  1.00  0.00     0.124 S 
ATOM     70  O   UNL A   1      48.263  25.638  36.375  1.00  0.00    -0.237 OA
ATOM     71  O   UNL A   1      48.153  27.210  38.279  1.00  0.00    -0.237 OA
ATOM     72  O   UNL A   1      46.848  25.118  38.330  1.00  0.00    -0.744 OA
ENDBRANCH  68  69
ENDBRANCH  47  61
BRANCH  48  73
ATOM     73  C   UNL A   1      36.590  33.322  31.000  1.00  0.00     0.058 A 
ATOM     74  C   UNL A   1      36.830  34.216  29.947  1.00  0.00     0.135 A 
ATOM     75  C   UNL A   1      35.262  33.135  31.410  1.00  0.00     0.135 A 
ATOM     76  F   UNL A   1      38.085  34.432  29.523  1.00  0.00    -0.206 F 
ATOM     77  C   UNL A   1      35.795  34.912  29.331  1.00  0.00     0.059 A 
ATOM     78  C   UNL A   1      34.207  33.804  30.796  1.00  0.00     0.059 A 
ATOM     79  F   UNL A   1      34.977  32.278  32.404  1.00  0.00    -0.206 F 
ATOM     80  C   UNL A   1      34.485  34.697  29.762  1.00  0.00     0.060 A 
BRANCH  80  81
ATOM     81  S   UNL A   1      33.146  35.569  28.922  1.00  0.00     0.124 S 
ATOM     82  O   UNL A   1      33.880  36.574  28.162  1.00  0.00    -0.237 OA
ATOM     83  O   UNL A   1      32.528  34.501  28.143  1.00  0.00    -0.237 OA
ATOM     84  O   UNL A   1      32.335  36.078  30.026  1.00  0.00    -0.744 OA
ENDBRANCH  80  81
ENDBRANCH  48  73
BRANCH  60  85
ATOM     85  C   UNL A   1      39.772  33.909  37.182  1.00  0.00     0.058 A 
ATOM     86  C   UNL A   1      40.336  35.195  37.191  1.00  0.00     0.135 A 
ATOM     87  C   UNL A   1      38.955  33.541  38.261  1.00  0.00     0.135 A 
ATOM     88  F   UNL A   1      41.130  35.592  36.184  1.00  0.00    -0.206 F 
ATOM     89  C   UNL A   1      40.104  36.078  38.239  1.00  0.00     0.059 A 
ATOM     90  C   UNL A   1      38.689  34.418  39.308  1.00  0.00     0.059 A 
ATOM     91  F   UNL A   1      38.384  32.325  38.294  1.00  0.00    -0.206 F 
ATOM     92  C   UNL A   1      39.274  35.683  39.290  1.00  0.00     0.060 A 
BRANCH  92  93
ATOM     93  S   UNL A   1      38.943  36.860  40.618  1.00  0.00     0.124 S 
ATOM     94  O   UNL A   1      40.295  37.201  41.052  1.00  0.00    -0.237 OA
ATOM     95  O   UNL A   1      38.215  37.918  39.924  1.00  0.00    -0.237 OA
ATOM     96  O   UNL A   1      38.154  36.085  41.571  1.00  0.00    -0.744 OA
ENDBRANCH  92  93
ENDBRANCH  60  85
ENDBRANCH  34  35
ENDBRANCH  26  29
ENDBRANCH  24  25
ENDBRANCH   1  24
TORSDOF 16
ENDMDL
