MODEL 1
REMARK VINA RESULT:     -12.1      0.000      0.000
REMARK SMILES O=C(NCCCNC(=O)[C@@H]1CN(c2ncnc3c2CCC3)CCO1)c1ccc(-c2c3nc(c(-c4c(F)cc(S(=O)(=O)[O-])cc4F)c4ccc([nH]4)c(-c4c(F)cc(S(=O)(=O)[O-])cc4F)c4nc(c(-c5c(F)cc(S(=O)(=O)[O-])cc5F)c5ccc2[nH]5)C=C4)C=C3)cc1
REMARK SMILES IDX 4 1 3 2 1 3 2 4 25 6 26 7 90 8 27 9 89 10 28 11 29 12 30 13
REMARK SMILES IDX 83 14 31 15 88 16 82 17 84 18 32 19 87 20 81 21 80 22 33 24
REMARK SMILES IDX 67 25 46 26 66 27 47 28 50 29 65 30 85 31 48 32 49 33 64 35
REMARK SMILES IDX 86 36 51 37 34 38 35 39 44 40 36 41 37 42 43 43 45 44 38 45
REMARK SMILES IDX 39 46 40 47 41 48 42 49 68 50 69 51 78 52 70 53 71 54 77 55
REMARK SMILES IDX 79 56 72 57 73 58 74 59 75 60 76 61 52 62 53 63 62 64 54 65
REMARK SMILES IDX 55 66 61 67 63 68 56 69 57 70 58 71 59 72 60 73 5 74 6 75
REMARK SMILES IDX 7 76 8 77 9 79 10 80 11 81 24 82 12 83 23 84 22 85 13 86
REMARK SMILES IDX 14 87 18 88 15 89 17 90 19 91 16 92 21 93 20 94
REMARK H PARENT 3 5 84 23 50 34 7 78
REMARK Flexibility Score: inf
ROOT
ATOM      1  C   UNL A   1      38.469  23.868  26.732  1.00  0.00     0.118 C 
ENDROOT
BRANCH   1   2
ATOM      2  N   UNL A   1      39.814  24.021  26.189  1.00  0.00    -0.352 N 
ATOM      3  O   UNL A   1      41.771  25.046  25.745  1.00  0.00    -0.269 OA
ATOM      4  C   UNL A   1      40.763  24.981  26.445  1.00  0.00     0.251 C 
ATOM      5  H   UNL A   1      40.083  23.329  25.541  1.00  0.00     0.163 HD
BRANCH   4   6
ATOM      6  C   UNL A   1      40.555  25.950  27.544  1.00  0.00     0.039 A 
ATOM      7  C   UNL A   1      41.273  27.146  27.574  1.00  0.00     0.014 A 
ATOM      8  C   UNL A   1      39.638  25.660  28.558  1.00  0.00     0.014 A 
ATOM      9  C   UNL A   1      41.220  27.953  28.701  1.00  0.00     0.010 A 
ATOM     10  C   UNL A   1      39.499  26.535  29.640  1.00  0.00     0.010 A 
ATOM     11  C   UNL A   1      40.318  27.670  29.739  1.00  0.00    -0.014 A 
BRANCH  11  12
ATOM     12  C   UNL A   1      40.217  28.622  30.874  1.00  0.00     0.031 A 
ATOM     13  C   UNL A   1      41.155  28.537  32.048  1.00  0.00     0.074 A 
ATOM     14  C   UNL A   1      39.302  29.609  30.800  1.00  0.00     0.049 A 
ATOM     15  N   UNL A   1      41.219  29.311  33.100  1.00  0.00    -0.248 NA
ATOM     16  C   UNL A   1      42.147  27.450  32.044  1.00  0.00     0.031 C 
ATOM     17  C   UNL A   1      38.341  29.784  29.706  1.00  0.00     0.029 A 
ATOM     18  N   UNL A   1      39.046  30.666  31.633  1.00  0.00    -0.354 N 
ATOM     19  C   UNL A   1      42.243  28.801  33.890  1.00  0.00     0.074 A 
ATOM     20  C   UNL A   1      42.759  27.634  33.208  1.00  0.00     0.031 C 
ATOM     21  C   UNL A   1      37.647  30.913  29.902  1.00  0.00     0.029 A 
ATOM     22  C   UNL A   1      38.058  31.504  31.170  1.00  0.00     0.049 A 
ATOM     23  H   UNL A   1      39.523  30.812  32.481  1.00  0.00     0.167 HD
ATOM     24  C   UNL A   1      42.712  29.274  35.070  1.00  0.00     0.037 A 
ATOM     25  C   UNL A   1      37.527  32.616  31.710  1.00  0.00     0.037 A 
ATOM     26  C   UNL A   1      42.203  30.451  35.727  1.00  0.00     0.049 A 
ATOM     27  C   UNL A   1      38.046  33.094  33.034  1.00  0.00     0.074 A 
ATOM     28  C   UNL A   1      42.627  31.022  36.915  1.00  0.00     0.029 A 
ATOM     29  N   UNL A   1      41.167  31.242  35.253  1.00  0.00    -0.354 N 
ATOM     30  N   UNL A   1      39.019  32.598  33.763  1.00  0.00    -0.248 NA
ATOM     31  C   UNL A   1      37.390  34.270  33.619  1.00  0.00     0.031 C 
ATOM     32  C   UNL A   1      41.822  32.133  37.179  1.00  0.00     0.029 A 
ATOM     33  C   UNL A   1      40.923  32.281  36.135  1.00  0.00     0.049 A 
ATOM     34  H   UNL A   1      40.677  31.085  34.413  1.00  0.00     0.167 HD
ATOM     35  C   UNL A   1      39.092  33.405  34.891  1.00  0.00     0.074 A 
ATOM     36  C   UNL A   1      38.086  34.435  34.735  1.00  0.00     0.031 C 
ATOM     37  C   UNL A   1      39.914  33.295  35.963  1.00  0.00     0.037 A 
BRANCH  24  38
ATOM     38  C   UNL A   1      43.834  28.529  35.739  1.00  0.00     0.058 A 
ATOM     39  C   UNL A   1      45.177  28.853  35.497  1.00  0.00     0.135 A 
ATOM     40  C   UNL A   1      43.560  27.548  36.707  1.00  0.00     0.135 A 
ATOM     41  F   UNL A   1      45.495  29.771  34.570  1.00  0.00    -0.206 F 
ATOM     42  C   UNL A   1      46.211  28.231  36.191  1.00  0.00     0.059 A 
ATOM     43  C   UNL A   1      44.577  26.928  37.427  1.00  0.00     0.059 A 
ATOM     44  F   UNL A   1      42.292  27.199  36.975  1.00  0.00    -0.206 F 
ATOM     45  C   UNL A   1      45.900  27.275  37.161  1.00  0.00     0.060 A 
BRANCH  45  46
ATOM     46  S   UNL A   1      47.255  26.512  38.080  1.00  0.00     0.124 S 
ATOM     47  O   UNL A   1      46.541  25.532  38.893  1.00  0.00    -0.237 OA
ATOM     48  O   UNL A   1      48.085  25.964  37.012  1.00  0.00    -0.237 OA
ATOM     49  O   UNL A   1      47.840  27.629  38.816  1.00  0.00    -0.744 OA
ENDBRANCH  45  46
ENDBRANCH  24  38
BRANCH  25  50
ATOM     50  C   UNL A   1      36.433  33.334  31.005  1.00  0.00     0.058 A 
ATOM     51  C   UNL A   1      35.112  33.276  31.469  1.00  0.00     0.135 A 
ATOM     52  C   UNL A   1      36.694  34.110  29.865  1.00  0.00     0.135 A 
ATOM     53  F   UNL A   1      34.814  32.544  32.554  1.00  0.00    -0.206 F 
ATOM     54  C   UNL A   1      34.084  33.950  30.820  1.00  0.00     0.059 A 
ATOM     55  C   UNL A   1      35.688  34.815  29.214  1.00  0.00     0.059 A 
ATOM     56  F   UNL A   1      37.946  34.212  29.392  1.00  0.00    -0.206 F 
ATOM     57  C   UNL A   1      34.383  34.720  29.694  1.00  0.00     0.060 A 
BRANCH  57  58
ATOM     58  S   UNL A   1      33.048  35.622  28.880  1.00  0.00     0.124 S 
ATOM     59  O   UNL A   1      33.791  36.582  28.075  1.00  0.00    -0.237 OA
ATOM     60  O   UNL A   1      32.364  34.563  28.145  1.00  0.00    -0.237 OA
ATOM     61  O   UNL A   1      32.294  36.183  29.999  1.00  0.00    -0.744 OA
ENDBRANCH  57  58
ENDBRANCH  25  50
BRANCH  37  62
ATOM     62  C   UNL A   1      39.760  34.318  37.050  1.00  0.00     0.058 A 
ATOM     63  C   UNL A   1      38.962  34.070  38.177  1.00  0.00     0.135 A 
ATOM     64  C   UNL A   1      40.462  35.532  36.993  1.00  0.00     0.135 A 
ATOM     65  F   UNL A   1      38.263  32.927  38.272  1.00  0.00    -0.206 F 
ATOM     66  C   UNL A   1      38.853  34.997  39.206  1.00  0.00     0.059 A 
ATOM     67  C   UNL A   1      40.388  36.464  38.023  1.00  0.00     0.059 A 
ATOM     68  F   UNL A   1      41.245  35.813  35.939  1.00  0.00    -0.206 F 
ATOM     69  C   UNL A   1      39.574  36.191  39.122  1.00  0.00     0.060 A 
BRANCH  69  70
ATOM     70  S   UNL A   1      39.456  37.367  40.487  1.00  0.00     0.124 S 
ATOM     71  O   UNL A   1      38.627  38.414  39.901  1.00  0.00    -0.237 OA
ATOM     72  O   UNL A   1      38.825  36.568  41.532  1.00  0.00    -0.237 OA
ATOM     73  O   UNL A   1      40.847  37.733  40.740  1.00  0.00    -0.744 OA
ENDBRANCH  69  70
ENDBRANCH  37  62
ENDBRANCH  11  12
ENDBRANCH   4   6
ENDBRANCH   1   2
BRANCH   1  74
ATOM     74  C   UNL A   1      37.397  23.882  25.659  1.00  0.00     0.042 C 
BRANCH  74  75
ATOM     75  C   UNL A   1      36.684  22.555  25.483  1.00  0.00     0.117 C 
BRANCH  75  76
ATOM     76  N   UNL A   1      35.861  22.196  26.628  1.00  0.00    -0.354 N 
ATOM     77  C   UNL A   1      34.500  22.290  26.759  1.00  0.00     0.250 C 
ATOM     78  H   UNL A   1      36.344  21.838  27.409  1.00  0.00     0.163 HD
ATOM     79  O   UNL A   1      33.984  21.836  27.782  1.00  0.00    -0.272 OA
BRANCH  77  80
ATOM     80  C   UNL A   1      33.696  23.018  25.674  1.00  0.00     0.226 C 
ATOM     81  C   UNL A   1      33.612  24.526  25.985  1.00  0.00     0.160 C 
ATOM     82  O   UNL A   1      32.371  22.461  25.563  1.00  0.00    -0.365 OA
ATOM     83  N   UNL A   1      32.675  25.196  25.068  1.00  0.00    -0.351 N 
ATOM     84  C   UNL A   1      31.692  23.053  24.452  1.00  0.00     0.183 C 
ATOM     85  C   UNL A   1      31.417  24.521  24.767  1.00  0.00     0.146 C 
BRANCH  83  86
ATOM     86  C   UNL A   1      32.863  26.525  24.790  1.00  0.00     0.135 A 
ATOM     87  N   UNL A   1      33.473  26.822  23.628  1.00  0.00    -0.219 NA
ATOM     88  C   UNL A   1      32.412  27.540  25.602  1.00  0.00     0.016 A 
ATOM     89  C   UNL A   1      33.556  28.121  23.276  1.00  0.00     0.224 A 
ATOM     90  C   UNL A   1      32.563  28.833  25.150  1.00  0.00     0.049 A 
ATOM     91  C   UNL A   1      31.771  27.499  26.945  1.00  0.00     0.042 C 
ATOM     92  N   UNL A   1      33.115  29.171  23.983  1.00  0.00    -0.241 NA
ATOM     93  C   UNL A   1      31.974  29.826  26.104  1.00  0.00     0.057 C 
ATOM     94  C   UNL A   1      31.720  28.977  27.355  1.00  0.00     0.011 C 
ENDBRANCH  83  86
ENDBRANCH  77  80
ENDBRANCH  75  76
ENDBRANCH  74  75
ENDBRANCH   1  74
TORSDOF 14
ENDMDL
MODEL 2
REMARK VINA RESULT:     -12.1      6.875     12.275
REMARK SMILES O=C(NCCCNC(=O)[C@@H]1CN(c2ncnc3c2CCC3)CCO1)c1ccc(-c2c3nc(c(-c4c(F)cc(S(=O)(=O)[O-])cc4F)c4ccc([nH]4)c(-c4c(F)cc(S(=O)(=O)[O-])cc4F)c4nc(c(-c5c(F)cc(S(=O)(=O)[O-])cc5F)c5ccc2[nH]5)C=C4)C=C3)cc1
REMARK SMILES IDX 4 1 3 2 1 3 2 4 25 6 26 7 90 8 27 9 89 10 28 11 29 12 30 13
REMARK SMILES IDX 83 14 31 15 88 16 82 17 84 18 32 19 87 20 81 21 80 22 33 24
REMARK SMILES IDX 67 25 46 26 66 27 47 28 50 29 65 30 85 31 48 32 49 33 64 35
REMARK SMILES IDX 86 36 51 37 34 38 35 39 44 40 36 41 37 42 43 43 45 44 38 45
REMARK SMILES IDX 39 46 40 47 41 48 42 49 68 50 69 51 78 52 70 53 71 54 77 55
REMARK SMILES IDX 79 56 72 57 73 58 74 59 75 60 76 61 52 62 53 63 62 64 54 65
REMARK SMILES IDX 55 66 61 67 63 68 56 69 57 70 58 71 59 72 60 73 5 74 6 75
REMARK SMILES IDX 7 76 8 77 9 79 10 80 11 81 24 82 12 83 23 84 22 85 13 86
REMARK SMILES IDX 14 87 18 88 15 89 17 90 19 91 16 92 21 93 20 94
REMARK H PARENT 3 5 84 23 50 34 7 78
REMARK Flexibility Score: inf
ROOT
ATOM      1  C   UNL A   1      35.161  29.467  27.653  1.00  0.00     0.118 C 
ENDROOT
BRANCH   1   2
ATOM      2  N   UNL A   1      35.239  30.074  28.977  1.00  0.00    -0.352 N 
ATOM      3  O   UNL A   1      36.109  30.533  31.005  1.00  0.00    -0.269 OA
ATOM      4  C   UNL A   1      36.295  30.141  29.855  1.00  0.00     0.251 C 
ATOM      5  H   UNL A   1      34.408  30.503  29.289  1.00  0.00     0.163 HD
BRANCH   4   6
ATOM      6  C   UNL A   1      37.644  29.717  29.421  1.00  0.00     0.039 A 
ATOM      7  C   UNL A   1      38.548  29.191  30.343  1.00  0.00     0.014 A 
ATOM      8  C   UNL A   1      38.012  29.850  28.078  1.00  0.00     0.014 A 
ATOM      9  C   UNL A   1      39.868  28.981  29.972  1.00  0.00     0.010 A 
ATOM     10  C   UNL A   1      39.313  29.526  27.680  1.00  0.00     0.010 A 
ATOM     11  C   UNL A   1      40.263  29.125  28.632  1.00  0.00    -0.014 A 
BRANCH  11  12
ATOM     12  C   UNL A   1      41.660  28.784  28.260  1.00  0.00     0.031 A 
ATOM     13  C   UNL A   1      42.757  29.810  28.329  1.00  0.00     0.074 A 
ATOM     14  C   UNL A   1      41.936  27.509  27.920  1.00  0.00     0.049 A 
ATOM     15  N   UNL A   1      44.031  29.663  28.071  1.00  0.00    -0.248 NA
ATOM     16  C   UNL A   1      42.384  31.174  28.737  1.00  0.00     0.031 C 
ATOM     17  C   UNL A   1      40.945  26.431  27.821  1.00  0.00     0.029 A 
ATOM     18  N   UNL A   1      43.122  26.890  27.626  1.00  0.00    -0.354 N 
ATOM     19  C   UNL A   1      44.610  30.911  28.270  1.00  0.00     0.074 A 
ATOM     20  C   UNL A   1      43.545  31.814  28.648  1.00  0.00     0.031 C 
ATOM     21  C   UNL A   1      41.571  25.278  27.554  1.00  0.00     0.029 A 
ATOM     22  C   UNL A   1      42.995  25.542  27.388  1.00  0.00     0.049 A 
ATOM     23  H   UNL A   1      43.983  27.365  27.588  1.00  0.00     0.167 HD
ATOM     24  C   UNL A   1      45.914  31.263  28.157  1.00  0.00     0.037 A 
ATOM     25  C   UNL A   1      43.916  24.619  27.057  1.00  0.00     0.037 A 
ATOM     26  C   UNL A   1      46.969  30.347  27.801  1.00  0.00     0.049 A 
ATOM     27  C   UNL A   1      45.346  25.048  26.906  1.00  0.00     0.074 A 
ATOM     28  C   UNL A   1      48.324  30.604  27.681  1.00  0.00     0.029 A 
ATOM     29  N   UNL A   1      46.792  29.002  27.516  1.00  0.00    -0.354 N 
ATOM     30  N   UNL A   1      45.873  26.234  27.104  1.00  0.00    -0.248 NA
ATOM     31  C   UNL A   1      46.305  24.023  26.475  1.00  0.00     0.031 C 
ATOM     32  C   UNL A   1      48.960  29.424  27.285  1.00  0.00     0.029 A 
ATOM     33  C   UNL A   1      48.008  28.421  27.199  1.00  0.00     0.049 A 
ATOM     34  H   UNL A   1      45.927  28.530  27.535  1.00  0.00     0.167 HD
ATOM     35  C   UNL A   1      47.225  26.096  26.823  1.00  0.00     0.074 A 
ATOM     36  C   UNL A   1      47.441  24.707  26.470  1.00  0.00     0.031 C 
ATOM     37  C   UNL A   1      48.200  27.038  26.847  1.00  0.00     0.037 A 
BRANCH  24  38
ATOM     38  C   UNL A   1      46.289  32.695  28.418  1.00  0.00     0.058 A 
ATOM     39  C   UNL A   1      46.712  33.123  29.685  1.00  0.00     0.135 A 
ATOM     40  C   UNL A   1      46.321  33.627  27.367  1.00  0.00     0.135 A 
ATOM     41  F   UNL A   1      46.686  32.278  30.728  1.00  0.00    -0.206 F 
ATOM     42  C   UNL A   1      47.155  34.425  29.903  1.00  0.00     0.059 A 
ATOM     43  C   UNL A   1      46.778  34.928  27.557  1.00  0.00     0.059 A 
ATOM     44  F   UNL A   1      45.924  33.269  26.135  1.00  0.00    -0.206 F 
ATOM     45  C   UNL A   1      47.192  35.318  28.830  1.00  0.00     0.060 A 
BRANCH  45  46
ATOM     46  S   UNL A   1      47.810  36.990  29.123  1.00  0.00     0.124 S 
ATOM     47  O   UNL A   1      46.710  37.579  29.880  1.00  0.00    -0.237 OA
ATOM     48  O   UNL A   1      49.035  36.739  29.877  1.00  0.00    -0.237 OA
ATOM     49  O   UNL A   1      48.002  37.524  27.779  1.00  0.00    -0.744 OA
ENDBRANCH  45  46
ENDBRANCH  24  38
BRANCH  25  50
ATOM     50  C   UNL A   1      43.505  23.209  26.827  1.00  0.00     0.058 A 
ATOM     51  C   UNL A   1      43.448  22.673  25.533  1.00  0.00     0.135 A 
ATOM     52  C   UNL A   1      43.182  22.366  27.901  1.00  0.00     0.135 A 
ATOM     53  F   UNL A   1      43.746  23.443  24.475  1.00  0.00    -0.206 F 
ATOM     54  C   UNL A   1      43.071  21.354  25.310  1.00  0.00     0.059 A 
ATOM     55  C   UNL A   1      42.829  21.035  27.705  1.00  0.00     0.059 A 
ATOM     56  F   UNL A   1      43.239  22.826  29.160  1.00  0.00    -0.206 F 
ATOM     57  C   UNL A   1      42.766  20.541  26.404  1.00  0.00     0.060 A 
BRANCH  57  58
ATOM     58  S   UNL A   1      42.316  18.818  26.106  1.00  0.00     0.124 S 
ATOM     59  O   UNL A   1      40.912  18.943  25.733  1.00  0.00    -0.237 OA
ATOM     60  O   UNL A   1      43.231  18.443  25.033  1.00  0.00    -0.237 OA
ATOM     61  O   UNL A   1      42.575  18.178  27.392  1.00  0.00    -0.744 OA
ENDBRANCH  57  58
ENDBRANCH  25  50
BRANCH  37  62
ATOM     62  C   UNL A   1      49.588  26.595  26.484  1.00  0.00     0.058 A 
ATOM     63  C   UNL A   1      50.414  25.948  27.415  1.00  0.00     0.135 A 
ATOM     64  C   UNL A   1      50.073  26.767  25.178  1.00  0.00     0.135 A 
ATOM     65  F   UNL A   1      49.996  25.770  28.680  1.00  0.00    -0.206 F 
ATOM     66  C   UNL A   1      51.681  25.498  27.069  1.00  0.00     0.059 A 
ATOM     67  C   UNL A   1      51.329  26.303  24.802  1.00  0.00     0.059 A 
ATOM     68  F   UNL A   1      49.318  27.374  24.249  1.00  0.00    -0.206 F 
ATOM     69  C   UNL A   1      52.130  25.676  25.757  1.00  0.00     0.060 A 
BRANCH  69  70
ATOM     70  S   UNL A   1      53.761  25.047  25.311  1.00  0.00     0.124 S 
ATOM     71  O   UNL A   1      53.962  25.654  24.001  1.00  0.00    -0.237 OA
ATOM     72  O   UNL A   1      54.601  25.567  26.386  1.00  0.00    -0.237 OA
ATOM     73  O   UNL A   1      53.579  23.598  25.312  1.00  0.00    -0.744 OA
ENDBRANCH  69  70
ENDBRANCH  37  62
ENDBRANCH  11  12
ENDBRANCH   4   6
ENDBRANCH   1   2
BRANCH   1  74
ATOM     74  C   UNL A   1      33.887  29.830  26.915  1.00  0.00     0.042 C 
BRANCH  74  75
ATOM     75  C   UNL A   1      33.431  28.780  25.920  1.00  0.00     0.117 C 
BRANCH  75  76
ATOM     76  N   UNL A   1      33.978  28.983  24.587  1.00  0.00    -0.354 N 
ATOM     77  C   UNL A   1      33.765  28.236  23.458  1.00  0.00     0.250 C 
ATOM     78  H   UNL A   1      34.577  29.758  24.482  1.00  0.00     0.163 HD
ATOM     79  O   UNL A   1      34.247  28.639  22.398  1.00  0.00    -0.272 OA
BRANCH  77  80
ATOM     80  C   UNL A   1      33.011  26.905  23.578  1.00  0.00     0.226 C 
ATOM     81  C   UNL A   1      33.965  25.783  24.034  1.00  0.00     0.160 C 
ATOM     82  O   UNL A   1      32.399  26.553  22.320  1.00  0.00    -0.365 OA
ATOM     83  N   UNL A   1      33.302  24.471  23.953  1.00  0.00    -0.351 N 
ATOM     84  C   UNL A   1      31.583  25.392  22.491  1.00  0.00     0.183 C 
ATOM     85  C   UNL A   1      32.484  24.193  22.776  1.00  0.00     0.146 C 
BRANCH  83  86
ATOM     86  C   UNL A   1      33.716  23.471  24.793  1.00  0.00     0.135 A 
ATOM     87  N   UNL A   1      32.903  23.166  25.821  1.00  0.00    -0.219 NA
ATOM     88  C   UNL A   1      34.870  22.747  24.599  1.00  0.00     0.016 A 
ATOM     89  C   UNL A   1      33.229  22.105  26.586  1.00  0.00     0.224 A 
ATOM     90  C   UNL A   1      35.111  21.691  25.451  1.00  0.00     0.049 A 
ATOM     91  C   UNL A   1      35.961  22.905  23.598  1.00  0.00     0.042 C 
ATOM     92  N   UNL A   1      34.308  21.322  26.451  1.00  0.00    -0.241 NA
ATOM     93  C   UNL A   1      36.366  20.959  25.084  1.00  0.00     0.057 C 
ATOM     94  C   UNL A   1      37.024  21.908  24.077  1.00  0.00     0.011 C 
ENDBRANCH  83  86
ENDBRANCH  77  80
ENDBRANCH  75  76
ENDBRANCH  74  75
ENDBRANCH   1  74
TORSDOF 14
ENDMDL
MODEL 3
REMARK VINA RESULT:     -12.1      3.923     10.218
REMARK SMILES O=C(NCCCNC(=O)[C@@H]1CN(c2ncnc3c2CCC3)CCO1)c1ccc(-c2c3nc(c(-c4c(F)cc(S(=O)(=O)[O-])cc4F)c4ccc([nH]4)c(-c4c(F)cc(S(=O)(=O)[O-])cc4F)c4nc(c(-c5c(F)cc(S(=O)(=O)[O-])cc5F)c5ccc2[nH]5)C=C4)C=C3)cc1
REMARK SMILES IDX 4 1 3 2 1 3 2 4 25 6 26 7 90 8 27 9 89 10 28 11 29 12 30 13
REMARK SMILES IDX 83 14 31 15 88 16 82 17 84 18 32 19 87 20 81 21 80 22 33 24
REMARK SMILES IDX 67 25 46 26 66 27 47 28 50 29 65 30 85 31 48 32 49 33 64 35
REMARK SMILES IDX 86 36 51 37 34 38 35 39 44 40 36 41 37 42 43 43 45 44 38 45
REMARK SMILES IDX 39 46 40 47 41 48 42 49 68 50 69 51 78 52 70 53 71 54 77 55
REMARK SMILES IDX 79 56 72 57 73 58 74 59 75 60 76 61 52 62 53 63 62 64 54 65
REMARK SMILES IDX 55 66 61 67 63 68 56 69 57 70 58 71 59 72 60 73 5 74 6 75
REMARK SMILES IDX 7 76 8 77 9 79 10 80 11 81 24 82 12 83 23 84 22 85 13 86
REMARK SMILES IDX 14 87 18 88 15 89 17 90 19 91 16 92 21 93 20 94
REMARK H PARENT 3 5 84 23 50 34 7 78
REMARK Flexibility Score: inf
ROOT
ATOM      1  C   UNL A   1      40.499  21.562  27.287  1.00  0.00     0.118 C 
ENDROOT
BRANCH   1   2
ATOM      2  N   UNL A   1      39.573  21.924  26.220  1.00  0.00    -0.352 N 
ATOM      3  O   UNL A   1      38.019  23.152  25.144  1.00  0.00    -0.269 OA
ATOM      4  C   UNL A   1      38.904  23.103  25.996  1.00  0.00     0.251 C 
ATOM      5  H   UNL A   1      39.402  21.214  25.557  1.00  0.00     0.163 HD
BRANCH   4   6
ATOM      6  C   UNL A   1      39.232  24.302  26.799  1.00  0.00     0.039 A 
ATOM      7  C   UNL A   1      40.134  25.249  26.315  1.00  0.00     0.014 A 
ATOM      8  C   UNL A   1      38.635  24.481  28.050  1.00  0.00     0.014 A 
ATOM      9  C   UNL A   1      40.584  26.261  27.149  1.00  0.00     0.010 A 
ATOM     10  C   UNL A   1      39.004  25.570  28.846  1.00  0.00     0.010 A 
ATOM     11  C   UNL A   1      40.011  26.448  28.417  1.00  0.00    -0.014 A 
BRANCH  11  12
ATOM     12  C   UNL A   1      40.446  27.610  29.232  1.00  0.00     0.031 A 
ATOM     13  C   UNL A   1      39.562  28.815  29.407  1.00  0.00     0.074 A 
ATOM     14  C   UNL A   1      41.633  27.535  29.868  1.00  0.00     0.049 A 
ATOM     15  N   UNL A   1      39.781  29.895  30.112  1.00  0.00    -0.248 NA
ATOM     16  C   UNL A   1      38.268  28.812  28.705  1.00  0.00     0.031 C 
ATOM     17  C   UNL A   1      42.571  26.412  29.768  1.00  0.00     0.029 A 
ATOM     18  N   UNL A   1      42.242  28.393  30.746  1.00  0.00    -0.354 N 
ATOM     19  C   UNL A   1      38.666  30.705  29.931  1.00  0.00     0.074 A 
ATOM     20  C   UNL A   1      37.779  30.004  29.028  1.00  0.00     0.031 C 
ATOM     21  C   UNL A   1      43.601  26.620  30.598  1.00  0.00     0.029 A 
ATOM     22  C   UNL A   1      43.438  27.921  31.235  1.00  0.00     0.049 A 
ATOM     23  H   UNL A   1      41.860  29.263  31.002  1.00  0.00     0.167 HD
ATOM     24  C   UNL A   1      38.407  31.917  30.478  1.00  0.00     0.037 A 
ATOM     25  C   UNL A   1      44.318  28.478  32.087  1.00  0.00     0.037 A 
ATOM     26  C   UNL A   1      39.291  32.593  31.394  1.00  0.00     0.049 A 
ATOM     27  C   UNL A   1      44.017  29.836  32.649  1.00  0.00     0.074 A 
ATOM     28  C   UNL A   1      39.107  33.816  32.019  1.00  0.00     0.029 A 
ATOM     29  N   UNL A   1      40.517  32.108  31.823  1.00  0.00    -0.354 N 
ATOM     30  N   UNL A   1      42.954  30.584  32.467  1.00  0.00    -0.248 NA
ATOM     31  C   UNL A   1      45.037  30.435  33.519  1.00  0.00     0.031 C 
ATOM     32  C   UNL A   1      40.239  34.086  32.793  1.00  0.00     0.029 A 
ATOM     33  C   UNL A   1      41.110  33.014  32.685  1.00  0.00     0.049 A 
ATOM     34  H   UNL A   1      40.908  31.245  31.552  1.00  0.00     0.167 HD
ATOM     35  C   UNL A   1      43.177  31.740  33.202  1.00  0.00     0.074 A 
ATOM     36  C   UNL A   1      44.462  31.582  33.853  1.00  0.00     0.031 C 
ATOM     37  C   UNL A   1      42.391  32.839  33.320  1.00  0.00     0.037 A 
BRANCH  24  38
ATOM     38  C   UNL A   1      37.121  32.603  30.112  1.00  0.00     0.058 A 
ATOM     39  C   UNL A   1      35.929  32.345  30.805  1.00  0.00     0.135 A 
ATOM     40  C   UNL A   1      37.101  33.601  29.123  1.00  0.00     0.135 A 
ATOM     41  F   UNL A   1      35.888  31.390  31.748  1.00  0.00    -0.206 F 
ATOM     42  C   UNL A   1      34.761  33.052  30.532  1.00  0.00     0.059 A 
ATOM     43  C   UNL A   1      35.950  34.334  28.847  1.00  0.00     0.059 A 
ATOM     44  F   UNL A   1      38.214  33.884  28.428  1.00  0.00    -0.206 F 
ATOM     45  C   UNL A   1      34.784  34.051  29.556  1.00  0.00     0.060 A 
BRANCH  45  46
ATOM     46  S   UNL A   1      33.270  34.986  29.248  1.00  0.00     0.124 S 
ATOM     47  O   UNL A   1      32.584  34.124  28.291  1.00  0.00    -0.237 OA
ATOM     48  O   UNL A   1      32.674  35.058  30.578  1.00  0.00    -0.237 OA
ATOM     49  O   UNL A   1      33.756  36.254  28.712  1.00  0.00    -0.744 OA
ENDBRANCH  45  46
ENDBRANCH  24  38
BRANCH  25  50
ATOM     50  C   UNL A   1      45.569  27.757  32.438  1.00  0.00     0.058 A 
ATOM     51  C   UNL A   1      45.585  26.783  33.446  1.00  0.00     0.135 A 
ATOM     52  C   UNL A   1      46.768  28.013  31.755  1.00  0.00     0.135 A 
ATOM     53  F   UNL A   1      44.463  26.506  34.128  1.00  0.00    -0.206 F 
ATOM     54  C   UNL A   1      46.749  26.098  33.776  1.00  0.00     0.059 A 
ATOM     55  C   UNL A   1      47.938  27.322  32.048  1.00  0.00     0.059 A 
ATOM     56  F   UNL A   1      46.800  28.923  30.769  1.00  0.00    -0.206 F 
ATOM     57  C   UNL A   1      47.921  26.374  33.068  1.00  0.00     0.060 A 
BRANCH  57  58
ATOM     58  S   UNL A   1      49.418  25.452  33.478  1.00  0.00     0.124 S 
ATOM     59  O   UNL A   1      50.113  25.439  32.198  1.00  0.00    -0.237 OA
ATOM     60  O   UNL A   1      50.014  26.281  34.521  1.00  0.00    -0.237 OA
ATOM     61  O   UNL A   1      48.903  24.163  33.933  1.00  0.00    -0.744 OA
ENDBRANCH  57  58
ENDBRANCH  25  50
BRANCH  37  62
ATOM     62  C   UNL A   1      42.899  33.953  34.187  1.00  0.00     0.058 A 
ATOM     63  C   UNL A   1      43.604  35.037  33.643  1.00  0.00     0.135 A 
ATOM     64  C   UNL A   1      42.628  33.967  35.565  1.00  0.00     0.135 A 
ATOM     65  F   UNL A   1      43.896  35.064  32.332  1.00  0.00    -0.206 F 
ATOM     66  C   UNL A   1      44.037  36.092  34.437  1.00  0.00     0.059 A 
ATOM     67  C   UNL A   1      43.030  35.024  36.374  1.00  0.00     0.059 A 
ATOM     68  F   UNL A   1      41.951  32.956  36.131  1.00  0.00    -0.206 F 
ATOM     69  C   UNL A   1      43.741  36.079  35.802  1.00  0.00     0.060 A 
BRANCH  69  70
ATOM     70  S   UNL A   1      44.272  37.477  36.813  1.00  0.00     0.124 S 
ATOM     71  O   UNL A   1      44.341  38.545  35.822  1.00  0.00    -0.237 OA
ATOM     72  O   UNL A   1      43.190  37.584  37.788  1.00  0.00    -0.237 OA
ATOM     73  O   UNL A   1      45.555  37.038  37.354  1.00  0.00    -0.744 OA
ENDBRANCH  69  70
ENDBRANCH  37  62
ENDBRANCH  11  12
ENDBRANCH   4   6
ENDBRANCH   1   2
BRANCH   1  74
ATOM     74  C   UNL A   1      41.824  21.042  26.764  1.00  0.00     0.042 C 
BRANCH  74  75
ATOM     75  C   UNL A   1      42.794  22.132  26.352  1.00  0.00     0.117 C 
BRANCH  75  76
ATOM     76  N   UNL A   1      43.237  22.007  24.971  1.00  0.00    -0.354 N 
ATOM     77  C   UNL A   1      44.195  22.737  24.317  1.00  0.00     0.250 C 
ATOM     78  H   UNL A   1      42.793  21.307  24.439  1.00  0.00     0.163 HD
ATOM     79  O   UNL A   1      44.493  22.404  23.169  1.00  0.00    -0.272 OA
BRANCH  77  80
ATOM     80  C   UNL A   1      44.791  23.972  25.007  1.00  0.00     0.226 C 
ATOM     81  C   UNL A   1      43.924  25.216  24.731  1.00  0.00     0.160 C 
ATOM     82  O   UNL A   1      46.142  24.201  24.560  1.00  0.00    -0.365 OA
ATOM     83  N   UNL A   1      44.594  26.436  25.213  1.00  0.00    -0.351 N 
ATOM     84  C   UNL A   1      46.727  25.262  25.320  1.00  0.00     0.183 C 
ATOM     85  C   UNL A   1      46.025  26.569  24.963  1.00  0.00     0.146 C 
BRANCH  83  86
ATOM     86  C   UNL A   1      43.825  27.508  25.579  1.00  0.00     0.135 A 
ATOM     87  N   UNL A   1      42.706  27.726  24.863  1.00  0.00    -0.219 NA
ATOM     88  C   UNL A   1      44.111  28.315  26.656  1.00  0.00     0.016 A 
ATOM     89  C   UNL A   1      41.870  28.697  25.282  1.00  0.00     0.224 A 
ATOM     90  C   UNL A   1      43.193  29.288  26.987  1.00  0.00     0.049 A 
ATOM     91  C   UNL A   1      45.288  28.338  27.568  1.00  0.00     0.042 C 
ATOM     92  N   UNL A   1      42.048  29.505  26.337  1.00  0.00    -0.241 NA
ATOM     93  C   UNL A   1      43.605  30.045  28.212  1.00  0.00     0.057 C 
ATOM     94  C   UNL A   1      45.061  29.605  28.402  1.00  0.00     0.011 C 
ENDBRANCH  83  86
ENDBRANCH  77  80
ENDBRANCH  75  76
ENDBRANCH  74  75
ENDBRANCH   1  74
TORSDOF 14
ENDMDL
