MODEL 1
REMARK VINA RESULT:     -11.5      0.000      0.000
REMARK SMILES C[C@@H]1CCC[C@](C#N)([C@H](O)C(=O)NCCCNC(=O)c2ccc(-c3c4nc(c(-c5c(F)cc(S(=O)(=O)[O-])cc5F)c5ccc([nH]5)c(-c5c(F)cc(S(=O)(=O)[O-])cc5F)c5nc(c(-c6c(F)cc(S(=O)(=O)[O-])cc6F)c6ccc3[nH]6)C=C5)C=C4)cc2)C1
REMARK SMILES IDX 15 1 14 2 13 3 11 4 12 5 9 7 6 8 1 9 2 10 3 11 86 12 4 13
REMARK SMILES IDX 5 14 7 15 8 16 10 17 16 19 17 20 18 21 19 23 20 24 21 25
REMARK SMILES IDX 85 26 22 27 84 28 23 29 24 30 25 31 78 32 26 33 83 34 77 35
REMARK SMILES IDX 79 36 27 37 82 38 76 39 75 40 28 42 62 43 41 44 61 45 42 46
REMARK SMILES IDX 45 47 60 48 80 49 43 50 44 51 59 53 81 54 46 55 29 56 30 57
REMARK SMILES IDX 39 58 31 59 32 60 38 61 40 62 33 63 34 64 35 65 36 66 37 67
REMARK SMILES IDX 63 68 64 69 73 70 65 71 66 72 72 73 74 74 67 75 68 76 69 77
REMARK SMILES IDX 70 78 71 79 47 80 48 81 57 82 49 83 50 84 56 85 58 86 51 87
REMARK SMILES IDX 52 88 53 89 54 90 55 91
REMARK H PARENT 13 6 10 18 17 22 79 41 45 52
REMARK Flexibility Score: inf
ROOT
ATOM      1  C   UNL A   1      37.312  23.702  25.498  1.00  0.00     0.042 C 
ENDROOT
BRANCH   1   2
ATOM      2  C   UNL A   1      36.816  22.257  25.514  1.00  0.00     0.117 C 
BRANCH   2   3
ATOM      3  N   UNL A   1      35.759  21.980  26.501  1.00  0.00    -0.354 N 
ATOM      4  C   UNL A   1      34.425  21.836  26.664  1.00  0.00     0.250 C 
ATOM      5  O   UNL A   1      34.175  21.460  27.830  1.00  0.00    -0.272 OA
ATOM      6  H   UNL A   1      36.189  21.850  27.378  1.00  0.00     0.163 HD
BRANCH   4   7
ATOM      7  C   UNL A   1      33.145  22.185  25.769  1.00  0.00     0.223 C 
BRANCH   7   8
ATOM      8  C   UNL A   1      32.455  23.586  25.563  1.00  0.00     0.092 C 
ATOM      9  C   UNL A   1      34.319  23.348  23.116  1.00  0.00     0.008 C 
ATOM     10  C   UNL A   1      33.028  24.175  23.141  1.00  0.00    -0.013 C 
ATOM     11  C   UNL A   1      33.418  25.610  23.472  1.00  0.00     0.003 C 
ATOM     12  C   UNL A   1      31.933  23.784  24.153  1.00  0.00     0.029 C 
ATOM     13  C   UNL A   1      34.051  25.669  24.863  1.00  0.00     0.002 C 
ATOM     14  C   UNL A   1      33.310  24.864  25.958  1.00  0.00     0.025 C 
BRANCH   8  15
ATOM     15  C   UNL A   1      31.276  23.602  26.490  1.00  0.00     0.072 C 
ATOM     16  N   UNL A   1      30.378  23.579  27.218  1.00  0.00    -0.198 NA
ENDBRANCH   8  15
ENDBRANCH   7   8
BRANCH   7  17
ATOM     17  O   UNL A   1      32.162  21.141  25.778  1.00  0.00    -0.382 OA
ATOM     18  H   UNL A   1      31.296  21.515  26.007  1.00  0.00     0.211 HD
ENDBRANCH   7  17
ENDBRANCH   4   7
ENDBRANCH   2   3
ENDBRANCH   1   2
BRANCH   1  19
ATOM     19  C   UNL A   1      38.292  24.047  26.600  1.00  0.00     0.118 C 
BRANCH  19  20
ATOM     20  N   UNL A   1      39.667  24.090  26.124  1.00  0.00    -0.352 N 
ATOM     21  C   UNL A   1      40.663  25.004  26.376  1.00  0.00     0.251 C 
ATOM     22  H   UNL A   1      39.923  23.349  25.529  1.00  0.00     0.163 HD
ATOM     23  O   UNL A   1      41.667  25.003  25.668  1.00  0.00    -0.269 OA
BRANCH  21  24
ATOM     24  C   UNL A   1      40.531  25.982  27.482  1.00  0.00     0.039 A 
ATOM     25  C   UNL A   1      39.665  25.709  28.544  1.00  0.00     0.014 A 
ATOM     26  C   UNL A   1      41.236  27.186  27.458  1.00  0.00     0.014 A 
ATOM     27  C   UNL A   1      39.547  26.623  29.594  1.00  0.00     0.010 A 
ATOM     28  C   UNL A   1      41.233  28.018  28.567  1.00  0.00     0.010 A 
ATOM     29  C   UNL A   1      40.355  27.772  29.628  1.00  0.00    -0.014 A 
BRANCH  29  30
ATOM     30  C   UNL A   1      40.262  28.765  30.727  1.00  0.00     0.031 A 
ATOM     31  C   UNL A   1      41.151  28.622  31.937  1.00  0.00     0.074 A 
ATOM     32  C   UNL A   1      39.341  29.747  30.662  1.00  0.00     0.049 A 
ATOM     33  N   UNL A   1      41.172  29.331  33.035  1.00  0.00    -0.248 NA
ATOM     34  C   UNL A   1      42.115  27.507  31.932  1.00  0.00     0.031 C 
ATOM     35  C   UNL A   1      38.390  29.945  29.566  1.00  0.00     0.029 A 
ATOM     36  N   UNL A   1      39.050  30.761  31.538  1.00  0.00    -0.354 N 
ATOM     37  C   UNL A   1      42.132  28.739  33.849  1.00  0.00     0.074 A 
ATOM     38  C   UNL A   1      42.612  27.567  33.158  1.00  0.00     0.031 C 
ATOM     39  C   UNL A   1      37.649  31.036  29.816  1.00  0.00     0.029 A 
ATOM     40  C   UNL A   1      38.034  31.583  31.112  1.00  0.00     0.049 A 
ATOM     41  H   UNL A   1      39.523  30.887  32.392  1.00  0.00     0.167 HD
ATOM     42  C   UNL A   1      42.597  29.156  35.049  1.00  0.00     0.037 A 
ATOM     43  C   UNL A   1      37.472  32.654  31.705  1.00  0.00     0.037 A 
ATOM     44  C   UNL A   1      42.129  30.344  35.711  1.00  0.00     0.049 A 
ATOM     45  C   UNL A   1      38.000  33.096  33.043  1.00  0.00     0.074 A 
ATOM     46  C   UNL A   1      42.567  30.897  36.900  1.00  0.00     0.029 A 
ATOM     47  N   UNL A   1      41.111  31.161  35.238  1.00  0.00    -0.354 N 
ATOM     48  N   UNL A   1      38.959  32.564  33.767  1.00  0.00    -0.248 NA
ATOM     49  C   UNL A   1      37.380  34.284  33.642  1.00  0.00     0.031 C 
ATOM     50  C   UNL A   1      41.771  32.011  37.179  1.00  0.00     0.029 A 
ATOM     51  C   UNL A   1      40.887  32.198  36.127  1.00  0.00     0.049 A 
ATOM     52  H   UNL A   1      40.622  31.025  34.395  1.00  0.00     0.167 HD
ATOM     53  C   UNL A   1      39.077  33.372  34.893  1.00  0.00     0.074 A 
ATOM     54  C   UNL A   1      38.103  34.435  34.744  1.00  0.00     0.031 C 
ATOM     55  C   UNL A   1      39.914  33.249  35.953  1.00  0.00     0.037 A 
BRANCH  42  56
ATOM     56  C   UNL A   1      43.663  28.327  35.718  1.00  0.00     0.058 A 
ATOM     57  C   UNL A   1      43.347  27.299  36.622  1.00  0.00     0.135 A 
ATOM     58  C   UNL A   1      45.021  28.541  35.428  1.00  0.00     0.135 A 
ATOM     59  F   UNL A   1      42.069  27.059  36.956  1.00  0.00    -0.206 F 
ATOM     60  C   UNL A   1      44.336  26.537  37.237  1.00  0.00     0.059 A 
ATOM     61  C   UNL A   1      46.025  27.767  36.002  1.00  0.00     0.059 A 
ATOM     62  F   UNL A   1      45.385  29.513  34.576  1.00  0.00    -0.206 F 
ATOM     63  C   UNL A   1      45.673  26.776  36.917  1.00  0.00     0.060 A 
BRANCH  63  64
ATOM     64  S   UNL A   1      46.940  25.765  37.710  1.00  0.00     0.124 S 
ATOM     65  O   UNL A   1      46.969  24.596  36.834  1.00  0.00    -0.237 OA
ATOM     66  O   UNL A   1      48.112  26.633  37.646  1.00  0.00    -0.237 OA
ATOM     67  O   UNL A   1      46.406  25.533  39.047  1.00  0.00    -0.744 OA
ENDBRANCH  63  64
ENDBRANCH  42  56
BRANCH  43  68
ATOM     68  C   UNL A   1      36.366  33.387  31.029  1.00  0.00     0.058 A 
ATOM     69  C   UNL A   1      35.048  33.313  31.506  1.00  0.00     0.135 A 
ATOM     70  C   UNL A   1      36.607  34.191  29.903  1.00  0.00     0.135 A 
ATOM     71  F   UNL A   1      34.764  32.558  32.577  1.00  0.00    -0.206 F 
ATOM     72  C   UNL A   1      34.007  33.990  30.879  1.00  0.00     0.059 A 
ATOM     73  C   UNL A   1      35.587  34.903  29.279  1.00  0.00     0.059 A 
ATOM     74  F   UNL A   1      37.852  34.314  29.417  1.00  0.00    -0.206 F 
ATOM     75  C   UNL A   1      34.288  34.787  29.769  1.00  0.00     0.060 A 
BRANCH  75  76
ATOM     76  S   UNL A   1      32.934  35.697  28.993  1.00  0.00     0.124 S 
ATOM     77  O   UNL A   1      33.650  36.787  28.341  1.00  0.00    -0.237 OA
ATOM     78  O   UNL A   1      32.358  34.689  28.108  1.00  0.00    -0.237 OA
ATOM     79  O   UNL A   1      32.095  36.080  30.125  1.00  0.00    -0.744 OA
ENDBRANCH  75  76
ENDBRANCH  43  68
BRANCH  55  80
ATOM     80  C   UNL A   1      39.846  34.310  37.015  1.00  0.00     0.058 A 
ATOM     81  C   UNL A   1      40.500  35.544  36.874  1.00  0.00     0.135 A 
ATOM     82  C   UNL A   1      39.063  34.109  38.165  1.00  0.00     0.135 A 
ATOM     83  F   UNL A   1      41.265  35.786  35.798  1.00  0.00    -0.206 F 
ATOM     84  C   UNL A   1      40.404  36.530  37.850  1.00  0.00     0.059 A 
ATOM     85  C   UNL A   1      38.922  35.096  39.133  1.00  0.00     0.059 A 
ATOM     86  F   UNL A   1      38.406  32.952  38.343  1.00  0.00    -0.206 F 
ATOM     87  C   UNL A   1      39.608  36.298  38.974  1.00  0.00     0.060 A 
BRANCH  87  88
ATOM     88  S   UNL A   1      39.465  37.602  40.212  1.00  0.00     0.124 S 
ATOM     89  O   UNL A   1      38.526  38.516  39.569  1.00  0.00    -0.237 OA
ATOM     90  O   UNL A   1      38.952  36.876  41.369  1.00  0.00    -0.237 OA
ATOM     91  O   UNL A   1      40.832  38.098  40.345  1.00  0.00    -0.744 OA
ENDBRANCH  87  88
ENDBRANCH  55  80
ENDBRANCH  29  30
ENDBRANCH  21  24
ENDBRANCH  19  20
ENDBRANCH   1  19
TORSDOF 16
ENDMDL
MODEL 2
REMARK VINA RESULT:     -11.4      5.006     10.563
REMARK SMILES C[C@@H]1CCC[C@](C#N)([C@H](O)C(=O)NCCCNC(=O)c2ccc(-c3c4nc(c(-c5c(F)cc(S(=O)(=O)[O-])cc5F)c5ccc([nH]5)c(-c5c(F)cc(S(=O)(=O)[O-])cc5F)c5nc(c(-c6c(F)cc(S(=O)(=O)[O-])cc6F)c6ccc3[nH]6)C=C5)C=C4)cc2)C1
REMARK SMILES IDX 15 1 14 2 13 3 11 4 12 5 9 7 6 8 1 9 2 10 3 11 86 12 4 13
REMARK SMILES IDX 5 14 7 15 8 16 10 17 16 19 17 20 18 21 19 23 20 24 21 25
REMARK SMILES IDX 85 26 22 27 84 28 23 29 24 30 25 31 78 32 26 33 83 34 77 35
REMARK SMILES IDX 79 36 27 37 82 38 76 39 75 40 28 42 62 43 41 44 61 45 42 46
REMARK SMILES IDX 45 47 60 48 80 49 43 50 44 51 59 53 81 54 46 55 29 56 30 57
REMARK SMILES IDX 39 58 31 59 32 60 38 61 40 62 33 63 34 64 35 65 36 66 37 67
REMARK SMILES IDX 63 68 64 69 73 70 65 71 66 72 72 73 74 74 67 75 68 76 69 77
REMARK SMILES IDX 70 78 71 79 47 80 48 81 57 82 49 83 50 84 56 85 58 86 51 87
REMARK SMILES IDX 52 88 53 89 54 90 55 91
REMARK H PARENT 13 6 10 18 17 22 79 41 45 52
REMARK Flexibility Score: inf
ROOT
ATOM      1  C   UNL A   1      32.909  27.397  26.236  1.00  0.00     0.042 C 
ENDROOT
BRANCH   1   2
ATOM      2  C   UNL A   1      33.183  25.974  25.751  1.00  0.00     0.117 C 
BRANCH   2   3
ATOM      3  N   UNL A   1      32.357  24.936  26.392  1.00  0.00    -0.354 N 
ATOM      4  C   UNL A   1      32.351  23.656  26.823  1.00  0.00     0.250 C 
ATOM      5  O   UNL A   1      31.284  23.413  27.429  1.00  0.00    -0.272 OA
ATOM      6  H   UNL A   1      31.471  25.325  26.576  1.00  0.00     0.163 HD
BRANCH   4   7
ATOM      7  C   UNL A   1      33.308  22.393  26.593  1.00  0.00     0.223 C 
BRANCH   7   8
ATOM      8  C   UNL A   1      33.741  21.737  25.228  1.00  0.00     0.092 C 
ATOM      9  C   UNL A   1      36.075  23.651  25.867  1.00  0.00     0.008 C 
ATOM     10  C   UNL A   1      36.209  22.377  25.023  1.00  0.00    -0.013 C 
ATOM     11  C   UNL A   1      36.089  22.789  23.562  1.00  0.00     0.003 C 
ATOM     12  C   UNL A   1      35.178  21.251  25.239  1.00  0.00     0.029 C 
ATOM     13  C   UNL A   1      34.707  23.391  23.303  1.00  0.00     0.002 C 
ATOM     14  C   UNL A   1      33.522  22.608  23.920  1.00  0.00     0.025 C 
BRANCH   8  15
ATOM     15  C   UNL A   1      32.857  20.537  25.052  1.00  0.00     0.072 C 
ATOM     16  N   UNL A   1      32.159  19.622  24.950  1.00  0.00    -0.198 NA
ENDBRANCH   8  15
ENDBRANCH   7   8
BRANCH   7  17
ATOM     17  O   UNL A   1      33.149  21.387  27.603  1.00  0.00    -0.382 OA
ATOM     18  H   UNL A   1      33.925  21.389  28.185  1.00  0.00     0.211 HD
ENDBRANCH   7  17
ENDBRANCH   4   7
ENDBRANCH   2   3
ENDBRANCH   1   2
BRANCH   1  19
ATOM     19  C   UNL A   1      34.127  28.295  26.282  1.00  0.00     0.118 C 
BRANCH  19  20
ATOM     20  N   UNL A   1      33.837  29.592  26.879  1.00  0.00    -0.352 N 
ATOM     21  C   UNL A   1      34.546  30.318  27.807  1.00  0.00     0.251 C 
ATOM     22  H   UNL A   1      33.004  30.014  26.568  1.00  0.00     0.163 HD
ATOM     23  O   UNL A   1      33.997  31.259  28.374  1.00  0.00    -0.269 OA
BRANCH  21  24
ATOM     24  C   UNL A   1      35.950  29.971  28.128  1.00  0.00     0.039 A 
ATOM     25  C   UNL A   1      36.257  29.429  29.380  1.00  0.00     0.014 A 
ATOM     26  C   UNL A   1      36.974  30.208  27.210  1.00  0.00     0.014 A 
ATOM     27  C   UNL A   1      37.578  29.089  29.682  1.00  0.00     0.010 A 
ATOM     28  C   UNL A   1      38.254  29.734  27.453  1.00  0.00     0.010 A 
ATOM     29  C   UNL A   1      38.583  29.210  28.708  1.00  0.00    -0.014 A 
BRANCH  29  30
ATOM     30  C   UNL A   1      39.996  28.857  28.988  1.00  0.00     0.031 A 
ATOM     31  C   UNL A   1      40.916  29.890  29.592  1.00  0.00     0.074 A 
ATOM     32  C   UNL A   1      40.462  27.641  28.643  1.00  0.00     0.049 A 
ATOM     33  N   UNL A   1      42.197  29.811  29.841  1.00  0.00    -0.248 NA
ATOM     34  C   UNL A   1      40.327  31.201  29.920  1.00  0.00     0.031 C 
ATOM     35  C   UNL A   1      39.676  26.585  28.000  1.00  0.00     0.029 A 
ATOM     36  N   UNL A   1      41.709  27.086  28.779  1.00  0.00    -0.354 N 
ATOM     37  C   UNL A   1      42.564  31.059  30.334  1.00  0.00     0.074 A 
ATOM     38  C   UNL A   1      41.394  31.901  30.273  1.00  0.00     0.031 C 
ATOM     39  C   UNL A   1      40.447  25.499  27.833  1.00  0.00     0.029 A 
ATOM     40  C   UNL A   1      41.793  25.797  28.308  1.00  0.00     0.049 A 
ATOM     41  H   UNL A   1      42.470  27.566  29.176  1.00  0.00     0.167 HD
ATOM     42  C   UNL A   1      43.760  31.455  30.828  1.00  0.00     0.037 A 
ATOM     43  C   UNL A   1      42.843  24.955  28.259  1.00  0.00     0.037 A 
ATOM     44  C   UNL A   1      44.907  30.593  30.909  1.00  0.00     0.049 A 
ATOM     45  C   UNL A   1      44.166  25.419  28.806  1.00  0.00     0.074 A 
ATOM     46  C   UNL A   1      46.153  30.865  31.443  1.00  0.00     0.029 A 
ATOM     47  N   UNL A   1      44.949  29.287  30.439  1.00  0.00    -0.354 N 
ATOM     48  N   UNL A   1      44.476  26.580  29.335  1.00  0.00    -0.248 NA
ATOM     49  C   UNL A   1      45.276  24.461  28.760  1.00  0.00     0.031 C 
ATOM     50  C   UNL A   1      46.967  29.749  31.237  1.00  0.00     0.029 A 
ATOM     51  C   UNL A   1      46.208  28.751  30.643  1.00  0.00     0.049 A 
ATOM     52  H   UNL A   1      44.195  28.812  30.022  1.00  0.00     0.167 HD
ATOM     53  C   UNL A   1      45.811  26.481  29.713  1.00  0.00     0.074 A 
ATOM     54  C   UNL A   1      46.241  25.141  29.365  1.00  0.00     0.031 C 
ATOM     55  C   UNL A   1      46.610  27.410  30.294  1.00  0.00     0.037 A 
BRANCH  42  56
ATOM     56  C   UNL A   1      43.885  32.875  31.317  1.00  0.00     0.058 A 
ATOM     57  C   UNL A   1      44.205  33.934  30.451  1.00  0.00     0.135 A 
ATOM     58  C   UNL A   1      43.648  33.188  32.666  1.00  0.00     0.135 A 
ATOM     59  F   UNL A   1      44.462  33.696  29.155  1.00  0.00    -0.206 F 
ATOM     60  C   UNL A   1      44.319  35.243  30.910  1.00  0.00     0.059 A 
ATOM     61  C   UNL A   1      43.720  34.494  33.139  1.00  0.00     0.059 A 
ATOM     62  F   UNL A   1      43.343  32.217  33.542  1.00  0.00    -0.206 F 
ATOM     63  C   UNL A   1      44.070  35.514  32.255  1.00  0.00     0.060 A 
BRANCH  63  64
ATOM     64  S   UNL A   1      44.204  37.220  32.827  1.00  0.00     0.124 S 
ATOM     65  O   UNL A   1      45.487  37.194  33.524  1.00  0.00    -0.237 OA
ATOM     66  O   UNL A   1      44.179  37.969  31.574  1.00  0.00    -0.237 OA
ATOM     67  O   UNL A   1      43.032  37.389  33.679  1.00  0.00    -0.744 OA
ENDBRANCH  63  64
ENDBRANCH  42  56
BRANCH  43  68
ATOM     68  C   UNL A   1      42.677  23.589  27.691  1.00  0.00     0.058 A 
ATOM     69  C   UNL A   1      42.795  23.357  26.311  1.00  0.00     0.135 A 
ATOM     70  C   UNL A   1      42.415  22.483  28.516  1.00  0.00     0.135 A 
ATOM     71  F   UNL A   1      43.042  24.380  25.479  1.00  0.00    -0.206 F 
ATOM     72  C   UNL A   1      42.637  22.086  25.768  1.00  0.00     0.059 A 
ATOM     73  C   UNL A   1      42.286  21.197  28.000  1.00  0.00     0.059 A 
ATOM     74  F   UNL A   1      42.313  22.644  29.845  1.00  0.00    -0.206 F 
ATOM     75  C   UNL A   1      42.388  21.011  26.622  1.00  0.00     0.060 A 
BRANCH  75  76
ATOM     76  S   UNL A   1      42.231  19.359  25.910  1.00  0.00     0.124 S 
ATOM     77  O   UNL A   1      42.754  18.525  26.986  1.00  0.00    -0.237 OA
ATOM     78  O   UNL A   1      40.795  19.267  25.668  1.00  0.00    -0.237 OA
ATOM     79  O   UNL A   1      43.059  19.432  24.709  1.00  0.00    -0.744 OA
ENDBRANCH  75  76
ENDBRANCH  43  68
BRANCH  55  80
ATOM     80  C   UNL A   1      48.016  27.000  30.631  1.00  0.00     0.058 A 
ATOM     81  C   UNL A   1      49.087  27.232  29.755  1.00  0.00     0.135 A 
ATOM     82  C   UNL A   1      48.302  26.419  31.878  1.00  0.00     0.135 A 
ATOM     83  F   UNL A   1      48.869  27.779  28.548  1.00  0.00    -0.206 F 
ATOM     84  C   UNL A   1      50.389  26.875  30.091  1.00  0.00     0.059 A 
ATOM     85  C   UNL A   1      49.601  26.091  32.250  1.00  0.00     0.059 A 
ATOM     86  F   UNL A   1      47.316  26.188  32.759  1.00  0.00    -0.206 F 
ATOM     87  C   UNL A   1      50.636  26.310  31.344  1.00  0.00     0.060 A 
BRANCH  87  88
ATOM     88  S   UNL A   1      52.335  25.888  31.778  1.00  0.00     0.124 S 
ATOM     89  O   UNL A   1      52.614  26.851  32.839  1.00  0.00    -0.237 OA
ATOM     90  O   UNL A   1      52.210  24.497  32.201  1.00  0.00    -0.237 OA
ATOM     91  O   UNL A   1      53.068  26.097  30.533  1.00  0.00    -0.744 OA
ENDBRANCH  87  88
ENDBRANCH  55  80
ENDBRANCH  29  30
ENDBRANCH  21  24
ENDBRANCH  19  20
ENDBRANCH   1  19
TORSDOF 16
ENDMDL
MODEL 3
REMARK VINA RESULT:     -11.2      1.080      1.818
REMARK SMILES C[C@@H]1CCC[C@](C#N)([C@H](O)C(=O)NCCCNC(=O)c2ccc(-c3c4nc(c(-c5c(F)cc(S(=O)(=O)[O-])cc5F)c5ccc([nH]5)c(-c5c(F)cc(S(=O)(=O)[O-])cc5F)c5nc(c(-c6c(F)cc(S(=O)(=O)[O-])cc6F)c6ccc3[nH]6)C=C5)C=C4)cc2)C1
REMARK SMILES IDX 15 1 14 2 13 3 11 4 12 5 9 7 6 8 1 9 2 10 3 11 86 12 4 13
REMARK SMILES IDX 5 14 7 15 8 16 10 17 16 19 17 20 18 21 19 23 20 24 21 25
REMARK SMILES IDX 85 26 22 27 84 28 23 29 24 30 25 31 78 32 26 33 83 34 77 35
REMARK SMILES IDX 79 36 27 37 82 38 76 39 75 40 28 42 62 43 41 44 61 45 42 46
REMARK SMILES IDX 45 47 60 48 80 49 43 50 44 51 59 53 81 54 46 55 29 56 30 57
REMARK SMILES IDX 39 58 31 59 32 60 38 61 40 62 33 63 34 64 35 65 36 66 37 67
REMARK SMILES IDX 63 68 64 69 73 70 65 71 66 72 72 73 74 74 67 75 68 76 69 77
REMARK SMILES IDX 70 78 71 79 47 80 48 81 57 82 49 83 50 84 56 85 58 86 51 87
REMARK SMILES IDX 52 88 53 89 54 90 55 91
REMARK H PARENT 13 6 10 18 17 22 79 41 45 52
REMARK Flexibility Score: inf
ROOT
ATOM      1  C   UNL A   1      38.236  23.985  26.268  1.00  0.00     0.042 C 
ENDROOT
BRANCH   1   2
ATOM      2  C   UNL A   1      37.401  22.938  25.531  1.00  0.00     0.117 C 
BRANCH   2   3
ATOM      3  N   UNL A   1      36.226  22.453  26.276  1.00  0.00    -0.354 N 
ATOM      4  C   UNL A   1      35.183  21.595  26.234  1.00  0.00     0.250 C 
ATOM      5  O   UNL A   1      34.582  21.598  27.331  1.00  0.00    -0.272 OA
ATOM      6  H   UNL A   1      36.185  22.942  27.129  1.00  0.00     0.163 HD
BRANCH   4   7
ATOM      7  C   UNL A   1      34.488  20.733  25.077  1.00  0.00     0.223 C 
BRANCH   7   8
ATOM      8  C   UNL A   1      32.962  20.675  24.691  1.00  0.00     0.092 C 
ATOM      9  C   UNL A   1      33.950  23.239  23.289  1.00  0.00     0.008 C 
ATOM     10  C   UNL A   1      32.764  22.394  22.808  1.00  0.00    -0.013 C 
ATOM     11  C   UNL A   1      31.500  23.026  23.376  1.00  0.00     0.003 C 
ATOM     12  C   UNL A   1      32.720  20.907  23.212  1.00  0.00     0.029 C 
ATOM     13  C   UNL A   1      31.535  22.976  24.904  1.00  0.00     0.002 C 
ATOM     14  C   UNL A   1      31.986  21.623  25.508  1.00  0.00     0.025 C 
BRANCH   8  15
ATOM     15  C   UNL A   1      32.513  19.280  25.012  1.00  0.00     0.072 C 
ATOM     16  N   UNL A   1      32.160  18.199  25.221  1.00  0.00    -0.198 NA
ENDBRANCH   8  15
ENDBRANCH   7   8
BRANCH   7  17
ATOM     17  O   UNL A   1      35.097  19.447  24.904  1.00  0.00    -0.382 OA
ATOM     18  H   UNL A   1      34.732  19.021  24.112  1.00  0.00     0.211 HD
ENDBRANCH   7  17
ENDBRANCH   4   7
ENDBRANCH   2   3
ENDBRANCH   1   2
BRANCH   1  19
ATOM     19  C   UNL A   1      39.482  23.445  26.937  1.00  0.00     0.118 C 
BRANCH  19  20
ATOM     20  N   UNL A   1      40.693  23.776  26.201  1.00  0.00    -0.352 N 
ATOM     21  C   UNL A   1      41.485  24.899  26.257  1.00  0.00     0.251 C 
ATOM     22  H   UNL A   1      40.993  23.087  25.564  1.00  0.00     0.163 HD
ATOM     23  O   UNL A   1      42.307  25.095  25.365  1.00  0.00    -0.269 OA
BRANCH  21  24
ATOM     24  C   UNL A   1      41.348  25.867  27.370  1.00  0.00     0.039 A 
ATOM     25  C   UNL A   1      42.141  27.018  27.384  1.00  0.00     0.014 A 
ATOM     26  C   UNL A   1      40.461  25.628  28.421  1.00  0.00     0.014 A 
ATOM     27  C   UNL A   1      42.006  27.939  28.426  1.00  0.00     0.010 A 
ATOM     28  C   UNL A   1      40.221  26.610  29.369  1.00  0.00     0.010 A 
ATOM     29  C   UNL A   1      41.021  27.757  29.411  1.00  0.00    -0.014 A 
BRANCH  29  30
ATOM     30  C   UNL A   1      40.844  28.714  30.532  1.00  0.00     0.031 A 
ATOM     31  C   UNL A   1      41.709  28.588  31.761  1.00  0.00     0.074 A 
ATOM     32  C   UNL A   1      39.871  29.643  30.468  1.00  0.00     0.049 A 
ATOM     33  N   UNL A   1      41.663  29.268  32.877  1.00  0.00    -0.248 NA
ATOM     34  C   UNL A   1      42.736  27.530  31.753  1.00  0.00     0.031 C 
ATOM     35  C   UNL A   1      38.938  29.817  29.352  1.00  0.00     0.029 A 
ATOM     36  N   UNL A   1      39.501  30.616  31.361  1.00  0.00    -0.354 N 
ATOM     37  C   UNL A   1      42.635  28.709  33.701  1.00  0.00     0.074 A 
ATOM     38  C   UNL A   1      43.197  27.585  32.993  1.00  0.00     0.031 C 
ATOM     39  C   UNL A   1      38.130  30.857  29.610  1.00  0.00     0.029 A 
ATOM     40  C   UNL A   1      38.450  31.390  30.929  1.00  0.00     0.049 A 
ATOM     41  H   UNL A   1      39.944  30.745  32.230  1.00  0.00     0.167 HD
ATOM     42  C   UNL A   1      43.045  29.119  34.923  1.00  0.00     0.037 A 
ATOM     43  C   UNL A   1      37.813  32.411  31.534  1.00  0.00     0.037 A 
ATOM     44  C   UNL A   1      42.493  30.261  35.602  1.00  0.00     0.049 A 
ATOM     45  C   UNL A   1      38.282  32.846  32.896  1.00  0.00     0.074 A 
ATOM     46  C   UNL A   1      42.869  30.805  36.815  1.00  0.00     0.029 A 
ATOM     47  N   UNL A   1      41.442  31.032  35.123  1.00  0.00    -0.354 N 
ATOM     48  N   UNL A   1      39.251  32.350  33.631  1.00  0.00    -0.248 NA
ATOM     49  C   UNL A   1      37.580  33.980  33.509  1.00  0.00     0.031 C 
ATOM     50  C   UNL A   1      42.004  31.865  37.102  1.00  0.00     0.029 A 
ATOM     51  C   UNL A   1      41.137  32.030  36.032  1.00  0.00     0.049 A 
ATOM     52  H   UNL A   1      40.983  30.890  34.265  1.00  0.00     0.167 HD
ATOM     53  C   UNL A   1      39.295  33.133  34.780  1.00  0.00     0.074 A 
ATOM     54  C   UNL A   1      38.266  34.142  34.633  1.00  0.00     0.031 C 
ATOM     55  C   UNL A   1      40.110  33.029  35.859  1.00  0.00     0.037 A 
BRANCH  42  56
ATOM     56  C   UNL A   1      44.139  28.334  35.599  1.00  0.00     0.058 A 
ATOM     57  C   UNL A   1      45.498  28.639  35.410  1.00  0.00     0.135 A 
ATOM     58  C   UNL A   1      43.826  27.282  36.475  1.00  0.00     0.135 A 
ATOM     59  F   UNL A   1      45.862  29.621  34.570  1.00  0.00    -0.206 F 
ATOM     60  C   UNL A   1      46.504  27.910  36.037  1.00  0.00     0.059 A 
ATOM     61  C   UNL A   1      44.814  26.564  37.142  1.00  0.00     0.059 A 
ATOM     62  F   UNL A   1      42.546  26.941  36.691  1.00  0.00    -0.206 F 
ATOM     63  C   UNL A   1      46.152  26.877  36.905  1.00  0.00     0.060 A 
BRANCH  63  64
ATOM     64  S   UNL A   1      47.470  25.956  37.724  1.00  0.00     0.124 S 
ATOM     65  O   UNL A   1      48.658  26.647  37.230  1.00  0.00    -0.237 OA
ATOM     66  O   UNL A   1      47.159  26.160  39.136  1.00  0.00    -0.237 OA
ATOM     67  O   UNL A   1      47.290  24.593  37.236  1.00  0.00    -0.744 OA
ENDBRANCH  63  64
ENDBRANCH  42  56
BRANCH  43  68
ATOM     68  C   UNL A   1      36.685  33.098  30.848  1.00  0.00     0.058 A 
ATOM     69  C   UNL A   1      35.354  32.867  31.230  1.00  0.00     0.135 A 
ATOM     70  C   UNL A   1      36.914  34.014  29.808  1.00  0.00     0.135 A 
ATOM     71  F   UNL A   1      35.081  32.000  32.216  1.00  0.00    -0.206 F 
ATOM     72  C   UNL A   1      34.292  33.500  30.593  1.00  0.00     0.059 A 
ATOM     73  C   UNL A   1      35.870  34.684  29.178  1.00  0.00     0.059 A 
ATOM     74  F   UNL A   1      38.168  34.289  29.416  1.00  0.00    -0.206 F 
ATOM     75  C   UNL A   1      34.561  34.411  29.570  1.00  0.00     0.060 A 
BRANCH  75  76
ATOM     76  S   UNL A   1      33.175  35.261  28.783  1.00  0.00     0.124 S 
ATOM     77  O   UNL A   1      32.398  35.689  29.939  1.00  0.00    -0.237 OA
ATOM     78  O   UNL A   1      33.850  36.318  28.038  1.00  0.00    -0.237 OA
ATOM     79  O   UNL A   1      32.565  34.218  27.963  1.00  0.00    -0.744 OA
ENDBRANCH  75  76
ENDBRANCH  43  68
BRANCH  55  80
ATOM     80  C   UNL A   1      39.955  34.056  36.946  1.00  0.00     0.058 A 
ATOM     81  C   UNL A   1      40.674  35.261  36.936  1.00  0.00     0.135 A 
ATOM     82  C   UNL A   1      39.027  33.853  37.981  1.00  0.00     0.135 A 
ATOM     83  F   UNL A   1      41.577  35.503  35.972  1.00  0.00    -0.206 F 
ATOM     84  C   UNL A   1      40.498  36.217  37.931  1.00  0.00     0.059 A 
ATOM     85  C   UNL A   1      38.808  34.812  38.963  1.00  0.00     0.059 A 
ATOM     86  F   UNL A   1      38.304  32.723  38.030  1.00  0.00    -0.206 F 
ATOM     87  C   UNL A   1      39.559  35.985  38.937  1.00  0.00     0.060 A 
BRANCH  87  88
ATOM     88  S   UNL A   1      39.318  37.252  40.199  1.00  0.00     0.124 S 
ATOM     89  O   UNL A   1      38.447  38.195  39.504  1.00  0.00    -0.237 OA
ATOM     90  O   UNL A   1      38.699  36.496  41.282  1.00  0.00    -0.237 OA
ATOM     91  O   UNL A   1      40.671  37.728  40.466  1.00  0.00    -0.744 OA
ENDBRANCH  87  88
ENDBRANCH  55  80
ENDBRANCH  29  30
ENDBRANCH  21  24
ENDBRANCH  19  20
ENDBRANCH   1  19
TORSDOF 16
ENDMDL
