MODEL 1
REMARK VINA RESULT:     -13.6      0.000      0.000
REMARK SMILES CN1C(=O)C[C@@H](C(=O)NCCCNC(=O)c2ccc(-c3c4nc(c(-c5c(F)cc(S(=O)(=O)[O-])cc5F)c5ccc([nH]5)c(-c5c(F)cc(S(=O)(=O)[O-])cc5F)c5nc(c(-c6c(F)cc(S(=O)(=O)[O-])cc6F)c6ccc3[nH]6)C=C5)C=C4)cc2)C12CCN(C(=O)c1ccccc1-n1cccn1)CC2
REMARK SMILES IDX 11 1 10 2 9 3 7 4 8 5 6 7 1 8 2 9 3 10 82 11 4 12 5 13 83 14
REMARK SMILES IDX 100 15 84 16 99 17 85 18 86 19 87 20 88 21 89 22 93 23 90 24
REMARK SMILES IDX 92 25 91 26 94 27 95 28 98 29 96 30 97 31 12 32 13 33 14 34
REMARK SMILES IDX 15 36 16 37 17 38 81 39 18 40 80 41 19 42 20 43 21 44 74 45
REMARK SMILES IDX 22 46 79 47 73 48 75 49 23 50 78 51 72 52 71 53 24 55 58 56
REMARK SMILES IDX 37 57 57 58 38 59 41 60 56 61 76 62 39 63 40 64 55 66 77 67
REMARK SMILES IDX 42 68 25 69 26 70 35 71 27 72 28 73 34 74 36 75 29 76 30 77
REMARK SMILES IDX 31 78 32 79 33 80 59 81 60 82 69 83 61 84 62 85 68 86 70 87
REMARK SMILES IDX 63 88 64 89 65 90 66 91 67 92 43 93 44 94 53 95 45 96 46 97
REMARK SMILES IDX 52 98 54 99 47 100 48 101 49 102 50 103 51 104
REMARK H PARENT 9 6 13 35 75 54 41 65
REMARK Flexibility Score: inf
ROOT
ATOM      1  C   UNL A   1      34.506  30.765  27.530  1.00  0.00     0.042 C 
ENDROOT
BRANCH   1   2
ATOM      2  C   UNL A   1      34.543  29.235  27.523  1.00  0.00     0.117 C 
BRANCH   2   3
ATOM      3  N   UNL A   1      33.238  28.593  27.640  1.00  0.00    -0.356 N 
ATOM      4  C   UNL A   1      32.314  28.155  26.748  1.00  0.00     0.226 C 
ATOM      5  O   UNL A   1      31.334  27.570  27.230  1.00  0.00    -0.275 OA
ATOM      6  H   UNL A   1      32.968  28.445  28.575  1.00  0.00     0.163 HD
BRANCH   4   7
ATOM      7  C   UNL A   1      32.362  28.362  25.233  1.00  0.00     0.113 C 
ATOM      8  C   UNL A   1      29.327  27.160  23.410  1.00  0.00     0.147 C 
ATOM      9  N   UNL A   1      30.452  27.879  23.982  1.00  0.00    -0.339 N 
ATOM     10  C   UNL A   1      30.445  29.258  24.125  1.00  0.00     0.223 C 
ATOM     11  C   UNL A   1      31.737  27.260  24.347  1.00  0.00     0.058 C 
ATOM     12  O   UNL A   1      29.549  30.026  23.804  1.00  0.00    -0.275 OA
ATOM     13  C   UNL A   1      31.721  29.678  24.796  1.00  0.00     0.116 C 
ATOM     14  C   UNL A   1      31.622  25.904  25.069  1.00  0.00     0.051 C 
ATOM     15  C   UNL A   1      32.539  27.048  23.022  1.00  0.00     0.051 C 
ATOM     16  C   UNL A   1      32.961  25.192  25.225  1.00  0.00     0.122 C 
ATOM     17  C   UNL A   1      33.801  26.194  23.166  1.00  0.00     0.122 C 
ATOM     18  N   UNL A   1      33.530  24.967  23.906  1.00  0.00    -0.338 N 
ATOM     19  C   UNL A   1      33.840  23.728  23.345  1.00  0.00     0.256 C 
ATOM     20  O   UNL A   1      34.346  23.604  22.231  1.00  0.00    -0.269 OA
BRANCH  19  21
ATOM     21  C   UNL A   1      33.631  22.481  24.127  1.00  0.00     0.065 A 
ATOM     22  C   UNL A   1      32.372  21.875  23.968  1.00  0.00     0.016 A 
ATOM     23  C   UNL A   1      34.595  21.853  24.930  1.00  0.00     0.077 A 
ATOM     24  C   UNL A   1      32.091  20.646  24.571  1.00  0.00     0.001 A 
ATOM     25  C   UNL A   1      34.324  20.587  25.481  1.00  0.00     0.029 A 
ATOM     26  C   UNL A   1      33.072  19.995  25.315  1.00  0.00     0.002 A 
BRANCH  23  27
ATOM     27  N   UNL A   1      35.839  22.444  25.249  1.00  0.00    -0.240 N 
ATOM     28  C   UNL A   1      36.101  23.487  26.108  1.00  0.00     0.115 A 
ATOM     29  N   UNL A   1      36.982  21.967  24.687  1.00  0.00    -0.177 NA
ATOM     30  C   UNL A   1      37.465  23.664  26.118  1.00  0.00     0.042 A 
ATOM     31  C   UNL A   1      37.954  22.710  25.213  1.00  0.00     0.135 A 
ENDBRANCH  23  27
ENDBRANCH  19  21
ENDBRANCH   4   7
ENDBRANCH   2   3
ENDBRANCH   1   2
BRANCH   1  32
ATOM     32  C   UNL A   1      35.703  31.410  28.217  1.00  0.00     0.118 C 
BRANCH  32  33
ATOM     33  N   UNL A   1      35.606  31.294  29.665  1.00  0.00    -0.352 N 
ATOM     34  C   UNL A   1      36.401  30.595  30.541  1.00  0.00     0.251 C 
ATOM     35  H   UNL A   1      34.862  31.789  30.077  1.00  0.00     0.163 HD
ATOM     36  O   UNL A   1      35.981  30.355  31.670  1.00  0.00    -0.269 OA
BRANCH  34  37
ATOM     37  C   UNL A   1      37.746  30.132  30.134  1.00  0.00     0.039 A 
ATOM     38  C   UNL A   1      38.066  30.076  28.774  1.00  0.00     0.014 A 
ATOM     39  C   UNL A   1      38.678  29.707  31.085  1.00  0.00     0.014 A 
ATOM     40  C   UNL A   1      39.335  29.648  28.375  1.00  0.00     0.010 A 
ATOM     41  C   UNL A   1      39.970  29.367  30.691  1.00  0.00     0.010 A 
ATOM     42  C   UNL A   1      40.310  29.321  29.332  1.00  0.00    -0.014 A 
BRANCH  42  43
ATOM     43  C   UNL A   1      41.684  28.918  28.934  1.00  0.00     0.031 A 
ATOM     44  C   UNL A   1      42.792  29.939  28.899  1.00  0.00     0.074 A 
ATOM     45  C   UNL A   1      41.921  27.650  28.542  1.00  0.00     0.049 A 
ATOM     46  N   UNL A   1      44.032  29.800  28.505  1.00  0.00    -0.248 NA
ATOM     47  C   UNL A   1      42.453  31.303  29.337  1.00  0.00     0.031 C 
ATOM     48  C   UNL A   1      40.922  26.580  28.491  1.00  0.00     0.029 A 
ATOM     49  N   UNL A   1      43.073  27.046  28.103  1.00  0.00    -0.354 N 
ATOM     50  C   UNL A   1      44.614  31.056  28.632  1.00  0.00     0.074 A 
ATOM     51  C   UNL A   1      43.577  31.958  29.084  1.00  0.00     0.031 C 
ATOM     52  C   UNL A   1      41.508  25.449  28.068  1.00  0.00     0.029 A 
ATOM     53  C   UNL A   1      42.911  25.720  27.774  1.00  0.00     0.049 A 
ATOM     54  H   UNL A   1      43.935  27.518  28.030  1.00  0.00     0.167 HD
ATOM     55  C   UNL A   1      45.901  31.421  28.417  1.00  0.00     0.037 A 
ATOM     56  C   UNL A   1      43.790  24.827  27.279  1.00  0.00     0.037 A 
ATOM     57  C   UNL A   1      46.932  30.511  27.987  1.00  0.00     0.049 A 
ATOM     58  C   UNL A   1      45.211  25.257  27.033  1.00  0.00     0.074 A 
ATOM     59  C   UNL A   1      48.278  30.767  27.795  1.00  0.00     0.029 A 
ATOM     60  N   UNL A   1      46.732  29.174  27.679  1.00  0.00    -0.354 N 
ATOM     61  N   UNL A   1      45.760  26.434  27.222  1.00  0.00    -0.248 NA
ATOM     62  C   UNL A   1      46.135  24.240  26.512  1.00  0.00     0.031 C 
ATOM     63  C   UNL A   1      48.881  29.598  27.317  1.00  0.00     0.029 A 
ATOM     64  C   UNL A   1      47.923  28.598  27.271  1.00  0.00     0.049 A 
ATOM     65  H   UNL A   1      45.869  28.703  27.740  1.00  0.00     0.167 HD
ATOM     66  C   UNL A   1      47.098  26.291  26.873  1.00  0.00     0.074 A 
ATOM     67  C   UNL A   1      47.278  24.910  26.473  1.00  0.00     0.031 C 
ATOM     68  C   UNL A   1      48.089  27.218  26.883  1.00  0.00     0.037 A 
BRANCH  55  69
ATOM     69  C   UNL A   1      46.268  32.864  28.642  1.00  0.00     0.058 A 
ATOM     70  C   UNL A   1      46.711  33.329  29.892  1.00  0.00     0.135 A 
ATOM     71  C   UNL A   1      46.216  33.788  27.586  1.00  0.00     0.135 A 
ATOM     72  F   UNL A   1      46.769  32.496  30.943  1.00  0.00    -0.206 F 
ATOM     73  C   UNL A   1      47.054  34.663  30.094  1.00  0.00     0.059 A 
ATOM     74  C   UNL A   1      46.585  35.119  27.757  1.00  0.00     0.059 A 
ATOM     75  F   UNL A   1      45.802  33.401  26.368  1.00  0.00    -0.206 F 
ATOM     76  C   UNL A   1      46.989  35.551  29.019  1.00  0.00     0.060 A 
BRANCH  76  77
ATOM     77  S   UNL A   1      47.443  37.275  29.300  1.00  0.00     0.124 S 
ATOM     78  O   UNL A   1      46.925  37.496  30.646  1.00  0.00    -0.237 OA
ATOM     79  O   UNL A   1      48.897  37.236  29.179  1.00  0.00    -0.237 OA
ATOM     80  O   UNL A   1      46.746  37.989  28.235  1.00  0.00    -0.744 OA
ENDBRANCH  76  77
ENDBRANCH  55  69
BRANCH  56  81
ATOM     81  C   UNL A   1      43.354  23.431  27.000  1.00  0.00     0.058 A 
ATOM     82  C   UNL A   1      43.134  22.991  25.686  1.00  0.00     0.135 A 
ATOM     83  C   UNL A   1      43.165  22.505  28.038  1.00  0.00     0.135 A 
ATOM     84  F   UNL A   1      43.295  23.840  24.659  1.00  0.00    -0.206 F 
ATOM     85  C   UNL A   1      42.724  21.691  25.411  1.00  0.00     0.059 A 
ATOM     86  C   UNL A   1      42.783  21.191  27.785  1.00  0.00     0.059 A 
ATOM     87  F   UNL A   1      43.380  22.868  29.311  1.00  0.00    -0.206 F 
ATOM     88  C   UNL A   1      42.556  20.796  26.468  1.00  0.00     0.060 A 
BRANCH  88  89
ATOM     89  S   UNL A   1      42.074  19.096  26.095  1.00  0.00     0.124 S 
ATOM     90  O   UNL A   1      42.915  18.797  24.942  1.00  0.00    -0.237 OA
ATOM     91  O   UNL A   1      42.417  18.404  27.334  1.00  0.00    -0.237 OA
ATOM     92  O   UNL A   1      40.643  19.206  25.824  1.00  0.00    -0.744 OA
ENDBRANCH  88  89
ENDBRANCH  56  81
BRANCH  68  93
ATOM     93  C   UNL A   1      49.468  26.767  26.486  1.00  0.00     0.058 A 
ATOM     94  C   UNL A   1      50.357  26.197  27.411  1.00  0.00     0.135 A 
ATOM     95  C   UNL A   1      49.883  26.854  25.147  1.00  0.00     0.135 A 
ATOM     96  F   UNL A   1      50.014  26.097  28.705  1.00  0.00    -0.206 F 
ATOM     97  C   UNL A   1      51.616  25.747  27.025  1.00  0.00     0.059 A 
ATOM     98  C   UNL A   1      51.124  26.382  24.734  1.00  0.00     0.059 A 
ATOM     99  F   UNL A   1      49.069  27.382  24.219  1.00  0.00    -0.206 F 
ATOM    100  C   UNL A   1      51.989  25.840  25.683  1.00  0.00     0.060 A 
BRANCH 100 101
ATOM    101  S   UNL A   1      53.609  25.213  25.192  1.00  0.00     0.124 S 
ATOM    102  O   UNL A   1      53.405  23.771  25.276  1.00  0.00    -0.237 OA
ATOM    103  O   UNL A   1      53.757  25.755  23.845  1.00  0.00    -0.237 OA
ATOM    104  O   UNL A   1      54.510  25.780  26.192  1.00  0.00    -0.744 OA
ENDBRANCH 100 101
ENDBRANCH  68  93
ENDBRANCH  42  43
ENDBRANCH  34  37
ENDBRANCH  32  33
ENDBRANCH   1  32
TORSDOF 15
ENDMDL
MODEL 2
REMARK VINA RESULT:     -13.5      6.011     11.626
REMARK SMILES CN1C(=O)C[C@@H](C(=O)NCCCNC(=O)c2ccc(-c3c4nc(c(-c5c(F)cc(S(=O)(=O)[O-])cc5F)c5ccc([nH]5)c(-c5c(F)cc(S(=O)(=O)[O-])cc5F)c5nc(c(-c6c(F)cc(S(=O)(=O)[O-])cc6F)c6ccc3[nH]6)C=C5)C=C4)cc2)C12CCN(C(=O)c1ccccc1-n1cccn1)CC2
REMARK SMILES IDX 11 1 10 2 9 3 7 4 8 5 6 7 1 8 2 9 3 10 82 11 4 12 5 13 83 14
REMARK SMILES IDX 100 15 84 16 99 17 85 18 86 19 87 20 88 21 89 22 93 23 90 24
REMARK SMILES IDX 92 25 91 26 94 27 95 28 98 29 96 30 97 31 12 32 13 33 14 34
REMARK SMILES IDX 15 36 16 37 17 38 81 39 18 40 80 41 19 42 20 43 21 44 74 45
REMARK SMILES IDX 22 46 79 47 73 48 75 49 23 50 78 51 72 52 71 53 24 55 58 56
REMARK SMILES IDX 37 57 57 58 38 59 41 60 56 61 76 62 39 63 40 64 55 66 77 67
REMARK SMILES IDX 42 68 25 69 26 70 35 71 27 72 28 73 34 74 36 75 29 76 30 77
REMARK SMILES IDX 31 78 32 79 33 80 59 81 60 82 69 83 61 84 62 85 68 86 70 87
REMARK SMILES IDX 63 88 64 89 65 90 66 91 67 92 43 93 44 94 53 95 45 96 46 97
REMARK SMILES IDX 52 98 54 99 47 100 48 101 49 102 50 103 51 104
REMARK H PARENT 9 6 13 35 75 54 41 65
REMARK Flexibility Score: inf
ROOT
ATOM      1  C   UNL A   1      38.899  22.565  26.226  1.00  0.00     0.042 C 
ENDROOT
BRANCH   1   2
ATOM      2  C   UNL A   1      37.935  23.708  25.903  1.00  0.00     0.117 C 
BRANCH   2   3
ATOM      3  N   UNL A   1      37.234  23.574  24.631  1.00  0.00    -0.356 N 
ATOM      4  C   UNL A   1      36.009  23.117  24.267  1.00  0.00     0.226 C 
ATOM      5  O   UNL A   1      35.722  23.238  23.068  1.00  0.00    -0.275 OA
ATOM      6  H   UNL A   1      37.768  23.885  23.866  1.00  0.00     0.163 HD
BRANCH   4   7
ATOM      7  C   UNL A   1      34.995  22.438  25.191  1.00  0.00     0.113 C 
ATOM      8  C   UNL A   1      32.082  20.899  23.424  1.00  0.00     0.147 C 
ATOM      9  N   UNL A   1      33.245  21.232  24.227  1.00  0.00    -0.339 N 
ATOM     10  C   UNL A   1      34.170  20.272  24.611  1.00  0.00     0.223 C 
ATOM     11  C   UNL A   1      33.502  22.558  24.813  1.00  0.00     0.058 C 
ATOM     12  O   UNL A   1      34.141  19.078  24.352  1.00  0.00    -0.275 OA
ATOM     13  C   UNL A   1      35.272  20.947  25.377  1.00  0.00     0.116 C 
ATOM     14  C   UNL A   1      33.213  23.747  23.877  1.00  0.00     0.051 C 
ATOM     15  C   UNL A   1      32.586  22.688  26.074  1.00  0.00     0.051 C 
ATOM     16  C   UNL A   1      33.270  25.096  24.585  1.00  0.00     0.122 C 
ATOM     17  C   UNL A   1      32.529  24.092  26.681  1.00  0.00     0.122 C 
ATOM     18  N   UNL A   1      32.289  25.104  25.658  1.00  0.00    -0.338 N 
ATOM     19  C   UNL A   1      31.212  25.982  25.781  1.00  0.00     0.256 C 
ATOM     20  O   UNL A   1      30.430  25.955  26.730  1.00  0.00    -0.269 OA
BRANCH  19  21
ATOM     21  C   UNL A   1      31.009  27.059  24.776  1.00  0.00     0.065 A 
ATOM     22  C   UNL A   1      30.149  26.735  23.712  1.00  0.00     0.016 A 
ATOM     23  C   UNL A   1      31.543  28.354  24.854  1.00  0.00     0.077 A 
ATOM     24  C   UNL A   1      29.800  27.696  22.760  1.00  0.00     0.001 A 
ATOM     25  C   UNL A   1      31.136  29.331  23.926  1.00  0.00     0.029 A 
ATOM     26  C   UNL A   1      30.281  28.997  22.875  1.00  0.00     0.002 A 
BRANCH  23  27
ATOM     27  N   UNL A   1      32.509  28.736  25.813  1.00  0.00    -0.240 N 
ATOM     28  C   UNL A   1      32.314  29.322  27.043  1.00  0.00     0.115 A 
ATOM     29  N   UNL A   1      33.829  28.516  25.572  1.00  0.00    -0.177 NA
ATOM     30  C   UNL A   1      33.555  29.454  27.623  1.00  0.00     0.042 A 
ATOM     31  C   UNL A   1      34.451  28.956  26.665  1.00  0.00     0.135 A 
ENDBRANCH  23  27
ENDBRANCH  19  21
ENDBRANCH   4   7
ENDBRANCH   2   3
ENDBRANCH   1   2
BRANCH   1  32
ATOM     32  C   UNL A   1      40.108  22.987  27.052  1.00  0.00     0.118 C 
BRANCH  32  33
ATOM     33  N   UNL A   1      41.185  23.470  26.201  1.00  0.00    -0.352 N 
ATOM     34  C   UNL A   1      41.736  24.726  26.113  1.00  0.00     0.251 C 
ATOM     35  H   UNL A   1      41.578  22.797  25.599  1.00  0.00     0.163 HD
ATOM     36  O   UNL A   1      42.404  25.020  25.126  1.00  0.00    -0.269 OA
BRANCH  34  37
ATOM     37  C   UNL A   1      41.526  25.718  27.192  1.00  0.00     0.039 A 
ATOM     38  C   UNL A   1      40.452  25.551  28.072  1.00  0.00     0.014 A 
ATOM     39  C   UNL A   1      42.354  26.837  27.310  1.00  0.00     0.014 A 
ATOM     40  C   UNL A   1      40.246  26.475  29.100  1.00  0.00     0.010 A 
ATOM     41  C   UNL A   1      42.201  27.706  28.387  1.00  0.00     0.010 A 
ATOM     42  C   UNL A   1      41.139  27.543  29.287  1.00  0.00    -0.014 A 
BRANCH  42  43
ATOM     43  C   UNL A   1      40.974  28.507  30.407  1.00  0.00     0.031 A 
ATOM     44  C   UNL A   1      41.826  28.383  31.644  1.00  0.00     0.074 A 
ATOM     45  C   UNL A   1      40.014  29.451  30.340  1.00  0.00     0.049 A 
ATOM     46  N   UNL A   1      41.778  29.074  32.753  1.00  0.00    -0.248 NA
ATOM     47  C   UNL A   1      42.849  27.324  31.643  1.00  0.00     0.031 C 
ATOM     48  C   UNL A   1      39.096  29.644  29.215  1.00  0.00     0.029 A 
ATOM     49  N   UNL A   1      39.642  30.419  31.239  1.00  0.00    -0.354 N 
ATOM     50  C   UNL A   1      42.748  28.525  33.585  1.00  0.00     0.074 A 
ATOM     51  C   UNL A   1      43.330  27.407  32.874  1.00  0.00     0.031 C 
ATOM     52  C   UNL A   1      38.284  30.680  29.482  1.00  0.00     0.029 A 
ATOM     53  C   UNL A   1      38.590  31.195  30.812  1.00  0.00     0.049 A 
ATOM     54  H   UNL A   1      40.087  30.546  32.109  1.00  0.00     0.167 HD
ATOM     55  C   UNL A   1      43.137  28.931  34.818  1.00  0.00     0.037 A 
ATOM     56  C   UNL A   1      37.937  32.201  31.426  1.00  0.00     0.037 A 
ATOM     57  C   UNL A   1      42.567  30.059  35.509  1.00  0.00     0.049 A 
ATOM     58  C   UNL A   1      38.375  32.626  32.802  1.00  0.00     0.074 A 
ATOM     59  C   UNL A   1      42.927  30.588  36.735  1.00  0.00     0.029 A 
ATOM     60  N   UNL A   1      41.513  30.829  35.037  1.00  0.00    -0.354 N 
ATOM     61  N   UNL A   1      39.340  32.137  33.547  1.00  0.00    -0.248 NA
ATOM     62  C   UNL A   1      37.644  33.740  33.421  1.00  0.00     0.031 C 
ATOM     63  C   UNL A   1      42.056  31.642  37.030  1.00  0.00     0.029 A 
ATOM     64  C   UNL A   1      41.192  31.810  35.960  1.00  0.00     0.049 A 
ATOM     65  H   UNL A   1      41.059  30.696  34.173  1.00  0.00     0.167 HD
ATOM     66  C   UNL A   1      39.350  32.903  34.707  1.00  0.00     0.074 A 
ATOM     67  C   UNL A   1      38.304  33.895  34.560  1.00  0.00     0.031 C 
ATOM     68  C   UNL A   1      40.153  32.797  35.796  1.00  0.00     0.037 A 
BRANCH  55  69
ATOM     69  C   UNL A   1      44.230  28.153  35.500  1.00  0.00     0.058 A 
ATOM     70  C   UNL A   1      43.949  27.071  36.352  1.00  0.00     0.135 A 
ATOM     71  C   UNL A   1      45.580  28.464  35.270  1.00  0.00     0.135 A 
ATOM     72  F   UNL A   1      42.677  26.735  36.622  1.00  0.00    -0.206 F 
ATOM     73  C   UNL A   1      44.963  26.351  36.976  1.00  0.00     0.059 A 
ATOM     74  C   UNL A   1      46.612  27.737  35.857  1.00  0.00     0.059 A 
ATOM     75  F   UNL A   1      45.910  29.486  34.464  1.00  0.00    -0.206 F 
ATOM     76  C   UNL A   1      46.292  26.691  36.722  1.00  0.00     0.060 A 
BRANCH  76  77
ATOM     77  S   UNL A   1      47.594  25.742  37.536  1.00  0.00     0.124 S 
ATOM     78  O   UNL A   1      47.430  26.157  38.926  1.00  0.00    -0.237 OA
ATOM     79  O   UNL A   1      47.210  24.367  37.235  1.00  0.00    -0.237 OA
ATOM     80  O   UNL A   1      48.814  26.207  36.884  1.00  0.00    -0.744 OA
ENDBRANCH  76  77
ENDBRANCH  55  69
BRANCH  56  81
ATOM     81  C   UNL A   1      36.809  32.886  30.738  1.00  0.00     0.058 A 
ATOM     82  C   UNL A   1      37.041  33.940  29.843  1.00  0.00     0.135 A 
ATOM     83  C   UNL A   1      35.478  32.491  30.948  1.00  0.00     0.135 A 
ATOM     84  F   UNL A   1      38.295  34.360  29.611  1.00  0.00    -0.206 F 
ATOM     85  C   UNL A   1      35.997  34.591  29.194  1.00  0.00     0.059 A 
ATOM     86  C   UNL A   1      34.419  33.107  30.289  1.00  0.00     0.059 A 
ATOM     87  F   UNL A   1      35.201  31.475  31.780  1.00  0.00    -0.206 F 
ATOM     88  C   UNL A   1      34.688  34.163  29.420  1.00  0.00     0.060 A 
BRANCH  88  89
ATOM     89  S   UNL A   1      33.343  34.981  28.534  1.00  0.00     0.124 S 
ATOM     90  O   UNL A   1      32.678  35.704  29.611  1.00  0.00    -0.237 OA
ATOM     91  O   UNL A   1      34.070  35.798  27.567  1.00  0.00    -0.237 OA
ATOM     92  O   UNL A   1      32.594  33.866  27.962  1.00  0.00    -0.744 OA
ENDBRANCH  88  89
ENDBRANCH  56  81
BRANCH  68  93
ATOM     93  C   UNL A   1      39.962  33.799  36.902  1.00  0.00     0.058 A 
ATOM     94  C   UNL A   1      40.606  35.046  36.892  1.00  0.00     0.135 A 
ATOM     95  C   UNL A   1      39.076  33.528  37.957  1.00  0.00     0.135 A 
ATOM     96  F   UNL A   1      41.470  35.353  35.911  1.00  0.00    -0.206 F 
ATOM     97  C   UNL A   1      40.393  35.981  37.900  1.00  0.00     0.059 A 
ATOM     98  C   UNL A   1      38.823  34.460  38.958  1.00  0.00     0.059 A 
ATOM     99  F   UNL A   1      38.426  32.354  38.010  1.00  0.00    -0.206 F 
ATOM    100  C   UNL A   1      39.496  35.680  38.926  1.00  0.00     0.060 A 
BRANCH 100 101
ATOM    101  S   UNL A   1      39.199  36.921  40.204  1.00  0.00     0.124 S 
ATOM    102  O   UNL A   1      38.312  36.202  41.113  1.00  0.00    -0.237 OA
ATOM    103  O   UNL A   1      40.545  37.181  40.705  1.00  0.00    -0.237 OA
ATOM    104  O   UNL A   1      38.585  38.025  39.470  1.00  0.00    -0.744 OA
ENDBRANCH 100 101
ENDBRANCH  68  93
ENDBRANCH  42  43
ENDBRANCH  34  37
ENDBRANCH  32  33
ENDBRANCH   1  32
TORSDOF 15
ENDMDL
MODEL 3
REMARK VINA RESULT:     -13.2      0.610      8.009
REMARK SMILES CN1C(=O)C[C@@H](C(=O)NCCCNC(=O)c2ccc(-c3c4nc(c(-c5c(F)cc(S(=O)(=O)[O-])cc5F)c5ccc([nH]5)c(-c5c(F)cc(S(=O)(=O)[O-])cc5F)c5nc(c(-c6c(F)cc(S(=O)(=O)[O-])cc6F)c6ccc3[nH]6)C=C5)C=C4)cc2)C12CCN(C(=O)c1ccccc1-n1cccn1)CC2
REMARK SMILES IDX 11 1 10 2 9 3 7 4 8 5 6 7 1 8 2 9 3 10 82 11 4 12 5 13 83 14
REMARK SMILES IDX 100 15 84 16 99 17 85 18 86 19 87 20 88 21 89 22 93 23 90 24
REMARK SMILES IDX 92 25 91 26 94 27 95 28 98 29 96 30 97 31 12 32 13 33 14 34
REMARK SMILES IDX 15 36 16 37 17 38 81 39 18 40 80 41 19 42 20 43 21 44 74 45
REMARK SMILES IDX 22 46 79 47 73 48 75 49 23 50 78 51 72 52 71 53 24 55 58 56
REMARK SMILES IDX 37 57 57 58 38 59 41 60 56 61 76 62 39 63 40 64 55 66 77 67
REMARK SMILES IDX 42 68 25 69 26 70 35 71 27 72 28 73 34 74 36 75 29 76 30 77
REMARK SMILES IDX 31 78 32 79 33 80 59 81 60 82 69 83 61 84 62 85 68 86 70 87
REMARK SMILES IDX 63 88 64 89 65 90 66 91 67 92 43 93 44 94 53 95 45 96 46 97
REMARK SMILES IDX 52 98 54 99 47 100 48 101 49 102 50 103 51 104
REMARK H PARENT 9 6 13 35 75 54 41 65
REMARK Flexibility Score: inf
ROOT
ATOM      1  C   UNL A   1      34.648  30.664  27.514  1.00  0.00     0.042 C 
ENDROOT
BRANCH   1   2
ATOM      2  C   UNL A   1      34.663  29.144  27.340  1.00  0.00     0.117 C 
BRANCH   2   3
ATOM      3  N   UNL A   1      33.365  28.498  27.504  1.00  0.00    -0.356 N 
ATOM      4  C   UNL A   1      32.407  28.063  26.647  1.00  0.00     0.226 C 
ATOM      5  O   UNL A   1      31.449  27.473  27.163  1.00  0.00    -0.275 OA
ATOM      6  H   UNL A   1      33.133  28.342  28.447  1.00  0.00     0.163 HD
BRANCH   4   7
ATOM      7  C   UNL A   1      32.394  28.281  25.132  1.00  0.00     0.113 C 
ATOM      8  C   UNL A   1      29.286  27.098  23.425  1.00  0.00     0.147 C 
ATOM      9  N   UNL A   1      30.434  27.811  23.956  1.00  0.00    -0.339 N 
ATOM     10  C   UNL A   1      30.436  29.189  24.109  1.00  0.00     0.223 C 
ATOM     11  C   UNL A   1      31.732  27.187  24.264  1.00  0.00     0.058 C 
ATOM     12  O   UNL A   1      29.529  29.960  23.830  1.00  0.00    -0.275 OA
ATOM     13  C   UNL A   1      31.739  29.602  24.731  1.00  0.00     0.116 C 
ATOM     14  C   UNL A   1      31.644  25.826  24.981  1.00  0.00     0.051 C 
ATOM     15  C   UNL A   1      32.479  26.983  22.906  1.00  0.00     0.051 C 
ATOM     16  C   UNL A   1      32.987  25.111  25.077  1.00  0.00     0.122 C 
ATOM     17  C   UNL A   1      33.744  26.126  22.993  1.00  0.00     0.122 C 
ATOM     18  N   UNL A   1      33.501  24.894  23.735  1.00  0.00    -0.338 N 
ATOM     19  C   UNL A   1      33.786  23.658  23.152  1.00  0.00     0.256 C 
ATOM     20  O   UNL A   1      34.246  23.542  22.018  1.00  0.00    -0.269 OA
BRANCH  19  21
ATOM     21  C   UNL A   1      33.605  22.406  23.934  1.00  0.00     0.065 A 
ATOM     22  C   UNL A   1      32.389  21.734  23.721  1.00  0.00     0.016 A 
ATOM     23  C   UNL A   1      34.563  21.835  24.785  1.00  0.00     0.077 A 
ATOM     24  C   UNL A   1      32.145  20.495  24.319  1.00  0.00     0.001 A 
ATOM     25  C   UNL A   1      34.333  20.559  25.333  1.00  0.00     0.029 A 
ATOM     26  C   UNL A   1      33.122  19.901  25.113  1.00  0.00     0.002 A 
BRANCH  23  27
ATOM     27  N   UNL A   1      35.758  22.492  25.157  1.00  0.00    -0.240 N 
ATOM     28  C   UNL A   1      35.965  23.382  26.186  1.00  0.00     0.115 A 
ATOM     29  N   UNL A   1      36.906  22.256  24.467  1.00  0.00    -0.177 NA
ATOM     30  C   UNL A   1      37.302  23.705  26.171  1.00  0.00     0.042 A 
ATOM     31  C   UNL A   1      37.828  22.994  25.083  1.00  0.00     0.135 A 
ENDBRANCH  23  27
ENDBRANCH  19  21
ENDBRANCH   4   7
ENDBRANCH   2   3
ENDBRANCH   1   2
BRANCH   1  32
ATOM     32  C   UNL A   1      35.815  31.206  28.330  1.00  0.00     0.118 C 
BRANCH  32  33
ATOM     33  N   UNL A   1      35.752  30.745  29.709  1.00  0.00    -0.352 N 
ATOM     34  C   UNL A   1      36.614  29.928  30.399  1.00  0.00     0.251 C 
ATOM     35  H   UNL A   1      34.977  31.067  30.225  1.00  0.00     0.163 HD
ATOM     36  O   UNL A   1      36.234  29.396  31.439  1.00  0.00    -0.269 OA
BRANCH  34  37
ATOM     37  C   UNL A   1      37.986  29.685  29.898  1.00  0.00     0.039 A 
ATOM     38  C   UNL A   1      39.025  29.501  30.815  1.00  0.00     0.014 A 
ATOM     39  C   UNL A   1      38.260  29.686  28.528  1.00  0.00     0.014 A 
ATOM     40  C   UNL A   1      40.324  29.263  30.356  1.00  0.00     0.010 A 
ATOM     41  C   UNL A   1      39.535  29.360  28.072  1.00  0.00     0.010 A 
ATOM     42  C   UNL A   1      40.584  29.158  28.980  1.00  0.00    -0.014 A 
BRANCH  42  43
ATOM     43  C   UNL A   1      41.945  28.849  28.468  1.00  0.00     0.031 A 
ATOM     44  C   UNL A   1      42.292  27.448  28.037  1.00  0.00     0.074 A 
ATOM     45  C   UNL A   1      42.887  29.813  28.453  1.00  0.00     0.049 A 
ATOM     46  N   UNL A   1      43.442  26.966  27.639  1.00  0.00    -0.248 NA
ATOM     47  C   UNL A   1      41.211  26.450  28.086  1.00  0.00     0.031 C 
ATOM     48  C   UNL A   1      42.687  31.199  28.887  1.00  0.00     0.029 A 
ATOM     49  N   UNL A   1      44.205  29.776  28.069  1.00  0.00    -0.354 N 
ATOM     50  C   UNL A   1      43.227  25.612  27.408  1.00  0.00     0.074 A 
ATOM     51  C   UNL A   1      41.852  25.336  27.764  1.00  0.00     0.031 C 
ATOM     52  C   UNL A   1      43.831  31.882  28.723  1.00  0.00     0.029 A 
ATOM     53  C   UNL A   1      44.858  30.977  28.218  1.00  0.00     0.049 A 
ATOM     54  H   UNL A   1      44.641  28.966  27.720  1.00  0.00     0.167 HD
ATOM     55  C   UNL A   1      44.088  24.688  26.918  1.00  0.00     0.037 A 
ATOM     56  C   UNL A   1      46.143  31.311  27.986  1.00  0.00     0.037 A 
ATOM     57  C   UNL A   1      45.449  24.976  26.545  1.00  0.00     0.049 A 
ATOM     58  C   UNL A   1      47.086  30.264  27.457  1.00  0.00     0.074 A 
ATOM     59  C   UNL A   1      46.385  24.125  25.987  1.00  0.00     0.029 A 
ATOM     60  N   UNL A   1      46.069  26.208  26.697  1.00  0.00    -0.354 N 
ATOM     61  N   UNL A   1      46.847  29.004  27.181  1.00  0.00    -0.248 NA
ATOM     62  C   UNL A   1      48.471  30.683  27.201  1.00  0.00     0.031 C 
ATOM     63  C   UNL A   1      47.588  24.827  25.852  1.00  0.00     0.029 A 
ATOM     64  C   UNL A   1      47.384  26.133  26.269  1.00  0.00     0.049 A 
ATOM     65  H   UNL A   1      45.638  27.017  27.057  1.00  0.00     0.167 HD
ATOM     66  C   UNL A   1      48.042  28.488  26.692  1.00  0.00     0.074 A 
ATOM     67  C   UNL A   1      48.998  29.576  26.697  1.00  0.00     0.031 C 
ATOM     68  C   UNL A   1      48.323  27.228  26.273  1.00  0.00     0.037 A 
BRANCH  55  69
ATOM     69  C   UNL A   1      43.585  23.277  26.757  1.00  0.00     0.058 A 
ATOM     70  C   UNL A   1      43.333  22.721  25.491  1.00  0.00     0.135 A 
ATOM     71  C   UNL A   1      43.389  22.455  27.879  1.00  0.00     0.135 A 
ATOM     72  F   UNL A   1      43.489  23.462  24.383  1.00  0.00    -0.206 F 
ATOM     73  C   UNL A   1      42.874  21.415  25.347  1.00  0.00     0.059 A 
ATOM     74  C   UNL A   1      42.962  21.136  27.756  1.00  0.00     0.059 A 
ATOM     75  F   UNL A   1      43.615  22.932  29.114  1.00  0.00    -0.206 F 
ATOM     76  C   UNL A   1      42.692  20.630  26.486  1.00  0.00     0.060 A 
BRANCH  76  77
ATOM     77  S   UNL A   1      42.101  18.937  26.278  1.00  0.00     0.124 S 
ATOM     78  O   UNL A   1      40.738  19.161  25.806  1.00  0.00    -0.237 OA
ATOM     79  O   UNL A   1      43.033  18.402  25.292  1.00  0.00    -0.237 OA
ATOM     80  O   UNL A   1      42.215  18.369  27.618  1.00  0.00    -0.744 OA
ENDBRANCH  76  77
ENDBRANCH  55  69
BRANCH  56  81
ATOM     81  C   UNL A   1      46.608  32.703  28.237  1.00  0.00     0.058 A 
ATOM     82  C   UNL A   1      47.207  33.056  29.455  1.00  0.00     0.135 A 
ATOM     83  C   UNL A   1      46.477  33.703  27.260  1.00  0.00     0.135 A 
ATOM     84  F   UNL A   1      47.350  32.139  30.424  1.00  0.00    -0.206 F 
ATOM     85  C   UNL A   1      47.643  34.353  29.704  1.00  0.00     0.059 A 
ATOM     86  C   UNL A   1      46.932  35.000  27.476  1.00  0.00     0.059 A 
ATOM     87  F   UNL A   1      45.927  33.413  26.071  1.00  0.00    -0.206 F 
ATOM     88  C   UNL A   1      47.506  35.318  28.705  1.00  0.00     0.060 A 
BRANCH  88  89
ATOM     89  S   UNL A   1      48.122  36.986  29.020  1.00  0.00     0.124 S 
ATOM     90  O   UNL A   1      49.164  37.111  28.008  1.00  0.00    -0.237 OA
ATOM     91  O   UNL A   1      46.927  37.797  28.812  1.00  0.00    -0.237 OA
ATOM     92  O   UNL A   1      48.588  36.914  30.403  1.00  0.00    -0.744 OA
ENDBRANCH  88  89
ENDBRANCH  56  81
BRANCH  68  93
ATOM     93  C   UNL A   1      49.708  26.960  25.752  1.00  0.00     0.058 A 
ATOM     94  C   UNL A   1      50.070  27.250  24.427  1.00  0.00     0.135 A 
ATOM     95  C   UNL A   1      50.703  26.459  26.608  1.00  0.00     0.135 A 
ATOM     96  F   UNL A   1      49.157  27.722  23.564  1.00  0.00    -0.206 F 
ATOM     97  C   UNL A   1      51.365  27.035  23.965  1.00  0.00     0.059 A 
ATOM     98  C   UNL A   1      52.011  26.267  26.176  1.00  0.00     0.059 A 
ATOM     99  F   UNL A   1      50.413  26.174  27.887  1.00  0.00    -0.206 F 
ATOM    100  C   UNL A   1      52.329  26.547  24.849  1.00  0.00     0.060 A 
BRANCH 100 101
ATOM    101  S   UNL A   1      54.014  26.313  24.244  1.00  0.00     0.124 S 
ATOM    102  O   UNL A   1      53.789  26.103  22.817  1.00  0.00    -0.237 OA
ATOM    103  O   UNL A   1      54.653  27.574  24.607  1.00  0.00    -0.237 OA
ATOM    104  O   UNL A   1      54.482  25.144  24.984  1.00  0.00    -0.744 OA
ENDBRANCH 100 101
ENDBRANCH  68  93
ENDBRANCH  42  43
ENDBRANCH  34  37
ENDBRANCH  32  33
ENDBRANCH   1  32
TORSDOF 15
ENDMDL
