MODEL 1
REMARK VINA RESULT:     -12.0      0.000      0.000
REMARK SMILES C[C@H](Oc1ccc(C(=O)NCc2ccccc2)cc1)C(=O)NCCCNC(=O)c1ccc(-c2c3nc(c(-c4c(F)cc(S(=O)(=O)[O-])cc4F)c4ccc([nH]4)c(-c4c(F)cc(S(=O)(=O)[O-])cc4F)c4nc(c(-c5c(F)cc(S(=O)(=O)[O-])cc5F)c5ccc2[nH]5)C=C4)C=C3)cc1
REMARK SMILES IDX 23 1 22 2 20 3 21 4 2 6 1 7 3 8 4 9 5 10 19 11 6 12 18 13
REMARK SMILES IDX 7 14 8 15 9 16 10 17 11 19 12 20 13 21 17 22 14 23 16 24
REMARK SMILES IDX 15 25 24 26 25 27 26 28 27 29 28 31 29 32 30 33 94 34 31 35
REMARK SMILES IDX 93 36 32 37 33 38 34 39 87 40 35 41 92 42 86 43 88 44 36 45
REMARK SMILES IDX 91 46 85 47 84 48 37 50 71 51 50 52 70 53 51 54 54 55 69 56
REMARK SMILES IDX 89 57 52 58 53 59 68 61 90 62 55 63 38 64 39 65 48 66 40 67
REMARK SMILES IDX 41 68 47 69 49 70 42 71 43 72 44 73 45 74 46 75 72 76 73 77
REMARK SMILES IDX 82 78 74 79 75 80 81 81 83 82 76 83 77 84 78 85 79 86 80 87
REMARK SMILES IDX 56 88 57 89 66 90 58 91 59 92 65 93 67 94 60 95 61 96 62 97
REMARK SMILES IDX 63 98 64 99
REMARK H PARENT 22 5 10 18 26 30 88 49 54 60
REMARK Flexibility Score: inf
ROOT
ATOM      1  C   UNL A   1      39.613  21.441  26.059  1.00  0.00     0.118 C 
ENDROOT
BRANCH   1   2
ATOM      2  N   UNL A   1      38.889  22.695  26.235  1.00  0.00    -0.353 N 
ATOM      3  C   UNL A   1      37.612  23.014  25.833  1.00  0.00     0.260 C 
ATOM      4  O   UNL A   1      37.148  24.108  26.163  1.00  0.00    -0.271 OA
ATOM      5  H   UNL A   1      39.380  23.408  26.703  1.00  0.00     0.163 HD
BRANCH   3   6
ATOM      6  C   UNL A   1      36.785  21.995  25.033  1.00  0.00     0.258 C 
ATOM      7  C   UNL A   1      36.138  22.733  23.853  1.00  0.00     0.064 C 
BRANCH   6   8
ATOM      8  O   UNL A   1      35.958  21.420  26.049  1.00  0.00    -0.481 OA
BRANCH   8   9
ATOM      9  C   UNL A   1      34.641  21.697  26.193  1.00  0.00     0.120 A 
ATOM     10  C   UNL A   1      33.603  21.297  25.366  1.00  0.00     0.047 A 
ATOM     11  C   UNL A   1      34.368  22.516  27.292  1.00  0.00     0.047 A 
ATOM     12  C   UNL A   1      32.312  21.801  25.585  1.00  0.00     0.017 A 
ATOM     13  C   UNL A   1      33.088  23.026  27.503  1.00  0.00     0.017 A 
ATOM     14  C   UNL A   1      32.044  22.671  26.656  1.00  0.00     0.040 A 
BRANCH  14  15
ATOM     15  C   UNL A   1      30.691  23.282  26.741  1.00  0.00     0.251 C 
ATOM     16  O   UNL A   1      29.914  22.861  27.600  1.00  0.00    -0.269 OA
ATOM     17  N   UNL A   1      30.255  24.279  25.914  1.00  0.00    -0.348 N 
ATOM     18  H   UNL A   1      29.287  24.444  25.980  1.00  0.00     0.164 HD
BRANCH  17  19
ATOM     19  C   UNL A   1      30.921  25.148  24.958  1.00  0.00     0.152 C 
BRANCH  19  20
ATOM     20  C   UNL A   1      31.733  26.203  25.669  1.00  0.00    -0.029 A 
ATOM     21  C   UNL A   1      33.117  26.316  25.472  1.00  0.00     0.005 A 
ATOM     22  C   UNL A   1      31.104  27.120  26.527  1.00  0.00     0.005 A 
ATOM     23  C   UNL A   1      33.848  27.329  26.098  1.00  0.00     0.000 A 
ATOM     24  C   UNL A   1      31.837  28.125  27.162  1.00  0.00     0.000 A 
ATOM     25  C   UNL A   1      33.208  28.233  26.941  1.00  0.00     0.000 A 
ENDBRANCH  19  20
ENDBRANCH  17  19
ENDBRANCH  14  15
ENDBRANCH   8   9
ENDBRANCH   6   8
ENDBRANCH   3   6
ENDBRANCH   1   2
BRANCH   1  26
ATOM     26  C   UNL A   1      41.056  21.508  26.535  1.00  0.00     0.042 C 
BRANCH  26  27
ATOM     27  C   UNL A   1      41.487  22.889  27.006  1.00  0.00     0.118 C 
BRANCH  27  28
ATOM     28  N   UNL A   1      41.960  23.731  25.917  1.00  0.00    -0.352 N 
ATOM     29  C   UNL A   1      42.042  25.097  25.813  1.00  0.00     0.251 C 
ATOM     30  H   UNL A   1      42.271  23.239  25.123  1.00  0.00     0.163 HD
ATOM     31  O   UNL A   1      42.308  25.593  24.722  1.00  0.00    -0.269 OA
BRANCH  29  32
ATOM     32  C   UNL A   1      41.809  25.968  26.987  1.00  0.00     0.039 A 
ATOM     33  C   UNL A   1      40.725  25.687  27.824  1.00  0.00     0.014 A 
ATOM     34  C   UNL A   1      42.609  27.086  27.240  1.00  0.00     0.014 A 
ATOM     35  C   UNL A   1      40.469  26.503  28.928  1.00  0.00     0.010 A 
ATOM     36  C   UNL A   1      42.411  27.840  28.394  1.00  0.00     0.010 A 
ATOM     37  C   UNL A   1      41.322  27.576  29.234  1.00  0.00    -0.014 A 
BRANCH  37  38
ATOM     38  C   UNL A   1      41.054  28.457  30.400  1.00  0.00     0.031 A 
ATOM     39  C   UNL A   1      41.888  28.330  31.649  1.00  0.00     0.074 A 
ATOM     40  C   UNL A   1      40.044  29.347  30.348  1.00  0.00     0.049 A 
ATOM     41  N   UNL A   1      41.803  28.997  32.771  1.00  0.00    -0.248 NA
ATOM     42  C   UNL A   1      42.939  27.298  31.649  1.00  0.00     0.031 C 
ATOM     43  C   UNL A   1      39.129  29.523  29.218  1.00  0.00     0.029 A 
ATOM     44  N   UNL A   1      39.617  30.272  31.268  1.00  0.00    -0.354 N 
ATOM     45  C   UNL A   1      42.772  28.458  33.609  1.00  0.00     0.074 A 
ATOM     46  C   UNL A   1      43.391  27.367  32.891  1.00  0.00     0.031 C 
ATOM     47  C   UNL A   1      38.271  30.519  29.499  1.00  0.00     0.029 A 
ATOM     48  C   UNL A   1      38.555  31.030  30.835  1.00  0.00     0.049 A 
ATOM     49  H   UNL A   1      40.033  30.382  32.153  1.00  0.00     0.167 HD
ATOM     50  C   UNL A   1      43.138  28.856  34.852  1.00  0.00     0.037 A 
ATOM     51  C   UNL A   1      37.891  32.031  31.446  1.00  0.00     0.037 A 
ATOM     52  C   UNL A   1      42.541  29.965  35.549  1.00  0.00     0.049 A 
ATOM     53  C   UNL A   1      38.336  32.477  32.813  1.00  0.00     0.074 A 
ATOM     54  C   UNL A   1      42.870  30.482  36.789  1.00  0.00     0.029 A 
ATOM     55  N   UNL A   1      41.493  30.733  35.061  1.00  0.00    -0.354 N 
ATOM     56  N   UNL A   1      39.296  31.995  33.566  1.00  0.00    -0.248 NA
ATOM     57  C   UNL A   1      37.623  33.616  33.403  1.00  0.00     0.031 C 
ATOM     58  C   UNL A   1      41.998  31.540  37.068  1.00  0.00     0.029 A 
ATOM     59  C   UNL A   1      41.159  31.715  35.979  1.00  0.00     0.049 A 
ATOM     60  H   UNL A   1      41.053  30.601  34.191  1.00  0.00     0.167 HD
ATOM     61  C   UNL A   1      39.325  32.795  34.702  1.00  0.00     0.074 A 
ATOM     62  C   UNL A   1      38.292  33.797  34.532  1.00  0.00     0.031 C 
ATOM     63  C   UNL A   1      40.136  32.712  35.787  1.00  0.00     0.037 A 
BRANCH  50  64
ATOM     64  C   UNL A   1      44.242  28.091  35.531  1.00  0.00     0.058 A 
ATOM     65  C   UNL A   1      43.974  26.983  36.354  1.00  0.00     0.135 A 
ATOM     66  C   UNL A   1      45.586  28.451  35.340  1.00  0.00     0.135 A 
ATOM     67  F   UNL A   1      42.707  26.604  36.586  1.00  0.00    -0.206 F 
ATOM     68  C   UNL A   1      44.994  26.283  36.989  1.00  0.00     0.059 A 
ATOM     69  C   UNL A   1      46.625  27.746  35.941  1.00  0.00     0.059 A 
ATOM     70  F   UNL A   1      45.901  29.500  34.564  1.00  0.00    -0.206 F 
ATOM     71  C   UNL A   1      46.318  26.673  36.777  1.00  0.00     0.060 A 
BRANCH  71  72
ATOM     72  S   UNL A   1      47.631  25.753  37.606  1.00  0.00     0.124 S 
ATOM     73  O   UNL A   1      47.636  26.380  38.925  1.00  0.00    -0.237 OA
ATOM     74  O   UNL A   1      47.130  24.383  37.560  1.00  0.00    -0.237 OA
ATOM     75  O   UNL A   1      48.805  26.017  36.781  1.00  0.00    -0.744 OA
ENDBRANCH  71  72
ENDBRANCH  50  64
BRANCH  51  76
ATOM     76  C   UNL A   1      36.765  32.708  30.748  1.00  0.00     0.058 A 
ATOM     77  C   UNL A   1      35.435  32.335  30.991  1.00  0.00     0.135 A 
ATOM     78  C   UNL A   1      36.995  33.749  29.835  1.00  0.00     0.135 A 
ATOM     79  F   UNL A   1      35.164  31.344  31.853  1.00  0.00    -0.206 F 
ATOM     80  C   UNL A   1      34.372  32.953  30.339  1.00  0.00     0.059 A 
ATOM     81  C   UNL A   1      35.948  34.400  29.190  1.00  0.00     0.059 A 
ATOM     82  F   UNL A   1      38.249  34.158  29.583  1.00  0.00    -0.206 F 
ATOM     83  C   UNL A   1      34.640  33.987  29.440  1.00  0.00     0.060 A 
BRANCH  83  84
ATOM     84  S   UNL A   1      33.254  34.818  28.636  1.00  0.00     0.124 S 
ATOM     85  O   UNL A   1      32.406  35.146  29.777  1.00  0.00    -0.237 OA
ATOM     86  O   UNL A   1      33.910  35.946  27.981  1.00  0.00    -0.237 OA
ATOM     87  O   UNL A   1      32.731  33.798  27.732  1.00  0.00    -0.744 OA
ENDBRANCH  83  84
ENDBRANCH  51  76
BRANCH  63  88
ATOM     88  C   UNL A   1      39.976  33.766  36.849  1.00  0.00     0.058 A 
ATOM     89  C   UNL A   1      40.690  34.974  36.812  1.00  0.00     0.135 A 
ATOM     90  C   UNL A   1      39.072  33.570  37.906  1.00  0.00     0.135 A 
ATOM     91  F   UNL A   1      41.567  35.211  35.824  1.00  0.00    -0.206 F 
ATOM     92  C   UNL A   1      40.545  35.933  37.809  1.00  0.00     0.059 A 
ATOM     93  C   UNL A   1      38.890  34.528  38.897  1.00  0.00     0.059 A 
ATOM     94  F   UNL A   1      38.353  32.439  37.981  1.00  0.00    -0.206 F 
ATOM     95  C   UNL A   1      39.645  35.699  38.851  1.00  0.00     0.060 A 
BRANCH  95  96
ATOM     96  S   UNL A   1      39.464  36.949  40.139  1.00  0.00     0.124 S 
ATOM     97  O   UNL A   1      40.856  37.220  40.483  1.00  0.00    -0.237 OA
ATOM     98  O   UNL A   1      38.764  38.022  39.439  1.00  0.00    -0.237 OA
ATOM     99  O   UNL A   1      38.684  36.267  41.167  1.00  0.00    -0.744 OA
ENDBRANCH  95  96
ENDBRANCH  63  88
ENDBRANCH  37  38
ENDBRANCH  29  32
ENDBRANCH  27  28
ENDBRANCH  26  27
ENDBRANCH   1  26
TORSDOF 18
ENDMDL
MODEL 2
REMARK VINA RESULT:     -11.9      1.523      2.644
REMARK SMILES C[C@H](Oc1ccc(C(=O)NCc2ccccc2)cc1)C(=O)NCCCNC(=O)c1ccc(-c2c3nc(c(-c4c(F)cc(S(=O)(=O)[O-])cc4F)c4ccc([nH]4)c(-c4c(F)cc(S(=O)(=O)[O-])cc4F)c4nc(c(-c5c(F)cc(S(=O)(=O)[O-])cc5F)c5ccc2[nH]5)C=C4)C=C3)cc1
REMARK SMILES IDX 23 1 22 2 20 3 21 4 2 6 1 7 3 8 4 9 5 10 19 11 6 12 18 13
REMARK SMILES IDX 7 14 8 15 9 16 10 17 11 19 12 20 13 21 17 22 14 23 16 24
REMARK SMILES IDX 15 25 24 26 25 27 26 28 27 29 28 31 29 32 30 33 94 34 31 35
REMARK SMILES IDX 93 36 32 37 33 38 34 39 87 40 35 41 92 42 86 43 88 44 36 45
REMARK SMILES IDX 91 46 85 47 84 48 37 50 71 51 50 52 70 53 51 54 54 55 69 56
REMARK SMILES IDX 89 57 52 58 53 59 68 61 90 62 55 63 38 64 39 65 48 66 40 67
REMARK SMILES IDX 41 68 47 69 49 70 42 71 43 72 44 73 45 74 46 75 72 76 73 77
REMARK SMILES IDX 82 78 74 79 75 80 81 81 83 82 76 83 77 84 78 85 79 86 80 87
REMARK SMILES IDX 56 88 57 89 66 90 58 91 59 92 65 93 67 94 60 95 61 96 62 97
REMARK SMILES IDX 63 98 64 99
REMARK H PARENT 22 5 10 18 26 30 88 49 54 60
REMARK Flexibility Score: inf
ROOT
ATOM      1  C   UNL A   1      37.323  23.205  25.640  1.00  0.00     0.118 C 
ENDROOT
BRANCH   1   2
ATOM      2  N   UNL A   1      36.454  22.285  24.913  1.00  0.00    -0.353 N 
ATOM      3  C   UNL A   1      35.131  21.987  25.147  1.00  0.00     0.260 C 
ATOM      4  O   UNL A   1      34.547  21.245  24.354  1.00  0.00    -0.271 OA
ATOM      5  H   UNL A   1      36.870  21.816  24.154  1.00  0.00     0.163 HD
BRANCH   3   6
ATOM      6  C   UNL A   1      34.406  22.613  26.349  1.00  0.00     0.258 C 
ATOM      7  C   UNL A   1      34.077  21.488  27.340  1.00  0.00     0.064 C 
BRANCH   6   8
ATOM      8  O   UNL A   1      33.345  23.332  25.715  1.00  0.00    -0.481 OA
BRANCH   8   9
ATOM      9  C   UNL A   1      33.531  24.444  24.967  1.00  0.00     0.120 A 
ATOM     10  C   UNL A   1      34.159  25.619  25.351  1.00  0.00     0.047 A 
ATOM     11  C   UNL A   1      32.968  24.351  23.692  1.00  0.00     0.047 A 
ATOM     12  C   UNL A   1      34.132  26.728  24.492  1.00  0.00     0.017 A 
ATOM     13  C   UNL A   1      32.931  25.456  22.843  1.00  0.00     0.017 A 
ATOM     14  C   UNL A   1      33.516  26.657  23.230  1.00  0.00     0.040 A 
BRANCH  14  15
ATOM     15  C   UNL A   1      33.395  27.908  22.438  1.00  0.00     0.251 C 
ATOM     16  O   UNL A   1      34.293  28.181  21.639  1.00  0.00    -0.269 OA
ATOM     17  N   UNL A   1      32.348  28.779  22.549  1.00  0.00    -0.348 N 
ATOM     18  H   UNL A   1      32.506  29.638  22.094  1.00  0.00     0.164 HD
BRANCH  17  19
ATOM     19  C   UNL A   1      31.049  28.704  23.197  1.00  0.00     0.152 C 
BRANCH  19  20
ATOM     20  C   UNL A   1      31.205  28.524  24.688  1.00  0.00    -0.029 A 
ATOM     21  C   UNL A   1      30.805  27.341  25.327  1.00  0.00     0.005 A 
ATOM     22  C   UNL A   1      31.789  29.537  25.465  1.00  0.00     0.005 A 
ATOM     23  C   UNL A   1      31.002  27.167  26.699  1.00  0.00     0.000 A 
ATOM     24  C   UNL A   1      31.975  29.368  26.839  1.00  0.00     0.000 A 
ATOM     25  C   UNL A   1      31.587  28.180  27.455  1.00  0.00     0.000 A 
ENDBRANCH  19  20
ENDBRANCH  17  19
ENDBRANCH  14  15
ENDBRANCH   8   9
ENDBRANCH   6   8
ENDBRANCH   3   6
ENDBRANCH   1   2
BRANCH   1  26
ATOM     26  C   UNL A   1      38.609  22.557  26.128  1.00  0.00     0.042 C 
BRANCH  26  27
ATOM     27  C   UNL A   1      39.517  23.498  26.906  1.00  0.00     0.118 C 
BRANCH  27  28
ATOM     28  N   UNL A   1      40.574  24.067  26.082  1.00  0.00    -0.352 N 
ATOM     29  C   UNL A   1      41.200  25.287  26.148  1.00  0.00     0.251 C 
ATOM     30  H   UNL A   1      40.891  23.481  25.358  1.00  0.00     0.163 HD
ATOM     31  O   UNL A   1      41.943  25.621  25.229  1.00  0.00    -0.269 OA
BRANCH  29  32
ATOM     32  C   UNL A   1      40.985  26.197  27.295  1.00  0.00     0.039 A 
ATOM     33  C   UNL A   1      41.793  27.332  27.410  1.00  0.00     0.014 A 
ATOM     34  C   UNL A   1      40.038  25.918  28.284  1.00  0.00     0.014 A 
ATOM     35  C   UNL A   1      41.626  28.198  28.492  1.00  0.00     0.010 A 
ATOM     36  C   UNL A   1      39.807  26.832  29.309  1.00  0.00     0.010 A 
ATOM     37  C   UNL A   1      40.618  27.967  29.441  1.00  0.00    -0.014 A 
BRANCH  37  38
ATOM     38  C   UNL A   1      40.437  28.876  30.602  1.00  0.00     0.031 A 
ATOM     39  C   UNL A   1      41.303  28.720  31.825  1.00  0.00     0.074 A 
ATOM     40  C   UNL A   1      39.474  29.819  30.570  1.00  0.00     0.049 A 
ATOM     41  N   UNL A   1      41.290  29.405  32.940  1.00  0.00    -0.248 NA
ATOM     42  C   UNL A   1      42.296  27.632  31.807  1.00  0.00     0.031 C 
ATOM     43  C   UNL A   1      38.533  30.030  29.467  1.00  0.00     0.029 A 
ATOM     44  N   UNL A   1      39.128  30.777  31.489  1.00  0.00    -0.354 N 
ATOM     45  C   UNL A   1      42.256  28.825  33.755  1.00  0.00     0.074 A 
ATOM     46  C   UNL A   1      42.792  27.693  33.033  1.00  0.00     0.031 C 
ATOM     47  C   UNL A   1      37.740  31.073  29.760  1.00  0.00     0.029 A 
ATOM     48  C   UNL A   1      38.094  31.586  31.080  1.00  0.00     0.049 A 
ATOM     49  H   UNL A   1      39.577  30.875  32.359  1.00  0.00     0.167 HD
ATOM     50  C   UNL A   1      42.683  29.219  34.979  1.00  0.00     0.037 A 
ATOM     51  C   UNL A   1      37.505  32.628  31.696  1.00  0.00     0.037 A 
ATOM     52  C   UNL A   1      42.170  30.367  35.678  1.00  0.00     0.049 A 
ATOM     53  C   UNL A   1      38.018  33.068  33.042  1.00  0.00     0.074 A 
ATOM     54  C   UNL A   1      42.566  30.881  36.900  1.00  0.00     0.029 A 
ATOM     55  N   UNL A   1      41.149  31.184  35.214  1.00  0.00    -0.354 N 
ATOM     56  N   UNL A   1      38.975  32.544  33.771  1.00  0.00    -0.248 NA
ATOM     57  C   UNL A   1      37.386  34.250  33.638  1.00  0.00     0.031 C 
ATOM     58  C   UNL A   1      41.761  31.988  37.191  1.00  0.00     0.029 A 
ATOM     59  C   UNL A   1      40.898  32.194  36.127  1.00  0.00     0.049 A 
ATOM     60  H   UNL A   1      40.674  31.064  34.359  1.00  0.00     0.167 HD
ATOM     61  C   UNL A   1      39.084  33.356  34.894  1.00  0.00     0.074 A 
ATOM     62  C   UNL A   1      38.101  34.409  34.743  1.00  0.00     0.031 C 
ATOM     63  C   UNL A   1      39.924  33.243  35.954  1.00  0.00     0.037 A 
BRANCH  50  64
ATOM     64  C   UNL A   1      43.766  28.403  35.633  1.00  0.00     0.058 A 
ATOM     65  C   UNL A   1      43.467  27.351  36.515  1.00  0.00     0.135 A 
ATOM     66  C   UNL A   1      45.119  28.659  35.359  1.00  0.00     0.135 A 
ATOM     67  F   UNL A   1      42.190  27.073  36.828  1.00  0.00    -0.206 F 
ATOM     68  C   UNL A   1      44.468  26.605  37.128  1.00  0.00     0.059 A 
ATOM     69  C   UNL A   1      46.138  27.905  35.936  1.00  0.00     0.059 A 
ATOM     70  F   UNL A   1      45.464  29.651  34.524  1.00  0.00    -0.206 F 
ATOM     71  C   UNL A   1      45.802  26.890  36.832  1.00  0.00     0.060 A 
BRANCH  71  72
ATOM     72  S   UNL A   1      47.090  25.912  37.632  1.00  0.00     0.124 S 
ATOM     73  O   UNL A   1      46.678  25.978  39.031  1.00  0.00    -0.237 OA
ATOM     74  O   UNL A   1      46.940  24.610  36.991  1.00  0.00    -0.237 OA
ATOM     75  O   UNL A   1      48.317  26.631  37.305  1.00  0.00    -0.744 OA
ENDBRANCH  71  72
ENDBRANCH  50  64
BRANCH  51  76
ATOM     76  C   UNL A   1      36.395  33.357  31.026  1.00  0.00     0.058 A 
ATOM     77  C   UNL A   1      36.639  34.184  29.919  1.00  0.00     0.135 A 
ATOM     78  C   UNL A   1      35.069  33.233  31.469  1.00  0.00     0.135 A 
ATOM     79  F   UNL A   1      37.890  34.338  29.460  1.00  0.00    -0.206 F 
ATOM     80  C   UNL A   1      35.612  34.880  29.287  1.00  0.00     0.059 A 
ATOM     81  C   UNL A   1      34.022  33.897  30.837  1.00  0.00     0.059 A 
ATOM     82  F   UNL A   1      34.780  32.437  32.511  1.00  0.00    -0.206 F 
ATOM     83  C   UNL A   1      34.306  34.728  29.754  1.00  0.00     0.060 A 
BRANCH  83  84
ATOM     84  S   UNL A   1      32.973  35.594  28.898  1.00  0.00     0.124 S 
ATOM     85  O   UNL A   1      32.120  35.994  30.011  1.00  0.00    -0.237 OA
ATOM     86  O   UNL A   1      33.690  36.670  28.222  1.00  0.00    -0.237 OA
ATOM     87  O   UNL A   1      32.422  34.570  28.015  1.00  0.00    -0.744 OA
ENDBRANCH  83  84
ENDBRANCH  51  76
BRANCH  63  88
ATOM     88  C   UNL A   1      39.855  34.317  37.005  1.00  0.00     0.058 A 
ATOM     89  C   UNL A   1      39.109  34.157  38.184  1.00  0.00     0.135 A 
ATOM     90  C   UNL A   1      40.568  35.515  36.837  1.00  0.00     0.135 A 
ATOM     91  F   UNL A   1      38.408  33.032  38.393  1.00  0.00    -0.206 F 
ATOM     92  C   UNL A   1      39.040  35.165  39.140  1.00  0.00     0.059 A 
ATOM     93  C   UNL A   1      40.537  36.523  37.794  1.00  0.00     0.059 A 
ATOM     94  F   UNL A   1      41.309  35.712  35.735  1.00  0.00    -0.206 F 
ATOM     95  C   UNL A   1      39.755  36.347  38.934  1.00  0.00     0.060 A 
BRANCH  95  96
ATOM     96  S   UNL A   1      39.658  37.648  40.180  1.00  0.00     0.124 S 
ATOM     97  O   UNL A   1      38.643  38.527  39.609  1.00  0.00    -0.237 OA
ATOM     98  O   UNL A   1      39.258  36.910  41.375  1.00  0.00    -0.237 OA
ATOM     99  O   UNL A   1      41.013  38.190  40.211  1.00  0.00    -0.744 OA
ENDBRANCH  95  96
ENDBRANCH  63  88
ENDBRANCH  37  38
ENDBRANCH  29  32
ENDBRANCH  27  28
ENDBRANCH  26  27
ENDBRANCH   1  26
TORSDOF 18
ENDMDL
MODEL 3
REMARK VINA RESULT:     -11.8      4.125     11.260
REMARK SMILES C[C@H](Oc1ccc(C(=O)NCc2ccccc2)cc1)C(=O)NCCCNC(=O)c1ccc(-c2c3nc(c(-c4c(F)cc(S(=O)(=O)[O-])cc4F)c4ccc([nH]4)c(-c4c(F)cc(S(=O)(=O)[O-])cc4F)c4nc(c(-c5c(F)cc(S(=O)(=O)[O-])cc5F)c5ccc2[nH]5)C=C4)C=C3)cc1
REMARK SMILES IDX 23 1 22 2 20 3 21 4 2 6 1 7 3 8 4 9 5 10 19 11 6 12 18 13
REMARK SMILES IDX 7 14 8 15 9 16 10 17 11 19 12 20 13 21 17 22 14 23 16 24
REMARK SMILES IDX 15 25 24 26 25 27 26 28 27 29 28 31 29 32 30 33 94 34 31 35
REMARK SMILES IDX 93 36 32 37 33 38 34 39 87 40 35 41 92 42 86 43 88 44 36 45
REMARK SMILES IDX 91 46 85 47 84 48 37 50 71 51 50 52 70 53 51 54 54 55 69 56
REMARK SMILES IDX 89 57 52 58 53 59 68 61 90 62 55 63 38 64 39 65 48 66 40 67
REMARK SMILES IDX 41 68 47 69 49 70 42 71 43 72 44 73 45 74 46 75 72 76 73 77
REMARK SMILES IDX 82 78 74 79 75 80 81 81 83 82 76 83 77 84 78 85 79 86 80 87
REMARK SMILES IDX 56 88 57 89 66 90 58 91 59 92 65 93 67 94 60 95 61 96 62 97
REMARK SMILES IDX 63 98 64 99
REMARK H PARENT 22 5 10 18 26 30 88 49 54 60
REMARK Flexibility Score: inf
ROOT
ATOM      1  C   UNL A   1      33.934  34.951  29.373  1.00  0.00     0.118 C 
ENDROOT
BRANCH   1   2
ATOM      2  N   UNL A   1      33.473  34.709  30.736  1.00  0.00    -0.353 N 
ATOM      3  C   UNL A   1      34.091  33.999  31.739  1.00  0.00     0.260 C 
ATOM      4  O   UNL A   1      33.574  33.991  32.859  1.00  0.00    -0.271 OA
ATOM      5  H   UNL A   1      32.604  35.109  30.969  1.00  0.00     0.163 HD
BRANCH   3   6
ATOM      6  C   UNL A   1      35.420  33.278  31.460  1.00  0.00     0.258 C 
ATOM      7  C   UNL A   1      35.411  31.954  32.236  1.00  0.00     0.064 C 
BRANCH   6   8
ATOM      8  O   UNL A   1      36.380  34.286  31.788  1.00  0.00    -0.481 OA
BRANCH   8   9
ATOM      9  C   UNL A   1      37.681  34.233  31.421  1.00  0.00     0.120 A 
ATOM     10  C   UNL A   1      38.786  34.562  32.193  1.00  0.00     0.047 A 
ATOM     11  C   UNL A   1      37.865  33.837  30.095  1.00  0.00     0.047 A 
ATOM     12  C   UNL A   1      40.057  34.589  31.602  1.00  0.00     0.017 A 
ATOM     13  C   UNL A   1      39.126  33.875  29.504  1.00  0.00     0.017 A 
ATOM     14  C   UNL A   1      40.239  34.246  30.251  1.00  0.00     0.040 A 
BRANCH  14  15
ATOM     15  C   UNL A   1      41.586  34.439  29.653  1.00  0.00     0.251 C 
ATOM     16  O   UNL A   1      41.783  35.448  28.973  1.00  0.00    -0.269 OA
ATOM     17  N   UNL A   1      42.619  33.557  29.808  1.00  0.00    -0.348 N 
ATOM     18  H   UNL A   1      43.378  33.737  29.208  1.00  0.00     0.164 HD
BRANCH  17  19
ATOM     19  C   UNL A   1      42.833  32.410  30.675  1.00  0.00     0.152 C 
BRANCH  19  20
ATOM     20  C   UNL A   1      43.440  31.263  29.903  1.00  0.00    -0.029 A 
ATOM     21  C   UNL A   1      44.584  30.596  30.365  1.00  0.00     0.005 A 
ATOM     22  C   UNL A   1      42.844  30.819  28.712  1.00  0.00     0.005 A 
ATOM     23  C   UNL A   1      45.106  29.504  29.668  1.00  0.00     0.000 A 
ATOM     24  C   UNL A   1      43.373  29.734  28.009  1.00  0.00     0.000 A 
ATOM     25  C   UNL A   1      44.500  29.073  28.490  1.00  0.00     0.000 A 
ENDBRANCH  19  20
ENDBRANCH  17  19
ENDBRANCH  14  15
ENDBRANCH   8   9
ENDBRANCH   6   8
ENDBRANCH   3   6
ENDBRANCH   1   2
BRANCH   1  26
ATOM     26  C   UNL A   1      33.443  33.910  28.379  1.00  0.00     0.042 C 
BRANCH  26  27
ATOM     27  C   UNL A   1      34.495  32.882  27.990  1.00  0.00     0.118 C 
BRANCH  27  28
ATOM     28  N   UNL A   1      33.917  31.673  27.423  1.00  0.00    -0.352 N 
ATOM     29  C   UNL A   1      34.438  30.410  27.289  1.00  0.00     0.251 C 
ATOM     30  H   UNL A   1      33.001  31.778  27.078  1.00  0.00     0.163 HD
ATOM     31  O   UNL A   1      33.828  29.587  26.612  1.00  0.00    -0.269 OA
BRANCH  29  32
ATOM     32  C   UNL A   1      35.715  30.037  27.937  1.00  0.00     0.039 A 
ATOM     33  C   UNL A   1      35.699  29.666  29.285  1.00  0.00     0.014 A 
ATOM     34  C   UNL A   1      36.931  30.100  27.252  1.00  0.00     0.014 A 
ATOM     35  C   UNL A   1      36.891  29.327  29.929  1.00  0.00     0.010 A 
ATOM     36  C   UNL A   1      38.104  29.669  27.866  1.00  0.00     0.010 A 
ATOM     37  C   UNL A   1      38.102  29.306  29.219  1.00  0.00    -0.014 A 
BRANCH  37  38
ATOM     38  C   UNL A   1      39.378  28.957  29.894  1.00  0.00     0.031 A 
ATOM     39  C   UNL A   1      39.801  29.695  31.138  1.00  0.00     0.074 A 
ATOM     40  C   UNL A   1      40.171  27.999  29.373  1.00  0.00     0.049 A 
ATOM     41  N   UNL A   1      40.881  29.545  31.861  1.00  0.00    -0.248 NA
ATOM     42  C   UNL A   1      38.909  30.765  31.616  1.00  0.00     0.031 C 
ATOM     43  C   UNL A   1      39.899  27.254  28.142  1.00  0.00     0.029 A 
ATOM     44  N   UNL A   1      41.365  27.488  29.813  1.00  0.00    -0.354 N 
ATOM     45  C   UNL A   1      40.804  30.504  32.865  1.00  0.00     0.074 A 
ATOM     46  C   UNL A   1      39.605  31.274  32.620  1.00  0.00     0.031 C 
ATOM     47  C   UNL A   1      40.881  26.359  27.944  1.00  0.00     0.029 A 
ATOM     48  C   UNL A   1      41.864  26.486  29.015  1.00  0.00     0.049 A 
ATOM     49  H   UNL A   1      41.822  27.809  30.624  1.00  0.00     0.167 HD
ATOM     50  C   UNL A   1      41.637  30.706  33.914  1.00  0.00     0.037 A 
ATOM     51  C   UNL A   1      42.984  25.747  29.138  1.00  0.00     0.037 A 
ATOM     52  C   UNL A   1      42.811  29.914  34.172  1.00  0.00     0.049 A 
ATOM     53  C   UNL A   1      43.878  25.966  30.329  1.00  0.00     0.074 A 
ATOM     54  C   UNL A   1      43.695  30.003  35.232  1.00  0.00     0.029 A 
ATOM     55  N   UNL A   1      43.262  28.882  33.360  1.00  0.00    -0.354 N 
ATOM     56  N   UNL A   1      43.756  26.839  31.303  1.00  0.00    -0.248 NA
ATOM     57  C   UNL A   1      45.048  25.089  30.451  1.00  0.00     0.031 C 
ATOM     58  C   UNL A   1      44.701  29.048  35.043  1.00  0.00     0.029 A 
ATOM     59  C   UNL A   1      44.415  28.331  33.893  1.00  0.00     0.049 A 
ATOM     60  H   UNL A   1      42.825  28.585  32.529  1.00  0.00     0.167 HD
ATOM     61  C   UNL A   1      44.813  26.589  32.170  1.00  0.00     0.074 A 
ATOM     62  C   UNL A   1      45.558  25.480  31.610  1.00  0.00     0.031 C 
ATOM     63  C   UNL A   1      45.136  27.218  33.329  1.00  0.00     0.037 A 
BRANCH  50  64
ATOM     64  C   UNL A   1      41.299  31.821  34.867  1.00  0.00     0.058 A 
ATOM     65  C   UNL A   1      40.395  31.638  35.927  1.00  0.00     0.135 A 
ATOM     66  C   UNL A   1      41.903  33.082  34.735  1.00  0.00     0.135 A 
ATOM     67  F   UNL A   1      39.775  30.458  36.091  1.00  0.00    -0.206 F 
ATOM     68  C   UNL A   1      40.076  32.672  36.800  1.00  0.00     0.059 A 
ATOM     69  C   UNL A   1      41.622  34.124  35.616  1.00  0.00     0.059 A 
ATOM     70  F   UNL A   1      42.774  33.315  33.741  1.00  0.00    -0.206 F 
ATOM     71  C   UNL A   1      40.694  33.913  36.636  1.00  0.00     0.060 A 
BRANCH  71  72
ATOM     72  S   UNL A   1      40.272  35.244  37.779  1.00  0.00     0.124 S 
ATOM     73  O   UNL A   1      39.816  36.283  36.859  1.00  0.00    -0.237 OA
ATOM     74  O   UNL A   1      39.235  34.632  38.604  1.00  0.00    -0.237 OA
ATOM     75  O   UNL A   1      41.532  35.520  38.462  1.00  0.00    -0.744 OA
ENDBRANCH  71  72
ENDBRANCH  50  64
BRANCH  51  76
ATOM     76  C   UNL A   1      43.298  24.701  28.129  1.00  0.00     0.058 A 
ATOM     77  C   UNL A   1      42.895  23.370  28.319  1.00  0.00     0.135 A 
ATOM     78  C   UNL A   1      43.995  25.010  26.951  1.00  0.00     0.135 A 
ATOM     79  F   UNL A   1      42.229  23.024  29.431  1.00  0.00    -0.206 F 
ATOM     80  C   UNL A   1      43.190  22.378  27.389  1.00  0.00     0.059 A 
ATOM     81  C   UNL A   1      44.277  24.041  25.993  1.00  0.00     0.059 A 
ATOM     82  F   UNL A   1      44.384  26.272  26.711  1.00  0.00    -0.206 F 
ATOM     83  C   UNL A   1      43.881  22.725  26.227  1.00  0.00     0.060 A 
BRANCH  83  84
ATOM     84  S   UNL A   1      44.215  21.442  25.001  1.00  0.00     0.124 S 
ATOM     85  O   UNL A   1      45.540  20.987  25.406  1.00  0.00    -0.237 OA
ATOM     86  O   UNL A   1      43.119  20.505  25.230  1.00  0.00    -0.237 OA
ATOM     87  O   UNL A   1      44.154  22.165  23.735  1.00  0.00    -0.744 OA
ENDBRANCH  83  84
ENDBRANCH  51  76
BRANCH  63  88
ATOM     88  C   UNL A   1      46.315  26.684  34.096  1.00  0.00     0.058 A 
ATOM     89  C   UNL A   1      46.178  25.678  35.065  1.00  0.00     0.135 A 
ATOM     90  C   UNL A   1      47.605  27.173  33.836  1.00  0.00     0.135 A 
ATOM     91  F   UNL A   1      44.966  25.177  35.353  1.00  0.00    -0.206 F 
ATOM     92  C   UNL A   1      47.274  25.205  35.780  1.00  0.00     0.059 A 
ATOM     93  C   UNL A   1      48.719  26.693  34.517  1.00  0.00     0.059 A 
ATOM     94  F   UNL A   1      47.795  28.124  32.908  1.00  0.00    -0.206 F 
ATOM     95  C   UNL A   1      48.541  25.722  35.501  1.00  0.00     0.060 A 
BRANCH  95  96
ATOM     96  S   UNL A   1      49.955  25.101  36.434  1.00  0.00     0.124 S 
ATOM     97  O   UNL A   1      49.369  23.963  37.133  1.00  0.00    -0.237 OA
ATOM     98  O   UNL A   1      50.908  24.774  35.377  1.00  0.00    -0.237 OA
ATOM     99  O   UNL A   1      50.329  26.233  37.277  1.00  0.00    -0.744 OA
ENDBRANCH  95  96
ENDBRANCH  63  88
ENDBRANCH  37  38
ENDBRANCH  29  32
ENDBRANCH  27  28
ENDBRANCH  26  27
ENDBRANCH   1  26
TORSDOF 18
ENDMDL
