MODEL 1
REMARK VINA RESULT:     -11.5      0.000      0.000
REMARK SMILES CCC[NH2+][C@]1(C(=O)NCCCNC(=O)c2ccc(-c3c4nc(c(-c5c(F)cc(S(=O)(=O)[O-])cc5F)c5ccc([nH]5)c(-c5c(F)cc(S(=O)(=O)[O-])cc5F)c5nc(c(-c6c(F)cc(S(=O)(=O)[O-])cc6F)c6ccc3[nH]6)C=C5)C=C4)cc2)CC[C@H]([N@@H+]2CCC[C@@H]3CCC[C@@H]32)C1
REMARK SMILES IDX 10 1 9 2 8 3 6 4 7 5 5 7 81 8 93 9 82 10 83 11 4 12 3 15
REMARK SMILES IDX 2 16 1 17 84 18 85 19 92 20 86 22 88 23 91 24 87 25 89 26
REMARK SMILES IDX 90 27 11 28 12 29 13 30 14 32 15 33 16 34 80 35 17 36 79 37
REMARK SMILES IDX 18 38 19 39 20 40 73 41 21 42 78 43 72 44 74 45 22 46 77 47
REMARK SMILES IDX 71 48 70 49 23 51 57 52 36 53 56 54 37 55 40 56 55 57 75 58
REMARK SMILES IDX 38 59 39 60 54 62 76 63 41 64 24 65 25 66 34 67 26 68 27 69
REMARK SMILES IDX 33 70 35 71 28 72 29 73 30 74 31 75 32 76 58 77 59 78 68 79
REMARK SMILES IDX 60 80 61 81 67 82 69 83 62 84 63 85 64 86 65 87 66 88 42 89
REMARK SMILES IDX 43 90 52 91 44 92 45 93 51 94 53 95 46 96 47 97 48 98 49 99
REMARK SMILES IDX 50 100
REMARK H PARENT 8 6 4 13 4 14 84 21 12 31 74 50 40 61
REMARK Flexibility Score: inf
ROOT
ATOM      1  C   UNL A   1      33.987  31.238  27.647  1.00  0.00     0.042 C 
ENDROOT
BRANCH   1   2
ATOM      2  C   UNL A   1      33.321  30.303  26.636  1.00  0.00     0.118 C 
BRANCH   2   3
ATOM      3  N   UNL A   1      32.295  29.468  27.236  1.00  0.00    -0.351 N 
ATOM      4  C   UNL A   1      31.915  28.175  27.069  1.00  0.00     0.281 C 
ATOM      5  O   UNL A   1      31.030  27.797  27.856  1.00  0.00    -0.268 OA
ATOM      6  H   UNL A   1      31.760  29.942  27.913  1.00  0.00     0.163 HD
BRANCH   4   7
ATOM      7  C   UNL A   1      32.519  27.142  26.039  1.00  0.00     0.181 C 
ATOM      8  C   UNL A   1      34.047  27.046  25.875  1.00  0.00     0.085 C 
ATOM      9  C   UNL A   1      32.158  25.718  26.507  1.00  0.00     0.144 C 
ATOM     10  C   UNL A   1      34.468  25.582  25.792  1.00  0.00     0.072 C 
ATOM     11  C   UNL A   1      33.201  24.756  25.905  1.00  0.00     0.191 C 
BRANCH   7  12
ATOM     12  N   UNL A   1      31.771  27.310  24.760  1.00  0.00    -0.333 N 
ATOM     13  H   UNL A   1      31.501  26.381  24.435  1.00  0.00     0.347 HD
ATOM     14  H   UNL A   1      30.990  27.926  24.985  1.00  0.00     0.347 HD
BRANCH  12  15
ATOM     15  C   UNL A   1      32.479  27.972  23.667  1.00  0.00     0.261 C 
BRANCH  15  16
ATOM     16  C   UNL A   1      32.109  27.284  22.344  1.00  0.00     0.058 C 
ATOM     17  C   UNL A   1      32.995  26.093  22.010  1.00  0.00     0.010 C 
ENDBRANCH  15  16
ENDBRANCH  12  15
ENDBRANCH   7  12
BRANCH  11  18
ATOM     18  N   UNL A   1      32.832  23.933  24.745  1.00  0.00    -0.330 N 
ATOM     19  C   UNL A   1      31.381  23.803  24.627  1.00  0.00     0.262 C 
ATOM     20  C   UNL A   1      33.670  22.846  24.198  1.00  0.00     0.187 C 
ATOM     21  H   UNL A   1      33.218  24.517  24.003  1.00  0.00     0.348 HD
ATOM     22  C   UNL A   1      30.841  23.237  23.316  1.00  0.00     0.062 C 
ATOM     23  C   UNL A   1      32.857  21.720  23.507  1.00  0.00     0.048 C 
ATOM     24  C   UNL A   1      34.547  21.920  25.071  1.00  0.00     0.065 C 
ATOM     25  C   UNL A   1      31.728  22.215  22.636  1.00  0.00     0.015 C 
ATOM     26  C   UNL A   1      32.446  20.790  24.655  1.00  0.00     0.010 C 
ATOM     27  C   UNL A   1      33.685  20.745  25.537  1.00  0.00     0.007 C 
ENDBRANCH  11  18
ENDBRANCH   4   7
ENDBRANCH   2   3
ENDBRANCH   1   2
BRANCH   1  28
ATOM     28  C   UNL A   1      35.275  30.699  28.241  1.00  0.00     0.118 C 
BRANCH  28  29
ATOM     29  N   UNL A   1      35.402  31.027  29.650  1.00  0.00    -0.352 N 
ATOM     30  C   UNL A   1      36.415  30.756  30.539  1.00  0.00     0.251 C 
ATOM     31  H   UNL A   1      34.641  31.523  30.030  1.00  0.00     0.163 HD
ATOM     32  O   UNL A   1      36.194  30.898  31.741  1.00  0.00    -0.269 OA
BRANCH  30  33
ATOM     33  C   UNL A   1      37.749  30.292  30.085  1.00  0.00     0.039 A 
ATOM     34  C   UNL A   1      38.664  29.832  31.039  1.00  0.00     0.014 A 
ATOM     35  C   UNL A   1      38.141  30.368  28.746  1.00  0.00     0.014 A 
ATOM     36  C   UNL A   1      39.941  29.416  30.645  1.00  0.00     0.010 A 
ATOM     37  C   UNL A   1      39.373  29.857  28.341  1.00  0.00     0.010 A 
ATOM     38  C   UNL A   1      40.299  29.402  29.289  1.00  0.00    -0.014 A 
BRANCH  38  39
ATOM     39  C   UNL A   1      41.650  28.966  28.843  1.00  0.00     0.031 A 
ATOM     40  C   UNL A   1      42.783  29.958  28.788  1.00  0.00     0.074 A 
ATOM     41  C   UNL A   1      41.846  27.696  28.435  1.00  0.00     0.049 A 
ATOM     42  N   UNL A   1      44.013  29.790  28.371  1.00  0.00    -0.248 NA
ATOM     43  C   UNL A   1      42.487  31.330  29.230  1.00  0.00     0.031 C 
ATOM     44  C   UNL A   1      40.819  26.653  28.397  1.00  0.00     0.029 A 
ATOM     45  N   UNL A   1      42.973  27.069  27.969  1.00  0.00    -0.354 N 
ATOM     46  C   UNL A   1      44.624  31.034  28.478  1.00  0.00     0.074 A 
ATOM     47  C   UNL A   1      43.616  31.960  28.944  1.00  0.00     0.031 C 
ATOM     48  C   UNL A   1      41.372  25.508  27.965  1.00  0.00     0.029 A 
ATOM     49  C   UNL A   1      42.779  25.744  27.657  1.00  0.00     0.049 A 
ATOM     50  H   UNL A   1      43.840  27.524  27.868  1.00  0.00     0.167 HD
ATOM     51  C   UNL A   1      45.915  31.372  28.237  1.00  0.00     0.037 A 
ATOM     52  C   UNL A   1      43.638  24.823  27.177  1.00  0.00     0.037 A 
ATOM     53  C   UNL A   1      46.921  30.438  27.806  1.00  0.00     0.049 A 
ATOM     54  C   UNL A   1      45.067  25.215  26.922  1.00  0.00     0.074 A 
ATOM     55  C   UNL A   1      48.271  30.660  27.600  1.00  0.00     0.029 A 
ATOM     56  N   UNL A   1      46.687  29.101  27.514  1.00  0.00    -0.354 N 
ATOM     57  N   UNL A   1      45.644  26.382  27.090  1.00  0.00    -0.248 NA
ATOM     58  C   UNL A   1      45.964  24.165  26.421  1.00  0.00     0.031 C 
ATOM     59  C   UNL A   1      48.845  29.469  27.140  1.00  0.00     0.029 A 
ATOM     60  C   UNL A   1      47.862  28.492  27.108  1.00  0.00     0.049 A 
ATOM     61  H   UNL A   1      45.814  28.652  27.587  1.00  0.00     0.167 HD
ATOM     62  C   UNL A   1      46.976  26.201  26.737  1.00  0.00     0.074 A 
ATOM     63  C   UNL A   1      47.122  24.811  26.356  1.00  0.00     0.031 C 
ATOM     64  C   UNL A   1      47.989  27.104  26.732  1.00  0.00     0.037 A 
BRANCH  51  65
ATOM     65  C   UNL A   1      46.302  32.814  28.432  1.00  0.00     0.058 A 
ATOM     66  C   UNL A   1      46.231  33.747  27.384  1.00  0.00     0.135 A 
ATOM     67  C   UNL A   1      46.752  33.271  29.681  1.00  0.00     0.135 A 
ATOM     68  F   UNL A   1      45.821  33.365  26.165  1.00  0.00    -0.206 F 
ATOM     69  C   UNL A   1      46.641  35.066  27.554  1.00  0.00     0.059 A 
ATOM     70  C   UNL A   1      47.136  34.594  29.883  1.00  0.00     0.059 A 
ATOM     71  F   UNL A   1      46.836  32.426  30.720  1.00  0.00    -0.206 F 
ATOM     72  C   UNL A   1      47.099  35.478  28.804  1.00  0.00     0.060 A 
BRANCH  72  73
ATOM     73  S   UNL A   1      47.656  37.185  29.004  1.00  0.00     0.124 S 
ATOM     74  O   UNL A   1      47.856  37.255  30.450  1.00  0.00    -0.237 OA
ATOM     75  O   UNL A   1      48.874  37.213  28.196  1.00  0.00    -0.237 OA
ATOM     76  O   UNL A   1      46.545  37.969  28.485  1.00  0.00    -0.744 OA
ENDBRANCH  72  73
ENDBRANCH  51  65
BRANCH  52  77
ATOM     77  C   UNL A   1      43.169  23.430  26.951  1.00  0.00     0.058 A 
ATOM     78  C   UNL A   1      42.912  22.963  25.654  1.00  0.00     0.135 A 
ATOM     79  C   UNL A   1      43.019  22.526  28.014  1.00  0.00     0.135 A 
ATOM     80  F   UNL A   1      43.034  23.792  24.606  1.00  0.00    -0.206 F 
ATOM     81  C   UNL A   1      42.520  21.650  25.416  1.00  0.00     0.059 A 
ATOM     82  C   UNL A   1      42.650  21.201  27.800  1.00  0.00     0.059 A 
ATOM     83  F   UNL A   1      43.269  22.920  29.272  1.00  0.00    -0.206 F 
ATOM     84  C   UNL A   1      42.400  20.773  26.496  1.00  0.00     0.060 A 
BRANCH  84  85
ATOM     85  S   UNL A   1      41.971  19.050  26.167  1.00  0.00     0.124 S 
ATOM     86  O   UNL A   1      42.908  18.711  25.102  1.00  0.00    -0.237 OA
ATOM     87  O   UNL A   1      42.219  18.421  27.461  1.00  0.00    -0.237 OA
ATOM     88  O   UNL A   1      40.568  19.123  25.774  1.00  0.00    -0.744 OA
ENDBRANCH  84  85
ENDBRANCH  52  77
BRANCH  64  89
ATOM     89  C   UNL A   1      49.351  26.613  26.327  1.00  0.00     0.058 A 
ATOM     90  C   UNL A   1      49.837  26.779  25.022  1.00  0.00     0.135 A 
ATOM     91  C   UNL A   1      50.200  26.016  27.274  1.00  0.00     0.135 A 
ATOM     92  F   UNL A   1      49.063  27.337  24.078  1.00  0.00    -0.206 F 
ATOM     93  C   UNL A   1      51.111  26.351  24.662  1.00  0.00     0.059 A 
ATOM     94  C   UNL A   1      51.487  25.606  26.943  1.00  0.00     0.059 A 
ATOM     95  F   UNL A   1      49.787  25.844  28.540  1.00  0.00    -0.206 F 
ATOM     96  C   UNL A   1      51.930  25.767  25.631  1.00  0.00     0.060 A 
BRANCH  96  97
ATOM     97  S   UNL A   1      53.594  25.248  25.160  1.00  0.00     0.124 S 
ATOM     98  O   UNL A   1      53.516  23.804  25.350  1.00  0.00    -0.237 OA
ATOM     99  O   UNL A   1      53.683  25.701  23.776  1.00  0.00    -0.237 OA
ATOM    100  O   UNL A   1      54.451  25.961  26.103  1.00  0.00    -0.744 OA
ENDBRANCH  96  97
ENDBRANCH  64  89
ENDBRANCH  38  39
ENDBRANCH  30  33
ENDBRANCH  28  29
ENDBRANCH   1  28
TORSDOF 17
ENDMDL
MODEL 2
REMARK VINA RESULT:     -11.4      6.433     12.013
REMARK SMILES CCC[NH2+][C@]1(C(=O)NCCCNC(=O)c2ccc(-c3c4nc(c(-c5c(F)cc(S(=O)(=O)[O-])cc5F)c5ccc([nH]5)c(-c5c(F)cc(S(=O)(=O)[O-])cc5F)c5nc(c(-c6c(F)cc(S(=O)(=O)[O-])cc6F)c6ccc3[nH]6)C=C5)C=C4)cc2)CC[C@H]([N@@H+]2CCC[C@@H]3CCC[C@@H]32)C1
REMARK SMILES IDX 10 1 9 2 8 3 6 4 7 5 5 7 81 8 93 9 82 10 83 11 4 12 3 15
REMARK SMILES IDX 2 16 1 17 84 18 85 19 92 20 86 22 88 23 91 24 87 25 89 26
REMARK SMILES IDX 90 27 11 28 12 29 13 30 14 32 15 33 16 34 80 35 17 36 79 37
REMARK SMILES IDX 18 38 19 39 20 40 73 41 21 42 78 43 72 44 74 45 22 46 77 47
REMARK SMILES IDX 71 48 70 49 23 51 57 52 36 53 56 54 37 55 40 56 55 57 75 58
REMARK SMILES IDX 38 59 39 60 54 62 76 63 41 64 24 65 25 66 34 67 26 68 27 69
REMARK SMILES IDX 33 70 35 71 28 72 29 73 30 74 31 75 32 76 58 77 59 78 68 79
REMARK SMILES IDX 60 80 61 81 67 82 69 83 62 84 63 85 64 86 65 87 66 88 42 89
REMARK SMILES IDX 43 90 52 91 44 92 45 93 51 94 53 95 46 96 47 97 48 98 49 99
REMARK SMILES IDX 50 100
REMARK H PARENT 8 6 4 13 4 14 84 21 12 31 74 50 40 61
REMARK Flexibility Score: inf
ROOT
ATOM      1  C   UNL A   1      38.843  22.495  26.337  1.00  0.00     0.042 C 
ENDROOT
BRANCH   1   2
ATOM      2  C   UNL A   1      37.662  23.306  25.802  1.00  0.00     0.118 C 
BRANCH   2   3
ATOM      3  N   UNL A   1      37.347  22.993  24.419  1.00  0.00    -0.351 N 
ATOM      4  C   UNL A   1      36.218  23.073  23.668  1.00  0.00     0.281 C 
ATOM      5  O   UNL A   1      36.383  22.788  22.469  1.00  0.00    -0.268 OA
ATOM      6  H   UNL A   1      38.121  22.648  23.917  1.00  0.00     0.163 HD
BRANCH   4   7
ATOM      7  C   UNL A   1      34.791  23.532  24.159  1.00  0.00     0.181 C 
ATOM      8  C   UNL A   1      34.343  23.199  25.594  1.00  0.00     0.085 C 
ATOM      9  C   UNL A   1      34.747  25.073  24.161  1.00  0.00     0.144 C 
ATOM     10  C   UNL A   1      33.648  24.406  26.214  1.00  0.00     0.072 C 
ATOM     11  C   UNL A   1      33.660  25.503  25.166  1.00  0.00     0.191 C 
BRANCH   7  12
ATOM     12  N   UNL A   1      33.815  23.137  23.102  1.00  0.00    -0.333 N 
ATOM     13  H   UNL A   1      33.575  23.976  22.573  1.00  0.00     0.347 HD
ATOM     14  H   UNL A   1      34.287  22.413  22.561  1.00  0.00     0.347 HD
BRANCH  12  15
ATOM     15  C   UNL A   1      32.567  22.528  23.554  1.00  0.00     0.261 C 
BRANCH  15  16
ATOM     16  C   UNL A   1      32.592  21.030  23.213  1.00  0.00     0.058 C 
ATOM     17  C   UNL A   1      32.486  20.127  24.433  1.00  0.00     0.010 C 
ENDBRANCH  15  16
ENDBRANCH  12  15
ENDBRANCH   7  12
BRANCH  11  18
ATOM     18  N   UNL A   1      32.358  25.961  24.662  1.00  0.00    -0.330 N 
ATOM     19  C   UNL A   1      32.449  26.384  23.265  1.00  0.00     0.262 C 
ATOM     20  C   UNL A   1      31.312  26.577  25.503  1.00  0.00     0.187 C 
ATOM     21  H   UNL A   1      31.833  25.092  24.757  1.00  0.00     0.348 HD
ATOM     22  C   UNL A   1      31.135  26.598  22.520  1.00  0.00     0.062 C 
ATOM     23  C   UNL A   1      30.401  27.572  24.737  1.00  0.00     0.048 C 
ATOM     24  C   UNL A   1      31.615  27.505  26.703  1.00  0.00     0.065 C 
ATOM     25  C   UNL A   1      29.983  27.099  23.365  1.00  0.00     0.015 C 
ATOM     26  C   UNL A   1      31.173  28.896  24.771  1.00  0.00     0.010 C 
ATOM     27  C   UNL A   1      31.750  28.935  26.178  1.00  0.00     0.007 C 
ENDBRANCH  11  18
ENDBRANCH   4   7
ENDBRANCH   2   3
ENDBRANCH   1   2
BRANCH   1  28
ATOM     28  C   UNL A   1      39.893  23.320  27.056  1.00  0.00     0.118 C 
BRANCH  28  29
ATOM     29  N   UNL A   1      40.794  23.982  26.128  1.00  0.00    -0.352 N 
ATOM     30  C   UNL A   1      41.234  25.283  26.088  1.00  0.00     0.251 C 
ATOM     31  H   UNL A   1      41.147  23.404  25.412  1.00  0.00     0.163 HD
ATOM     32  O   UNL A   1      41.783  25.686  25.064  1.00  0.00    -0.269 OA
BRANCH  30  33
ATOM     33  C   UNL A   1      41.050  26.205  27.237  1.00  0.00     0.039 A 
ATOM     34  C   UNL A   1      41.893  27.315  27.352  1.00  0.00     0.014 A 
ATOM     35  C   UNL A   1      40.110  25.955  28.240  1.00  0.00     0.014 A 
ATOM     36  C   UNL A   1      41.766  28.185  28.441  1.00  0.00     0.010 A 
ATOM     37  C   UNL A   1      39.913  26.877  29.267  1.00  0.00     0.010 A 
ATOM     38  C   UNL A   1      40.757  27.988  29.397  1.00  0.00    -0.014 A 
BRANCH  38  39
ATOM     39  C   UNL A   1      40.600  28.896  30.564  1.00  0.00     0.031 A 
ATOM     40  C   UNL A   1      41.472  28.722  31.780  1.00  0.00     0.074 A 
ATOM     41  C   UNL A   1      39.638  29.841  30.555  1.00  0.00     0.049 A 
ATOM     42  N   UNL A   1      41.449  29.368  32.918  1.00  0.00    -0.248 NA
ATOM     43  C   UNL A   1      42.486  27.655  31.722  1.00  0.00     0.031 C 
ATOM     44  C   UNL A   1      38.700  30.081  29.457  1.00  0.00     0.029 A 
ATOM     45  N   UNL A   1      39.288  30.771  31.501  1.00  0.00    -0.354 N 
ATOM     46  C   UNL A   1      42.421  28.774  33.714  1.00  0.00     0.074 A 
ATOM     47  C   UNL A   1      42.977  27.678  32.951  1.00  0.00     0.031 C 
ATOM     48  C   UNL A   1      37.902  31.113  29.779  1.00  0.00     0.029 A 
ATOM     49  C   UNL A   1      38.245  31.581  31.118  1.00  0.00     0.049 A 
ATOM     50  H   UNL A   1      39.740  30.851  32.371  1.00  0.00     0.167 HD
ATOM     51  C   UNL A   1      42.835  29.124  34.956  1.00  0.00     0.037 A 
ATOM     52  C   UNL A   1      37.633  32.589  31.772  1.00  0.00     0.037 A 
ATOM     53  C   UNL A   1      42.300  30.237  35.696  1.00  0.00     0.049 A 
ATOM     54  C   UNL A   1      38.111  32.967  33.147  1.00  0.00     0.074 A 
ATOM     55  C   UNL A   1      42.694  30.720  36.931  1.00  0.00     0.029 A 
ATOM     56  N   UNL A   1      41.254  31.042  35.267  1.00  0.00    -0.354 N 
ATOM     57  N   UNL A   1      39.075  32.434  33.860  1.00  0.00    -0.248 NA
ATOM     58  C   UNL A   1      37.423  34.086  33.805  1.00  0.00     0.031 C 
ATOM     59  C   UNL A   1      41.857  31.789  37.270  1.00  0.00     0.029 A 
ATOM     60  C   UNL A   1      40.974  32.004  36.223  1.00  0.00     0.049 A 
ATOM     61  H   UNL A   1      40.781  30.944  34.409  1.00  0.00     0.167 HD
ATOM     62  C   UNL A   1      39.126  33.168  35.040  1.00  0.00     0.074 A 
ATOM     63  C   UNL A   1      38.101  34.188  34.941  1.00  0.00     0.031 C 
ATOM     64  C   UNL A   1      39.949  33.013  36.107  1.00  0.00     0.037 A 
BRANCH  51  65
ATOM     65  C   UNL A   1      43.914  28.286  35.589  1.00  0.00     0.058 A 
ATOM     66  C   UNL A   1      45.277  28.528  35.349  1.00  0.00     0.135 A 
ATOM     67  C   UNL A   1      43.583  27.223  36.446  1.00  0.00     0.135 A 
ATOM     68  F   UNL A   1      45.652  29.522  34.529  1.00  0.00    -0.206 F 
ATOM     69  C   UNL A   1      46.268  27.718  35.894  1.00  0.00     0.059 A 
ATOM     70  C   UNL A   1      44.560  26.419  37.027  1.00  0.00     0.059 A 
ATOM     71  F   UNL A   1      42.298  26.946  36.716  1.00  0.00    -0.206 F 
ATOM     72  C   UNL A   1      45.900  26.661  36.725  1.00  0.00     0.060 A 
BRANCH  72  73
ATOM     73  S   UNL A   1      47.194  25.598  37.401  1.00  0.00     0.124 S 
ATOM     74  O   UNL A   1      47.917  25.218  36.188  1.00  0.00    -0.237 OA
ATOM     75  O   UNL A   1      47.905  26.504  38.301  1.00  0.00    -0.237 OA
ATOM     76  O   UNL A   1      46.452  24.528  38.051  1.00  0.00    -0.744 OA
ENDBRANCH  72  73
ENDBRANCH  51  65
BRANCH  52  77
ATOM     77  C   UNL A   1      36.532  33.334  31.108  1.00  0.00     0.058 A 
ATOM     78  C   UNL A   1      36.798  34.209  30.045  1.00  0.00     0.135 A 
ATOM     79  C   UNL A   1      35.192  33.151  31.485  1.00  0.00     0.135 A 
ATOM     80  F   UNL A   1      38.063  34.422  29.653  1.00  0.00    -0.206 F 
ATOM     81  C   UNL A   1      35.777  34.878  29.379  1.00  0.00     0.059 A 
ATOM     82  C   UNL A   1      34.152  33.791  30.819  1.00  0.00     0.059 A 
ATOM     83  F   UNL A   1      34.884  32.312  32.486  1.00  0.00    -0.206 F 
ATOM     84  C   UNL A   1      34.454  34.656  29.767  1.00  0.00     0.060 A 
BRANCH  84  85
ATOM     85  S   UNL A   1      33.133  35.467  28.842  1.00  0.00     0.124 S 
ATOM     86  O   UNL A   1      32.344  36.061  29.915  1.00  0.00    -0.237 OA
ATOM     87  O   UNL A   1      33.876  36.402  28.003  1.00  0.00    -0.237 OA
ATOM     88  O   UNL A   1      32.499  34.364  28.127  1.00  0.00    -0.744 OA
ENDBRANCH  84  85
ENDBRANCH  52  77
BRANCH  64  89
ATOM     89  C   UNL A   1      39.795  33.985  37.245  1.00  0.00     0.058 A 
ATOM     90  C   UNL A   1      40.366  35.266  37.203  1.00  0.00     0.135 A 
ATOM     91  C   UNL A   1      39.022  33.646  38.367  1.00  0.00     0.135 A 
ATOM     92  F   UNL A   1      41.121  35.636  36.156  1.00  0.00    -0.206 F 
ATOM     93  C   UNL A   1      40.194  36.172  38.245  1.00  0.00     0.059 A 
ATOM     94  C   UNL A   1      38.814  34.545  39.407  1.00  0.00     0.059 A 
ATOM     95  F   UNL A   1      38.445  32.437  38.450  1.00  0.00    -0.206 F 
ATOM     96  C   UNL A   1      39.414  35.802  39.343  1.00  0.00     0.060 A 
BRANCH  96  97
ATOM     97  S   UNL A   1      39.168  36.999  40.672  1.00  0.00     0.124 S 
ATOM     98  O   UNL A   1      38.516  36.179  41.688  1.00  0.00    -0.237 OA
ATOM     99  O   UNL A   1      40.534  37.416  40.974  1.00  0.00    -0.237 OA
ATOM    100  O   UNL A   1      38.329  38.022  40.056  1.00  0.00    -0.744 OA
ENDBRANCH  96  97
ENDBRANCH  64  89
ENDBRANCH  38  39
ENDBRANCH  30  33
ENDBRANCH  28  29
ENDBRANCH   1  28
TORSDOF 17
ENDMDL
MODEL 3
REMARK VINA RESULT:     -11.4      1.024      2.232
REMARK SMILES CCC[NH2+][C@]1(C(=O)NCCCNC(=O)c2ccc(-c3c4nc(c(-c5c(F)cc(S(=O)(=O)[O-])cc5F)c5ccc([nH]5)c(-c5c(F)cc(S(=O)(=O)[O-])cc5F)c5nc(c(-c6c(F)cc(S(=O)(=O)[O-])cc6F)c6ccc3[nH]6)C=C5)C=C4)cc2)CC[C@H]([N@@H+]2CCC[C@@H]3CCC[C@@H]32)C1
REMARK SMILES IDX 10 1 9 2 8 3 6 4 7 5 5 7 81 8 93 9 82 10 83 11 4 12 3 15
REMARK SMILES IDX 2 16 1 17 84 18 85 19 92 20 86 22 88 23 91 24 87 25 89 26
REMARK SMILES IDX 90 27 11 28 12 29 13 30 14 32 15 33 16 34 80 35 17 36 79 37
REMARK SMILES IDX 18 38 19 39 20 40 73 41 21 42 78 43 72 44 74 45 22 46 77 47
REMARK SMILES IDX 71 48 70 49 23 51 57 52 36 53 56 54 37 55 40 56 55 57 75 58
REMARK SMILES IDX 38 59 39 60 54 62 76 63 41 64 24 65 25 66 34 67 26 68 27 69
REMARK SMILES IDX 33 70 35 71 28 72 29 73 30 74 31 75 32 76 58 77 59 78 68 79
REMARK SMILES IDX 60 80 61 81 67 82 69 83 62 84 63 85 64 86 65 87 66 88 42 89
REMARK SMILES IDX 43 90 52 91 44 92 45 93 51 94 53 95 46 96 47 97 48 98 49 99
REMARK SMILES IDX 50 100
REMARK H PARENT 8 6 4 13 4 14 84 21 12 31 74 50 40 61
REMARK Flexibility Score: inf
ROOT
ATOM      1  C   UNL A   1      34.029  29.879  26.886  1.00  0.00     0.042 C 
ENDROOT
BRANCH   1   2
ATOM      2  C   UNL A   1      32.775  29.004  26.904  1.00  0.00     0.118 C 
BRANCH   2   3
ATOM      3  N   UNL A   1      31.925  29.219  25.745  1.00  0.00    -0.351 N 
ATOM      4  C   UNL A   1      31.436  28.409  24.771  1.00  0.00     0.281 C 
ATOM      5  O   UNL A   1      30.651  28.971  23.988  1.00  0.00    -0.268 OA
ATOM      6  H   UNL A   1      31.641  30.157  25.646  1.00  0.00     0.163 HD
BRANCH   4   7
ATOM      7  C   UNL A   1      31.727  26.868  24.594  1.00  0.00     0.181 C 
ATOM      8  C   UNL A   1      31.312  26.168  23.287  1.00  0.00     0.085 C 
ATOM      9  C   UNL A   1      33.254  26.656  24.599  1.00  0.00     0.144 C 
ATOM     10  C   UNL A   1      32.423  25.229  22.826  1.00  0.00     0.072 C 
ATOM     11  C   UNL A   1      33.540  25.341  23.846  1.00  0.00     0.191 C 
BRANCH   7  12
ATOM     12  N   UNL A   1      31.257  26.187  25.834  1.00  0.00    -0.333 N 
ATOM     13  H   UNL A   1      31.952  25.483  26.083  1.00  0.00     0.347 HD
ATOM     14  H   UNL A   1      31.141  26.933  26.521  1.00  0.00     0.347 HD
BRANCH  12  15
ATOM     15  C   UNL A   1      29.958  25.522  25.767  1.00  0.00     0.261 C 
BRANCH  15  16
ATOM     16  C   UNL A   1      30.039  24.191  26.530  1.00  0.00     0.058 C 
ATOM     17  C   UNL A   1      30.803  23.108  25.784  1.00  0.00     0.010 C 
ENDBRANCH  15  16
ENDBRANCH  12  15
ENDBRANCH   7  12
BRANCH  11  18
ATOM     18  N   UNL A   1      33.868  24.132  24.615  1.00  0.00    -0.330 N 
ATOM     19  C   UNL A   1      34.272  24.465  25.980  1.00  0.00     0.262 C 
ATOM     20  C   UNL A   1      34.402  22.890  24.021  1.00  0.00     0.187 C 
ATOM     21  H   UNL A   1      32.957  23.675  24.595  1.00  0.00     0.348 HD
ATOM     22  C   UNL A   1      34.351  23.314  26.979  1.00  0.00     0.062 C 
ATOM     23  C   UNL A   1      35.296  22.069  24.988  1.00  0.00     0.048 C 
ATOM     24  C   UNL A   1      35.375  22.865  22.819  1.00  0.00     0.065 C 
ATOM     25  C   UNL A   1      34.762  21.977  26.397  1.00  0.00     0.015 C 
ATOM     26  C   UNL A   1      36.685  22.703  24.850  1.00  0.00     0.010 C 
ATOM     27  C   UNL A   1      36.802  22.980  23.358  1.00  0.00     0.007 C 
ENDBRANCH  11  18
ENDBRANCH   4   7
ENDBRANCH   2   3
ENDBRANCH   1   2
BRANCH   1  28
ATOM     28  C   UNL A   1      35.136  29.401  27.808  1.00  0.00     0.118 C 
BRANCH  28  29
ATOM     29  N   UNL A   1      35.212  30.195  29.022  1.00  0.00    -0.352 N 
ATOM     30  C   UNL A   1      36.256  30.391  29.894  1.00  0.00     0.251 C 
ATOM     31  H   UNL A   1      34.382  30.670  29.258  1.00  0.00     0.163 HD
ATOM     32  O   UNL A   1      36.017  30.889  30.993  1.00  0.00    -0.269 OA
BRANCH  30  33
ATOM     33  C   UNL A   1      37.646  30.006  29.546  1.00  0.00     0.039 A 
ATOM     34  C   UNL A   1      38.051  30.078  28.208  1.00  0.00     0.014 A 
ATOM     35  C   UNL A   1      38.536  29.507  30.501  1.00  0.00     0.014 A 
ATOM     36  C   UNL A   1      39.346  29.693  27.843  1.00  0.00     0.010 A 
ATOM     37  C   UNL A   1      39.856  29.224  30.155  1.00  0.00     0.010 A 
ATOM     38  C   UNL A   1      40.269  29.284  28.818  1.00  0.00    -0.014 A 
BRANCH  38  39
ATOM     39  C   UNL A   1      41.651  28.869  28.458  1.00  0.00     0.031 A 
ATOM     40  C   UNL A   1      42.766  29.883  28.446  1.00  0.00     0.074 A 
ATOM     41  C   UNL A   1      41.896  27.595  28.089  1.00  0.00     0.049 A 
ATOM     42  N   UNL A   1      44.020  29.734  28.102  1.00  0.00    -0.248 NA
ATOM     43  C   UNL A   1      42.417  31.258  28.841  1.00  0.00     0.031 C 
ATOM     44  C   UNL A   1      40.894  26.530  28.016  1.00  0.00     0.029 A 
ATOM     45  N   UNL A   1      43.060  26.983  27.701  1.00  0.00    -0.354 N 
ATOM     46  C   UNL A   1      44.599  30.993  28.217  1.00  0.00     0.074 A 
ATOM     47  C   UNL A   1      43.547  31.906  28.605  1.00  0.00     0.031 C 
ATOM     48  C   UNL A   1      41.494  25.388  27.640  1.00  0.00     0.029 A 
ATOM     49  C   UNL A   1      42.911  25.649  27.407  1.00  0.00     0.049 A 
ATOM     50  H   UNL A   1      43.922  27.455  27.639  1.00  0.00     0.167 HD
ATOM     51  C   UNL A   1      45.893  31.353  28.041  1.00  0.00     0.037 A 
ATOM     52  C   UNL A   1      43.814  24.736  26.995  1.00  0.00     0.037 A 
ATOM     53  C   UNL A   1      46.941  30.432  27.687  1.00  0.00     0.049 A 
ATOM     54  C   UNL A   1      45.248  25.154  26.813  1.00  0.00     0.074 A 
ATOM     55  C   UNL A   1      48.297  30.680  27.552  1.00  0.00     0.029 A 
ATOM     56  N   UNL A   1      46.752  29.086  27.412  1.00  0.00    -0.354 N 
ATOM     57  N   UNL A   1      45.790  26.336  26.987  1.00  0.00    -0.248 NA
ATOM     58  C   UNL A   1      46.193  24.114  26.385  1.00  0.00     0.031 C 
ATOM     59  C   UNL A   1      48.919  29.492  27.151  1.00  0.00     0.029 A 
ATOM     60  C   UNL A   1      47.960  28.494  27.085  1.00  0.00     0.049 A 
ATOM     61  H   UNL A   1      45.885  28.619  27.445  1.00  0.00     0.167 HD
ATOM     62  C   UNL A   1      47.143  26.177  26.714  1.00  0.00     0.074 A 
ATOM     63  C   UNL A   1      47.339  24.783  26.371  1.00  0.00     0.031 C 
ATOM     64  C   UNL A   1      48.136  27.101  26.747  1.00  0.00     0.037 A 
BRANCH  51  65
ATOM     65  C   UNL A   1      46.239  32.807  28.226  1.00  0.00     0.058 A 
ATOM     66  C   UNL A   1      46.648  33.319  29.469  1.00  0.00     0.135 A 
ATOM     67  C   UNL A   1      46.158  33.703  27.148  1.00  0.00     0.135 A 
ATOM     68  F   UNL A   1      46.731  32.512  30.538  1.00  0.00    -0.206 F 
ATOM     69  C   UNL A   1      46.915  34.673  29.647  1.00  0.00     0.059 A 
ATOM     70  C   UNL A   1      46.451  35.057  27.296  1.00  0.00     0.059 A 
ATOM     71  F   UNL A   1      45.777  33.271  25.936  1.00  0.00    -0.206 F 
ATOM     72  C   UNL A   1      46.806  35.535  28.557  1.00  0.00     0.060 A 
BRANCH  72  73
ATOM     73  S   UNL A   1      47.125  37.295  28.808  1.00  0.00     0.124 S 
ATOM     74  O   UNL A   1      46.441  37.879  27.656  1.00  0.00    -0.237 OA
ATOM     75  O   UNL A   1      46.499  37.544  30.106  1.00  0.00    -0.237 OA
ATOM     76  O   UNL A   1      48.578  37.384  28.789  1.00  0.00    -0.744 OA
ENDBRANCH  72  73
ENDBRANCH  51  65
BRANCH  52  77
ATOM     77  C   UNL A   1      43.388  23.330  26.773  1.00  0.00     0.058 A 
ATOM     78  C   UNL A   1      43.366  22.784  25.481  1.00  0.00     0.135 A 
ATOM     79  C   UNL A   1      43.044  22.490  27.844  1.00  0.00     0.135 A 
ATOM     80  F   UNL A   1      43.679  23.549  24.425  1.00  0.00    -0.206 F 
ATOM     81  C   UNL A   1      43.017  21.456  25.257  1.00  0.00     0.059 A 
ATOM     82  C   UNL A   1      42.715  21.153  27.648  1.00  0.00     0.059 A 
ATOM     83  F   UNL A   1      43.066  22.961  29.101  1.00  0.00    -0.206 F 
ATOM     84  C   UNL A   1      42.701  20.645  26.348  1.00  0.00     0.060 A 
BRANCH  84  85
ATOM     85  S   UNL A   1      42.330  18.903  26.053  1.00  0.00     0.124 S 
ATOM     86  O   UNL A   1      43.243  18.589  24.959  1.00  0.00    -0.237 OA
ATOM     87  O   UNL A   1      42.648  18.299  27.343  1.00  0.00    -0.237 OA
ATOM     88  O   UNL A   1      40.913  18.915  25.707  1.00  0.00    -0.744 OA
ENDBRANCH  84  85
ENDBRANCH  52  77
BRANCH  64  89
ATOM     89  C   UNL A   1      49.529  26.632  26.429  1.00  0.00     0.058 A 
ATOM     90  C   UNL A   1      50.336  26.011  27.394  1.00  0.00     0.135 A 
ATOM     91  C   UNL A   1      50.040  26.759  25.127  1.00  0.00     0.135 A 
ATOM     92  F   UNL A   1      49.897  25.872  28.655  1.00  0.00    -0.206 F 
ATOM     93  C   UNL A   1      51.612  25.550  27.085  1.00  0.00     0.059 A 
ATOM     94  C   UNL A   1      51.302  26.281  24.790  1.00  0.00     0.059 A 
ATOM     95  F   UNL A   1      49.304  27.336  24.164  1.00  0.00    -0.206 F 
ATOM     96  C   UNL A   1      52.086  25.688  25.779  1.00  0.00     0.060 A 
BRANCH  96  97
ATOM     97  S   UNL A   1      53.729  25.054  25.383  1.00  0.00     0.124 S 
ATOM     98  O   UNL A   1      53.497  23.614  25.389  1.00  0.00    -0.237 OA
ATOM     99  O   UNL A   1      53.987  25.649  24.076  1.00  0.00    -0.237 OA
ATOM    100  O   UNL A   1      54.560  25.562  26.471  1.00  0.00    -0.744 OA
ENDBRANCH  96  97
ENDBRANCH  64  89
ENDBRANCH  38  39
ENDBRANCH  30  33
ENDBRANCH  28  29
ENDBRANCH   1  28
TORSDOF 17
ENDMDL
