MODEL 1
REMARK VINA RESULT:     -11.4      0.000      0.000
REMARK SMILES O=C(COc1ccc(-c2cc3cc(Br)ccc3oc2=O)cc1)NCCCNC(=O)c1ccc(-c2c3nc(c(-c4c(F)cc(S(=O)(=O)[O-])cc4F)c4ccc([nH]4)c(-c4c(F)cc(S(=O)(=O)[O-])cc4F)c4nc(c(-c5c(F)cc(S(=O)(=O)[O-])cc5F)c5ccc2[nH]5)C=C4)C=C3)cc1
REMARK SMILES IDX 25 1 24 2 23 3 1 4 2 5 3 7 4 8 5 9 6 10 22 11 7 12 21 13
REMARK SMILES IDX 8 14 9 15 10 16 19 17 11 18 18 19 20 20 12 21 17 22 13 23
REMARK SMILES IDX 16 24 14 25 15 26 26 27 27 28 28 29 29 31 30 32 31 33 95 34
REMARK SMILES IDX 32 35 94 36 33 37 34 38 35 39 88 40 36 41 93 42 87 43 89 44
REMARK SMILES IDX 37 45 92 46 86 47 85 48 38 50 72 51 51 52 71 53 52 54 55 55
REMARK SMILES IDX 70 56 90 57 53 58 54 59 69 61 91 62 56 63 39 64 40 65 49 66
REMARK SMILES IDX 41 67 42 68 48 69 50 70 43 71 44 72 45 73 46 74 47 75 73 76
REMARK SMILES IDX 74 77 83 78 75 79 76 80 82 81 84 82 77 83 78 84 79 85 80 86
REMARK SMILES IDX 81 87 57 88 58 89 67 90 59 91 60 92 66 93 68 94 61 95 62 96
REMARK SMILES IDX 63 97 64 98 65 99
REMARK H PARENT 23 6 27 30 89 49 55 60
REMARK Flexibility Score: inf
ROOT
ATOM      1  C   UNL A   1      40.586  20.174  26.374  1.00  0.00     0.042 C 
ENDROOT
BRANCH   1   2
ATOM      2  C   UNL A   1      41.777  19.618  27.141  1.00  0.00     0.117 C 
BRANCH   2   3
ATOM      3  N   UNL A   1      43.062  20.031  26.615  1.00  0.00    -0.353 N 
ATOM      4  O   UNL A   1      43.285  18.274  25.154  1.00  0.00    -0.271 OA
ATOM      5  C   UNL A   1      43.672  19.361  25.576  1.00  0.00     0.257 C 
ATOM      6  H   UNL A   1      43.511  20.812  27.009  1.00  0.00     0.163 HD
BRANCH   5   7
ATOM      7  C   UNL A   1      44.857  20.101  24.939  1.00  0.00     0.329 C 
BRANCH   7   8
ATOM      8  O   UNL A   1      44.578  21.043  23.909  1.00  0.00    -0.484 OA
BRANCH   8   9
ATOM      9  C   UNL A   1      44.576  22.367  24.253  1.00  0.00     0.120 A 
ATOM     10  C   UNL A   1      45.831  22.964  24.376  1.00  0.00     0.047 A 
ATOM     11  C   UNL A   1      43.447  23.109  24.579  1.00  0.00     0.047 A 
ATOM     12  C   UNL A   1      45.959  24.257  24.902  1.00  0.00     0.013 A 
ATOM     13  C   UNL A   1      43.573  24.401  25.094  1.00  0.00     0.013 A 
ATOM     14  C   UNL A   1      44.830  24.969  25.331  1.00  0.00    -0.011 A 
BRANCH  14  15
ATOM     15  C   UNL A   1      45.034  26.191  26.171  1.00  0.00     0.068 A 
ATOM     16  C   UNL A   1      46.130  26.434  26.932  1.00  0.00     0.028 A 
ATOM     17  C   UNL A   1      44.743  27.465  25.413  1.00  0.00     0.344 A 
ATOM     18  C   UNL A   1      47.322  26.705  26.096  1.00  0.00     0.019 A 
ATOM     19  O   UNL A   1      45.807  27.857  24.582  1.00  0.00    -0.422 OA
ATOM     20  O   UNL A   1      43.668  28.041  25.463  1.00  0.00    -0.246 OA
ATOM     21  C   UNL A   1      48.593  26.242  26.418  1.00  0.00     0.027 A 
ATOM     22  C   UNL A   1      47.093  27.338  24.864  1.00  0.00     0.138 A 
ATOM     23  C   UNL A   1      49.604  26.348  25.460  1.00  0.00     0.018 A 
ATOM     24  C   UNL A   1      48.091  27.434  23.905  1.00  0.00     0.049 A 
ATOM     25  Br  UNL A   1      51.324  25.665  25.850  1.00  0.00    -0.051 Br
ATOM     26  C   UNL A   1      49.353  26.915  24.203  1.00  0.00     0.019 A 
ENDBRANCH  14  15
ENDBRANCH   8   9
ENDBRANCH   7   8
ENDBRANCH   5   7
ENDBRANCH   2   3
ENDBRANCH   1   2
BRANCH   1  27
ATOM     27  C   UNL A   1      40.428  21.688  26.466  1.00  0.00     0.118 C 
BRANCH  27  28
ATOM     28  N   UNL A   1      39.244  22.186  25.781  1.00  0.00    -0.352 N 
ATOM     29  C   UNL A   1      38.605  23.402  25.878  1.00  0.00     0.251 C 
ATOM     30  H   UNL A   1      38.834  21.553  25.148  1.00  0.00     0.163 HD
ATOM     31  O   UNL A   1      37.540  23.561  25.292  1.00  0.00    -0.269 OA
BRANCH  29  32
ATOM     32  C   UNL A   1      39.172  24.498  26.698  1.00  0.00     0.039 A 
ATOM     33  C   UNL A   1      40.046  25.404  26.088  1.00  0.00     0.014 A 
ATOM     34  C   UNL A   1      38.877  24.633  28.057  1.00  0.00     0.014 A 
ATOM     35  C   UNL A   1      40.567  26.475  26.820  1.00  0.00     0.010 A 
ATOM     36  C   UNL A   1      39.332  25.744  28.765  1.00  0.00     0.010 A 
ATOM     37  C   UNL A   1      40.186  26.677  28.157  1.00  0.00    -0.014 A 
BRANCH  37  38
ATOM     38  C   UNL A   1      40.667  27.859  28.920  1.00  0.00     0.031 A 
ATOM     39  C   UNL A   1      42.060  27.886  29.493  1.00  0.00     0.074 A 
ATOM     40  C   UNL A   1      39.830  28.894  29.141  1.00  0.00     0.049 A 
ATOM     41  N   UNL A   1      42.640  28.816  30.209  1.00  0.00    -0.248 NA
ATOM     42  C   UNL A   1      42.902  26.704  29.253  1.00  0.00     0.031 C 
ATOM     43  C   UNL A   1      38.438  28.966  28.689  1.00  0.00     0.029 A 
ATOM     44  N   UNL A   1      40.024  30.080  29.803  1.00  0.00    -0.354 N 
ATOM     45  C   UNL A   1      43.907  28.328  30.511  1.00  0.00     0.074 A 
ATOM     46  C   UNL A   1      43.990  26.997  29.949  1.00  0.00     0.031 C 
ATOM     47  C   UNL A   1      37.915  30.145  29.062  1.00  0.00     0.029 A 
ATOM     48  C   UNL A   1      38.917  30.897  29.808  1.00  0.00     0.049 A 
ATOM     49  H   UNL A   1      40.875  30.324  30.234  1.00  0.00     0.167 HD
ATOM     50  C   UNL A   1      44.918  28.941  31.173  1.00  0.00     0.037 A 
ATOM     51  C   UNL A   1      38.729  32.115  30.355  1.00  0.00     0.037 A 
ATOM     52  C   UNL A   1      44.839  30.275  31.711  1.00  0.00     0.049 A 
ATOM     53  C   UNL A   1      39.868  32.780  31.078  1.00  0.00     0.074 A 
ATOM     54  C   UNL A   1      45.827  31.007  32.347  1.00  0.00     0.029 A 
ATOM     55  N   UNL A   1      43.708  31.079  31.678  1.00  0.00    -0.354 N 
ATOM     56  N   UNL A   1      41.082  32.330  31.294  1.00  0.00    -0.248 NA
ATOM     57  C   UNL A   1      39.617  34.120  31.625  1.00  0.00     0.031 C 
ATOM     58  C   UNL A   1      45.281  32.235  32.737  1.00  0.00     0.029 A 
ATOM     59  C   UNL A   1      43.969  32.290  32.299  1.00  0.00     0.049 A 
ATOM     60  H   UNL A   1      42.847  30.826  31.273  1.00  0.00     0.167 HD
ATOM     61  C   UNL A   1      41.746  33.344  31.976  1.00  0.00     0.074 A 
ATOM     62  C   UNL A   1      40.805  34.435  32.124  1.00  0.00     0.031 C 
ATOM     63  C   UNL A   1      43.022  33.370  32.436  1.00  0.00     0.037 A 
BRANCH  50  64
ATOM     64  C   UNL A   1      46.203  28.178  31.349  1.00  0.00     0.058 A 
ATOM     65  C   UNL A   1      47.205  28.185  30.364  1.00  0.00     0.135 A 
ATOM     66  C   UNL A   1      46.454  27.460  32.530  1.00  0.00     0.135 A 
ATOM     67  F   UNL A   1      47.013  28.842  29.209  1.00  0.00    -0.206 F 
ATOM     68  C   UNL A   1      48.395  27.485  30.530  1.00  0.00     0.059 A 
ATOM     69  C   UNL A   1      47.651  26.776  32.730  1.00  0.00     0.059 A 
ATOM     70  F   UNL A   1      45.533  27.420  33.506  1.00  0.00    -0.206 F 
ATOM     71  C   UNL A   1      48.608  26.782  31.717  1.00  0.00     0.060 A 
BRANCH  71  72
ATOM     72  S   UNL A   1      50.160  25.882  31.918  1.00  0.00     0.124 S 
ATOM     73  O   UNL A   1      51.066  26.954  32.324  1.00  0.00    -0.237 OA
ATOM     74  O   UNL A   1      49.827  24.910  32.952  1.00  0.00    -0.237 OA
ATOM     75  O   UNL A   1      50.405  25.324  30.591  1.00  0.00    -0.744 OA
ENDBRANCH  71  72
ENDBRANCH  50  64
BRANCH  51  76
ATOM     76  C   UNL A   1      37.415  32.798  30.213  1.00  0.00     0.058 A 
ATOM     77  C   UNL A   1      36.418  32.657  31.191  1.00  0.00     0.135 A 
ATOM     78  C   UNL A   1      37.132  33.613  29.106  1.00  0.00     0.135 A 
ATOM     79  F   UNL A   1      36.638  31.883  32.265  1.00  0.00    -0.206 F 
ATOM     80  C   UNL A   1      35.183  33.283  31.068  1.00  0.00     0.059 A 
ATOM     81  C   UNL A   1      35.914  34.271  28.975  1.00  0.00     0.059 A 
ATOM     82  F   UNL A   1      38.058  33.795  28.152  1.00  0.00    -0.206 F 
ATOM     83  C   UNL A   1      34.941  34.091  29.957  1.00  0.00     0.060 A 
BRANCH  83  84
ATOM     84  S   UNL A   1      33.350  34.937  29.831  1.00  0.00     0.124 S 
ATOM     85  O   UNL A   1      33.757  36.262  29.376  1.00  0.00    -0.237 OA
ATOM     86  O   UNL A   1      32.642  34.115  28.853  1.00  0.00    -0.237 OA
ATOM     87  O   UNL A   1      32.825  34.870  31.192  1.00  0.00    -0.744 OA
ENDBRANCH  83  84
ENDBRANCH  51  76
BRANCH  63  88
ATOM     88  C   UNL A   1      43.487  34.630  33.114  1.00  0.00     0.058 A 
ATOM     89  C   UNL A   1      44.024  35.706  32.390  1.00  0.00     0.135 A 
ATOM     90  C   UNL A   1      43.359  34.776  34.506  1.00  0.00     0.135 A 
ATOM     91  F   UNL A   1      44.174  35.616  31.058  1.00  0.00    -0.206 F 
ATOM     92  C   UNL A   1      44.446  36.870  33.024  1.00  0.00     0.059 A 
ATOM     93  C   UNL A   1      43.747  35.943  35.156  1.00  0.00     0.059 A 
ATOM     94  F   UNL A   1      42.842  33.783  35.246  1.00  0.00    -0.206 F 
ATOM     95  C   UNL A   1      44.304  36.979  34.409  1.00  0.00     0.060 A 
BRANCH  95  96
ATOM     96  S   UNL A   1      44.836  38.503  35.217  1.00  0.00     0.124 S 
ATOM     97  O   UNL A   1      46.256  38.531  34.884  1.00  0.00    -0.237 OA
ATOM     98  O   UNL A   1      44.010  39.511  34.560  1.00  0.00    -0.237 OA
ATOM     99  O   UNL A   1      44.526  38.268  36.624  1.00  0.00    -0.744 OA
ENDBRANCH  95  96
ENDBRANCH  63  88
ENDBRANCH  37  38
ENDBRANCH  29  32
ENDBRANCH  27  28
ENDBRANCH   1  27
TORSDOF 16
ENDMDL
MODEL 2
REMARK VINA RESULT:     -11.4      4.800     12.232
REMARK SMILES O=C(COc1ccc(-c2cc3cc(Br)ccc3oc2=O)cc1)NCCCNC(=O)c1ccc(-c2c3nc(c(-c4c(F)cc(S(=O)(=O)[O-])cc4F)c4ccc([nH]4)c(-c4c(F)cc(S(=O)(=O)[O-])cc4F)c4nc(c(-c5c(F)cc(S(=O)(=O)[O-])cc5F)c5ccc2[nH]5)C=C4)C=C3)cc1
REMARK SMILES IDX 25 1 24 2 23 3 1 4 2 5 3 7 4 8 5 9 6 10 22 11 7 12 21 13
REMARK SMILES IDX 8 14 9 15 10 16 19 17 11 18 18 19 20 20 12 21 17 22 13 23
REMARK SMILES IDX 16 24 14 25 15 26 26 27 27 28 28 29 29 31 30 32 31 33 95 34
REMARK SMILES IDX 32 35 94 36 33 37 34 38 35 39 88 40 36 41 93 42 87 43 89 44
REMARK SMILES IDX 37 45 92 46 86 47 85 48 38 50 72 51 51 52 71 53 52 54 55 55
REMARK SMILES IDX 70 56 90 57 53 58 54 59 69 61 91 62 56 63 39 64 40 65 49 66
REMARK SMILES IDX 41 67 42 68 48 69 50 70 43 71 44 72 45 73 46 74 47 75 73 76
REMARK SMILES IDX 74 77 83 78 75 79 76 80 82 81 84 82 77 83 78 84 79 85 80 86
REMARK SMILES IDX 81 87 57 88 58 89 67 90 59 91 60 92 66 93 68 94 61 95 62 96
REMARK SMILES IDX 63 97 64 98 65 99
REMARK H PARENT 23 6 27 30 89 49 55 60
REMARK Flexibility Score: inf
ROOT
ATOM      1  C   UNL A   1      35.997  33.923  29.946  1.00  0.00     0.042 C 
ENDROOT
BRANCH   1   2
ATOM      2  C   UNL A   1      36.142  33.451  28.506  1.00  0.00     0.117 C 
BRANCH   2   3
ATOM      3  N   UNL A   1      35.321  32.305  28.175  1.00  0.00    -0.353 N 
ATOM      4  O   UNL A   1      33.342  33.465  28.082  1.00  0.00    -0.271 OA
ATOM      5  C   UNL A   1      33.978  32.431  27.891  1.00  0.00     0.257 C 
ATOM      6  H   UNL A   1      35.733  31.412  28.152  1.00  0.00     0.163 HD
BRANCH   5   7
ATOM      7  C   UNL A   1      33.332  31.188  27.262  1.00  0.00     0.329 C 
BRANCH   7   8
ATOM      8  O   UNL A   1      34.104  29.994  27.202  1.00  0.00    -0.484 OA
BRANCH   8   9
ATOM      9  C   UNL A   1      33.427  28.815  27.049  1.00  0.00     0.120 A 
ATOM     10  C   UNL A   1      34.078  27.834  26.300  1.00  0.00     0.047 A 
ATOM     11  C   UNL A   1      32.131  28.572  27.488  1.00  0.00     0.047 A 
ATOM     12  C   UNL A   1      33.408  26.663  25.921  1.00  0.00     0.013 A 
ATOM     13  C   UNL A   1      31.466  27.401  27.119  1.00  0.00     0.013 A 
ATOM     14  C   UNL A   1      32.065  26.461  26.273  1.00  0.00    -0.011 A 
BRANCH  14  15
ATOM     15  C   UNL A   1      31.305  25.370  25.587  1.00  0.00     0.068 A 
ATOM     16  C   UNL A   1      31.860  24.411  24.805  1.00  0.00     0.028 A 
ATOM     17  C   UNL A   1      30.344  24.667  26.516  1.00  0.00     0.344 A 
ATOM     18  C   UNL A   1      32.670  23.462  25.603  1.00  0.00     0.019 A 
ATOM     19  O   UNL A   1      30.978  23.713  27.332  1.00  0.00    -0.422 OA
ATOM     20  O   UNL A   1      29.162  24.957  26.599  1.00  0.00    -0.246 OA
ATOM     21  C   UNL A   1      33.876  22.934  25.156  1.00  0.00     0.027 A 
ATOM     22  C   UNL A   1      32.237  23.220  26.917  1.00  0.00     0.138 A 
ATOM     23  C   UNL A   1      34.676  22.236  26.063  1.00  0.00     0.018 A 
ATOM     24  C   UNL A   1      33.034  22.537  27.825  1.00  0.00     0.049 A 
ATOM     25  Br  UNL A   1      36.351  21.567  25.495  1.00  0.00    -0.051 Br
ATOM     26  C   UNL A   1      34.274  22.058  27.394  1.00  0.00     0.019 A 
ENDBRANCH  14  15
ENDBRANCH   8   9
ENDBRANCH   7   8
ENDBRANCH   5   7
ENDBRANCH   2   3
ENDBRANCH   1   2
BRANCH   1  27
ATOM     27  C   UNL A   1      36.819  33.129  30.956  1.00  0.00     0.118 C 
BRANCH  27  28
ATOM     28  N   UNL A   1      36.208  31.861  31.326  1.00  0.00    -0.352 N 
ATOM     29  C   UNL A   1      36.656  30.572  31.151  1.00  0.00     0.251 C 
ATOM     30  H   UNL A   1      35.335  31.937  31.774  1.00  0.00     0.163 HD
ATOM     31  O   UNL A   1      35.911  29.640  31.434  1.00  0.00    -0.269 OA
BRANCH  29  32
ATOM     32  C   UNL A   1      38.007  30.301  30.601  1.00  0.00     0.039 A 
ATOM     33  C   UNL A   1      39.050  30.040  31.495  1.00  0.00     0.014 A 
ATOM     34  C   UNL A   1      38.264  30.326  29.228  1.00  0.00     0.014 A 
ATOM     35  C   UNL A   1      40.327  29.740  31.012  1.00  0.00     0.010 A 
ATOM     36  C   UNL A   1      39.516  29.949  28.744  1.00  0.00     0.010 A 
ATOM     37  C   UNL A   1      40.564  29.655  29.630  1.00  0.00    -0.014 A 
BRANCH  37  38
ATOM     38  C   UNL A   1      41.896  29.255  29.104  1.00  0.00     0.031 A 
ATOM     39  C   UNL A   1      43.014  30.260  29.003  1.00  0.00     0.074 A 
ATOM     40  C   UNL A   1      42.088  27.993  28.670  1.00  0.00     0.049 A 
ATOM     41  N   UNL A   1      44.229  30.100  28.544  1.00  0.00    -0.248 NA
ATOM     42  C   UNL A   1      42.719  31.631  29.451  1.00  0.00     0.031 C 
ATOM     43  C   UNL A   1      41.070  26.938  28.661  1.00  0.00     0.029 A 
ATOM     44  N   UNL A   1      43.201  27.381  28.150  1.00  0.00    -0.354 N 
ATOM     45  C   UNL A   1      44.839  31.346  28.639  1.00  0.00     0.074 A 
ATOM     46  C   UNL A   1      43.842  32.265  29.146  1.00  0.00     0.031 C 
ATOM     47  C   UNL A   1      41.614  25.806  28.187  1.00  0.00     0.029 A 
ATOM     48  C   UNL A   1      43.004  26.058  27.826  1.00  0.00     0.049 A 
ATOM     49  H   UNL A   1      44.059  27.844  28.020  1.00  0.00     0.167 HD
ATOM     50  C   UNL A   1      46.118  31.690  28.355  1.00  0.00     0.037 A 
ATOM     51  C   UNL A   1      43.848  25.150  27.295  1.00  0.00     0.037 A 
ATOM     52  C   UNL A   1      47.114  30.767  27.872  1.00  0.00     0.049 A 
ATOM     53  C   UNL A   1      45.266  25.553  26.996  1.00  0.00     0.074 A 
ATOM     54  C   UNL A   1      48.453  31.005  27.611  1.00  0.00     0.029 A 
ATOM     55  N   UNL A   1      46.882  29.431  27.577  1.00  0.00    -0.354 N 
ATOM     56  N   UNL A   1      45.844  26.719  27.158  1.00  0.00    -0.248 NA
ATOM     57  C   UNL A   1      46.151  24.514  26.451  1.00  0.00     0.031 C 
ATOM     58  C   UNL A   1      49.018  29.825  27.116  1.00  0.00     0.029 A 
ATOM     59  C   UNL A   1      48.047  28.838  27.117  1.00  0.00     0.049 A 
ATOM     60  H   UNL A   1      46.017  28.973  27.679  1.00  0.00     0.167 HD
ATOM     61  C   UNL A   1      47.165  26.547  26.761  1.00  0.00     0.074 A 
ATOM     62  C   UNL A   1      47.305  25.161  26.365  1.00  0.00     0.031 C 
ATOM     63  C   UNL A   1      48.173  27.455  26.730  1.00  0.00     0.037 A 
BRANCH  50  64
ATOM     64  C   UNL A   1      46.520  33.125  28.566  1.00  0.00     0.058 A 
ATOM     65  C   UNL A   1      47.022  33.577  29.798  1.00  0.00     0.135 A 
ATOM     66  C   UNL A   1      46.438  34.053  27.515  1.00  0.00     0.135 A 
ATOM     67  F   UNL A   1      47.109  32.737  30.841  1.00  0.00    -0.206 F 
ATOM     68  C   UNL A   1      47.399  34.901  29.989  1.00  0.00     0.059 A 
ATOM     69  C   UNL A   1      46.838  35.378  27.676  1.00  0.00     0.059 A 
ATOM     70  F   UNL A   1      45.967  33.677  26.316  1.00  0.00    -0.206 F 
ATOM     71  C   UNL A   1      47.302  35.795  28.922  1.00  0.00     0.060 A 
BRANCH  71  72
ATOM     72  S   UNL A   1      47.801  37.511  29.186  1.00  0.00     0.124 S 
ATOM     73  O   UNL A   1      46.551  38.106  29.651  1.00  0.00    -0.237 OA
ATOM     74  O   UNL A   1      48.851  37.380  30.189  1.00  0.00    -0.237 OA
ATOM     75  O   UNL A   1      48.247  37.943  27.865  1.00  0.00    -0.744 OA
ENDBRANCH  71  72
ENDBRANCH  50  64
BRANCH  51  76
ATOM     76  C   UNL A   1      43.380  23.762  27.041  1.00  0.00     0.058 A 
ATOM     77  C   UNL A   1      43.254  22.838  28.090  1.00  0.00     0.135 A 
ATOM     78  C   UNL A   1      43.037  23.332  25.749  1.00  0.00     0.135 A 
ATOM     79  F   UNL A   1      43.576  23.198  29.342  1.00  0.00    -0.206 F 
ATOM     80  C   UNL A   1      42.825  21.535  27.867  1.00  0.00     0.059 A 
ATOM     81  C   UNL A   1      42.579  22.042  25.505  1.00  0.00     0.059 A 
ATOM     82  F   UNL A   1      43.121  24.182  24.714  1.00  0.00    -0.206 F 
ATOM     83  C   UNL A   1      42.487  21.146  26.570  1.00  0.00     0.060 A 
BRANCH  83  84
ATOM     84  S   UNL A   1      41.886  19.465  26.298  1.00  0.00     0.124 S 
ATOM     85  O   UNL A   1      42.251  18.815  27.551  1.00  0.00    -0.237 OA
ATOM     86  O   UNL A   1      40.458  19.681  26.082  1.00  0.00    -0.237 OA
ATOM     87  O   UNL A   1      42.630  19.029  25.120  1.00  0.00    -0.744 OA
ENDBRANCH  83  84
ENDBRANCH  51  76
BRANCH  63  88
ATOM     88  C   UNL A   1      49.526  26.971  26.283  1.00  0.00     0.058 A 
ATOM     89  C   UNL A   1      50.451  26.422  27.185  1.00  0.00     0.135 A 
ATOM     90  C   UNL A   1      49.887  27.024  24.926  1.00  0.00     0.135 A 
ATOM     91  F   UNL A   1      50.159  26.352  28.494  1.00  0.00    -0.206 F 
ATOM     92  C   UNL A   1      51.698  25.971  26.763  1.00  0.00     0.059 A 
ATOM     93  C   UNL A   1      51.116  26.552  24.478  1.00  0.00     0.059 A 
ATOM     94  F   UNL A   1      49.036  27.529  24.019  1.00  0.00    -0.206 F 
ATOM     95  C   UNL A   1      52.021  26.041  25.407  1.00  0.00     0.060 A 
BRANCH  95  96
ATOM     96  S   UNL A   1      53.634  25.432  24.868  1.00  0.00     0.124 S 
ATOM     97  O   UNL A   1      54.529  26.121  25.791  1.00  0.00    -0.237 OA
ATOM     98  O   UNL A   1      53.507  23.991  25.063  1.00  0.00    -0.237 OA
ATOM     99  O   UNL A   1      53.713  25.865  23.476  1.00  0.00    -0.744 OA
ENDBRANCH  95  96
ENDBRANCH  63  88
ENDBRANCH  37  38
ENDBRANCH  29  32
ENDBRANCH  27  28
ENDBRANCH   1  27
TORSDOF 16
ENDMDL
MODEL 3
REMARK VINA RESULT:     -11.3      4.284      6.931
REMARK SMILES O=C(COc1ccc(-c2cc3cc(Br)ccc3oc2=O)cc1)NCCCNC(=O)c1ccc(-c2c3nc(c(-c4c(F)cc(S(=O)(=O)[O-])cc4F)c4ccc([nH]4)c(-c4c(F)cc(S(=O)(=O)[O-])cc4F)c4nc(c(-c5c(F)cc(S(=O)(=O)[O-])cc5F)c5ccc2[nH]5)C=C4)C=C3)cc1
REMARK SMILES IDX 25 1 24 2 23 3 1 4 2 5 3 7 4 8 5 9 6 10 22 11 7 12 21 13
REMARK SMILES IDX 8 14 9 15 10 16 19 17 11 18 18 19 20 20 12 21 17 22 13 23
REMARK SMILES IDX 16 24 14 25 15 26 26 27 27 28 28 29 29 31 30 32 31 33 95 34
REMARK SMILES IDX 32 35 94 36 33 37 34 38 35 39 88 40 36 41 93 42 87 43 89 44
REMARK SMILES IDX 37 45 92 46 86 47 85 48 38 50 72 51 51 52 71 53 52 54 55 55
REMARK SMILES IDX 70 56 90 57 53 58 54 59 69 61 91 62 56 63 39 64 40 65 49 66
REMARK SMILES IDX 41 67 42 68 48 69 50 70 43 71 44 72 45 73 46 74 47 75 73 76
REMARK SMILES IDX 74 77 83 78 75 79 76 80 82 81 84 82 77 83 78 84 79 85 80 86
REMARK SMILES IDX 81 87 57 88 58 89 67 90 59 91 60 92 66 93 68 94 61 95 62 96
REMARK SMILES IDX 63 97 64 98 65 99
REMARK H PARENT 23 6 27 30 89 49 55 60
REMARK Flexibility Score: inf
ROOT
ATOM      1  C   UNL A   1      44.158  22.638  26.832  1.00  0.00     0.042 C 
ENDROOT
BRANCH   1   2
ATOM      2  C   UNL A   1      43.835  21.584  25.783  1.00  0.00     0.117 C 
BRANCH   2   3
ATOM      3  N   UNL A   1      42.419  21.315  25.633  1.00  0.00    -0.353 N 
ATOM      4  O   UNL A   1      42.465  19.272  26.679  1.00  0.00    -0.271 OA
ATOM      5  C   UNL A   1      41.827  20.202  26.191  1.00  0.00     0.257 C 
ATOM      6  H   UNL A   1      41.865  21.945  25.120  1.00  0.00     0.163 HD
BRANCH   5   7
ATOM      7  C   UNL A   1      40.292  20.229  26.208  1.00  0.00     0.329 C 
BRANCH   7   8
ATOM      8  O   UNL A   1      39.652  21.391  26.722  1.00  0.00    -0.484 OA
BRANCH   8   9
ATOM      9  C   UNL A   1      38.709  21.990  25.931  1.00  0.00     0.120 A 
ATOM     10  C   UNL A   1      38.442  23.330  26.214  1.00  0.00     0.047 A 
ATOM     11  C   UNL A   1      37.949  21.346  24.962  1.00  0.00     0.047 A 
ATOM     12  C   UNL A   1      37.370  23.991  25.598  1.00  0.00     0.013 A 
ATOM     13  C   UNL A   1      36.886  22.006  24.341  1.00  0.00     0.013 A 
ATOM     14  C   UNL A   1      36.534  23.313  24.698  1.00  0.00    -0.011 A 
BRANCH  14  15
ATOM     15  C   UNL A   1      35.233  23.947  24.318  1.00  0.00     0.068 A 
ATOM     16  C   UNL A   1      34.298  23.377  23.519  1.00  0.00     0.028 A 
ATOM     17  C   UNL A   1      34.497  24.509  25.512  1.00  0.00     0.344 A 
ATOM     18  C   UNL A   1      33.642  22.227  24.185  1.00  0.00     0.019 A 
ATOM     19  O   UNL A   1      33.807  23.522  26.237  1.00  0.00    -0.422 OA
ATOM     20  O   UNL A   1      34.565  25.679  25.848  1.00  0.00    -0.246 OA
ATOM     21  C   UNL A   1      33.297  21.059  23.513  1.00  0.00     0.027 A 
ATOM     22  C   UNL A   1      33.509  22.304  25.581  1.00  0.00     0.138 A 
ATOM     23  C   UNL A   1      32.899  19.951  24.264  1.00  0.00     0.018 A 
ATOM     24  C   UNL A   1      33.126  21.202  26.331  1.00  0.00     0.049 A 
ATOM     25  Br  UNL A   1      32.489  18.332  23.377  1.00  0.00    -0.051 Br
ATOM     26  C   UNL A   1      32.837  20.009  25.663  1.00  0.00     0.019 A 
ENDBRANCH  14  15
ENDBRANCH   8   9
ENDBRANCH   7   8
ENDBRANCH   5   7
ENDBRANCH   2   3
ENDBRANCH   1   2
BRANCH   1  27
ATOM     27  C   UNL A   1      42.976  23.515  27.230  1.00  0.00     0.118 C 
BRANCH  27  28
ATOM     28  N   UNL A   1      42.385  24.230  26.108  1.00  0.00    -0.352 N 
ATOM     29  C   UNL A   1      41.676  25.409  26.078  1.00  0.00     0.251 C 
ATOM     30  H   UNL A   1      42.512  23.802  25.231  1.00  0.00     0.163 HD
ATOM     31  O   UNL A   1      41.161  25.765  25.024  1.00  0.00    -0.269 OA
BRANCH  29  32
ATOM     32  C   UNL A   1      41.507  26.229  27.301  1.00  0.00     0.039 A 
ATOM     33  C   UNL A   1      42.411  27.269  27.537  1.00  0.00     0.014 A 
ATOM     34  C   UNL A   1      40.491  25.976  28.226  1.00  0.00     0.014 A 
ATOM     35  C   UNL A   1      42.258  28.089  28.658  1.00  0.00     0.010 A 
ATOM     36  C   UNL A   1      40.290  26.841  29.300  1.00  0.00     0.010 A 
ATOM     37  C   UNL A   1      41.173  27.907  29.532  1.00  0.00    -0.014 A 
BRANCH  37  38
ATOM     38  C   UNL A   1      40.951  28.824  30.680  1.00  0.00     0.031 A 
ATOM     39  C   UNL A   1      41.784  28.703  31.931  1.00  0.00     0.074 A 
ATOM     40  C   UNL A   1      39.965  29.742  30.618  1.00  0.00     0.049 A 
ATOM     41  N   UNL A   1      41.713  29.394  33.040  1.00  0.00    -0.248 NA
ATOM     42  C   UNL A   1      42.811  27.650  31.947  1.00  0.00     0.031 C 
ATOM     43  C   UNL A   1      39.051  29.925  29.487  1.00  0.00     0.029 A 
ATOM     44  N   UNL A   1      39.561  30.690  31.524  1.00  0.00    -0.354 N 
ATOM     45  C   UNL A   1      42.677  28.855  33.886  1.00  0.00     0.074 A 
ATOM     46  C   UNL A   1      43.279  27.743  33.182  1.00  0.00     0.031 C 
ATOM     47  C   UNL A   1      38.214  30.939  29.757  1.00  0.00     0.029 A 
ATOM     48  C   UNL A   1      38.505  31.457  31.089  1.00  0.00     0.049 A 
ATOM     49  H   UNL A   1      39.985  30.809  32.404  1.00  0.00     0.167 HD
ATOM     50  C   UNL A   1      43.044  29.264  35.124  1.00  0.00     0.037 A 
ATOM     51  C   UNL A   1      37.843  32.463  31.694  1.00  0.00     0.037 A 
ATOM     52  C   UNL A   1      42.457  30.386  35.811  1.00  0.00     0.049 A 
ATOM     53  C   UNL A   1      38.275  32.906  33.066  1.00  0.00     0.074 A 
ATOM     54  C   UNL A   1      42.800  30.916  37.044  1.00  0.00     0.029 A 
ATOM     55  N   UNL A   1      41.405  31.152  35.328  1.00  0.00    -0.354 N 
ATOM     56  N   UNL A   1      39.235  32.428  33.822  1.00  0.00    -0.248 NA
ATOM     57  C   UNL A   1      37.541  34.029  33.664  1.00  0.00     0.031 C 
ATOM     58  C   UNL A   1      41.927  31.972  37.325  1.00  0.00     0.029 A 
ATOM     59  C   UNL A   1      41.074  32.136  36.246  1.00  0.00     0.049 A 
ATOM     60  H   UNL A   1      40.960  31.016  34.461  1.00  0.00     0.167 HD
ATOM     61  C   UNL A   1      39.237  33.210  34.972  1.00  0.00     0.074 A 
ATOM     62  C   UNL A   1      38.193  34.201  34.805  1.00  0.00     0.031 C 
ATOM     63  C   UNL A   1      40.034  33.118  36.066  1.00  0.00     0.037 A 
BRANCH  50  64
ATOM     64  C   UNL A   1      44.139  28.499  35.817  1.00  0.00     0.058 A 
ATOM     65  C   UNL A   1      43.857  27.426  36.678  1.00  0.00     0.135 A 
ATOM     66  C   UNL A   1      45.489  28.817  35.591  1.00  0.00     0.135 A 
ATOM     67  F   UNL A   1      42.585  27.087  36.942  1.00  0.00    -0.206 F 
ATOM     68  C   UNL A   1      44.870  26.715  37.312  1.00  0.00     0.059 A 
ATOM     69  C   UNL A   1      46.520  28.099  36.192  1.00  0.00     0.059 A 
ATOM     70  F   UNL A   1      45.817  29.832  34.776  1.00  0.00    -0.206 F 
ATOM     71  C   UNL A   1      46.199  27.060  37.064  1.00  0.00     0.060 A 
BRANCH  71  72
ATOM     72  S   UNL A   1      47.502  26.124  37.893  1.00  0.00     0.124 S 
ATOM     73  O   UNL A   1      46.803  24.884  38.221  1.00  0.00    -0.237 OA
ATOM     74  O   UNL A   1      48.522  26.021  36.855  1.00  0.00    -0.237 OA
ATOM     75  O   UNL A   1      47.854  26.966  39.033  1.00  0.00    -0.744 OA
ENDBRANCH  71  72
ENDBRANCH  50  64
BRANCH  51  76
ATOM     76  C   UNL A   1      36.721  33.142  30.993  1.00  0.00     0.058 A 
ATOM     77  C   UNL A   1      35.390  32.931  31.387  1.00  0.00     0.135 A 
ATOM     78  C   UNL A   1      36.953  34.022  29.925  1.00  0.00     0.135 A 
ATOM     79  F   UNL A   1      35.116  32.094  32.399  1.00  0.00    -0.206 F 
ATOM     80  C   UNL A   1      34.331  33.553  30.737  1.00  0.00     0.059 A 
ATOM     81  C   UNL A   1      35.911  34.677  29.277  1.00  0.00     0.059 A 
ATOM     82  F   UNL A   1      38.208  34.272  29.521  1.00  0.00    -0.206 F 
ATOM     83  C   UNL A   1      34.601  34.427  29.683  1.00  0.00     0.060 A 
BRANCH  83  84
ATOM     84  S   UNL A   1      33.220  35.265  28.876  1.00  0.00     0.124 S 
ATOM     85  O   UNL A   1      33.910  36.296  28.108  1.00  0.00    -0.237 OA
ATOM     86  O   UNL A   1      32.617  34.186  28.099  1.00  0.00    -0.237 OA
ATOM     87  O   UNL A   1      32.417  35.744  29.997  1.00  0.00    -0.744 OA
ENDBRANCH  83  84
ENDBRANCH  51  76
BRANCH  63  88
ATOM     88  C   UNL A   1      39.832  34.136  37.156  1.00  0.00     0.058 A 
ATOM     89  C   UNL A   1      39.040  33.866  38.283  1.00  0.00     0.135 A 
ATOM     90  C   UNL A   1      40.470  35.385  37.088  1.00  0.00     0.135 A 
ATOM     91  F   UNL A   1      38.403  32.689  38.395  1.00  0.00    -0.206 F 
ATOM     92  C   UNL A   1      38.862  34.810  39.289  1.00  0.00     0.059 A 
ATOM     93  C   UNL A   1      40.331  36.332  38.097  1.00  0.00     0.059 A 
ATOM     94  F   UNL A   1      41.249  35.691  36.038  1.00  0.00    -0.206 F 
ATOM     95  C   UNL A   1      39.512  36.041  39.187  1.00  0.00     0.060 A 
BRANCH  95  96
ATOM     96  S   UNL A   1      39.291  37.250  40.510  1.00  0.00     0.124 S 
ATOM     97  O   UNL A   1      40.610  37.870  40.564  1.00  0.00    -0.237 OA
ATOM     98  O   UNL A   1      38.215  38.089  39.992  1.00  0.00    -0.237 OA
ATOM     99  O   UNL A   1      38.935  36.429  41.664  1.00  0.00    -0.744 OA
ENDBRANCH  95  96
ENDBRANCH  63  88
ENDBRANCH  37  38
ENDBRANCH  29  32
ENDBRANCH  27  28
ENDBRANCH   1  27
TORSDOF 16
ENDMDL
