MODEL 1
REMARK VINA RESULT:     -10.8      0.000      0.000
REMARK SMILES C[NH+]1CCN(c2nc3c(cc2F)c(=O)c(C(=O)NCCCNC(=O)c2ccc(-c4c5nc(c(-c6c(F)cc(S(=O)(=O)[O-])cc6F)c6ccc([nH]6)c(-c6c(F)cc(S(=O)(=O)[O-])cc6F)c6nc(c(-c7c(F)cc(S(=O)(=O)[O-])cc7F)c7ccc4[nH]7)C=C6)C=C5)cc2)cn3-c2ccc(F)cc2F)CC1
REMARK SMILES IDX 21 1 20 2 19 3 18 4 16 5 17 6 15 8 6 9 7 10 11 11 8 12 10 13
REMARK SMILES IDX 12 14 9 15 92 16 13 17 91 18 14 19 5 20 1 21 2 22 3 23
REMARK SMILES IDX 102 24 4 26 101 27 93 28 94 29 99 30 95 31 98 32 100 33
REMARK SMILES IDX 96 34 97 35 22 36 23 37 24 39 25 40 26 41 90 42 27 43 89 44
REMARK SMILES IDX 28 45 29 46 30 47 83 48 31 49 88 50 82 51 84 52 32 53 87 54
REMARK SMILES IDX 81 55 80 56 33 58 67 59 46 60 66 61 47 62 50 63 65 64 85 65
REMARK SMILES IDX 48 66 49 67 64 69 86 70 51 71 34 72 35 73 44 74 36 75 37 76
REMARK SMILES IDX 43 77 45 78 38 79 39 80 40 81 41 82 42 83 68 84 69 85 78 86
REMARK SMILES IDX 70 87 71 88 77 89 79 90 72 91 73 92 74 93 75 94 76 95 52 96
REMARK SMILES IDX 53 97 62 98 54 99 55 100 61 101 63 102 56 103 57 104 58 105
REMARK SMILES IDX 59 106 60 107
REMARK H PARENT 18 7 2 25 22 38 84 57 50 68
REMARK Flexibility Score: inf
ROOT
ATOM      1  C   UNL A   1      34.610  32.533  28.294  1.00  0.00     0.118 C 
ENDROOT
BRANCH   1   2
ATOM      2  C   UNL A   1      34.423  33.098  29.693  1.00  0.00     0.042 C 
BRANCH   2   3
ATOM      3  C   UNL A   1      35.461  34.158  30.060  1.00  0.00     0.118 C 
BRANCH   3   4
ATOM      4  N   UNL A   1      35.065  34.899  31.247  1.00  0.00    -0.352 N 
ATOM      5  C   UNL A   1      35.464  34.830  32.543  1.00  0.00     0.256 C 
ATOM      6  O   UNL A   1      34.946  35.643  33.316  1.00  0.00    -0.269 OA
ATOM      7  H   UNL A   1      34.376  35.581  31.077  1.00  0.00     0.163 HD
BRANCH   5   8
ATOM      8  C   UNL A   1      36.527  33.909  33.033  1.00  0.00     0.104 A 
ATOM      9  C   UNL A   1      40.216  30.541  33.970  1.00  0.00     0.167 A 
ATOM     10  N   UNL A   1      39.975  31.811  34.382  1.00  0.00    -0.209 NA
ATOM     11  C   UNL A   1      39.321  29.875  33.128  1.00  0.00     0.166 A 
ATOM     12  C   UNL A   1      38.854  32.454  33.964  1.00  0.00     0.151 A 
ATOM     13  C   UNL A   1      38.144  30.488  32.751  1.00  0.00     0.059 A 
ATOM     14  F   UNL A   1      39.558  28.620  32.718  1.00  0.00    -0.203 F 
ATOM     15  C   UNL A   1      37.907  31.791  33.185  1.00  0.00     0.069 A 
ATOM     16  N   UNL A   1      38.621  33.825  34.313  1.00  0.00    -0.297 N 
ATOM     17  C   UNL A   1      36.632  32.445  32.863  1.00  0.00     0.203 A 
ATOM     18  C   UNL A   1      37.502  34.461  33.779  1.00  0.00     0.111 A 
ATOM     19  O   UNL A   1      35.708  31.729  32.504  1.00  0.00    -0.288 OA
BRANCH   9  20
ATOM     20  N   UNL A   1      41.356  29.939  34.434  1.00  0.00    -0.343 N 
ATOM     21  C   UNL A   1      43.251  26.207  35.170  1.00  0.00     0.332 C 
ATOM     22  N   UNL A   1      42.973  27.640  35.097  1.00  0.00    -0.334 N 
ATOM     23  C   UNL A   1      41.760  27.981  35.881  1.00  0.00     0.283 C 
ATOM     24  C   UNL A   1      42.766  28.051  33.689  1.00  0.00     0.283 C 
ATOM     25  H   UNL A   1      43.776  28.135  35.486  1.00  0.00     0.347 HD
ATOM     26  C   UNL A   1      41.411  29.492  35.823  1.00  0.00     0.179 C 
ATOM     27  C   UNL A   1      42.455  29.556  33.558  1.00  0.00     0.179 C 
ENDBRANCH   9  20
BRANCH  16  28
ATOM     28  C   UNL A   1      39.529  34.567  35.127  1.00  0.00     0.083 A 
ATOM     29  C   UNL A   1      40.633  35.223  34.556  1.00  0.00     0.033 A 
ATOM     30  C   UNL A   1      39.346  34.667  36.517  1.00  0.00     0.150 A 
ATOM     31  C   UNL A   1      41.517  35.954  35.354  1.00  0.00     0.041 A 
ATOM     32  C   UNL A   1      40.229  35.380  37.320  1.00  0.00     0.080 A 
ATOM     33  F   UNL A   1      38.311  34.047  37.104  1.00  0.00    -0.205 F 
ATOM     34  C   UNL A   1      41.307  36.020  36.728  1.00  0.00     0.126 A 
ATOM     35  F   UNL A   1      42.163  36.714  37.490  1.00  0.00    -0.207 F 
ENDBRANCH  16  28
ENDBRANCH   5   8
ENDBRANCH   3   4
ENDBRANCH   2   3
ENDBRANCH   1   2
BRANCH   1  36
ATOM     36  N   UNL A   1      33.917  31.264  28.126  1.00  0.00    -0.352 N 
ATOM     37  C   UNL A   1      34.448  30.007  27.972  1.00  0.00     0.251 C 
ATOM     38  H   UNL A   1      32.934  31.313  28.124  1.00  0.00     0.163 HD
ATOM     39  O   UNL A   1      33.731  29.081  27.602  1.00  0.00    -0.269 OA
BRANCH  37  40
ATOM     40  C   UNL A   1      35.884  29.777  28.242  1.00  0.00     0.039 A 
ATOM     41  C   UNL A   1      36.279  29.343  29.508  1.00  0.00     0.014 A 
ATOM     42  C   UNL A   1      36.838  30.008  27.245  1.00  0.00     0.014 A 
ATOM     43  C   UNL A   1      37.629  29.098  29.763  1.00  0.00     0.010 A 
ATOM     44  C   UNL A   1      38.173  29.694  27.477  1.00  0.00     0.010 A 
ATOM     45  C   UNL A   1      38.584  29.258  28.745  1.00  0.00    -0.014 A 
BRANCH  45  46
ATOM     46  C   UNL A   1      40.025  29.044  29.016  1.00  0.00     0.031 A 
ATOM     47  C   UNL A   1      40.642  27.706  28.713  1.00  0.00     0.074 A 
ATOM     48  C   UNL A   1      40.768  30.037  29.542  1.00  0.00     0.049 A 
ATOM     49  N   UNL A   1      41.885  27.323  28.847  1.00  0.00    -0.248 NA
ATOM     50  C   UNL A   1      39.742  26.655  28.210  1.00  0.00     0.031 C 
ATOM     51  C   UNL A   1      40.264  31.361  29.916  1.00  0.00     0.029 A 
ATOM     52  N   UNL A   1      42.104  30.091  29.849  1.00  0.00    -0.354 N 
ATOM     53  C   UNL A   1      41.915  25.997  28.433  1.00  0.00     0.074 A 
ATOM     54  C   UNL A   1      40.558  25.616  28.118  1.00  0.00     0.031 C 
ATOM     55  C   UNL A   1      41.286  32.105  30.372  1.00  0.00     0.029 A 
ATOM     56  C   UNL A   1      42.510  31.308  30.343  1.00  0.00     0.049 A 
ATOM     57  H   UNL A   1      42.715  29.329  29.727  1.00  0.00     0.167 HD
ATOM     58  C   UNL A   1      42.986  25.182  28.289  1.00  0.00     0.037 A 
ATOM     59  C   UNL A   1      43.733  31.734  30.717  1.00  0.00     0.037 A 
ATOM     60  C   UNL A   1      44.335  25.576  28.584  1.00  0.00     0.049 A 
ATOM     61  C   UNL A   1      44.904  30.796  30.588  1.00  0.00     0.074 A 
ATOM     62  C   UNL A   1      45.498  24.846  28.422  1.00  0.00     0.029 A 
ATOM     63  N   UNL A   1      44.702  26.808  29.106  1.00  0.00    -0.354 N 
ATOM     64  N   UNL A   1      44.928  29.571  30.117  1.00  0.00    -0.248 NA
ATOM     65  C   UNL A   1      46.213  31.292  31.039  1.00  0.00     0.031 C 
ATOM     66  C   UNL A   1      46.564  25.621  28.885  1.00  0.00     0.029 A 
ATOM     67  C   UNL A   1      46.071  26.849  29.300  1.00  0.00     0.049 A 
ATOM     68  H   UNL A   1      44.080  27.544  29.309  1.00  0.00     0.167 HD
ATOM     69  C   UNL A   1      46.253  29.157  30.198  1.00  0.00     0.074 A 
ATOM     70  C   UNL A   1      47.003  30.266  30.752  1.00  0.00     0.031 C 
ATOM     71  C   UNL A   1      46.798  27.966  29.849  1.00  0.00     0.037 A 
BRANCH  58  72
ATOM     72  C   UNL A   1      42.740  23.798  27.760  1.00  0.00     0.058 A 
ATOM     73  C   UNL A   1      42.678  23.548  26.379  1.00  0.00     0.135 A 
ATOM     74  C   UNL A   1      42.606  22.706  28.631  1.00  0.00     0.135 A 
ATOM     75  F   UNL A   1      42.783  24.560  25.504  1.00  0.00    -0.206 F 
ATOM     76  C   UNL A   1      42.465  22.268  25.881  1.00  0.00     0.059 A 
ATOM     77  C   UNL A   1      42.418  21.412  28.153  1.00  0.00     0.059 A 
ATOM     78  F   UNL A   1      42.655  22.891  29.959  1.00  0.00    -0.206 F 
ATOM     79  C   UNL A   1      42.338  21.206  26.776  1.00  0.00     0.060 A 
BRANCH  79  80
ATOM     80  S   UNL A   1      42.073  19.550  26.108  1.00  0.00     0.124 S 
ATOM     81  O   UNL A   1      40.640  19.573  25.830  1.00  0.00    -0.237 OA
ATOM     82  O   UNL A   1      42.945  19.545  24.938  1.00  0.00    -0.237 OA
ATOM     83  O   UNL A   1      42.486  18.671  27.198  1.00  0.00    -0.744 OA
ENDBRANCH  79  80
ENDBRANCH  58  72
BRANCH  59  84
ATOM     84  C   UNL A   1      43.918  33.125  31.208  1.00  0.00     0.058 A 
ATOM     85  C   UNL A   1      43.881  33.412  32.581  1.00  0.00     0.135 A 
ATOM     86  C   UNL A   1      44.157  34.189  30.326  1.00  0.00     0.135 A 
ATOM     87  F   UNL A   1      43.648  32.430  33.465  1.00  0.00    -0.206 F 
ATOM     88  C   UNL A   1      44.067  34.705  33.063  1.00  0.00     0.059 A 
ATOM     89  C   UNL A   1      44.366  35.487  30.784  1.00  0.00     0.059 A 
ATOM     90  F   UNL A   1      44.214  33.967  29.004  1.00  0.00    -0.206 F 
ATOM     91  C   UNL A   1      44.314  35.736  32.155  1.00  0.00     0.060 A 
BRANCH  91  92
ATOM     92  S   UNL A   1      44.604  37.399  32.797  1.00  0.00     0.124 S 
ATOM     93  O   UNL A   1      43.258  37.805  33.184  1.00  0.00    -0.237 OA
ATOM     94  O   UNL A   1      45.534  37.145  33.893  1.00  0.00    -0.237 OA
ATOM     95  O   UNL A   1      45.173  38.107  31.655  1.00  0.00    -0.744 OA
ENDBRANCH  91  92
ENDBRANCH  59  84
BRANCH  71  96
ATOM     96  C   UNL A   1      48.274  27.780  30.052  1.00  0.00     0.058 A 
ATOM     97  C   UNL A   1      48.784  27.333  31.281  1.00  0.00     0.135 A 
ATOM     98  C   UNL A   1      49.167  27.914  28.977  1.00  0.00     0.135 A 
ATOM     99  F   UNL A   1      47.972  27.197  32.341  1.00  0.00    -0.206 F 
ATOM    100  C   UNL A   1      50.129  27.012  31.431  1.00  0.00     0.059 A 
ATOM    101  C   UNL A   1      50.510  27.576  29.099  1.00  0.00     0.059 A 
ATOM    102  F   UNL A   1      48.724  28.330  27.779  1.00  0.00    -0.206 F 
ATOM    103  C   UNL A   1      50.980  27.121  30.330  1.00  0.00     0.060 A 
BRANCH 103 104
ATOM    104  S   UNL A   1      52.699  26.601  30.519  1.00  0.00     0.124 S 
ATOM    105  O   UNL A   1      52.559  25.415  31.357  1.00  0.00    -0.237 OA
ATOM    106  O   UNL A   1      53.102  26.358  29.137  1.00  0.00    -0.237 OA
ATOM    107  O   UNL A   1      53.335  27.749  31.158  1.00  0.00    -0.744 OA
ENDBRANCH 103 104
ENDBRANCH  71  96
ENDBRANCH  45  46
ENDBRANCH  37  40
ENDBRANCH   1  36
TORSDOF 15
ENDMDL
MODEL 2
REMARK VINA RESULT:     -10.3      0.690      7.845
REMARK SMILES C[NH+]1CCN(c2nc3c(cc2F)c(=O)c(C(=O)NCCCNC(=O)c2ccc(-c4c5nc(c(-c6c(F)cc(S(=O)(=O)[O-])cc6F)c6ccc([nH]6)c(-c6c(F)cc(S(=O)(=O)[O-])cc6F)c6nc(c(-c7c(F)cc(S(=O)(=O)[O-])cc7F)c7ccc4[nH]7)C=C6)C=C5)cc2)cn3-c2ccc(F)cc2F)CC1
REMARK SMILES IDX 21 1 20 2 19 3 18 4 16 5 17 6 15 8 6 9 7 10 11 11 8 12 10 13
REMARK SMILES IDX 12 14 9 15 92 16 13 17 91 18 14 19 5 20 1 21 2 22 3 23
REMARK SMILES IDX 102 24 4 26 101 27 93 28 94 29 99 30 95 31 98 32 100 33
REMARK SMILES IDX 96 34 97 35 22 36 23 37 24 39 25 40 26 41 90 42 27 43 89 44
REMARK SMILES IDX 28 45 29 46 30 47 83 48 31 49 88 50 82 51 84 52 32 53 87 54
REMARK SMILES IDX 81 55 80 56 33 58 67 59 46 60 66 61 47 62 50 63 65 64 85 65
REMARK SMILES IDX 48 66 49 67 64 69 86 70 51 71 34 72 35 73 44 74 36 75 37 76
REMARK SMILES IDX 43 77 45 78 38 79 39 80 40 81 41 82 42 83 68 84 69 85 78 86
REMARK SMILES IDX 70 87 71 88 77 89 79 90 72 91 73 92 74 93 75 94 76 95 52 96
REMARK SMILES IDX 53 97 62 98 54 99 55 100 61 101 63 102 56 103 57 104 58 105
REMARK SMILES IDX 59 106 60 107
REMARK H PARENT 18 7 2 25 22 38 84 57 50 68
REMARK Flexibility Score: inf
ROOT
ATOM      1  C   UNL A   1      35.056  32.697  28.670  1.00  0.00     0.118 C 
ENDROOT
BRANCH   1   2
ATOM      2  C   UNL A   1      34.624  33.394  29.950  1.00  0.00     0.042 C 
BRANCH   2   3
ATOM      3  C   UNL A   1      35.648  34.405  30.463  1.00  0.00     0.118 C 
BRANCH   3   4
ATOM      4  N   UNL A   1      35.217  35.008  31.713  1.00  0.00    -0.352 N 
ATOM      5  C   UNL A   1      35.569  34.783  33.006  1.00  0.00     0.256 C 
ATOM      6  O   UNL A   1      35.032  35.508  33.851  1.00  0.00    -0.269 OA
ATOM      7  H   UNL A   1      34.541  35.715  31.602  1.00  0.00     0.163 HD
BRANCH   5   8
ATOM      8  C   UNL A   1      36.605  33.797  33.421  1.00  0.00     0.104 A 
ATOM      9  C   UNL A   1      40.207  30.274  34.085  1.00  0.00     0.167 A 
ATOM     10  N   UNL A   1      39.988  31.506  34.610  1.00  0.00    -0.209 NA
ATOM     11  C   UNL A   1      39.310  29.709  33.175  1.00  0.00     0.166 A 
ATOM     12  C   UNL A   1      38.887  32.210  34.240  1.00  0.00     0.151 A 
ATOM     13  C   UNL A   1      38.152  30.380  32.842  1.00  0.00     0.059 A 
ATOM     14  F   UNL A   1      39.526  28.491  32.653  1.00  0.00    -0.203 F 
ATOM     15  C   UNL A   1      37.937  31.643  33.392  1.00  0.00     0.069 A 
ATOM     16  N   UNL A   1      38.679  33.547  34.712  1.00  0.00    -0.297 N 
ATOM     17  C   UNL A   1      36.681  32.352  33.118  1.00  0.00     0.203 A 
ATOM     18  C   UNL A   1      37.582  34.255  34.226  1.00  0.00     0.111 A 
ATOM     19  O   UNL A   1      35.747  31.694  32.683  1.00  0.00    -0.288 OA
BRANCH   9  20
ATOM     20  N   UNL A   1      41.327  29.606  34.505  1.00  0.00    -0.343 N 
ATOM     21  C   UNL A   1      42.868  25.828  35.694  1.00  0.00     0.332 C 
ATOM     22  N   UNL A   1      42.750  27.251  35.382  1.00  0.00    -0.334 N 
ATOM     23  C   UNL A   1      41.720  27.892  36.237  1.00  0.00     0.283 C 
ATOM     24  C   UNL A   1      42.379  27.436  33.960  1.00  0.00     0.283 C 
ATOM     25  H   UNL A   1      43.655  27.686  35.561  1.00  0.00     0.347 HD
ATOM     26  C   UNL A   1      41.543  29.403  35.935  1.00  0.00     0.179 C 
ATOM     27  C   UNL A   1      42.227  28.923  33.584  1.00  0.00     0.179 C 
ENDBRANCH   9  20
BRANCH  16  28
ATOM     28  C   UNL A   1      39.592  34.190  35.601  1.00  0.00     0.083 A 
ATOM     29  C   UNL A   1      40.562  35.083  35.113  1.00  0.00     0.033 A 
ATOM     30  C   UNL A   1      39.547  33.955  36.986  1.00  0.00     0.150 A 
ATOM     31  C   UNL A   1      41.450  35.716  35.986  1.00  0.00     0.041 A 
ATOM     32  C   UNL A   1      40.437  34.570  37.861  1.00  0.00     0.080 A 
ATOM     33  F   UNL A   1      38.643  33.103  37.493  1.00  0.00    -0.205 F 
ATOM     34  C   UNL A   1      41.380  35.448  37.350  1.00  0.00     0.126 A 
ATOM     35  F   UNL A   1      42.240  36.050  38.182  1.00  0.00    -0.207 F 
ENDBRANCH  16  28
ENDBRANCH   5   8
ENDBRANCH   3   4
ENDBRANCH   2   3
ENDBRANCH   1   2
BRANCH   1  36
ATOM     36  N   UNL A   1      34.270  31.499  28.414  1.00  0.00    -0.352 N 
ATOM     37  C   UNL A   1      34.705  30.225  28.143  1.00  0.00     0.251 C 
ATOM     38  H   UNL A   1      33.293  31.618  28.440  1.00  0.00     0.163 HD
ATOM     39  O   UNL A   1      33.916  29.387  27.714  1.00  0.00    -0.269 OA
BRANCH  37  40
ATOM     40  C   UNL A   1      36.125  29.872  28.358  1.00  0.00     0.039 A 
ATOM     41  C   UNL A   1      36.521  29.362  29.595  1.00  0.00     0.014 A 
ATOM     42  C   UNL A   1      37.064  30.062  27.339  1.00  0.00     0.014 A 
ATOM     43  C   UNL A   1      37.855  29.001  29.797  1.00  0.00     0.010 A 
ATOM     44  C   UNL A   1      38.376  29.634  27.517  1.00  0.00     0.010 A 
ATOM     45  C   UNL A   1      38.788  29.121  28.755  1.00  0.00    -0.014 A 
BRANCH  45  46
ATOM     46  C   UNL A   1      40.215  28.783  28.972  1.00  0.00     0.031 A 
ATOM     47  C   UNL A   1      41.126  29.799  29.605  1.00  0.00     0.074 A 
ATOM     48  C   UNL A   1      40.689  27.581  28.592  1.00  0.00     0.049 A 
ATOM     49  N   UNL A   1      42.393  29.693  29.909  1.00  0.00    -0.248 NA
ATOM     50  C   UNL A   1      40.541  31.113  29.922  1.00  0.00     0.031 C 
ATOM     51  C   UNL A   1      39.906  26.536  27.929  1.00  0.00     0.029 A 
ATOM     52  N   UNL A   1      41.941  27.033  28.711  1.00  0.00    -0.354 N 
ATOM     53  C   UNL A   1      42.749  30.917  30.462  1.00  0.00     0.074 A 
ATOM     54  C   UNL A   1      41.590  31.776  30.383  1.00  0.00     0.031 C 
ATOM     55  C   UNL A   1      40.689  25.462  27.730  1.00  0.00     0.029 A 
ATOM     56  C   UNL A   1      42.031  25.749  28.230  1.00  0.00     0.049 A 
ATOM     57  H   UNL A   1      42.704  27.515  29.104  1.00  0.00     0.167 HD
ATOM     58  C   UNL A   1      43.925  31.278  31.026  1.00  0.00     0.037 A 
ATOM     59  C   UNL A   1      43.076  24.897  28.208  1.00  0.00     0.037 A 
ATOM     60  C   UNL A   1      45.065  30.409  31.121  1.00  0.00     0.049 A 
ATOM     61  C   UNL A   1      44.388  25.335  28.802  1.00  0.00     0.074 A 
ATOM     62  C   UNL A   1      46.287  30.657  31.720  1.00  0.00     0.029 A 
ATOM     63  N   UNL A   1      45.126  29.125  30.600  1.00  0.00    -0.354 N 
ATOM     64  N   UNL A   1      44.685  26.467  29.396  1.00  0.00    -0.248 NA
ATOM     65  C   UNL A   1      45.508  24.385  28.726  1.00  0.00     0.031 C 
ATOM     66  C   UNL A   1      47.100  29.538  31.524  1.00  0.00     0.029 A 
ATOM     67  C   UNL A   1      46.374  28.578  30.837  1.00  0.00     0.049 A 
ATOM     68  H   UNL A   1      44.389  28.670  30.130  1.00  0.00     0.167 HD
ATOM     69  C   UNL A   1      46.018  26.360  29.779  1.00  0.00     0.074 A 
ATOM     70  C   UNL A   1      46.467  25.047  29.361  1.00  0.00     0.031 C 
ATOM     71  C   UNL A   1      46.798  27.266  30.416  1.00  0.00     0.037 A 
BRANCH  58  72
ATOM     72  C   UNL A   1      44.023  32.659  31.609  1.00  0.00     0.058 A 
ATOM     73  C   UNL A   1      44.378  33.760  30.813  1.00  0.00     0.135 A 
ATOM     74  C   UNL A   1      43.724  32.894  32.960  1.00  0.00     0.135 A 
ATOM     75  F   UNL A   1      44.690  33.586  29.519  1.00  0.00    -0.206 F 
ATOM     76  C   UNL A   1      44.457  35.043  31.341  1.00  0.00     0.059 A 
ATOM     77  C   UNL A   1      43.771  34.175  33.504  1.00  0.00     0.059 A 
ATOM     78  F   UNL A   1      43.383  31.876  33.764  1.00  0.00    -0.206 F 
ATOM     79  C   UNL A   1      44.150  35.241  32.688  1.00  0.00     0.060 A 
BRANCH  79  80
ATOM     80  S   UNL A   1      44.249  36.917  33.351  1.00  0.00     0.124 S 
ATOM     81  O   UNL A   1      43.023  37.511  32.827  1.00  0.00    -0.237 OA
ATOM     82  O   UNL A   1      44.272  36.680  34.791  1.00  0.00    -0.237 OA
ATOM     83  O   UNL A   1      45.489  37.437  32.784  1.00  0.00    -0.744 OA
ENDBRANCH  79  80
ENDBRANCH  58  72
BRANCH  59  84
ATOM     84  C   UNL A   1      42.910  23.533  27.640  1.00  0.00     0.058 A 
ATOM     85  C   UNL A   1      42.498  22.463  28.450  1.00  0.00     0.135 A 
ATOM     86  C   UNL A   1      43.136  23.271  26.280  1.00  0.00     0.135 A 
ATOM     87  F   UNL A   1      42.277  22.661  29.759  1.00  0.00    -0.206 F 
ATOM     88  C   UNL A   1      42.323  21.182  27.935  1.00  0.00     0.059 A 
ATOM     89  C   UNL A   1      42.949  22.003  25.737  1.00  0.00     0.059 A 
ATOM     90  F   UNL A   1      43.520  24.261  25.460  1.00  0.00    -0.206 F 
ATOM     91  C   UNL A   1      42.547  20.963  26.575  1.00  0.00     0.060 A 
BRANCH  91  92
ATOM     92  S   UNL A   1      42.266  19.307  25.910  1.00  0.00     0.124 S 
ATOM     93  O   UNL A   1      42.780  18.467  26.985  1.00  0.00    -0.237 OA
ATOM     94  O   UNL A   1      40.818  19.294  25.726  1.00  0.00    -0.237 OA
ATOM     95  O   UNL A   1      43.046  19.302  24.677  1.00  0.00    -0.744 OA
ENDBRANCH  91  92
ENDBRANCH  59  84
BRANCH  71  96
ATOM     96  C   UNL A   1      48.223  26.890  30.704  1.00  0.00     0.058 A 
ATOM     97  C   UNL A   1      49.256  27.240  29.822  1.00  0.00     0.135 A 
ATOM     98  C   UNL A   1      48.574  26.303  31.930  1.00  0.00     0.135 A 
ATOM     99  F   UNL A   1      48.971  27.796  28.633  1.00  0.00    -0.206 F 
ATOM    100  C   UNL A   1      50.591  27.033  30.152  1.00  0.00     0.059 A 
ATOM    101  C   UNL A   1      49.902  26.107  32.291  1.00  0.00     0.059 A 
ATOM    102  F   UNL A   1      47.620  25.959  32.812  1.00  0.00    -0.206 F 
ATOM    103  C   UNL A   1      50.904  26.481  31.396  1.00  0.00     0.060 A 
BRANCH 103 104
ATOM    104  S   UNL A   1      52.644  26.315  31.848  1.00  0.00     0.124 S 
ATOM    105  O   UNL A   1      53.306  26.957  30.717  1.00  0.00    -0.237 OA
ATOM    106  O   UNL A   1      52.705  27.040  33.114  1.00  0.00    -0.237 OA
ATOM    107  O   UNL A   1      52.835  24.872  31.949  1.00  0.00    -0.744 OA
ENDBRANCH 103 104
ENDBRANCH  71  96
ENDBRANCH  45  46
ENDBRANCH  37  40
ENDBRANCH   1  36
TORSDOF 15
ENDMDL
MODEL 3
REMARK VINA RESULT:     -10.2      2.099      2.761
REMARK SMILES C[NH+]1CCN(c2nc3c(cc2F)c(=O)c(C(=O)NCCCNC(=O)c2ccc(-c4c5nc(c(-c6c(F)cc(S(=O)(=O)[O-])cc6F)c6ccc([nH]6)c(-c6c(F)cc(S(=O)(=O)[O-])cc6F)c6nc(c(-c7c(F)cc(S(=O)(=O)[O-])cc7F)c7ccc4[nH]7)C=C6)C=C5)cc2)cn3-c2ccc(F)cc2F)CC1
REMARK SMILES IDX 21 1 20 2 19 3 18 4 16 5 17 6 15 8 6 9 7 10 11 11 8 12 10 13
REMARK SMILES IDX 12 14 9 15 92 16 13 17 91 18 14 19 5 20 1 21 2 22 3 23
REMARK SMILES IDX 102 24 4 26 101 27 93 28 94 29 99 30 95 31 98 32 100 33
REMARK SMILES IDX 96 34 97 35 22 36 23 37 24 39 25 40 26 41 90 42 27 43 89 44
REMARK SMILES IDX 28 45 29 46 30 47 83 48 31 49 88 50 82 51 84 52 32 53 87 54
REMARK SMILES IDX 81 55 80 56 33 58 67 59 46 60 66 61 47 62 50 63 65 64 85 65
REMARK SMILES IDX 48 66 49 67 64 69 86 70 51 71 34 72 35 73 44 74 36 75 37 76
REMARK SMILES IDX 43 77 45 78 38 79 39 80 40 81 41 82 42 83 68 84 69 85 78 86
REMARK SMILES IDX 70 87 71 88 77 89 79 90 72 91 73 92 74 93 75 94 76 95 52 96
REMARK SMILES IDX 53 97 62 98 54 99 55 100 61 101 63 102 56 103 57 104 58 105
REMARK SMILES IDX 59 106 60 107
REMARK H PARENT 18 7 2 25 22 38 84 57 50 68
REMARK Flexibility Score: inf
ROOT
ATOM      1  C   UNL A   1      36.239  32.729  28.300  1.00  0.00     0.118 C 
ENDROOT
BRANCH   1   2
ATOM      2  C   UNL A   1      35.731  33.889  29.142  1.00  0.00     0.042 C 
BRANCH   2   3
ATOM      3  C   UNL A   1      34.979  33.442  30.394  1.00  0.00     0.118 C 
BRANCH   3   4
ATOM      4  N   UNL A   1      35.087  34.426  31.458  1.00  0.00    -0.352 N 
ATOM      5  C   UNL A   1      36.013  34.620  32.432  1.00  0.00     0.256 C 
ATOM      6  O   UNL A   1      35.829  35.592  33.174  1.00  0.00    -0.269 OA
ATOM      7  H   UNL A   1      34.349  35.077  31.475  1.00  0.00     0.163 HD
BRANCH   5   8
ATOM      8  C   UNL A   1      37.244  33.794  32.581  1.00  0.00     0.104 A 
ATOM      9  C   UNL A   1      41.000  30.382  32.866  1.00  0.00     0.167 A 
ATOM     10  N   UNL A   1      40.912  31.647  32.384  1.00  0.00    -0.209 NA
ATOM     11  C   UNL A   1      39.903  29.767  33.476  1.00  0.00     0.166 A 
ATOM     12  C   UNL A   1      39.741  32.327  32.482  1.00  0.00     0.151 A 
ATOM     13  C   UNL A   1      38.727  30.468  33.646  1.00  0.00     0.059 A 
ATOM     14  F   UNL A   1      39.986  28.515  33.951  1.00  0.00    -0.203 F 
ATOM     15  C   UNL A   1      38.653  31.768  33.150  1.00  0.00     0.069 A 
ATOM     16  N   UNL A   1      39.598  33.631  31.902  1.00  0.00    -0.297 N 
ATOM     17  C   UNL A   1      37.443  32.567  33.381  1.00  0.00     0.203 A 
ATOM     18  C   UNL A   1      38.347  34.241  31.952  1.00  0.00     0.111 A 
ATOM     19  O   UNL A   1      36.677  32.189  34.256  1.00  0.00    -0.288 OA
BRANCH   9  20
ATOM     20  N   UNL A   1      42.210  29.751  32.750  1.00  0.00    -0.343 N 
ATOM     21  C   UNL A   1      45.039  27.287  34.746  1.00  0.00     0.332 C 
ATOM     22  N   UNL A   1      44.376  28.122  33.747  1.00  0.00    -0.334 N 
ATOM     23  C   UNL A   1      44.127  29.484  34.282  1.00  0.00     0.283 C 
ATOM     24  C   UNL A   1      43.084  27.518  33.348  1.00  0.00     0.283 C 
ATOM     25  H   UNL A   1      44.992  28.186  32.935  1.00  0.00     0.347 HD
ATOM     26  C   UNL A   1      43.409  30.408  33.263  1.00  0.00     0.179 C 
ATOM     27  C   UNL A   1      42.337  28.370  32.303  1.00  0.00     0.179 C 
ENDBRANCH   9  20
BRANCH  16  28
ATOM     28  C   UNL A   1      40.671  34.282  31.223  1.00  0.00     0.083 A 
ATOM     29  C   UNL A   1      41.844  34.641  31.909  1.00  0.00     0.033 A 
ATOM     30  C   UNL A   1      40.589  34.581  29.852  1.00  0.00     0.150 A 
ATOM     31  C   UNL A   1      42.895  35.272  31.240  1.00  0.00     0.041 A 
ATOM     32  C   UNL A   1      41.625  35.224  29.182  1.00  0.00     0.080 A 
ATOM     33  F   UNL A   1      39.483  34.267  29.160  1.00  0.00    -0.205 F 
ATOM     34  C   UNL A   1      42.771  35.562  29.884  1.00  0.00     0.126 A 
ATOM     35  F   UNL A   1      43.777  36.177  29.250  1.00  0.00    -0.207 F 
ENDBRANCH  16  28
ENDBRANCH   5   8
ENDBRANCH   3   4
ENDBRANCH   2   3
ENDBRANCH   1   2
BRANCH   1  36
ATOM     36  N   UNL A   1      35.434  31.531  28.488  1.00  0.00    -0.352 N 
ATOM     37  C   UNL A   1      35.830  30.216  28.474  1.00  0.00     0.251 C 
ATOM     38  H   UNL A   1      34.475  31.683  28.650  1.00  0.00     0.163 HD
ATOM     39  O   UNL A   1      34.989  29.323  28.409  1.00  0.00    -0.269 OA
BRANCH  37  40
ATOM     40  C   UNL A   1      37.270  29.882  28.525  1.00  0.00     0.039 A 
ATOM     41  C   UNL A   1      37.981  29.740  27.332  1.00  0.00     0.014 A 
ATOM     42  C   UNL A   1      37.909  29.691  29.755  1.00  0.00     0.014 A 
ATOM     43  C   UNL A   1      39.346  29.451  27.373  1.00  0.00     0.010 A 
ATOM     44  C   UNL A   1      39.283  29.476  29.796  1.00  0.00     0.010 A 
ATOM     45  C   UNL A   1      40.009  29.331  28.605  1.00  0.00    -0.014 A 
BRANCH  45  46
ATOM     46  C   UNL A   1      41.448  28.979  28.660  1.00  0.00     0.031 A 
ATOM     47  C   UNL A   1      41.877  27.573  28.343  1.00  0.00     0.074 A 
ATOM     48  C   UNL A   1      42.357  29.911  29.005  1.00  0.00     0.049 A 
ATOM     49  N   UNL A   1      43.083  27.068  28.304  1.00  0.00    -0.248 NA
ATOM     50  C   UNL A   1      40.811  26.601  28.048  1.00  0.00     0.031 C 
ATOM     51  C   UNL A   1      42.050  31.294  29.375  1.00  0.00     0.029 A 
ATOM     52  N   UNL A   1      43.725  29.839  29.096  1.00  0.00    -0.354 N 
ATOM     53  C   UNL A   1      42.918  25.730  27.969  1.00  0.00     0.074 A 
ATOM     54  C   UNL A   1      41.498  25.480  27.891  1.00  0.00     0.031 C 
ATOM     55  C   UNL A   1      43.199  31.947  29.622  1.00  0.00     0.029 A 
ATOM     56  C   UNL A   1      44.319  31.026  29.449  1.00  0.00     0.049 A 
ATOM     57  H   UNL A   1      44.232  29.013  28.926  1.00  0.00     0.167 HD
ATOM     58  C   UNL A   1      43.869  24.803  27.707  1.00  0.00     0.037 A 
ATOM     59  C   UNL A   1      45.622  31.338  29.603  1.00  0.00     0.037 A 
ATOM     60  C   UNL A   1      45.280  25.066  27.765  1.00  0.00     0.049 A 
ATOM     61  C   UNL A   1      46.661  30.279  29.348  1.00  0.00     0.074 A 
ATOM     62  C   UNL A   1      46.326  24.213  27.467  1.00  0.00     0.029 A 
ATOM     63  N   UNL A   1      45.842  26.274  28.151  1.00  0.00    -0.354 N 
ATOM     64  N   UNL A   1      46.492  29.039  28.952  1.00  0.00    -0.248 NA
ATOM     65  C   UNL A   1      48.067  30.654  29.560  1.00  0.00     0.031 C 
ATOM     66  C   UNL A   1      47.522  24.892  27.713  1.00  0.00     0.029 A 
ATOM     67  C   UNL A   1      47.222  26.181  28.127  1.00  0.00     0.049 A 
ATOM     68  H   UNL A   1      45.334  27.079  28.405  1.00  0.00     0.167 HD
ATOM     69  C   UNL A   1      47.767  28.493  28.850  1.00  0.00     0.074 A 
ATOM     70  C   UNL A   1      48.699  29.540  29.215  1.00  0.00     0.031 C 
ATOM     71  C   UNL A   1      48.131  27.238  28.490  1.00  0.00     0.037 A 
BRANCH  58  72
ATOM     72  C   UNL A   1      43.409  23.430  27.305  1.00  0.00     0.058 A 
ATOM     73  C   UNL A   1      43.378  23.042  25.955  1.00  0.00     0.135 A 
ATOM     74  C   UNL A   1      43.036  22.483  28.270  1.00  0.00     0.135 A 
ATOM     75  F   UNL A   1      43.708  23.916  24.992  1.00  0.00    -0.206 F 
ATOM     76  C   UNL A   1      42.968  21.769  25.575  1.00  0.00     0.059 A 
ATOM     77  C   UNL A   1      42.647  21.194  27.913  1.00  0.00     0.059 A 
ATOM     78  F   UNL A   1      43.045  22.804  29.572  1.00  0.00    -0.206 F 
ATOM     79  C   UNL A   1      42.606  20.852  26.561  1.00  0.00     0.060 A 
BRANCH  79  80
ATOM     80  S   UNL A   1      42.086  19.201  26.046  1.00  0.00     0.124 S 
ATOM     81  O   UNL A   1      40.650  19.389  25.869  1.00  0.00    -0.237 OA
ATOM     82  O   UNL A   1      42.856  19.002  24.823  1.00  0.00    -0.237 OA
ATOM     83  O   UNL A   1      42.473  18.355  27.171  1.00  0.00    -0.744 OA
ENDBRANCH  79  80
ENDBRANCH  58  72
BRANCH  59  84
ATOM     84  C   UNL A   1      46.016  32.722  29.978  1.00  0.00     0.058 A 
ATOM     85  C   UNL A   1      46.121  33.098  31.326  1.00  0.00     0.135 A 
ATOM     86  C   UNL A   1      46.319  33.687  29.006  1.00  0.00     0.135 A 
ATOM     87  F   UNL A   1      45.835  32.213  32.293  1.00  0.00    -0.206 F 
ATOM     88  C   UNL A   1      46.503  34.384  31.697  1.00  0.00     0.059 A 
ATOM     89  C   UNL A   1      46.723  34.974  29.352  1.00  0.00     0.059 A 
ATOM     90  F   UNL A   1      46.246  33.375  27.703  1.00  0.00    -0.206 F 
ATOM     91  C   UNL A   1      46.806  35.314  30.702  1.00  0.00     0.060 A 
BRANCH  91  92
ATOM     92  S   UNL A   1      47.351  36.964  31.199  1.00  0.00     0.124 S 
ATOM     93  O   UNL A   1      46.134  37.745  31.008  1.00  0.00    -0.237 OA
ATOM     94  O   UNL A   1      47.758  36.745  32.584  1.00  0.00    -0.237 OA
ATOM     95  O   UNL A   1      48.439  37.254  30.272  1.00  0.00    -0.744 OA
ENDBRANCH  91  92
ENDBRANCH  59  84
BRANCH  71  96
ATOM     96  C   UNL A   1      49.596  26.908  28.472  1.00  0.00     0.058 A 
ATOM     97  C   UNL A   1      50.368  27.107  27.317  1.00  0.00     0.135 A 
ATOM     98  C   UNL A   1      50.257  26.524  29.650  1.00  0.00     0.135 A 
ATOM     99  F   UNL A   1      49.781  27.465  26.164  1.00  0.00    -0.206 F 
ATOM    100  C   UNL A   1      51.750  26.950  27.336  1.00  0.00     0.059 A 
ATOM    101  C   UNL A   1      51.640  26.384  29.696  1.00  0.00     0.059 A 
ATOM    102  F   UNL A   1      49.561  26.331  30.782  1.00  0.00    -0.206 F 
ATOM    103  C   UNL A   1      52.378  26.605  28.534  1.00  0.00     0.060 A 
BRANCH 103 104
ATOM    104  S   UNL A   1      54.180  26.506  28.562  1.00  0.00     0.124 S 
ATOM    105  O   UNL A   1      54.426  25.941  29.885  1.00  0.00    -0.237 OA
ATOM    106  O   UNL A   1      54.460  25.624  27.433  1.00  0.00    -0.237 OA
ATOM    107  O   UNL A   1      54.601  27.893  28.386  1.00  0.00    -0.744 OA
ENDBRANCH 103 104
ENDBRANCH  71  96
ENDBRANCH  45  46
ENDBRANCH  37  40
ENDBRANCH   1  36
TORSDOF 15
ENDMDL
