MODEL 1
REMARK VINA RESULT:     -11.6      0.000      0.000
REMARK SMILES COCCCN1C(=O)C[C@@H](Sc2ncccc2C(=O)NCCCNC(=O)c2ccc(-c3c4nc(c(-c5c(F)cc(S(=O)(=O)[O-])cc5F)c5ccc([nH]5)c(-c5c(F)cc(S(=O)(=O)[O-])cc5F)c5nc(c(-c6c(F)cc(S(=O)(=O)[O-])cc6F)c6ccc3[nH]6)C=C5)C=C4)cc2)C1=O
REMARK SMILES IDX 18 1 19 2 20 3 17 5 12 6 13 7 14 8 16 9 15 10 11 11 10 12
REMARK SMILES IDX 6 13 7 14 93 15 8 16 9 17 94 18 5 19 4 20 3 21 2 22 1 23
REMARK SMILES IDX 21 24 22 25 23 26 24 27 25 28 26 30 27 31 28 32 92 33 29 34
REMARK SMILES IDX 91 35 30 36 31 37 32 38 85 39 33 40 90 41 84 42 86 43 34 44
REMARK SMILES IDX 89 45 83 46 82 47 35 49 69 50 48 51 68 52 49 53 52 54 67 55
REMARK SMILES IDX 87 56 50 57 51 58 66 60 88 61 53 62 36 63 37 64 46 65 38 66
REMARK SMILES IDX 39 67 45 68 47 69 40 70 41 71 42 72 43 73 44 74 70 75 71 76
REMARK SMILES IDX 80 77 72 78 73 79 79 80 81 81 74 82 75 83 76 84 77 85 78 86
REMARK SMILES IDX 54 87 55 88 64 89 56 90 57 91 63 92 65 93 58 94 59 95 60 96
REMARK SMILES IDX 61 97 62 98
REMARK H PARENT 20 4 24 29 86 48 52 59
REMARK Flexibility Score: inf
ROOT
ATOM      1  C   UNL A   1      36.464  22.812  23.657  1.00  0.00     0.254 C 
ATOM      2  O   UNL A   1      36.688  22.828  22.450  1.00  0.00    -0.269 OA
ATOM      3  N   UNL A   1      37.307  23.557  24.448  1.00  0.00    -0.352 N 
ATOM      4  H   UNL A   1      37.871  24.181  23.936  1.00  0.00     0.163 HD
ENDROOT
BRANCH   1   5
ATOM      5  C   UNL A   1      35.296  22.078  24.216  1.00  0.00     0.072 A 
ATOM      6  C   UNL A   1      33.977  22.396  23.856  1.00  0.00     0.109 A 
ATOM      7  N   UNL A   1      32.910  21.908  24.548  1.00  0.00    -0.249 NA
ATOM      8  C   UNL A   1      33.150  21.060  25.572  1.00  0.00     0.112 A 
ATOM      9  C   UNL A   1      35.478  21.068  25.170  1.00  0.00     0.018 A 
ATOM     10  C   UNL A   1      34.397  20.570  25.882  1.00  0.00     0.021 A 
BRANCH   6  11
ATOM     11  S   UNL A   1      33.536  23.526  22.541  1.00  0.00    -0.092 SA
BRANCH  11  12
ATOM     12  C   UNL A   1      33.852  25.181  23.231  1.00  0.00     0.152 C 
ATOM     13  N   UNL A   1      32.577  27.144  23.256  1.00  0.00    -0.282 N 
ATOM     14  C   UNL A   1      32.540  26.664  24.538  1.00  0.00     0.230 C 
ATOM     15  C   UNL A   1      33.322  26.344  22.430  1.00  0.00     0.243 C 
ATOM     16  O   UNL A   1      31.993  27.198  25.494  1.00  0.00    -0.274 OA
ATOM     17  C   UNL A   1      33.330  25.394  24.638  1.00  0.00     0.125 C 
ATOM     18  O   UNL A   1      33.590  26.581  21.259  1.00  0.00    -0.273 OA
BRANCH  13  19
ATOM     19  C   UNL A   1      32.033  28.450  22.903  1.00  0.00     0.131 C 
BRANCH  19  20
ATOM     20  C   UNL A   1      30.555  28.516  22.504  1.00  0.00     0.050 C 
BRANCH  20  21
ATOM     21  C   UNL A   1      30.088  29.822  21.868  1.00  0.00     0.161 C 
BRANCH  21  22
ATOM     22  O   UNL A   1      28.724  29.838  21.456  1.00  0.00    -0.385 OA
ATOM     23  C   UNL A   1      27.780  29.473  22.447  1.00  0.00     0.194 C 
ENDBRANCH  21  22
ENDBRANCH  20  21
ENDBRANCH  19  20
ENDBRANCH  13  19
ENDBRANCH  11  12
ENDBRANCH   6  11
ENDBRANCH   1   5
BRANCH   3  24
ATOM     24  C   UNL A   1      37.540  23.616  25.883  1.00  0.00     0.118 C 
BRANCH  24  25
ATOM     25  C   UNL A   1      38.755  22.760  26.248  1.00  0.00     0.042 C 
BRANCH  25  26
ATOM     26  C   UNL A   1      39.855  23.562  26.941  1.00  0.00     0.118 C 
BRANCH  26  27
ATOM     27  N   UNL A   1      40.691  24.266  25.978  1.00  0.00    -0.352 N 
ATOM     28  C   UNL A   1      41.120  25.570  25.988  1.00  0.00     0.251 C 
ATOM     29  H   UNL A   1      40.992  23.730  25.210  1.00  0.00     0.163 HD
ATOM     30  O   UNL A   1      41.590  26.060  24.966  1.00  0.00    -0.269 OA
BRANCH  28  31
ATOM     31  C   UNL A   1      41.010  26.374  27.222  1.00  0.00     0.039 A 
ATOM     32  C   UNL A   1      41.882  27.449  27.412  1.00  0.00     0.014 A 
ATOM     33  C   UNL A   1      40.069  26.049  28.204  1.00  0.00     0.014 A 
ATOM     34  C   UNL A   1      41.775  28.229  28.567  1.00  0.00     0.010 A 
ATOM     35  C   UNL A   1      39.914  26.872  29.313  1.00  0.00     0.010 A 
ATOM     36  C   UNL A   1      40.771  27.965  29.512  1.00  0.00    -0.014 A 
BRANCH  36  37
ATOM     37  C   UNL A   1      40.610  28.802  30.727  1.00  0.00     0.031 A 
ATOM     38  C   UNL A   1      39.575  29.895  30.751  1.00  0.00     0.074 A 
ATOM     39  C   UNL A   1      41.434  28.619  31.778  1.00  0.00     0.049 A 
ATOM     40  N   UNL A   1      39.347  30.798  31.670  1.00  0.00    -0.248 NA
ATOM     41  C   UNL A   1      38.696  30.006  29.574  1.00  0.00     0.031 C 
ATOM     42  C   UNL A   1      42.497  27.614  31.857  1.00  0.00     0.029 A 
ATOM     43  N   UNL A   1      41.515  29.278  32.979  1.00  0.00    -0.354 N 
ATOM     44  C   UNL A   1      38.309  31.583  31.182  1.00  0.00     0.074 A 
ATOM     45  C   UNL A   1      37.992  31.091  29.859  1.00  0.00     0.031 C 
ATOM     46  C   UNL A   1      43.108  27.709  33.048  1.00  0.00     0.029 A 
ATOM     47  C   UNL A   1      42.516  28.810  33.800  1.00  0.00     0.049 A 
ATOM     48  H   UNL A   1      40.914  30.016  33.230  1.00  0.00     0.167 HD
ATOM     49  C   UNL A   1      37.659  32.602  31.793  1.00  0.00     0.037 A 
ATOM     50  C   UNL A   1      42.916  29.231  35.016  1.00  0.00     0.037 A 
ATOM     51  C   UNL A   1      37.969  33.070  33.119  1.00  0.00     0.049 A 
ATOM     52  C   UNL A   1      42.196  30.388  35.659  1.00  0.00     0.074 A 
ATOM     53  C   UNL A   1      37.351  34.076  33.841  1.00  0.00     0.029 A 
ATOM     54  N   UNL A   1      38.976  32.559  33.924  1.00  0.00    -0.354 N 
ATOM     55  N   UNL A   1      41.187  31.090  35.200  1.00  0.00    -0.248 NA
ATOM     56  C   UNL A   1      42.664  30.808  36.988  1.00  0.00     0.031 C 
ATOM     57  C   UNL A   1      38.013  34.202  35.066  1.00  0.00     0.029 A 
ATOM     58  C   UNL A   1      39.005  33.237  35.130  1.00  0.00     0.049 A 
ATOM     59  H   UNL A   1      39.581  31.823  33.675  1.00  0.00     0.167 HD
ATOM     60  C   UNL A   1      40.874  32.005  36.201  1.00  0.00     0.074 A 
ATOM     61  C   UNL A   1      41.796  31.762  37.290  1.00  0.00     0.031 C 
ATOM     62  C   UNL A   1      39.912  32.960  36.216  1.00  0.00     0.037 A 
BRANCH  49  63
ATOM     63  C   UNL A   1      36.536  33.269  31.046  1.00  0.00     0.058 A 
ATOM     64  C   UNL A   1      35.195  33.074  31.415  1.00  0.00     0.135 A 
ATOM     65  C   UNL A   1      36.801  34.159  29.993  1.00  0.00     0.135 A 
ATOM     66  F   UNL A   1      34.882  32.220  32.403  1.00  0.00    -0.206 F 
ATOM     67  C   UNL A   1      34.157  33.724  30.757  1.00  0.00     0.059 A 
ATOM     68  C   UNL A   1      35.780  34.843  29.340  1.00  0.00     0.059 A 
ATOM     69  F   UNL A   1      38.065  34.381  29.597  1.00  0.00    -0.206 F 
ATOM     70  C   UNL A   1      34.460  34.612  29.725  1.00  0.00     0.060 A 
BRANCH  70  71
ATOM     71  S   UNL A   1      33.100  35.472  28.906  1.00  0.00     0.124 S 
ATOM     72  O   UNL A   1      32.346  35.981  30.047  1.00  0.00    -0.237 OA
ATOM     73  O   UNL A   1      33.802  36.476  28.112  1.00  0.00    -0.237 OA
ATOM     74  O   UNL A   1      32.443  34.419  28.138  1.00  0.00    -0.744 OA
ENDBRANCH  70  71
ENDBRANCH  49  63
BRANCH  50  75
ATOM     75  C   UNL A   1      44.044  28.558  35.715  1.00  0.00     0.058 A 
ATOM     76  C   UNL A   1      45.374  28.932  35.465  1.00  0.00     0.135 A 
ATOM     77  C   UNL A   1      43.824  27.512  36.625  1.00  0.00     0.135 A 
ATOM     78  F   UNL A   1      45.640  29.926  34.603  1.00  0.00    -0.206 F 
ATOM     79  C   UNL A   1      46.444  28.270  36.058  1.00  0.00     0.059 A 
ATOM     80  C   UNL A   1      44.875  26.855  37.255  1.00  0.00     0.059 A 
ATOM     81  F   UNL A   1      42.571  27.128  36.918  1.00  0.00    -0.206 F 
ATOM     82  C   UNL A   1      46.183  27.227  36.948  1.00  0.00     0.060 A 
BRANCH  82  83
ATOM     83  S   UNL A   1      47.578  26.374  37.716  1.00  0.00     0.124 S 
ATOM     84  O   UNL A   1      48.615  27.397  37.655  1.00  0.00    -0.237 OA
ATOM     85  O   UNL A   1      47.058  26.070  39.045  1.00  0.00    -0.237 OA
ATOM     86  O   UNL A   1      47.780  25.217  36.850  1.00  0.00    -0.744 OA
ENDBRANCH  82  83
ENDBRANCH  50  75
BRANCH  62  87
ATOM     87  C   UNL A   1      39.760  33.774  37.472  1.00  0.00     0.058 A 
ATOM     88  C   UNL A   1      40.432  34.992  37.652  1.00  0.00     0.135 A 
ATOM     89  C   UNL A   1      38.878  33.354  38.482  1.00  0.00     0.135 A 
ATOM     90  F   UNL A   1      41.292  35.435  36.722  1.00  0.00    -0.206 F 
ATOM     91  C   UNL A   1      40.250  35.758  38.800  1.00  0.00     0.059 A 
ATOM     92  C   UNL A   1      38.658  34.119  39.622  1.00  0.00     0.059 A 
ATOM     93  F   UNL A   1      38.203  32.200  38.354  1.00  0.00    -0.206 F 
ATOM     94  C   UNL A   1      39.357  35.314  39.776  1.00  0.00     0.060 A 
BRANCH  94  95
ATOM     95  S   UNL A   1      39.096  36.340  41.239  1.00  0.00     0.124 S 
ATOM     96  O   UNL A   1      40.363  36.174  41.945  1.00  0.00    -0.237 OA
ATOM     97  O   UNL A   1      38.863  37.658  40.657  1.00  0.00    -0.237 OA
ATOM     98  O   UNL A   1      37.936  35.730  41.881  1.00  0.00    -0.744 OA
ENDBRANCH  94  95
ENDBRANCH  62  87
ENDBRANCH  36  37
ENDBRANCH  28  31
ENDBRANCH  26  27
ENDBRANCH  25  26
ENDBRANCH  24  25
ENDBRANCH   3  24
TORSDOF 19
ENDMDL
MODEL 2
REMARK VINA RESULT:     -11.3      0.762      8.186
REMARK SMILES COCCCN1C(=O)C[C@@H](Sc2ncccc2C(=O)NCCCNC(=O)c2ccc(-c3c4nc(c(-c5c(F)cc(S(=O)(=O)[O-])cc5F)c5ccc([nH]5)c(-c5c(F)cc(S(=O)(=O)[O-])cc5F)c5nc(c(-c6c(F)cc(S(=O)(=O)[O-])cc6F)c6ccc3[nH]6)C=C5)C=C4)cc2)C1=O
REMARK SMILES IDX 18 1 19 2 20 3 17 5 12 6 13 7 14 8 16 9 15 10 11 11 10 12
REMARK SMILES IDX 6 13 7 14 93 15 8 16 9 17 94 18 5 19 4 20 3 21 2 22 1 23
REMARK SMILES IDX 21 24 22 25 23 26 24 27 25 28 26 30 27 31 28 32 92 33 29 34
REMARK SMILES IDX 91 35 30 36 31 37 32 38 85 39 33 40 90 41 84 42 86 43 34 44
REMARK SMILES IDX 89 45 83 46 82 47 35 49 69 50 48 51 68 52 49 53 52 54 67 55
REMARK SMILES IDX 87 56 50 57 51 58 66 60 88 61 53 62 36 63 37 64 46 65 38 66
REMARK SMILES IDX 39 67 45 68 47 69 40 70 41 71 42 72 43 73 44 74 70 75 71 76
REMARK SMILES IDX 80 77 72 78 73 79 79 80 81 81 74 82 75 83 76 84 77 85 78 86
REMARK SMILES IDX 54 87 55 88 64 89 56 90 57 91 63 92 65 93 58 94 59 95 60 96
REMARK SMILES IDX 61 97 62 98
REMARK H PARENT 20 4 24 29 86 48 52 59
REMARK Flexibility Score: inf
ROOT
ATOM      1  C   UNL A   1      36.173  22.718  23.996  1.00  0.00     0.254 C 
ATOM      2  O   UNL A   1      36.181  22.941  22.790  1.00  0.00    -0.269 OA
ATOM      3  N   UNL A   1      37.274  23.138  24.706  1.00  0.00    -0.352 N 
ATOM      4  H   UNL A   1      37.852  23.753  24.200  1.00  0.00     0.163 HD
ENDROOT
BRANCH   1   5
ATOM      5  C   UNL A   1      34.999  22.086  24.658  1.00  0.00     0.072 A 
ATOM      6  C   UNL A   1      34.103  22.826  25.447  1.00  0.00     0.109 A 
ATOM      7  N   UNL A   1      33.188  22.218  26.251  1.00  0.00    -0.249 NA
ATOM      8  C   UNL A   1      33.126  20.868  26.236  1.00  0.00     0.112 A 
ATOM      9  C   UNL A   1      34.776  20.707  24.553  1.00  0.00     0.018 A 
ATOM     10  C   UNL A   1      33.849  20.080  25.372  1.00  0.00     0.021 A 
BRANCH   6  11
ATOM     11  S   UNL A   1      34.109  24.611  25.571  1.00  0.00    -0.092 SA
BRANCH  11  12
ATOM     12  C   UNL A   1      33.029  25.169  24.216  1.00  0.00     0.152 C 
ATOM     13  N   UNL A   1      32.625  27.284  23.297  1.00  0.00    -0.282 N 
ATOM     14  C   UNL A   1      33.374  26.616  22.367  1.00  0.00     0.230 C 
ATOM     15  C   UNL A   1      32.374  26.516  24.403  1.00  0.00     0.243 C 
ATOM     16  O   UNL A   1      33.705  27.038  21.266  1.00  0.00    -0.274 OA
ATOM     17  C   UNL A   1      33.697  25.236  22.857  1.00  0.00     0.125 C 
ATOM     18  O   UNL A   1      31.660  26.833  25.347  1.00  0.00    -0.273 OA
BRANCH  13  19
ATOM     19  C   UNL A   1      32.028  28.586  23.020  1.00  0.00     0.131 C 
BRANCH  19  20
ATOM     20  C   UNL A   1      30.607  28.604  22.447  1.00  0.00     0.050 C 
BRANCH  20  21
ATOM     21  C   UNL A   1      30.101  29.955  21.951  1.00  0.00     0.161 C 
BRANCH  21  22
ATOM     22  O   UNL A   1      28.879  29.909  21.217  1.00  0.00    -0.385 OA
ATOM     23  C   UNL A   1      27.838  30.735  21.709  1.00  0.00     0.194 C 
ENDBRANCH  21  22
ENDBRANCH  20  21
ENDBRANCH  19  20
ENDBRANCH  13  19
ENDBRANCH  11  12
ENDBRANCH   6  11
ENDBRANCH   1   5
BRANCH   3  24
ATOM     24  C   UNL A   1      37.761  22.865  26.050  1.00  0.00     0.118 C 
BRANCH  24  25
ATOM     25  C   UNL A   1      39.230  22.443  25.994  1.00  0.00     0.042 C 
BRANCH  25  26
ATOM     26  C   UNL A   1      40.140  23.360  26.810  1.00  0.00     0.118 C 
BRANCH  26  27
ATOM     27  N   UNL A   1      41.290  23.802  26.033  1.00  0.00    -0.352 N 
ATOM     28  C   UNL A   1      41.931  25.015  26.041  1.00  0.00     0.251 C 
ATOM     29  H   UNL A   1      41.661  23.134  25.413  1.00  0.00     0.163 HD
ATOM     30  O   UNL A   1      42.708  25.295  25.133  1.00  0.00    -0.269 OA
BRANCH  28  31
ATOM     31  C   UNL A   1      41.682  25.975  27.136  1.00  0.00     0.039 A 
ATOM     32  C   UNL A   1      40.825  25.611  28.177  1.00  0.00     0.014 A 
ATOM     33  C   UNL A   1      42.268  27.245  27.117  1.00  0.00     0.014 A 
ATOM     34  C   UNL A   1      40.597  26.504  29.228  1.00  0.00     0.010 A 
ATOM     35  C   UNL A   1      42.101  28.100  28.200  1.00  0.00     0.010 A 
ATOM     36  C   UNL A   1      41.256  27.744  29.262  1.00  0.00    -0.014 A 
BRANCH  36  37
ATOM     37  C   UNL A   1      41.063  28.694  30.387  1.00  0.00     0.031 A 
ATOM     38  C   UNL A   1      41.920  28.580  31.618  1.00  0.00     0.074 A 
ATOM     39  C   UNL A   1      40.078  29.612  30.322  1.00  0.00     0.049 A 
ATOM     40  N   UNL A   1      41.842  29.242  32.744  1.00  0.00    -0.248 NA
ATOM     41  C   UNL A   1      42.993  27.570  31.592  1.00  0.00     0.031 C 
ATOM     42  C   UNL A   1      39.161  29.794  29.194  1.00  0.00     0.029 A 
ATOM     43  N   UNL A   1      39.675  30.560  31.229  1.00  0.00    -0.354 N 
ATOM     44  C   UNL A   1      42.844  28.727  33.558  1.00  0.00     0.074 A 
ATOM     45  C   UNL A   1      43.479  27.656  32.822  1.00  0.00     0.031 C 
ATOM     46  C   UNL A   1      38.319  30.803  29.467  1.00  0.00     0.029 A 
ATOM     47  C   UNL A   1      38.602  31.310  30.806  1.00  0.00     0.049 A 
ATOM     48  H   UNL A   1      40.113  30.691  32.101  1.00  0.00     0.167 HD
ATOM     49  C   UNL A   1      43.221  29.131  34.794  1.00  0.00     0.037 A 
ATOM     50  C   UNL A   1      37.918  32.286  31.433  1.00  0.00     0.037 A 
ATOM     51  C   UNL A   1      42.597  30.214  35.510  1.00  0.00     0.049 A 
ATOM     52  C   UNL A   1      38.338  32.694  32.822  1.00  0.00     0.074 A 
ATOM     53  C   UNL A   1      42.922  30.722  36.754  1.00  0.00     0.029 A 
ATOM     54  N   UNL A   1      41.526  30.959  35.040  1.00  0.00    -0.354 N 
ATOM     55  N   UNL A   1      39.318  32.225  33.558  1.00  0.00    -0.248 NA
ATOM     56  C   UNL A   1      37.566  33.767  33.463  1.00  0.00     0.031 C 
ATOM     57  C   UNL A   1      42.021  31.746  37.057  1.00  0.00     0.029 A 
ATOM     58  C   UNL A   1      41.170  31.915  35.976  1.00  0.00     0.049 A 
ATOM     59  H   UNL A   1      41.084  30.829  34.170  1.00  0.00     0.167 HD
ATOM     60  C   UNL A   1      39.304  32.974  34.731  1.00  0.00     0.074 A 
ATOM     61  C   UNL A   1      38.224  33.930  34.601  1.00  0.00     0.031 C 
ATOM     62  C   UNL A   1      40.110  32.879  35.816  1.00  0.00     0.037 A 
BRANCH  49  63
ATOM     63  C   UNL A   1      44.373  28.417  35.447  1.00  0.00     0.058 A 
ATOM     64  C   UNL A   1      44.167  27.302  36.278  1.00  0.00     0.135 A 
ATOM     65  C   UNL A   1      45.698  28.807  35.195  1.00  0.00     0.135 A 
ATOM     66  F   UNL A   1      42.921  26.896  36.568  1.00  0.00    -0.206 F 
ATOM     67  C   UNL A   1      45.231  26.612  36.847  1.00  0.00     0.059 A 
ATOM     68  C   UNL A   1      46.779  28.112  35.730  1.00  0.00     0.059 A 
ATOM     69  F   UNL A   1      45.953  29.867  34.411  1.00  0.00    -0.206 F 
ATOM     70  C   UNL A   1      46.534  27.020  36.561  1.00  0.00     0.060 A 
BRANCH  70  71
ATOM     71  S   UNL A   1      47.903  26.089  37.282  1.00  0.00     0.124 S 
ATOM     72  O   UNL A   1      47.689  24.764  36.711  1.00  0.00    -0.237 OA
ATOM     73  O   UNL A   1      49.067  26.814  36.782  1.00  0.00    -0.237 OA
ATOM     74  O   UNL A   1      47.671  26.198  38.719  1.00  0.00    -0.744 OA
ENDBRANCH  70  71
ENDBRANCH  49  63
BRANCH  50  75
ATOM     75  C   UNL A   1      36.771  32.957  30.762  1.00  0.00     0.058 A 
ATOM     76  C   UNL A   1      36.982  33.948  29.791  1.00  0.00     0.135 A 
ATOM     77  C   UNL A   1      35.443  32.644  31.093  1.00  0.00     0.135 A 
ATOM     78  F   UNL A   1      38.232  34.285  29.438  1.00  0.00    -0.206 F 
ATOM     79  C   UNL A   1      35.924  34.633  29.202  1.00  0.00     0.059 A 
ATOM     80  C   UNL A   1      34.366  33.293  30.496  1.00  0.00     0.059 A 
ATOM     81  F   UNL A   1      35.183  31.689  31.999  1.00  0.00    -0.206 F 
ATOM     82  C   UNL A   1      34.618  34.301  29.567  1.00  0.00     0.060 A 
BRANCH  82  83
ATOM     83  S   UNL A   1      33.250  35.193  28.796  1.00  0.00     0.124 S 
ATOM     84  O   UNL A   1      32.654  34.154  27.966  1.00  0.00    -0.237 OA
ATOM     85  O   UNL A   1      32.467  35.614  29.954  1.00  0.00    -0.237 OA
ATOM     86  O   UNL A   1      33.918  36.272  28.076  1.00  0.00    -0.744 OA
ENDBRANCH  82  83
ENDBRANCH  50  75
BRANCH  62  87
ATOM     87  C   UNL A   1      39.903  33.873  36.926  1.00  0.00     0.058 A 
ATOM     88  C   UNL A   1      40.410  35.179  36.857  1.00  0.00     0.135 A 
ATOM     89  C   UNL A   1      39.131  33.525  38.048  1.00  0.00     0.135 A 
ATOM     90  F   UNL A   1      41.159  35.559  35.811  1.00  0.00    -0.206 F 
ATOM     91  C   UNL A   1      40.175  36.102  37.870  1.00  0.00     0.059 A 
ATOM     92  C   UNL A   1      38.858  34.442  39.057  1.00  0.00     0.059 A 
ATOM     93  F   UNL A   1      38.615  32.290  38.158  1.00  0.00    -0.206 F 
ATOM     94  C   UNL A   1      39.394  35.725  38.964  1.00  0.00     0.060 A 
BRANCH  94  95
ATOM     95  S   UNL A   1      39.059  36.947  40.250  1.00  0.00     0.124 S 
ATOM     96  O   UNL A   1      38.058  36.259  41.058  1.00  0.00    -0.237 OA
ATOM     97  O   UNL A   1      40.370  37.113  40.870  1.00  0.00    -0.237 OA
ATOM     98  O   UNL A   1      38.574  38.104  39.503  1.00  0.00    -0.744 OA
ENDBRANCH  94  95
ENDBRANCH  62  87
ENDBRANCH  36  37
ENDBRANCH  28  31
ENDBRANCH  26  27
ENDBRANCH  25  26
ENDBRANCH  24  25
ENDBRANCH   3  24
TORSDOF 19
ENDMDL
MODEL 3
REMARK VINA RESULT:     -11.2      1.149      8.336
REMARK SMILES COCCCN1C(=O)C[C@@H](Sc2ncccc2C(=O)NCCCNC(=O)c2ccc(-c3c4nc(c(-c5c(F)cc(S(=O)(=O)[O-])cc5F)c5ccc([nH]5)c(-c5c(F)cc(S(=O)(=O)[O-])cc5F)c5nc(c(-c6c(F)cc(S(=O)(=O)[O-])cc6F)c6ccc3[nH]6)C=C5)C=C4)cc2)C1=O
REMARK SMILES IDX 18 1 19 2 20 3 17 5 12 6 13 7 14 8 16 9 15 10 11 11 10 12
REMARK SMILES IDX 6 13 7 14 93 15 8 16 9 17 94 18 5 19 4 20 3 21 2 22 1 23
REMARK SMILES IDX 21 24 22 25 23 26 24 27 25 28 26 30 27 31 28 32 92 33 29 34
REMARK SMILES IDX 91 35 30 36 31 37 32 38 85 39 33 40 90 41 84 42 86 43 34 44
REMARK SMILES IDX 89 45 83 46 82 47 35 49 69 50 48 51 68 52 49 53 52 54 67 55
REMARK SMILES IDX 87 56 50 57 51 58 66 60 88 61 53 62 36 63 37 64 46 65 38 66
REMARK SMILES IDX 39 67 45 68 47 69 40 70 41 71 42 72 43 73 44 74 70 75 71 76
REMARK SMILES IDX 80 77 72 78 73 79 79 80 81 81 74 82 75 83 76 84 77 85 78 86
REMARK SMILES IDX 54 87 55 88 64 89 56 90 57 91 63 92 65 93 58 94 59 95 60 96
REMARK SMILES IDX 61 97 62 98
REMARK H PARENT 20 4 24 29 86 48 52 59
REMARK Flexibility Score: inf
ROOT
ATOM      1  C   UNL A   1      35.988  22.877  23.651  1.00  0.00     0.254 C 
ATOM      2  O   UNL A   1      36.331  22.975  22.476  1.00  0.00    -0.269 OA
ATOM      3  N   UNL A   1      36.696  23.627  24.561  1.00  0.00    -0.352 N 
ATOM      4  H   UNL A   1      37.264  24.313  24.142  1.00  0.00     0.163 HD
ENDROOT
BRANCH   1   5
ATOM      5  C   UNL A   1      34.823  22.042  24.049  1.00  0.00     0.072 A 
ATOM      6  C   UNL A   1      33.500  22.470  23.853  1.00  0.00     0.109 A 
ATOM      7  N   UNL A   1      32.448  21.834  24.440  1.00  0.00    -0.249 NA
ATOM      8  C   UNL A   1      32.705  20.737  25.186  1.00  0.00     0.112 A 
ATOM      9  C   UNL A   1      35.013  20.808  24.687  1.00  0.00     0.018 A 
ATOM     10  C   UNL A   1      33.947  20.158  25.291  1.00  0.00     0.021 A 
BRANCH   6  11
ATOM     11  S   UNL A   1      33.040  23.921  22.913  1.00  0.00    -0.092 SA
BRANCH  11  12
ATOM     12  C   UNL A   1      33.415  25.321  24.015  1.00  0.00     0.152 C 
ATOM     13  N   UNL A   1      32.133  27.144  24.732  1.00  0.00    -0.282 N 
ATOM     14  C   UNL A   1      32.237  26.318  25.818  1.00  0.00     0.230 C 
ATOM     15  C   UNL A   1      32.792  26.644  23.640  1.00  0.00     0.243 C 
ATOM     16  O   UNL A   1      31.792  26.535  26.937  1.00  0.00    -0.274 OA
ATOM     17  C   UNL A   1      33.044  25.103  25.468  1.00  0.00     0.125 C 
ATOM     18  O   UNL A   1      32.932  27.215  22.566  1.00  0.00    -0.273 OA
BRANCH  13  19
ATOM     19  C   UNL A   1      31.544  28.475  24.826  1.00  0.00     0.131 C 
BRANCH  19  20
ATOM     20  C   UNL A   1      32.486  29.644  25.133  1.00  0.00     0.050 C 
BRANCH  20  21
ATOM     21  C   UNL A   1      32.078  30.548  26.293  1.00  0.00     0.161 C 
BRANCH  21  22
ATOM     22  O   UNL A   1      32.826  30.363  27.493  1.00  0.00    -0.385 OA
ATOM     23  C   UNL A   1      34.180  30.776  27.441  1.00  0.00     0.194 C 
ENDBRANCH  21  22
ENDBRANCH  20  21
ENDBRANCH  19  20
ENDBRANCH  13  19
ENDBRANCH  11  12
ENDBRANCH   6  11
ENDBRANCH   1   5
BRANCH   3  24
ATOM     24  C   UNL A   1      36.779  23.619  26.014  1.00  0.00     0.118 C 
BRANCH  24  25
ATOM     25  C   UNL A   1      38.219  23.344  26.451  1.00  0.00     0.042 C 
BRANCH  25  26
ATOM     26  C   UNL A   1      39.171  24.487  26.103  1.00  0.00     0.118 C 
BRANCH  26  27
ATOM     27  N   UNL A   1      40.561  24.054  26.131  1.00  0.00    -0.352 N 
ATOM     28  C   UNL A   1      41.643  24.638  26.741  1.00  0.00     0.251 C 
ATOM     29  H   UNL A   1      40.753  23.222  25.641  1.00  0.00     0.163 HD
ATOM     30  O   UNL A   1      42.777  24.281  26.435  1.00  0.00    -0.269 OA
BRANCH  28  31
ATOM     31  C   UNL A   1      41.438  25.691  27.756  1.00  0.00     0.039 A 
ATOM     32  C   UNL A   1      40.331  25.614  28.603  1.00  0.00     0.014 A 
ATOM     33  C   UNL A   1      42.322  26.771  27.850  1.00  0.00     0.014 A 
ATOM     34  C   UNL A   1      40.138  26.594  29.580  1.00  0.00     0.010 A 
ATOM     35  C   UNL A   1      42.171  27.702  28.871  1.00  0.00     0.010 A 
ATOM     36  C   UNL A   1      41.072  27.630  29.741  1.00  0.00    -0.014 A 
BRANCH  36  37
ATOM     37  C   UNL A   1      40.912  28.662  30.796  1.00  0.00     0.031 A 
ATOM     38  C   UNL A   1      41.774  28.611  32.029  1.00  0.00     0.074 A 
ATOM     39  C   UNL A   1      39.953  29.602  30.671  1.00  0.00     0.049 A 
ATOM     40  N   UNL A   1      41.721  29.353  33.106  1.00  0.00    -0.248 NA
ATOM     41  C   UNL A   1      42.818  27.572  32.070  1.00  0.00     0.031 C 
ATOM     42  C   UNL A   1      39.035  29.730  29.536  1.00  0.00     0.029 A 
ATOM     43  N   UNL A   1      39.583  30.621  31.511  1.00  0.00    -0.354 N 
ATOM     44  C   UNL A   1      42.713  28.868  33.950  1.00  0.00     0.074 A 
ATOM     45  C   UNL A   1      43.313  27.730  33.289  1.00  0.00     0.031 C 
ATOM     46  C   UNL A   1      38.223  30.779  29.742  1.00  0.00     0.029 A 
ATOM     47  C   UNL A   1      38.529  31.370  31.040  1.00  0.00     0.049 A 
ATOM     48  H   UNL A   1      40.029  30.801  32.369  1.00  0.00     0.167 HD
ATOM     49  C   UNL A   1      43.109  29.346  35.153  1.00  0.00     0.037 A 
ATOM     50  C   UNL A   1      37.876  32.407  31.600  1.00  0.00     0.037 A 
ATOM     51  C   UNL A   1      42.520  30.494  35.793  1.00  0.00     0.049 A 
ATOM     52  C   UNL A   1      38.316  32.899  32.955  1.00  0.00     0.074 A 
ATOM     53  C   UNL A   1      42.867  31.079  36.998  1.00  0.00     0.029 A 
ATOM     54  N   UNL A   1      41.467  31.235  35.276  1.00  0.00    -0.354 N 
ATOM     55  N   UNL A   1      39.286  32.456  33.718  1.00  0.00    -0.248 NA
ATOM     56  C   UNL A   1      37.578  34.037  33.522  1.00  0.00     0.031 C 
ATOM     57  C   UNL A   1      41.997  32.147  37.231  1.00  0.00     0.029 A 
ATOM     58  C   UNL A   1      41.144  32.263  36.144  1.00  0.00     0.049 A 
ATOM     59  H   UNL A   1      41.017  31.057  34.420  1.00  0.00     0.167 HD
ATOM     60  C   UNL A   1      39.301  33.285  34.835  1.00  0.00     0.074 A 
ATOM     61  C   UNL A   1      38.248  34.260  34.643  1.00  0.00     0.031 C 
ATOM     62  C   UNL A   1      40.111  33.244  35.921  1.00  0.00     0.037 A 
BRANCH  49  63
ATOM     63  C   UNL A   1      44.244  28.647  35.850  1.00  0.00     0.058 A 
ATOM     64  C   UNL A   1      45.578  29.043  35.655  1.00  0.00     0.135 A 
ATOM     65  C   UNL A   1      43.997  27.613  36.767  1.00  0.00     0.135 A 
ATOM     66  F   UNL A   1      45.874  30.014  34.777  1.00  0.00    -0.206 F 
ATOM     67  C   UNL A   1      46.626  28.430  36.332  1.00  0.00     0.059 A 
ATOM     68  C   UNL A   1      45.028  27.005  37.479  1.00  0.00     0.059 A 
ATOM     69  F   UNL A   1      42.742  27.192  36.990  1.00  0.00    -0.206 F 
ATOM     70  C   UNL A   1      46.340  27.416  37.247  1.00  0.00     0.060 A 
BRANCH  70  71
ATOM     71  S   UNL A   1      47.712  26.655  38.142  1.00  0.00     0.124 S 
ATOM     72  O   UNL A   1      47.386  26.997  39.522  1.00  0.00    -0.237 OA
ATOM     73  O   UNL A   1      47.569  25.246  37.787  1.00  0.00    -0.237 OA
ATOM     74  O   UNL A   1      48.889  27.320  37.592  1.00  0.00    -0.744 OA
ENDBRANCH  70  71
ENDBRANCH  49  63
BRANCH  50  75
ATOM     75  C   UNL A   1      36.744  33.061  30.888  1.00  0.00     0.058 A 
ATOM     76  C   UNL A   1      36.976  33.952  29.828  1.00  0.00     0.135 A 
ATOM     77  C   UNL A   1      35.412  32.834  31.266  1.00  0.00     0.135 A 
ATOM     78  F   UNL A   1      38.232  34.205  29.429  1.00  0.00    -0.206 F 
ATOM     79  C   UNL A   1      35.936  34.624  29.196  1.00  0.00     0.059 A 
ATOM     80  C   UNL A   1      34.350  33.470  30.628  1.00  0.00     0.059 A 
ATOM     81  F   UNL A   1      35.130  31.976  32.258  1.00  0.00    -0.206 F 
ATOM     82  C   UNL A   1      34.625  34.380  29.609  1.00  0.00     0.060 A 
BRANCH  82  83
ATOM     83  S   UNL A   1      33.279  35.255  28.780  1.00  0.00     0.124 S 
ATOM     84  O   UNL A   1      34.012  36.237  27.990  1.00  0.00    -0.237 OA
ATOM     85  O   UNL A   1      32.632  34.183  28.030  1.00  0.00    -0.237 OA
ATOM     86  O   UNL A   1      32.497  35.793  29.889  1.00  0.00    -0.744 OA
ENDBRANCH  82  83
ENDBRANCH  50  75
BRANCH  62  87
ATOM     87  C   UNL A   1      39.938  34.318  36.959  1.00  0.00     0.058 A 
ATOM     88  C   UNL A   1      39.091  34.153  38.065  1.00  0.00     0.135 A 
ATOM     89  C   UNL A   1      40.684  35.507  36.874  1.00  0.00     0.135 A 
ATOM     90  F   UNL A   1      38.352  33.040  38.190  1.00  0.00    -0.206 F 
ATOM     91  C   UNL A   1      38.972  35.137  39.041  1.00  0.00     0.059 A 
ATOM     92  C   UNL A   1      40.604  36.489  37.855  1.00  0.00     0.059 A 
ATOM     93  F   UNL A   1      41.517  35.711  35.841  1.00  0.00    -0.206 F 
ATOM     94  C   UNL A   1      39.737  36.299  38.929  1.00  0.00     0.060 A 
BRANCH  94  95
ATOM     95  S   UNL A   1      39.608  37.547  40.227  1.00  0.00     0.124 S 
ATOM     96  O   UNL A   1      39.899  36.762  41.422  1.00  0.00    -0.237 OA
ATOM     97  O   UNL A   1      40.633  38.510  39.837  1.00  0.00    -0.237 OA
ATOM     98  O   UNL A   1      38.232  38.022  40.108  1.00  0.00    -0.744 OA
ENDBRANCH  94  95
ENDBRANCH  62  87
ENDBRANCH  36  37
ENDBRANCH  28  31
ENDBRANCH  26  27
ENDBRANCH  25  26
ENDBRANCH  24  25
ENDBRANCH   3  24
TORSDOF 19
ENDMDL
