MODEL 1
REMARK VINA RESULT:     -10.6      0.000      0.000
REMARK SMILES CC[C@@H](C(=O)NCCCNC(=O)c1ccc(-c2c3nc(c(-c4c(F)cc(S(=O)(=O)[O-])cc4F)c4ccc([nH]4)c(-c4c(F)cc(S(=O)(=O)[O-])cc4F)c4nc(c(-c5c(F)cc(S(=O)(=O)[O-])cc5F)c5ccc2[nH]5)C=C4)C=C3)cc1)[N@@H+](C)Cc1cccc(C)n1
REMARK SMILES IDX 8 1 7 2 6 3 4 4 5 5 3 7 2 8 1 9 79 10 80 11 81 13 82 14
REMARK SMILES IDX 83 15 88 16 84 17 86 18 85 19 87 20 9 21 10 22 11 23 12 25
REMARK SMILES IDX 13 26 14 27 78 28 15 29 77 30 16 31 17 32 18 33 71 34 19 35
REMARK SMILES IDX 76 36 70 37 72 38 20 39 75 40 69 41 68 42 21 44 55 45 34 46
REMARK SMILES IDX 54 47 35 48 38 49 53 50 73 51 36 52 37 53 52 55 74 56 39 57
REMARK SMILES IDX 22 58 23 59 32 60 24 61 25 62 31 63 33 64 26 65 27 66 28 67
REMARK SMILES IDX 29 68 30 69 56 70 57 71 66 72 58 73 59 74 65 75 67 76 60 77
REMARK SMILES IDX 61 78 62 79 63 80 64 81 40 82 41 83 50 84 42 85 43 86 49 87
REMARK SMILES IDX 51 88 44 89 45 90 46 91 47 92 48 93
REMARK H PARENT 6 6 79 12 10 24 72 43 38 54
REMARK Flexibility Score: inf
ROOT
ATOM      1  C   UNL A   1      45.440  23.339  26.710  1.00  0.00     0.042 C 
ENDROOT
BRANCH   1   2
ATOM      2  C   UNL A   1      46.016  23.340  25.302  1.00  0.00     0.118 C 
BRANCH   2   3
ATOM      3  N   UNL A   1      45.520  22.222  24.514  1.00  0.00    -0.351 N 
ATOM      4  C   UNL A   1      44.240  21.785  24.732  1.00  0.00     0.278 C 
ATOM      5  O   UNL A   1      43.309  22.446  24.268  1.00  0.00    -0.268 OA
ATOM      6  H   UNL A   1      46.091  21.789  23.840  1.00  0.00     0.163 HD
BRANCH   4   7
ATOM      7  C   UNL A   1      44.037  20.442  25.489  1.00  0.00     0.273 C 
BRANCH   7   8
ATOM      8  C   UNL A   1      44.553  19.154  24.810  1.00  0.00     0.072 C 
ATOM      9  C   UNL A   1      45.840  18.584  25.391  1.00  0.00     0.011 C 
ENDBRANCH   7   8
BRANCH   7  10
ATOM     10  N   UNL A   1      42.631  20.279  25.937  1.00  0.00    -0.322 N 
ATOM     11  C   UNL A   1      42.124  18.921  26.017  1.00  0.00     0.333 C 
ATOM     12  H   UNL A   1      42.224  20.670  25.087  1.00  0.00     0.348 HD
BRANCH  10  13
ATOM     13  C   UNL A   1      42.038  21.215  26.900  1.00  0.00     0.320 C 
BRANCH  13  14
ATOM     14  C   UNL A   1      40.731  21.930  26.609  1.00  0.00     0.095 A 
ATOM     15  C   UNL A   1      40.403  23.178  27.123  1.00  0.00     0.030 A 
ATOM     16  N   UNL A   1      39.831  21.210  25.884  1.00  0.00    -0.252 NA
ATOM     17  C   UNL A   1      39.165  23.738  26.814  1.00  0.00     0.004 A 
ATOM     18  C   UNL A   1      38.614  21.745  25.624  1.00  0.00     0.038 A 
ATOM     19  C   UNL A   1      38.253  23.012  26.058  1.00  0.00     0.023 A 
ATOM     20  C   UNL A   1      37.622  20.861  24.929  1.00  0.00     0.067 C 
ENDBRANCH  13  14
ENDBRANCH  10  13
ENDBRANCH   7  10
ENDBRANCH   4   7
ENDBRANCH   2   3
ENDBRANCH   1   2
BRANCH   1  21
ATOM     21  C   UNL A   1      44.643  24.595  27.037  1.00  0.00     0.118 C 
BRANCH  21  22
ATOM     22  N   UNL A   1      43.742  24.969  25.957  1.00  0.00    -0.352 N 
ATOM     23  C   UNL A   1      42.641  25.790  25.971  1.00  0.00     0.251 C 
ATOM     24  H   UNL A   1      43.955  24.573  25.082  1.00  0.00     0.163 HD
ATOM     25  O   UNL A   1      41.878  25.784  25.007  1.00  0.00    -0.269 OA
BRANCH  23  26
ATOM     26  C   UNL A   1      42.351  26.666  27.132  1.00  0.00     0.039 A 
ATOM     27  C   UNL A   1      41.442  26.225  28.099  1.00  0.00     0.014 A 
ATOM     28  C   UNL A   1      42.915  27.939  27.248  1.00  0.00     0.014 A 
ATOM     29  C   UNL A   1      41.139  27.037  29.198  1.00  0.00     0.010 A 
ATOM     30  C   UNL A   1      42.677  28.712  28.384  1.00  0.00     0.010 A 
ATOM     31  C   UNL A   1      41.772  28.279  29.364  1.00  0.00    -0.014 A 
BRANCH  31  32
ATOM     32  C   UNL A   1      41.472  29.152  30.531  1.00  0.00     0.031 A 
ATOM     33  C   UNL A   1      42.289  29.031  31.794  1.00  0.00     0.074 A 
ATOM     34  C   UNL A   1      40.429  30.006  30.484  1.00  0.00     0.049 A 
ATOM     35  N   UNL A   1      42.132  29.642  32.941  1.00  0.00    -0.248 NA
ATOM     36  C   UNL A   1      43.409  28.075  31.777  1.00  0.00     0.031 C 
ATOM     37  C   UNL A   1      39.519  30.172  29.349  1.00  0.00     0.029 A 
ATOM     38  N   UNL A   1      39.946  30.883  31.424  1.00  0.00    -0.354 N 
ATOM     39  C   UNL A   1      43.104  29.120  33.788  1.00  0.00     0.074 A 
ATOM     40  C   UNL A   1      43.826  28.119  33.034  1.00  0.00     0.031 C 
ATOM     41  C   UNL A   1      38.596  31.098  29.655  1.00  0.00     0.029 A 
ATOM     42  C   UNL A   1      38.829  31.573  31.016  1.00  0.00     0.049 A 
ATOM     43  H   UNL A   1      40.360  31.004  32.309  1.00  0.00     0.167 HD
ATOM     44  C   UNL A   1      43.383  29.458  35.069  1.00  0.00     0.037 A 
ATOM     45  C   UNL A   1      38.073  32.481  31.665  1.00  0.00     0.037 A 
ATOM     46  C   UNL A   1      42.711  30.504  35.794  1.00  0.00     0.049 A 
ATOM     47  C   UNL A   1      38.451  32.888  33.064  1.00  0.00     0.074 A 
ATOM     48  C   UNL A   1      42.992  30.989  37.059  1.00  0.00     0.029 A 
ATOM     49  N   UNL A   1      41.632  31.231  35.316  1.00  0.00    -0.354 N 
ATOM     50  N   UNL A   1      39.429  32.442  33.817  1.00  0.00    -0.248 NA
ATOM     51  C   UNL A   1      37.634  33.934  33.698  1.00  0.00     0.031 C 
ATOM     52  C   UNL A   1      42.064  31.991  37.361  1.00  0.00     0.029 A 
ATOM     53  C   UNL A   1      41.228  32.154  36.267  1.00  0.00     0.049 A 
ATOM     54  H   UNL A   1      41.215  31.111  34.433  1.00  0.00     0.167 HD
ATOM     55  C   UNL A   1      39.359  33.171  34.999  1.00  0.00     0.074 A 
ATOM     56  C   UNL A   1      38.254  34.095  34.858  1.00  0.00     0.031 C 
ATOM     57  C   UNL A   1      40.139  33.082  36.104  1.00  0.00     0.037 A 
BRANCH  44  58
ATOM     58  C   UNL A   1      44.474  28.706  35.778  1.00  0.00     0.058 A 
ATOM     59  C   UNL A   1      45.813  29.120  35.719  1.00  0.00     0.135 A 
ATOM     60  C   UNL A   1      44.164  27.602  36.590  1.00  0.00     0.135 A 
ATOM     61  F   UNL A   1      46.166  30.159  34.945  1.00  0.00    -0.206 F 
ATOM     62  C   UNL A   1      46.809  28.461  36.432  1.00  0.00     0.059 A 
ATOM     63  C   UNL A   1      45.140  26.942  37.329  1.00  0.00     0.059 A 
ATOM     64  F   UNL A   1      42.898  27.164  36.678  1.00  0.00    -0.206 F 
ATOM     65  C   UNL A   1      46.462  27.375  37.237  1.00  0.00     0.060 A 
BRANCH  65  66
ATOM     66  S   UNL A   1      47.758  26.554  38.189  1.00  0.00     0.124 S 
ATOM     67  O   UNL A   1      47.126  25.274  38.496  1.00  0.00    -0.237 OA
ATOM     68  O   UNL A   1      48.861  26.499  37.232  1.00  0.00    -0.237 OA
ATOM     69  O   UNL A   1      47.963  27.442  39.325  1.00  0.00    -0.744 OA
ENDBRANCH  65  66
ENDBRANCH  44  58
BRANCH  45  70
ATOM     70  C   UNL A   1      36.886  33.080  31.001  1.00  0.00     0.058 A 
ATOM     71  C   UNL A   1      37.029  34.079  30.027  1.00  0.00     0.135 A 
ATOM     72  C   UNL A   1      35.585  32.681  31.344  1.00  0.00     0.135 A 
ATOM     73  F   UNL A   1      38.253  34.496  29.669  1.00  0.00    -0.206 F 
ATOM     74  C   UNL A   1      35.925  34.686  29.438  1.00  0.00     0.059 A 
ATOM     75  C   UNL A   1      34.464  33.257  30.752  1.00  0.00     0.059 A 
ATOM     76  F   UNL A   1      35.395  31.715  32.255  1.00  0.00    -0.206 F 
ATOM     77  C   UNL A   1      34.645  34.272  29.812  1.00  0.00     0.060 A 
BRANCH  77  78
ATOM     78  S   UNL A   1      33.214  35.051  29.032  1.00  0.00     0.124 S 
ATOM     79  O   UNL A   1      32.349  35.288  30.182  1.00  0.00    -0.237 OA
ATOM     80  O   UNL A   1      33.802  36.237  28.419  1.00  0.00    -0.237 OA
ATOM     81  O   UNL A   1      32.754  34.033  28.093  1.00  0.00    -0.744 OA
ENDBRANCH  77  78
ENDBRANCH  45  70
BRANCH  57  82
ATOM     82  C   UNL A   1      39.857  34.034  37.229  1.00  0.00     0.058 A 
ATOM     83  C   UNL A   1      39.015  33.685  38.296  1.00  0.00     0.135 A 
ATOM     84  C   UNL A   1      40.471  35.296  37.262  1.00  0.00     0.135 A 
ATOM     85  F   UNL A   1      38.400  32.491  38.309  1.00  0.00    -0.206 F 
ATOM     86  C   UNL A   1      38.772  34.565  39.346  1.00  0.00     0.059 A 
ATOM     87  C   UNL A   1      40.262  36.182  38.313  1.00  0.00     0.059 A 
ATOM     88  F   UNL A   1      41.294  35.673  36.270  1.00  0.00    -0.206 F 
ATOM     89  C   UNL A   1      39.398  35.813  39.343  1.00  0.00     0.060 A 
BRANCH  89  90
ATOM     90  S   UNL A   1      39.097  36.939  40.723  1.00  0.00     0.124 S 
ATOM     91  O   UNL A   1      38.275  37.964  40.090  1.00  0.00    -0.237 OA
ATOM     92  O   UNL A   1      38.413  36.083  41.687  1.00  0.00    -0.237 OA
ATOM     93  O   UNL A   1      40.440  37.361  41.113  1.00  0.00    -0.744 OA
ENDBRANCH  89  90
ENDBRANCH  57  82
ENDBRANCH  31  32
ENDBRANCH  23  26
ENDBRANCH  21  22
ENDBRANCH   1  21
TORSDOF 17
ENDMDL
MODEL 2
REMARK VINA RESULT:     -10.5      5.131     12.721
REMARK SMILES CC[C@@H](C(=O)NCCCNC(=O)c1ccc(-c2c3nc(c(-c4c(F)cc(S(=O)(=O)[O-])cc4F)c4ccc([nH]4)c(-c4c(F)cc(S(=O)(=O)[O-])cc4F)c4nc(c(-c5c(F)cc(S(=O)(=O)[O-])cc5F)c5ccc2[nH]5)C=C4)C=C3)cc1)[N@@H+](C)Cc1cccc(C)n1
REMARK SMILES IDX 8 1 7 2 6 3 4 4 5 5 3 7 2 8 1 9 79 10 80 11 81 13 82 14
REMARK SMILES IDX 83 15 88 16 84 17 86 18 85 19 87 20 9 21 10 22 11 23 12 25
REMARK SMILES IDX 13 26 14 27 78 28 15 29 77 30 16 31 17 32 18 33 71 34 19 35
REMARK SMILES IDX 76 36 70 37 72 38 20 39 75 40 69 41 68 42 21 44 55 45 34 46
REMARK SMILES IDX 54 47 35 48 38 49 53 50 73 51 36 52 37 53 52 55 74 56 39 57
REMARK SMILES IDX 22 58 23 59 32 60 24 61 25 62 31 63 33 64 26 65 27 66 28 67
REMARK SMILES IDX 29 68 30 69 56 70 57 71 66 72 58 73 59 74 65 75 67 76 60 77
REMARK SMILES IDX 61 78 62 79 63 80 64 81 40 82 41 83 50 84 42 85 43 86 49 87
REMARK SMILES IDX 51 88 44 89 45 90 46 91 47 92 48 93
REMARK H PARENT 6 6 79 12 10 24 72 43 38 54
REMARK Flexibility Score: inf
ROOT
ATOM      1  C   UNL A   1      34.410  33.572  27.949  1.00  0.00     0.042 C 
ENDROOT
BRANCH   1   2
ATOM      2  C   UNL A   1      34.409  34.941  28.614  1.00  0.00     0.118 C 
BRANCH   2   3
ATOM      3  N   UNL A   1      33.115  35.258  29.197  1.00  0.00    -0.351 N 
ATOM      4  C   UNL A   1      33.061  36.169  30.218  1.00  0.00     0.278 C 
ATOM      5  O   UNL A   1      33.162  37.366  29.941  1.00  0.00    -0.268 OA
ATOM      6  H   UNL A   1      32.294  34.827  28.863  1.00  0.00     0.163 HD
BRANCH   4   7
ATOM      7  C   UNL A   1      32.805  35.647  31.660  1.00  0.00     0.273 C 
BRANCH   7   8
ATOM      8  C   UNL A   1      32.031  36.571  32.627  1.00  0.00     0.072 C 
ATOM      9  C   UNL A   1      30.654  36.070  33.042  1.00  0.00     0.011 C 
ENDBRANCH   7   8
BRANCH   7  10
ATOM     10  N   UNL A   1      34.055  35.150  32.288  1.00  0.00    -0.322 N 
ATOM     11  C   UNL A   1      34.498  35.831  33.491  1.00  0.00     0.333 C 
ATOM     12  H   UNL A   1      34.665  35.488  31.544  1.00  0.00     0.348 HD
BRANCH  10  13
ATOM     13  C   UNL A   1      34.414  33.728  32.218  1.00  0.00     0.320 C 
BRANCH  13  14
ATOM     14  C   UNL A   1      35.857  33.268  32.320  1.00  0.00     0.095 A 
ATOM     15  C   UNL A   1      36.303  32.324  33.236  1.00  0.00     0.030 A 
ATOM     16  N   UNL A   1      36.730  33.931  31.512  1.00  0.00    -0.252 NA
ATOM     17  C   UNL A   1      37.655  31.988  33.264  1.00  0.00     0.004 A 
ATOM     18  C   UNL A   1      38.049  33.628  31.577  1.00  0.00     0.038 A 
ATOM     19  C   UNL A   1      38.544  32.650  32.427  1.00  0.00     0.023 A 
ATOM     20  C   UNL A   1      38.977  34.473  30.757  1.00  0.00     0.067 C 
ENDBRANCH  13  14
ENDBRANCH  10  13
ENDBRANCH   7  10
ENDBRANCH   4   7
ENDBRANCH   2   3
ENDBRANCH   1   2
BRANCH   1  21
ATOM     21  C   UNL A   1      34.756  32.437  28.905  1.00  0.00     0.118 C 
BRANCH  21  22
ATOM     22  N   UNL A   1      34.116  31.187  28.526  1.00  0.00    -0.352 N 
ATOM     23  C   UNL A   1      34.674  29.992  28.138  1.00  0.00     0.251 C 
ATOM     24  H   UNL A   1      33.132  31.198  28.551  1.00  0.00     0.163 HD
ATOM     25  O   UNL A   1      33.955  29.135  27.629  1.00  0.00    -0.269 OA
BRANCH  23  26
ATOM     26  C   UNL A   1      36.123  29.731  28.307  1.00  0.00     0.039 A 
ATOM     27  C   UNL A   1      36.973  29.906  27.211  1.00  0.00     0.014 A 
ATOM     28  C   UNL A   1      36.645  29.258  29.514  1.00  0.00     0.014 A 
ATOM     29  C   UNL A   1      38.343  29.652  27.338  1.00  0.00     0.010 A 
ATOM     30  C   UNL A   1      38.021  29.087  29.665  1.00  0.00     0.010 A 
ATOM     31  C   UNL A   1      38.884  29.263  28.574  1.00  0.00    -0.014 A 
BRANCH  31  32
ATOM     32  C   UNL A   1      40.340  29.000  28.734  1.00  0.00     0.031 A 
ATOM     33  C   UNL A   1      40.912  27.657  28.352  1.00  0.00     0.074 A 
ATOM     34  C   UNL A   1      41.139  29.940  29.281  1.00  0.00     0.049 A 
ATOM     35  N   UNL A   1      42.134  27.209  28.492  1.00  0.00    -0.248 NA
ATOM     36  C   UNL A   1      39.983  26.677  27.767  1.00  0.00     0.031 C 
ATOM     37  C   UNL A   1      40.701  31.255  29.753  1.00  0.00     0.029 A 
ATOM     38  N   UNL A   1      42.486  29.926  29.549  1.00  0.00    -0.354 N 
ATOM     39  C   UNL A   1      42.112  25.892  28.049  1.00  0.00     0.074 A 
ATOM     40  C   UNL A   1      40.749  25.599  27.665  1.00  0.00     0.031 C 
ATOM     41  C   UNL A   1      41.758  31.922  30.244  1.00  0.00     0.029 A 
ATOM     42  C   UNL A   1      42.943  31.076  30.147  1.00  0.00     0.049 A 
ATOM     43  H   UNL A   1      43.069  29.162  29.333  1.00  0.00     0.167 HD
ATOM     44  C   UNL A   1      43.136  25.012  27.951  1.00  0.00     0.037 A 
ATOM     45  C   UNL A   1      44.177  31.410  30.576  1.00  0.00     0.037 A 
ATOM     46  C   UNL A   1      44.505  25.327  28.265  1.00  0.00     0.049 A 
ATOM     47  C   UNL A   1      45.311  30.437  30.388  1.00  0.00     0.074 A 
ATOM     48  C   UNL A   1      45.628  24.535  28.099  1.00  0.00     0.029 A 
ATOM     49  N   UNL A   1      44.939  26.530  28.799  1.00  0.00    -0.354 N 
ATOM     50  N   UNL A   1      45.282  29.226  29.888  1.00  0.00    -0.248 NA
ATOM     51  C   UNL A   1      46.647  30.882  30.810  1.00  0.00     0.031 C 
ATOM     52  C   UNL A   1      46.739  25.247  28.562  1.00  0.00     0.029 A 
ATOM     53  C   UNL A   1      46.311  26.497  28.981  1.00  0.00     0.049 A 
ATOM     54  H   UNL A   1      44.358  27.294  29.017  1.00  0.00     0.167 HD
ATOM     55  C   UNL A   1      46.598  28.776  29.909  1.00  0.00     0.074 A 
ATOM     56  C   UNL A   1      47.399  29.849  30.460  1.00  0.00     0.031 C 
ATOM     57  C   UNL A   1      47.097  27.581  29.510  1.00  0.00     0.037 A 
BRANCH  44  58
ATOM     58  C   UNL A   1      42.832  23.622  27.468  1.00  0.00     0.058 A 
ATOM     59  C   UNL A   1      42.819  23.301  26.103  1.00  0.00     0.135 A 
ATOM     60  C   UNL A   1      42.628  22.579  28.388  1.00  0.00     0.135 A 
ATOM     61  F   UNL A   1      42.992  24.262  25.181  1.00  0.00    -0.206 F 
ATOM     62  C   UNL A   1      42.603  21.999  25.665  1.00  0.00     0.059 A 
ATOM     63  C   UNL A   1      42.433  21.266  27.973  1.00  0.00     0.059 A 
ATOM     64  F   UNL A   1      42.628  22.833  29.707  1.00  0.00    -0.206 F 
ATOM     65  C   UNL A   1      42.415  20.987  26.607  1.00  0.00     0.060 A 
BRANCH  65  66
ATOM     66  S   UNL A   1      42.178  19.295  26.026  1.00  0.00     0.124 S 
ATOM     67  O   UNL A   1      42.621  18.525  27.185  1.00  0.00    -0.237 OA
ATOM     68  O   UNL A   1      40.742  19.256  25.754  1.00  0.00    -0.237 OA
ATOM     69  O   UNL A   1      43.037  19.213  24.852  1.00  0.00    -0.744 OA
ENDBRANCH  65  66
ENDBRANCH  44  58
BRANCH  45  70
ATOM     70  C   UNL A   1      44.415  32.730  31.218  1.00  0.00     0.058 A 
ATOM     71  C   UNL A   1      44.321  32.886  32.609  1.00  0.00     0.135 A 
ATOM     72  C   UNL A   1      44.721  33.864  30.452  1.00  0.00     0.135 A 
ATOM     73  F   UNL A   1      44.027  31.830  33.383  1.00  0.00    -0.206 F 
ATOM     74  C   UNL A   1      44.488  34.125  33.217  1.00  0.00     0.059 A 
ATOM     75  C   UNL A   1      44.915  35.112  31.038  1.00  0.00     0.059 A 
ATOM     76  F   UNL A   1      44.843  33.764  29.119  1.00  0.00    -0.206 F 
ATOM     77  C   UNL A   1      44.779  35.235  32.421  1.00  0.00     0.060 A 
BRANCH  77  78
ATOM     78  S   UNL A   1      45.012  36.840  33.216  1.00  0.00     0.124 S 
ATOM     79  O   UNL A   1      43.853  37.578  32.727  1.00  0.00    -0.237 OA
ATOM     80  O   UNL A   1      44.997  36.491  34.632  1.00  0.00    -0.237 OA
ATOM     81  O   UNL A   1      46.305  37.280  32.702  1.00  0.00    -0.744 OA
ENDBRANCH  77  78
ENDBRANCH  45  70
BRANCH  57  82
ATOM     82  C   UNL A   1      48.582  27.383  29.613  1.00  0.00     0.058 A 
ATOM     83  C   UNL A   1      49.162  26.700  30.693  1.00  0.00     0.135 A 
ATOM     84  C   UNL A   1      49.431  27.845  28.594  1.00  0.00     0.135 A 
ATOM     85  F   UNL A   1      48.394  26.243  31.694  1.00  0.00    -0.206 F 
ATOM     86  C   UNL A   1      50.537  26.504  30.772  1.00  0.00     0.059 A 
ATOM     87  C   UNL A   1      50.805  27.639  28.640  1.00  0.00     0.059 A 
ATOM     88  F   UNL A   1      48.923  28.494  27.533  1.00  0.00    -0.206 F 
ATOM     89  C   UNL A   1      51.351  26.980  29.742  1.00  0.00     0.060 A 
BRANCH  89  90
ATOM     90  S   UNL A   1      53.132  26.698  29.840  1.00  0.00     0.124 S 
ATOM     91  O   UNL A   1      53.383  25.977  28.597  1.00  0.00    -0.237 OA
ATOM     92  O   UNL A   1      53.664  28.055  29.905  1.00  0.00    -0.237 OA
ATOM     93  O   UNL A   1      53.283  25.914  31.063  1.00  0.00    -0.744 OA
ENDBRANCH  89  90
ENDBRANCH  57  82
ENDBRANCH  31  32
ENDBRANCH  23  26
ENDBRANCH  21  22
ENDBRANCH   1  21
TORSDOF 17
ENDMDL
MODEL 3
REMARK VINA RESULT:     -10.4      3.095      4.619
REMARK SMILES CC[C@@H](C(=O)NCCCNC(=O)c1ccc(-c2c3nc(c(-c4c(F)cc(S(=O)(=O)[O-])cc4F)c4ccc([nH]4)c(-c4c(F)cc(S(=O)(=O)[O-])cc4F)c4nc(c(-c5c(F)cc(S(=O)(=O)[O-])cc5F)c5ccc2[nH]5)C=C4)C=C3)cc1)[N@@H+](C)Cc1cccc(C)n1
REMARK SMILES IDX 8 1 7 2 6 3 4 4 5 5 3 7 2 8 1 9 79 10 80 11 81 13 82 14
REMARK SMILES IDX 83 15 88 16 84 17 86 18 85 19 87 20 9 21 10 22 11 23 12 25
REMARK SMILES IDX 13 26 14 27 78 28 15 29 77 30 16 31 17 32 18 33 71 34 19 35
REMARK SMILES IDX 76 36 70 37 72 38 20 39 75 40 69 41 68 42 21 44 55 45 34 46
REMARK SMILES IDX 54 47 35 48 38 49 53 50 73 51 36 52 37 53 52 55 74 56 39 57
REMARK SMILES IDX 22 58 23 59 32 60 24 61 25 62 31 63 33 64 26 65 27 66 28 67
REMARK SMILES IDX 29 68 30 69 56 70 57 71 66 72 58 73 59 74 65 75 67 76 60 77
REMARK SMILES IDX 61 78 62 79 63 80 64 81 40 82 41 83 50 84 42 85 43 86 49 87
REMARK SMILES IDX 51 88 44 89 45 90 46 91 47 92 48 93
REMARK H PARENT 6 6 79 12 10 24 72 43 38 54
REMARK Flexibility Score: inf
ROOT
ATOM      1  C   UNL A   1      41.819  22.422  26.818  1.00  0.00     0.042 C 
ENDROOT
BRANCH   1   2
ATOM      2  C   UNL A   1      42.573  22.673  28.116  1.00  0.00     0.118 C 
BRANCH   2   3
ATOM      3  N   UNL A   1      44.000  22.433  27.967  1.00  0.00    -0.351 N 
ATOM      4  C   UNL A   1      44.857  23.497  28.058  1.00  0.00     0.278 C 
ATOM      5  O   UNL A   1      45.112  23.951  29.175  1.00  0.00    -0.268 OA
ATOM      6  H   UNL A   1      44.343  21.524  27.804  1.00  0.00     0.163 HD
BRANCH   4   7
ATOM      7  C   UNL A   1      45.515  24.029  26.753  1.00  0.00     0.273 C 
BRANCH   7   8
ATOM      8  C   UNL A   1      46.123  25.449  26.785  1.00  0.00     0.072 C 
ATOM      9  C   UNL A   1      47.452  25.603  26.060  1.00  0.00     0.011 C 
ENDBRANCH   7   8
BRANCH   7  10
ATOM     10  N   UNL A   1      44.615  23.864  25.584  1.00  0.00    -0.322 N 
ATOM     11  C   UNL A   1      43.907  25.048  25.132  1.00  0.00     0.333 C 
ATOM     12  H   UNL A   1      43.922  23.309  26.088  1.00  0.00     0.348 HD
BRANCH  10  13
ATOM     13  C   UNL A   1      44.928  22.892  24.528  1.00  0.00     0.320 C 
BRANCH  13  14
ATOM     14  C   UNL A   1      45.125  21.419  24.839  1.00  0.00     0.095 A 
ATOM     15  C   UNL A   1      46.329  20.749  24.667  1.00  0.00     0.030 A 
ATOM     16  N   UNL A   1      43.995  20.752  25.205  1.00  0.00    -0.252 NA
ATOM     17  C   UNL A   1      46.400  19.389  24.960  1.00  0.00     0.004 A 
ATOM     18  C   UNL A   1      44.064  19.421  25.446  1.00  0.00     0.038 A 
ATOM     19  C   UNL A   1      45.252  18.711  25.351  1.00  0.00     0.023 A 
ATOM     20  C   UNL A   1      42.770  18.717  25.725  1.00  0.00     0.067 C 
ENDBRANCH  13  14
ENDBRANCH  10  13
ENDBRANCH   7  10
ENDBRANCH   4   7
ENDBRANCH   2   3
ENDBRANCH   1   2
BRANCH   1  21
ATOM     21  C   UNL A   1      40.537  21.621  27.012  1.00  0.00     0.118 C 
BRANCH  21  22
ATOM     22  N   UNL A   1      39.487  22.040  26.096  1.00  0.00    -0.352 N 
ATOM     23  C   UNL A   1      38.782  23.218  26.041  1.00  0.00     0.251 C 
ATOM     24  H   UNL A   1      39.244  21.377  25.410  1.00  0.00     0.163 HD
ATOM     25  O   UNL A   1      37.772  23.278  25.342  1.00  0.00    -0.269 OA
BRANCH  23  26
ATOM     26  C   UNL A   1      39.209  24.405  26.819  1.00  0.00     0.039 A 
ATOM     27  C   UNL A   1      40.006  25.370  26.195  1.00  0.00     0.014 A 
ATOM     28  C   UNL A   1      38.887  24.548  28.172  1.00  0.00     0.014 A 
ATOM     29  C   UNL A   1      40.436  26.493  26.911  1.00  0.00     0.010 A 
ATOM     30  C   UNL A   1      39.245  25.707  28.859  1.00  0.00     0.010 A 
ATOM     31  C   UNL A   1      40.039  26.685  28.244  1.00  0.00    -0.014 A 
BRANCH  31  32
ATOM     32  C   UNL A   1      40.476  27.878  29.018  1.00  0.00     0.031 A 
ATOM     33  C   UNL A   1      41.818  27.883  29.706  1.00  0.00     0.074 A 
ATOM     34  C   UNL A   1      39.644  28.931  29.160  1.00  0.00     0.049 A 
ATOM     35  N   UNL A   1      42.342  28.791  30.490  1.00  0.00    -0.248 NA
ATOM     36  C   UNL A   1      42.673  26.699  29.513  1.00  0.00     0.031 C 
ATOM     37  C   UNL A   1      38.293  29.026  28.603  1.00  0.00     0.029 A 
ATOM     38  N   UNL A   1      39.806  30.116  29.834  1.00  0.00    -0.354 N 
ATOM     39  C   UNL A   1      43.562  28.274  30.912  1.00  0.00     0.074 A 
ATOM     40  C   UNL A   1      43.690  26.960  30.322  1.00  0.00     0.031 C 
ATOM     41  C   UNL A   1      37.754  30.206  28.950  1.00  0.00     0.029 A 
ATOM     42  C   UNL A   1      38.707  30.941  29.775  1.00  0.00     0.049 A 
ATOM     43  H   UNL A   1      40.632  30.353  30.316  1.00  0.00     0.167 HD
ATOM     44  C   UNL A   1      44.500  28.850  31.700  1.00  0.00     0.037 A 
ATOM     45  C   UNL A   1      38.489  32.151  30.329  1.00  0.00     0.037 A 
ATOM     46  C   UNL A   1      44.405  30.186  32.227  1.00  0.00     0.049 A 
ATOM     47  C   UNL A   1      39.579  32.797  31.142  1.00  0.00     0.074 A 
ATOM     48  C   UNL A   1      45.349  30.894  32.949  1.00  0.00     0.029 A 
ATOM     49  N   UNL A   1      43.306  31.018  32.082  1.00  0.00    -0.354 N 
ATOM     50  N   UNL A   1      40.761  32.324  31.457  1.00  0.00    -0.248 NA
ATOM     51  C   UNL A   1      39.312  34.146  31.662  1.00  0.00     0.031 C 
ATOM     52  C   UNL A   1      44.811  32.146  33.267  1.00  0.00     0.029 A 
ATOM     53  C   UNL A   1      43.544  32.228  32.711  1.00  0.00     0.049 A 
ATOM     54  H   UNL A   1      42.478  30.784  31.602  1.00  0.00     0.167 HD
ATOM     55  C   UNL A   1      41.387  33.328  32.188  1.00  0.00     0.074 A 
ATOM     56  C   UNL A   1      40.459  34.438  32.258  1.00  0.00     0.031 C 
ATOM     57  C   UNL A   1      42.619  33.331  32.753  1.00  0.00     0.037 A 
BRANCH  44  58
ATOM     58  C   UNL A   1      45.729  28.053  32.036  1.00  0.00     0.058 A 
ATOM     59  C   UNL A   1      45.819  27.296  33.213  1.00  0.00     0.135 A 
ATOM     60  C   UNL A   1      46.800  27.984  31.129  1.00  0.00     0.135 A 
ATOM     61  F   UNL A   1      44.831  27.339  34.122  1.00  0.00    -0.206 F 
ATOM     62  C   UNL A   1      46.931  26.507  33.486  1.00  0.00     0.059 A 
ATOM     63  C   UNL A   1      47.912  27.184  31.370  1.00  0.00     0.059 A 
ATOM     64  F   UNL A   1      46.765  28.692  29.988  1.00  0.00    -0.206 F 
ATOM     65  C   UNL A   1      47.971  26.454  32.557  1.00  0.00     0.060 A 
BRANCH  65  66
ATOM     66  S   UNL A   1      49.391  25.394  32.904  1.00  0.00     0.124 S 
ATOM     67  O   UNL A   1      50.235  26.288  33.692  1.00  0.00    -0.237 OA
ATOM     68  O   UNL A   1      48.782  24.289  33.642  1.00  0.00    -0.237 OA
ATOM     69  O   UNL A   1      49.897  25.056  31.581  1.00  0.00    -0.744 OA
ENDBRANCH  65  66
ENDBRANCH  44  58
BRANCH  45  70
ATOM     70  C   UNL A   1      37.188  32.843  30.129  1.00  0.00     0.058 A 
ATOM     71  C   UNL A   1      36.986  33.702  29.038  1.00  0.00     0.135 A 
ATOM     72  C   UNL A   1      36.131  32.676  31.035  1.00  0.00     0.135 A 
ATOM     73  F   UNL A   1      37.970  33.895  28.146  1.00  0.00    -0.206 F 
ATOM     74  C   UNL A   1      35.794  34.397  28.869  1.00  0.00     0.059 A 
ATOM     75  C   UNL A   1      34.919  33.344  30.876  1.00  0.00     0.059 A 
ATOM     76  F   UNL A   1      36.267  31.851  32.084  1.00  0.00    -0.206 F 
ATOM     77  C   UNL A   1      34.767  34.216  29.798  1.00  0.00     0.060 A 
BRANCH  77  78
ATOM     78  S   UNL A   1      33.214  35.108  29.566  1.00  0.00     0.124 S 
ATOM     79  O   UNL A   1      32.611  34.992  30.888  1.00  0.00    -0.237 OA
ATOM     80  O   UNL A   1      33.674  36.440  29.188  1.00  0.00    -0.237 OA
ATOM     81  O   UNL A   1      32.557  34.357  28.501  1.00  0.00    -0.744 OA
ENDBRANCH  77  78
ENDBRANCH  45  70
BRANCH  57  82
ATOM     82  C   UNL A   1      43.055  34.583  33.457  1.00  0.00     0.058 A 
ATOM     83  C   UNL A   1      42.793  34.791  34.820  1.00  0.00     0.135 A 
ATOM     84  C   UNL A   1      43.782  35.568  32.769  1.00  0.00     0.135 A 
ATOM     85  F   UNL A   1      42.098  33.882  35.521  1.00  0.00    -0.206 F 
ATOM     86  C   UNL A   1      43.216  35.946  35.471  1.00  0.00     0.059 A 
ATOM     87  C   UNL A   1      44.236  36.718  33.405  1.00  0.00     0.059 A 
ATOM     88  F   UNL A   1      44.068  35.410  31.467  1.00  0.00    -0.206 F 
ATOM     89  C   UNL A   1      43.934  36.904  34.754  1.00  0.00     0.060 A 
BRANCH  89  90
ATOM     90  S   UNL A   1      44.502  38.388  35.614  1.00  0.00     0.124 S 
ATOM     91  O   UNL A   1      45.943  38.318  35.397  1.00  0.00    -0.237 OA
ATOM     92  O   UNL A   1      43.805  39.454  34.901  1.00  0.00    -0.237 OA
ATOM     93  O   UNL A   1      44.061  38.171  36.989  1.00  0.00    -0.744 OA
ENDBRANCH  89  90
ENDBRANCH  57  82
ENDBRANCH  31  32
ENDBRANCH  23  26
ENDBRANCH  21  22
ENDBRANCH   1  21
TORSDOF 17
ENDMDL
