MODEL 1
REMARK VINA RESULT:     -10.7      0.000      0.000
REMARK SMILES CC(C)[C@@H]([NH3+])C(=O)N[C@@H](Cc1ccccc1)C(=O)NCCCNC(=O)c1ccc(-c2c3nc(c(-c4c(F)cc(S(=O)(=O)[O-])cc4F)c4ccc([nH]4)c(-c4c(F)cc(S(=O)(=O)[O-])cc4F)c4nc(c(-c5c(F)cc(S(=O)(=O)[O-])cc5F)c5ccc2[nH]5)C=C4)C=C3)cc1
REMARK SMILES IDX 21 1 20 2 19 3 17 4 18 5 9 7 8 8 6 9 7 10 4 12 2 13 1 14
REMARK SMILES IDX 3 15 5 16 10 20 11 21 12 22 16 23 13 24 15 25 14 26 22 27
REMARK SMILES IDX 23 28 24 29 25 31 26 32 27 33 91 34 28 35 90 36 29 37 30 38
REMARK SMILES IDX 31 39 84 40 32 41 89 42 83 43 85 44 33 45 88 46 82 47 81 48
REMARK SMILES IDX 34 50 68 51 47 52 67 53 48 54 51 55 66 56 86 57 49 58 50 59
REMARK SMILES IDX 65 61 87 62 52 63 35 64 36 65 45 66 37 67 38 68 44 69 46 70
REMARK SMILES IDX 39 71 40 72 41 73 42 74 43 75 69 76 70 77 79 78 71 79 72 80
REMARK SMILES IDX 78 81 80 82 73 83 74 84 75 85 76 86 77 87 53 88 54 89 63 90
REMARK SMILES IDX 55 91 56 92 62 93 64 94 57 95 58 96 59 97 60 98 61 99
REMARK H PARENT 19 6 8 11 5 17 5 18 5 19 23 30 85 49 51 60
REMARK Flexibility Score: inf
ROOT
ATOM      1  C   UNL A   1      33.827  27.514  24.985  1.00  0.00     0.042 C 
ENDROOT
BRANCH   1   2
ATOM      2  C   UNL A   1      33.720  26.043  24.663  1.00  0.00     0.117 C 
BRANCH   2   3
ATOM      3  N   UNL A   1      33.704  25.722  23.256  1.00  0.00    -0.354 N 
ATOM      4  C   UNL A   1      33.695  24.481  22.684  1.00  0.00     0.242 C 
ATOM      5  O   UNL A   1      33.140  24.385  21.582  1.00  0.00    -0.273 OA
ATOM      6  H   UNL A   1      33.697  26.487  22.635  1.00  0.00     0.163 HD
BRANCH   4   7
ATOM      7  C   UNL A   1      34.231  23.219  23.406  1.00  0.00     0.175 C 
BRANCH   7   8
ATOM      8  N   UNL A   1      33.361  22.040  23.296  1.00  0.00    -0.339 N 
ATOM      9  C   UNL A   1      33.009  21.115  24.229  1.00  0.00     0.279 C 
ATOM     10  O   UNL A   1      32.164  20.276  23.905  1.00  0.00    -0.268 OA
ATOM     11  H   UNL A   1      32.970  21.896  22.404  1.00  0.00     0.164 HD
BRANCH   9  12
ATOM     12  C   UNL A   1      33.628  21.091  25.647  1.00  0.00     0.273 C 
BRANCH  12  13
ATOM     13  C   UNL A   1      33.451  22.422  26.418  1.00  0.00     0.051 C 
ATOM     14  C   UNL A   1      31.976  22.779  26.631  1.00  0.00     0.014 C 
ATOM     15  C   UNL A   1      34.163  22.374  27.775  1.00  0.00     0.014 C 
ENDBRANCH  12  13
BRANCH  12  16
ATOM     16  N   UNL A   1      33.104  19.916  26.373  1.00  0.00    -0.347 N 
ATOM     17  H   UNL A   1      33.807  19.585  27.034  1.00  0.00     0.345 HD
ATOM     18  H   UNL A   1      32.888  19.174  25.709  1.00  0.00     0.345 HD
ATOM     19  H   UNL A   1      32.259  20.178  26.879  1.00  0.00     0.345 HD
ENDBRANCH  12  16
ENDBRANCH   9  12
ENDBRANCH   7   8
BRANCH   7  20
ATOM     20  C   UNL A   1      35.725  22.904  23.143  1.00  0.00     0.070 C 
BRANCH  20  21
ATOM     21  C   UNL A   1      36.661  22.815  24.329  1.00  0.00    -0.045 A 
ATOM     22  C   UNL A   1      36.786  23.900  25.209  1.00  0.00     0.004 A 
ATOM     23  C   UNL A   1      37.459  21.678  24.543  1.00  0.00     0.004 A 
ATOM     24  C   UNL A   1      37.739  23.881  26.230  1.00  0.00     0.000 A 
ATOM     25  C   UNL A   1      38.431  21.674  25.547  1.00  0.00     0.000 A 
ATOM     26  C   UNL A   1      38.579  22.779  26.383  1.00  0.00     0.000 A 
ENDBRANCH  20  21
ENDBRANCH   7  20
ENDBRANCH   4   7
ENDBRANCH   2   3
ENDBRANCH   1   2
BRANCH   1  27
ATOM     27  C   UNL A   1      34.184  27.783  26.434  1.00  0.00     0.118 C 
BRANCH  27  28
ATOM     28  N   UNL A   1      33.737  29.093  26.905  1.00  0.00    -0.352 N 
ATOM     29  C   UNL A   1      34.346  30.043  27.695  1.00  0.00     0.251 C 
ATOM     30  H   UNL A   1      32.834  29.344  26.601  1.00  0.00     0.163 HD
ATOM     31  O   UNL A   1      33.696  30.997  28.096  1.00  0.00    -0.269 OA
BRANCH  29  32
ATOM     32  C   UNL A   1      35.767  29.896  28.085  1.00  0.00     0.039 A 
ATOM     33  C   UNL A   1      36.083  29.426  29.363  1.00  0.00     0.014 A 
ATOM     34  C   UNL A   1      36.790  30.214  27.195  1.00  0.00     0.014 A 
ATOM     35  C   UNL A   1      37.418  29.181  29.702  1.00  0.00     0.010 A 
ATOM     36  C   UNL A   1      38.094  29.837  27.477  1.00  0.00     0.010 A 
ATOM     37  C   UNL A   1      38.430  29.331  28.740  1.00  0.00    -0.014 A 
BRANCH  37  38
ATOM     38  C   UNL A   1      39.849  28.992  29.019  1.00  0.00     0.031 A 
ATOM     39  C   UNL A   1      40.761  30.030  29.618  1.00  0.00     0.074 A 
ATOM     40  C   UNL A   1      40.341  27.795  28.641  1.00  0.00     0.049 A 
ATOM     41  N   UNL A   1      42.055  29.988  29.808  1.00  0.00    -0.248 NA
ATOM     42  C   UNL A   1      40.143  31.310  30.008  1.00  0.00     0.031 C 
ATOM     43  C   UNL A   1      39.576  26.728  27.991  1.00  0.00     0.029 A 
ATOM     44  N   UNL A   1      41.608  27.278  28.740  1.00  0.00    -0.354 N 
ATOM     45  C   UNL A   1      42.405  31.241  30.298  1.00  0.00     0.074 A 
ATOM     46  C   UNL A   1      41.202  32.042  30.312  1.00  0.00     0.031 C 
ATOM     47  C   UNL A   1      40.378  25.669  27.791  1.00  0.00     0.029 A 
ATOM     48  C   UNL A   1      41.722  25.998  28.254  1.00  0.00     0.049 A 
ATOM     49  H   UNL A   1      42.364  27.778  29.124  1.00  0.00     0.167 HD
ATOM     50  C   UNL A   1      43.613  31.677  30.730  1.00  0.00     0.037 A 
ATOM     51  C   UNL A   1      42.790  25.181  28.189  1.00  0.00     0.037 A 
ATOM     52  C   UNL A   1      44.792  30.855  30.766  1.00  0.00     0.049 A 
ATOM     53  C   UNL A   1      44.114  25.668  28.707  1.00  0.00     0.074 A 
ATOM     54  C   UNL A   1      46.047  31.167  31.255  1.00  0.00     0.029 A 
ATOM     55  N   UNL A   1      44.856  29.549  30.300  1.00  0.00    -0.354 N 
ATOM     56  N   UNL A   1      44.418  26.838  29.219  1.00  0.00    -0.248 NA
ATOM     57  C   UNL A   1      45.240  24.727  28.642  1.00  0.00     0.031 C 
ATOM     58  C   UNL A   1      46.880  30.060  31.056  1.00  0.00     0.029 A 
ATOM     59  C   UNL A   1      46.133  29.044  30.480  1.00  0.00     0.049 A 
ATOM     60  H   UNL A   1      44.104  29.053  29.902  1.00  0.00     0.167 HD
ATOM     61  C   UNL A   1      45.763  26.765  29.561  1.00  0.00     0.074 A 
ATOM     62  C   UNL A   1      46.212  25.433  29.203  1.00  0.00     0.031 C 
ATOM     63  C   UNL A   1      46.555  27.713  30.120  1.00  0.00     0.037 A 
BRANCH  50  64
ATOM     64  C   UNL A   1      43.699  33.102  31.205  1.00  0.00     0.058 A 
ATOM     65  C   UNL A   1      43.967  34.161  30.319  1.00  0.00     0.135 A 
ATOM     66  C   UNL A   1      43.542  33.414  32.565  1.00  0.00     0.135 A 
ATOM     67  F   UNL A   1      44.142  33.918  29.010  1.00  0.00    -0.206 F 
ATOM     68  C   UNL A   1      44.134  35.465  30.772  1.00  0.00     0.059 A 
ATOM     69  C   UNL A   1      43.673  34.718  33.035  1.00  0.00     0.059 A 
ATOM     70  F   UNL A   1      43.282  32.445  33.456  1.00  0.00    -0.206 F 
ATOM     71  C   UNL A   1      43.997  35.732  32.134  1.00  0.00     0.060 A 
BRANCH  71  72
ATOM     72  S   UNL A   1      44.260  37.421  32.715  1.00  0.00     0.124 S 
ATOM     73  O   UNL A   1      45.648  37.358  33.164  1.00  0.00    -0.237 OA
ATOM     74  O   UNL A   1      44.019  38.209  31.511  1.00  0.00    -0.237 OA
ATOM     75  O   UNL A   1      43.264  37.574  33.771  1.00  0.00    -0.744 OA
ENDBRANCH  71  72
ENDBRANCH  50  64
BRANCH  51  76
ATOM     76  C   UNL A   1      42.628  23.798  27.665  1.00  0.00     0.058 A 
ATOM     77  C   UNL A   1      42.481  22.718  28.547  1.00  0.00     0.135 A 
ATOM     78  C   UNL A   1      42.564  23.535  26.289  1.00  0.00     0.135 A 
ATOM     79  F   UNL A   1      42.540  22.921  29.871  1.00  0.00    -0.206 F 
ATOM     80  C   UNL A   1      42.277  21.423  28.084  1.00  0.00     0.059 A 
ATOM     81  C   UNL A   1      42.341  22.249  25.802  1.00  0.00     0.059 A 
ATOM     82  F   UNL A   1      42.682  24.538  25.405  1.00  0.00    -0.206 F 
ATOM     83  C   UNL A   1      42.201  21.199  26.709  1.00  0.00     0.060 A 
BRANCH  83  84
ATOM     84  S   UNL A   1      41.857  19.524  26.124  1.00  0.00     0.124 S 
ATOM     85  O   UNL A   1      42.703  19.447  24.939  1.00  0.00    -0.237 OA
ATOM     86  O   UNL A   1      42.274  18.711  27.262  1.00  0.00    -0.237 OA
ATOM     87  O   UNL A   1      40.418  19.545  25.874  1.00  0.00    -0.744 OA
ENDBRANCH  83  84
ENDBRANCH  51  76
BRANCH  63  88
ATOM     88  C   UNL A   1      47.980  27.335  30.409  1.00  0.00     0.058 A 
ATOM     89  C   UNL A   1      48.999  27.532  29.466  1.00  0.00     0.135 A 
ATOM     90  C   UNL A   1      48.336  26.822  31.667  1.00  0.00     0.135 A 
ATOM     91  F   UNL A   1      48.708  28.014  28.247  1.00  0.00    -0.206 F 
ATOM     92  C   UNL A   1      50.322  27.215  29.753  1.00  0.00     0.059 A 
ATOM     93  C   UNL A   1      49.656  26.521  31.984  1.00  0.00     0.059 A 
ATOM     94  F   UNL A   1      47.398  26.625  32.607  1.00  0.00    -0.206 F 
ATOM     95  C   UNL A   1      50.641  26.713  31.016  1.00  0.00     0.060 A 
BRANCH  95  96
ATOM     96  S   UNL A   1      52.368  26.342  31.390  1.00  0.00     0.124 S 
ATOM     97  O   UNL A   1      52.988  26.476  30.077  1.00  0.00    -0.237 OA
ATOM     98  O   UNL A   1      52.708  27.376  32.362  1.00  0.00    -0.237 OA
ATOM     99  O   UNL A   1      52.314  24.984  31.924  1.00  0.00    -0.744 OA
ENDBRANCH  95  96
ENDBRANCH  63  88
ENDBRANCH  37  38
ENDBRANCH  29  32
ENDBRANCH  27  28
ENDBRANCH   1  27
TORSDOF 19
ENDMDL
MODEL 2
REMARK VINA RESULT:     -10.5      1.438      3.036
REMARK SMILES CC(C)[C@@H]([NH3+])C(=O)N[C@@H](Cc1ccccc1)C(=O)NCCCNC(=O)c1ccc(-c2c3nc(c(-c4c(F)cc(S(=O)(=O)[O-])cc4F)c4ccc([nH]4)c(-c4c(F)cc(S(=O)(=O)[O-])cc4F)c4nc(c(-c5c(F)cc(S(=O)(=O)[O-])cc5F)c5ccc2[nH]5)C=C4)C=C3)cc1
REMARK SMILES IDX 21 1 20 2 19 3 17 4 18 5 9 7 8 8 6 9 7 10 4 12 2 13 1 14
REMARK SMILES IDX 3 15 5 16 10 20 11 21 12 22 16 23 13 24 15 25 14 26 22 27
REMARK SMILES IDX 23 28 24 29 25 31 26 32 27 33 91 34 28 35 90 36 29 37 30 38
REMARK SMILES IDX 31 39 84 40 32 41 89 42 83 43 85 44 33 45 88 46 82 47 81 48
REMARK SMILES IDX 34 50 68 51 47 52 67 53 48 54 51 55 66 56 86 57 49 58 50 59
REMARK SMILES IDX 65 61 87 62 52 63 35 64 36 65 45 66 37 67 38 68 44 69 46 70
REMARK SMILES IDX 39 71 40 72 41 73 42 74 43 75 69 76 70 77 79 78 71 79 72 80
REMARK SMILES IDX 78 81 80 82 73 83 74 84 75 85 76 86 77 87 53 88 54 89 63 90
REMARK SMILES IDX 55 91 56 92 62 93 64 94 57 95 58 96 59 97 60 98 61 99
REMARK H PARENT 19 6 8 11 5 17 5 18 5 19 23 30 85 49 51 60
REMARK Flexibility Score: inf
ROOT
ATOM      1  C   UNL A   1      32.083  27.977  27.252  1.00  0.00     0.042 C 
ENDROOT
BRANCH   1   2
ATOM      2  C   UNL A   1      31.957  26.718  26.430  1.00  0.00     0.117 C 
BRANCH   2   3
ATOM      3  N   UNL A   1      30.837  25.873  26.769  1.00  0.00    -0.354 N 
ATOM      4  C   UNL A   1      30.574  24.613  26.310  1.00  0.00     0.242 C 
ATOM      5  O   UNL A   1      29.948  23.866  27.073  1.00  0.00    -0.273 OA
ATOM      6  H   UNL A   1      30.187  26.247  27.408  1.00  0.00     0.163 HD
BRANCH   4   7
ATOM      7  C   UNL A   1      31.124  24.077  24.964  1.00  0.00     0.175 C 
BRANCH   7   8
ATOM      8  N   UNL A   1      31.303  22.620  24.917  1.00  0.00    -0.339 N 
ATOM      9  C   UNL A   1      32.403  21.859  25.166  1.00  0.00     0.279 C 
ATOM     10  O   UNL A   1      32.257  20.634  25.166  1.00  0.00    -0.268 OA
ATOM     11  H   UNL A   1      30.499  22.112  24.665  1.00  0.00     0.164 HD
BRANCH   9  12
ATOM     12  C   UNL A   1      33.794  22.479  25.441  1.00  0.00     0.273 C 
BRANCH  12  13
ATOM     13  C   UNL A   1      34.183  23.589  24.435  1.00  0.00     0.051 C 
ATOM     14  C   UNL A   1      34.826  24.798  25.123  1.00  0.00     0.014 C 
ATOM     15  C   UNL A   1      35.134  23.052  23.359  1.00  0.00     0.014 C 
ENDBRANCH  12  13
BRANCH  12  16
ATOM     16  N   UNL A   1      33.849  22.916  26.851  1.00  0.00    -0.347 N 
ATOM     17  H   UNL A   1      33.640  22.126  27.461  1.00  0.00     0.345 HD
ATOM     18  H   UNL A   1      33.162  23.654  27.006  1.00  0.00     0.345 HD
ATOM     19  H   UNL A   1      34.782  23.270  27.061  1.00  0.00     0.345 HD
ENDBRANCH  12  16
ENDBRANCH   9  12
ENDBRANCH   7   8
BRANCH   7  20
ATOM     20  C   UNL A   1      30.428  24.649  23.703  1.00  0.00     0.070 C 
BRANCH  20  21
ATOM     21  C   UNL A   1      30.763  26.061  23.274  1.00  0.00    -0.045 A 
ATOM     22  C   UNL A   1      32.043  26.361  22.783  1.00  0.00     0.004 A 
ATOM     23  C   UNL A   1      29.831  27.104  23.407  1.00  0.00     0.004 A 
ATOM     24  C   UNL A   1      32.407  27.681  22.506  1.00  0.00     0.000 A 
ATOM     25  C   UNL A   1      30.207  28.426  23.156  1.00  0.00     0.000 A 
ATOM     26  C   UNL A   1      31.498  28.716  22.717  1.00  0.00     0.000 A 
ENDBRANCH  20  21
ENDBRANCH   7  20
ENDBRANCH   4   7
ENDBRANCH   2   3
ENDBRANCH   1   2
BRANCH   1  27
ATOM     27  C   UNL A   1      33.479  28.568  27.229  1.00  0.00     0.118 C 
BRANCH  27  28
ATOM     28  N   UNL A   1      33.525  29.958  27.680  1.00  0.00    -0.352 N 
ATOM     29  C   UNL A   1      34.514  30.691  28.299  1.00  0.00     0.251 C 
ATOM     30  H   UNL A   1      32.698  30.464  27.509  1.00  0.00     0.163 HD
ATOM     31  O   UNL A   1      34.253  31.801  28.736  1.00  0.00    -0.269 OA
BRANCH  29  32
ATOM     32  C   UNL A   1      35.874  30.128  28.463  1.00  0.00     0.039 A 
ATOM     33  C   UNL A   1      36.770  30.175  27.391  1.00  0.00     0.014 A 
ATOM     34  C   UNL A   1      36.273  29.559  29.670  1.00  0.00     0.014 A 
ATOM     35  C   UNL A   1      38.089  29.745  27.570  1.00  0.00     0.010 A 
ATOM     36  C   UNL A   1      37.611  29.269  29.889  1.00  0.00     0.010 A 
ATOM     37  C   UNL A   1      38.535  29.342  28.839  1.00  0.00    -0.014 A 
BRANCH  37  38
ATOM     38  C   UNL A   1      39.948  28.969  29.104  1.00  0.00     0.031 A 
ATOM     39  C   UNL A   1      40.889  29.981  29.703  1.00  0.00     0.074 A 
ATOM     40  C   UNL A   1      40.409  27.764  28.712  1.00  0.00     0.049 A 
ATOM     41  N   UNL A   1      42.182  29.908  29.882  1.00  0.00    -0.248 NA
ATOM     42  C   UNL A   1      40.303  31.271  30.109  1.00  0.00     0.031 C 
ATOM     43  C   UNL A   1      39.615  26.720  28.060  1.00  0.00     0.029 A 
ATOM     44  N   UNL A   1      41.665  27.218  28.795  1.00  0.00    -0.354 N 
ATOM     45  C   UNL A   1      42.565  31.149  30.379  1.00  0.00     0.074 A 
ATOM     46  C   UNL A   1      41.381  31.976  30.410  1.00  0.00     0.031 C 
ATOM     47  C   UNL A   1      40.391  25.646  27.844  1.00  0.00     0.029 A 
ATOM     48  C   UNL A   1      41.746  25.940  28.298  1.00  0.00     0.049 A 
ATOM     49  H   UNL A   1      42.436  27.697  29.177  1.00  0.00     0.167 HD
ATOM     50  C   UNL A   1      43.786  31.554  30.805  1.00  0.00     0.037 A 
ATOM     51  C   UNL A   1      42.794  25.099  28.217  1.00  0.00     0.037 A 
ATOM     52  C   UNL A   1      44.947  30.704  30.823  1.00  0.00     0.049 A 
ATOM     53  C   UNL A   1      44.133  25.552  28.728  1.00  0.00     0.074 A 
ATOM     54  C   UNL A   1      46.213  30.984  31.304  1.00  0.00     0.029 A 
ATOM     55  N   UNL A   1      44.977  29.401  30.347  1.00  0.00    -0.354 N 
ATOM     56  N   UNL A   1      44.468  26.710  29.247  1.00  0.00    -0.248 NA
ATOM     57  C   UNL A   1      45.237  24.585  28.645  1.00  0.00     0.031 C 
ATOM     58  C   UNL A   1      47.018  29.859  31.089  1.00  0.00     0.029 A 
ATOM     59  C   UNL A   1      46.243  28.866  30.511  1.00  0.00     0.049 A 
ATOM     60  H   UNL A   1      44.211  28.926  29.950  1.00  0.00     0.167 HD
ATOM     61  C   UNL A   1      45.814  26.604  29.576  1.00  0.00     0.074 A 
ATOM     62  C   UNL A   1      46.229  25.265  29.204  1.00  0.00     0.031 C 
ATOM     63  C   UNL A   1      46.632  27.528  30.137  1.00  0.00     0.037 A 
BRANCH  50  64
ATOM     64  C   UNL A   1      43.909  32.972  31.290  1.00  0.00     0.058 A 
ATOM     65  C   UNL A   1      43.704  33.312  32.639  1.00  0.00     0.135 A 
ATOM     66  C   UNL A   1      44.205  34.012  30.394  1.00  0.00     0.135 A 
ATOM     67  F   UNL A   1      43.403  32.360  33.537  1.00  0.00    -0.206 F 
ATOM     68  C   UNL A   1      43.729  34.633  33.070  1.00  0.00     0.059 A 
ATOM     69  C   UNL A   1      44.267  35.339  30.811  1.00  0.00     0.059 A 
ATOM     70  F   UNL A   1      44.413  33.747  29.095  1.00  0.00    -0.206 F 
ATOM     71  C   UNL A   1      44.001  35.642  32.146  1.00  0.00     0.060 A 
BRANCH  71  72
ATOM     72  S   UNL A   1      43.988  37.357  32.708  1.00  0.00     0.124 S 
ATOM     73  O   UNL A   1      45.338  37.495  33.247  1.00  0.00    -0.237 OA
ATOM     74  O   UNL A   1      43.722  38.091  31.475  1.00  0.00    -0.237 OA
ATOM     75  O   UNL A   1      42.912  37.382  33.693  1.00  0.00    -0.744 OA
ENDBRANCH  71  72
ENDBRANCH  50  64
BRANCH  51  76
ATOM     76  C   UNL A   1      42.596  23.725  27.684  1.00  0.00     0.058 A 
ATOM     77  C   UNL A   1      42.662  23.483  26.304  1.00  0.00     0.135 A 
ATOM     78  C   UNL A   1      42.393  22.627  28.533  1.00  0.00     0.135 A 
ATOM     79  F   UNL A   1      42.849  24.503  25.453  1.00  0.00    -0.206 F 
ATOM     80  C   UNL A   1      42.531  22.201  25.782  1.00  0.00     0.059 A 
ATOM     81  C   UNL A   1      42.280  21.331  28.035  1.00  0.00     0.059 A 
ATOM     82  F   UNL A   1      42.341  22.805  29.862  1.00  0.00    -0.206 F 
ATOM     83  C   UNL A   1      42.348  21.129  26.657  1.00  0.00     0.060 A 
BRANCH  83  84
ATOM     84  S   UNL A   1      42.259  19.460  25.972  1.00  0.00     0.124 S 
ATOM     85  O   UNL A   1      43.146  19.567  24.819  1.00  0.00    -0.237 OA
ATOM     86  O   UNL A   1      42.749  18.648  27.082  1.00  0.00    -0.237 OA
ATOM     87  O   UNL A   1      40.841  19.298  25.666  1.00  0.00    -0.744 OA
ENDBRANCH  83  84
ENDBRANCH  51  76
BRANCH  63  88
ATOM     88  C   UNL A   1      48.050  27.116  30.411  1.00  0.00     0.058 A 
ATOM     89  C   UNL A   1      49.073  27.334  29.477  1.00  0.00     0.135 A 
ATOM     90  C   UNL A   1      48.396  26.546  31.647  1.00  0.00     0.135 A 
ATOM     91  F   UNL A   1      48.791  27.870  28.278  1.00  0.00    -0.206 F 
ATOM     92  C   UNL A   1      50.390  26.985  29.750  1.00  0.00     0.059 A 
ATOM     93  C   UNL A   1      49.711  26.212  31.951  1.00  0.00     0.059 A 
ATOM     94  F   UNL A   1      47.455  26.327  32.578  1.00  0.00    -0.206 F 
ATOM     95  C   UNL A   1      50.700  26.426  30.992  1.00  0.00     0.060 A 
BRANCH  95  96
ATOM     96  S   UNL A   1      52.420  26.012  31.351  1.00  0.00     0.124 S 
ATOM     97  O   UNL A   1      52.792  27.077  32.276  1.00  0.00    -0.237 OA
ATOM     98  O   UNL A   1      52.307  24.677  31.932  1.00  0.00    -0.237 OA
ATOM     99  O   UNL A   1      53.061  26.064  30.040  1.00  0.00    -0.744 OA
ENDBRANCH  95  96
ENDBRANCH  63  88
ENDBRANCH  37  38
ENDBRANCH  29  32
ENDBRANCH  27  28
ENDBRANCH   1  27
TORSDOF 19
ENDMDL
MODEL 3
REMARK VINA RESULT:     -10.4      4.898     10.271
REMARK SMILES CC(C)[C@@H]([NH3+])C(=O)N[C@@H](Cc1ccccc1)C(=O)NCCCNC(=O)c1ccc(-c2c3nc(c(-c4c(F)cc(S(=O)(=O)[O-])cc4F)c4ccc([nH]4)c(-c4c(F)cc(S(=O)(=O)[O-])cc4F)c4nc(c(-c5c(F)cc(S(=O)(=O)[O-])cc5F)c5ccc2[nH]5)C=C4)C=C3)cc1
REMARK SMILES IDX 21 1 20 2 19 3 17 4 18 5 9 7 8 8 6 9 7 10 4 12 2 13 1 14
REMARK SMILES IDX 3 15 5 16 10 20 11 21 12 22 16 23 13 24 15 25 14 26 22 27
REMARK SMILES IDX 23 28 24 29 25 31 26 32 27 33 91 34 28 35 90 36 29 37 30 38
REMARK SMILES IDX 31 39 84 40 32 41 89 42 83 43 85 44 33 45 88 46 82 47 81 48
REMARK SMILES IDX 34 50 68 51 47 52 67 53 48 54 51 55 66 56 86 57 49 58 50 59
REMARK SMILES IDX 65 61 87 62 52 63 35 64 36 65 45 66 37 67 38 68 44 69 46 70
REMARK SMILES IDX 39 71 40 72 41 73 42 74 43 75 69 76 70 77 79 78 71 79 72 80
REMARK SMILES IDX 78 81 80 82 73 83 74 84 75 85 76 86 77 87 53 88 54 89 63 90
REMARK SMILES IDX 55 91 56 92 62 93 64 94 57 95 58 96 59 97 60 98 61 99
REMARK H PARENT 19 6 8 11 5 17 5 18 5 19 23 30 85 49 51 60
REMARK Flexibility Score: inf
ROOT
ATOM      1  C   UNL A   1      39.886  21.868  26.715  1.00  0.00     0.042 C 
ENDROOT
BRANCH   1   2
ATOM      2  C   UNL A   1      38.694  21.577  25.836  1.00  0.00     0.117 C 
BRANCH   2   3
ATOM      3  N   UNL A   1      37.917  22.733  25.454  1.00  0.00    -0.354 N 
ATOM      4  C   UNL A   1      36.591  22.963  25.694  1.00  0.00     0.242 C 
ATOM      5  O   UNL A   1      36.247  24.146  25.807  1.00  0.00    -0.273 OA
ATOM      6  H   UNL A   1      38.398  23.439  24.964  1.00  0.00     0.163 HD
BRANCH   4   7
ATOM      7  C   UNL A   1      35.572  21.822  25.941  1.00  0.00     0.175 C 
BRANCH   7   8
ATOM      8  N   UNL A   1      34.763  21.981  27.157  1.00  0.00    -0.339 N 
ATOM      9  C   UNL A   1      33.579  22.622  27.349  1.00  0.00     0.279 C 
ATOM     10  O   UNL A   1      33.047  22.510  28.457  1.00  0.00    -0.268 OA
ATOM     11  H   UNL A   1      35.138  21.557  27.962  1.00  0.00     0.164 HD
BRANCH   9  12
ATOM     12  C   UNL A   1      32.902  23.463  26.241  1.00  0.00     0.273 C 
BRANCH  12  13
ATOM     13  C   UNL A   1      31.360  23.521  26.366  1.00  0.00     0.051 C 
ATOM     14  C   UNL A   1      30.764  24.739  25.653  1.00  0.00     0.014 C 
ATOM     15  C   UNL A   1      30.713  22.244  25.818  1.00  0.00     0.014 C 
ENDBRANCH  12  13
BRANCH  12  16
ATOM     16  N   UNL A   1      33.540  24.796  26.201  1.00  0.00    -0.347 N 
ATOM     17  H   UNL A   1      34.526  24.694  25.959  1.00  0.00     0.345 HD
ATOM     18  H   UNL A   1      33.460  25.239  27.116  1.00  0.00     0.345 HD
ATOM     19  H   UNL A   1      33.076  25.373  25.500  1.00  0.00     0.345 HD
ENDBRANCH  12  16
ENDBRANCH   9  12
ENDBRANCH   7   8
BRANCH   7  20
ATOM     20  C   UNL A   1      34.737  21.415  24.700  1.00  0.00     0.070 C 
BRANCH  20  21
ATOM     21  C   UNL A   1      34.241  19.989  24.603  1.00  0.00    -0.045 A 
ATOM     22  C   UNL A   1      35.154  18.923  24.626  1.00  0.00     0.004 A 
ATOM     23  C   UNL A   1      32.876  19.703  24.432  1.00  0.00     0.004 A 
ATOM     24  C   UNL A   1      34.723  17.613  24.407  1.00  0.00     0.000 A 
ATOM     25  C   UNL A   1      32.452  18.394  24.185  1.00  0.00     0.000 A 
ATOM     26  C   UNL A   1      33.376  17.351  24.161  1.00  0.00     0.000 A 
ENDBRANCH  20  21
ENDBRANCH   7  20
ENDBRANCH   4   7
ENDBRANCH   2   3
ENDBRANCH   1   2
BRANCH   1  27
ATOM     27  C   UNL A   1      40.069  23.345  27.003  1.00  0.00     0.118 C 
BRANCH  27  28
ATOM     28  N   UNL A   1      40.947  24.015  26.045  1.00  0.00    -0.352 N 
ATOM     29  C   UNL A   1      41.550  25.254  26.062  1.00  0.00     0.251 C 
ATOM     30  H   UNL A   1      41.143  23.484  25.239  1.00  0.00     0.163 HD
ATOM     31  O   UNL A   1      42.108  25.663  25.055  1.00  0.00    -0.269 OA
BRANCH  29  32
ATOM     32  C   UNL A   1      41.498  26.097  27.278  1.00  0.00     0.039 A 
ATOM     33  C   UNL A   1      42.389  27.167  27.409  1.00  0.00     0.014 A 
ATOM     34  C   UNL A   1      40.572  25.844  28.286  1.00  0.00     0.014 A 
ATOM     35  C   UNL A   1      42.276  28.033  28.502  1.00  0.00     0.010 A 
ATOM     36  C   UNL A   1      40.366  26.781  29.287  1.00  0.00     0.010 A 
ATOM     37  C   UNL A   1      41.225  27.879  29.420  1.00  0.00    -0.014 A 
BRANCH  37  38
ATOM     38  C   UNL A   1      41.003  28.829  30.541  1.00  0.00     0.031 A 
ATOM     39  C   UNL A   1      41.849  28.729  31.783  1.00  0.00     0.074 A 
ATOM     40  C   UNL A   1      39.981  29.705  30.486  1.00  0.00     0.049 A 
ATOM     41  N   UNL A   1      41.728  29.360  32.922  1.00  0.00    -0.248 NA
ATOM     42  C   UNL A   1      42.949  27.749  31.758  1.00  0.00     0.031 C 
ATOM     43  C   UNL A   1      39.047  29.855  29.366  1.00  0.00     0.029 A 
ATOM     44  N   UNL A   1      39.547  30.630  31.401  1.00  0.00    -0.354 N 
ATOM     45  C   UNL A   1      42.705  28.826  33.755  1.00  0.00     0.074 A 
ATOM     46  C   UNL A   1      43.364  27.774  33.014  1.00  0.00     0.031 C 
ATOM     47  C   UNL A   1      38.182  30.844  29.643  1.00  0.00     0.029 A 
ATOM     48  C   UNL A   1      38.467  31.366  30.976  1.00  0.00     0.049 A 
ATOM     49  H   UNL A   1      39.971  30.756  32.281  1.00  0.00     0.167 HD
ATOM     50  C   UNL A   1      43.047  29.199  35.012  1.00  0.00     0.037 A 
ATOM     51  C   UNL A   1      37.784  32.350  31.589  1.00  0.00     0.037 A 
ATOM     52  C   UNL A   1      42.423  30.284  35.720  1.00  0.00     0.049 A 
ATOM     53  C   UNL A   1      38.201  32.776  32.969  1.00  0.00     0.074 A 
ATOM     54  C   UNL A   1      42.740  30.798  36.963  1.00  0.00     0.029 A 
ATOM     55  N   UNL A   1      41.357  31.030  35.236  1.00  0.00    -0.354 N 
ATOM     56  N   UNL A   1      39.163  32.298  33.723  1.00  0.00    -0.248 NA
ATOM     57  C   UNL A   1      37.443  33.875  33.582  1.00  0.00     0.031 C 
ATOM     58  C   UNL A   1      41.845  31.836  37.246  1.00  0.00     0.029 A 
ATOM     59  C   UNL A   1      40.996  31.994  36.162  1.00  0.00     0.049 A 
ATOM     60  H   UNL A   1      40.922  30.895  34.363  1.00  0.00     0.167 HD
ATOM     61  C   UNL A   1      39.143  33.054  34.890  1.00  0.00     0.074 A 
ATOM     62  C   UNL A   1      38.077  34.026  34.737  1.00  0.00     0.031 C 
ATOM     63  C   UNL A   1      39.934  32.955  35.986  1.00  0.00     0.037 A 
BRANCH  50  64
ATOM     64  C   UNL A   1      44.151  28.426  35.681  1.00  0.00     0.058 A 
ATOM     65  C   UNL A   1      45.501  28.787  35.532  1.00  0.00     0.135 A 
ATOM     66  C   UNL A   1      43.861  27.292  36.457  1.00  0.00     0.135 A 
ATOM     67  F   UNL A   1      45.836  29.853  34.787  1.00  0.00    -0.206 F 
ATOM     68  C   UNL A   1      46.526  28.021  36.076  1.00  0.00     0.059 A 
ATOM     69  C   UNL A   1      44.870  26.529  37.040  1.00  0.00     0.059 A 
ATOM     70  F   UNL A   1      42.590  26.902  36.638  1.00  0.00    -0.206 F 
ATOM     71  C   UNL A   1      46.200  26.887  36.820  1.00  0.00     0.060 A 
BRANCH  71  72
ATOM     72  S   UNL A   1      47.539  25.875  37.486  1.00  0.00     0.124 S 
ATOM     73  O   UNL A   1      47.032  24.528  37.242  1.00  0.00    -0.237 OA
ATOM     74  O   UNL A   1      48.677  26.281  36.667  1.00  0.00    -0.237 OA
ATOM     75  O   UNL A   1      47.604  26.279  38.887  1.00  0.00    -0.744 OA
ENDBRANCH  71  72
ENDBRANCH  50  64
BRANCH  51  76
ATOM     76  C   UNL A   1      36.676  33.035  30.872  1.00  0.00     0.058 A 
ATOM     77  C   UNL A   1      35.341  32.777  31.215  1.00  0.00     0.135 A 
ATOM     78  C   UNL A   1      36.923  33.992  29.876  1.00  0.00     0.135 A 
ATOM     79  F   UNL A   1      35.056  31.866  32.159  1.00  0.00    -0.206 F 
ATOM     80  C   UNL A   1      34.288  33.440  30.597  1.00  0.00     0.059 A 
ATOM     81  C   UNL A   1      35.886  34.684  29.257  1.00  0.00     0.059 A 
ATOM     82  F   UNL A   1      38.185  34.288  29.525  1.00  0.00    -0.206 F 
ATOM     83  C   UNL A   1      34.571  34.399  29.623  1.00  0.00     0.060 A 
BRANCH  83  84
ATOM     84  S   UNL A   1      33.197  35.311  28.883  1.00  0.00     0.124 S 
ATOM     85  O   UNL A   1      33.897  36.383  28.185  1.00  0.00    -0.237 OA
ATOM     86  O   UNL A   1      32.577  34.294  28.038  1.00  0.00    -0.237 OA
ATOM     87  O   UNL A   1      32.405  35.719  30.040  1.00  0.00    -0.744 OA
ENDBRANCH  83  84
ENDBRANCH  51  76
BRANCH  63  88
ATOM     88  C   UNL A   1      39.699  33.940  37.095  1.00  0.00     0.058 A 
ATOM     89  C   UNL A   1      38.851  33.647  38.172  1.00  0.00     0.135 A 
ATOM     90  C   UNL A   1      40.377  35.170  37.105  1.00  0.00     0.135 A 
ATOM     91  F   UNL A   1      38.174  32.487  38.204  1.00  0.00    -0.206 F 
ATOM     92  C   UNL A   1      38.666  34.548  39.215  1.00  0.00     0.059 A 
ATOM     93  C   UNL A   1      40.227  36.075  38.150  1.00  0.00     0.059 A 
ATOM     94  F   UNL A   1      41.209  35.492  36.102  1.00  0.00    -0.206 F 
ATOM     95  C   UNL A   1      39.361  35.759  39.196  1.00  0.00     0.060 A 
BRANCH  95  96
ATOM     96  S   UNL A   1      39.144  36.905  40.574  1.00  0.00     0.124 S 
ATOM     97  O   UNL A   1      38.283  37.921  39.979  1.00  0.00    -0.237 OA
ATOM     98  O   UNL A   1      38.520  36.060  41.589  1.00  0.00    -0.237 OA
ATOM     99  O   UNL A   1      40.506  37.332  40.876  1.00  0.00    -0.744 OA
ENDBRANCH  95  96
ENDBRANCH  63  88
ENDBRANCH  37  38
ENDBRANCH  29  32
ENDBRANCH  27  28
ENDBRANCH   1  27
TORSDOF 19
ENDMDL
