MODEL 1
REMARK VINA RESULT:     -12.6      0.000      0.000
REMARK SMILES CC(=O)c1ccc(N2CCN(c3ccc(C(=O)NCCCNC(=O)c4ccc(-c5c6nc(c(-c7c(F)cc(S(=O)(=O)[O-])cc7F)c7ccc([nH]7)c(-c7c(F)cc(S(=O)(=O)[O-])cc7F)c7nc(c(-c8c(F)cc(S(=O)(=O)[O-])cc8F)c8ccc5[nH]8)C=C7)C=C6)cc4)cc3NS(=O)(=O)c3ccc(C)cc3)CC2)cc1
REMARK SMILES IDX 20 1 19 2 18 3 16 4 17 5 15 7 12 8 13 9 92 10 14 11 91 12
REMARK SMILES IDX 11 13 8 14 9 15 105 16 10 17 104 18 7 19 4 20 5 21 107 22
REMARK SMILES IDX 6 23 106 24 2 25 1 26 3 27 93 28 94 30 95 31 96 32 97 33
REMARK SMILES IDX 98 34 103 35 99 36 102 37 100 38 101 39 21 40 22 41 23 42
REMARK SMILES IDX 24 44 25 45 26 46 90 47 27 48 89 49 28 50 29 51 30 52 83 53
REMARK SMILES IDX 31 54 88 55 82 56 84 57 32 58 87 59 81 60 80 61 33 63 67 64
REMARK SMILES IDX 46 65 66 66 47 67 50 68 65 69 85 70 48 71 49 72 64 74 86 75
REMARK SMILES IDX 51 76 34 77 35 78 44 79 36 80 37 81 43 82 45 83 38 84 39 85
REMARK SMILES IDX 40 86 41 87 42 88 68 89 69 90 78 91 70 92 71 93 77 94 79 95
REMARK SMILES IDX 72 96 73 97 74 98 75 99 76 100 52 101 53 102 62 103 54 104
REMARK SMILES IDX 55 105 61 106 63 107 56 108 57 109 58 110 59 111 60 112
REMARK H PARENT 18 6 93 29 22 43 84 62 50 73
REMARK Flexibility Score: inf
ROOT
ATOM      1  C   UNL A   1      33.564  29.430  26.121  1.00  0.00     0.042 C 
ENDROOT
BRANCH   1   2
ATOM      2  C   UNL A   1      31.496  29.896  25.596  1.00  0.00     0.118 C 
BRANCH   2   3
ATOM      3  N   UNL A   1      30.735  30.303  24.209  1.00  0.00    -0.352 N 
ATOM      4  C   UNL A   1      29.811  29.559  23.480  1.00  0.00     0.251 C 
ATOM      5  O   UNL A   1      28.917  30.104  22.844  1.00  0.00    -0.269 OA
ATOM      6  H   UNL A   1      30.960  31.189  23.842  1.00  0.00     0.163 HD
BRANCH   4   7
ATOM      7  C   UNL A   1      29.929  28.085  23.483  1.00  0.00     0.042 A 
ATOM      8  C   UNL A   1      30.436  25.399  24.026  1.00  0.00     0.061 A 
ATOM      9  C   UNL A   1      29.117  25.855  23.864  1.00  0.00     0.029 A 
ATOM     10  C   UNL A   1      31.480  26.322  23.876  1.00  0.00     0.073 A 
ATOM     11  C   UNL A   1      28.855  27.217  23.657  1.00  0.00     0.016 A 
ATOM     12  C   UNL A   1      31.207  27.575  23.393  1.00  0.00     0.042 A 
BRANCH   8  13
ATOM     13  N   UNL A   1      30.731  24.072  24.209  1.00  0.00    -0.366 N 
ATOM     14  N   UNL A   1      32.037  21.610  24.394  1.00  0.00    -0.368 N 
ATOM     15  C   UNL A   1      31.902  22.222  23.065  1.00  0.00     0.138 C 
ATOM     16  C   UNL A   1      32.086  22.535  25.545  1.00  0.00     0.138 C 
ATOM     17  C   UNL A   1      30.672  23.159  23.057  1.00  0.00     0.138 C 
ATOM     18  C   UNL A   1      30.858  23.472  25.535  1.00  0.00     0.138 C 
BRANCH  14  19
ATOM     19  C   UNL A   1      32.401  20.294  24.553  1.00  0.00     0.037 A 
ATOM     20  C   UNL A   1      33.118  17.578  24.790  1.00  0.00     0.017 A 
ATOM     21  C   UNL A   1      33.285  18.450  25.870  1.00  0.00     0.014 A 
ATOM     22  C   UNL A   1      32.599  18.062  23.589  1.00  0.00     0.014 A 
ATOM     23  C   UNL A   1      32.945  19.801  25.742  1.00  0.00     0.026 A 
ATOM     24  C   UNL A   1      32.237  19.404  23.484  1.00  0.00     0.026 A 
BRANCH  20  25
ATOM     25  C   UNL A   1      33.495  16.150  24.952  1.00  0.00     0.159 C 
ATOM     26  C   UNL A   1      32.436  15.180  25.405  1.00  0.00     0.093 C 
ATOM     27  O   UNL A   1      34.634  15.780  24.683  1.00  0.00    -0.295 OA
ENDBRANCH  20  25
ENDBRANCH  14  19
ENDBRANCH   8  13
BRANCH  10  28
ATOM     28  N   UNL A   1      32.823  26.058  24.337  1.00  0.00    -0.277 N 
ATOM     29  H   UNL A   1      33.082  26.192  25.277  1.00  0.00     0.180 HD
BRANCH  28  30
ATOM     30  S   UNL A   1      33.955  25.496  23.157  1.00  0.00     0.261 S 
ATOM     31  O   UNL A   1      33.205  24.834  22.107  1.00  0.00    -0.201 OA
ATOM     32  O   UNL A   1      34.824  26.608  22.849  1.00  0.00    -0.201 OA
BRANCH  30  33
ATOM     33  C   UNL A   1      34.981  24.240  23.912  1.00  0.00     0.087 A 
ATOM     34  C   UNL A   1      35.485  24.469  25.633  1.00  0.00     0.022 A 
ATOM     35  C   UNL A   1      35.811  23.027  22.881  1.00  0.00     0.022 A 
ATOM     36  C   UNL A   1      36.762  23.406  26.356  1.00  0.00     0.005 A 
ATOM     37  C   UNL A   1      37.092  21.977  23.578  1.00  0.00     0.005 A 
ATOM     38  C   UNL A   1      37.622  22.208  25.302  1.00  0.00    -0.051 A 
ATOM     39  C   UNL A   1      38.808  21.442  25.807  1.00  0.00     0.044 C 
ENDBRANCH  30  33
ENDBRANCH  28  30
ENDBRANCH  10  28
ENDBRANCH   4   7
ENDBRANCH   2   3
ENDBRANCH   1   2
BRANCH   1  40
ATOM     40  C   UNL A   1      34.667  29.948  27.333  1.00  0.00     0.118 C 
BRANCH  40  41
ATOM     41  N   UNL A   1      34.259  31.094  28.148  1.00  0.00    -0.352 N 
ATOM     42  C   UNL A   1      34.941  31.663  29.195  1.00  0.00     0.251 C 
ATOM     43  H   UNL A   1      33.394  31.504  27.920  1.00  0.00     0.163 HD
ATOM     44  O   UNL A   1      34.457  32.581  29.846  1.00  0.00    -0.269 OA
BRANCH  42  45
ATOM     45  C   UNL A   1      36.254  31.098  29.548  1.00  0.00     0.039 A 
ATOM     46  C   UNL A   1      37.402  31.687  29.019  1.00  0.00     0.014 A 
ATOM     47  C   UNL A   1      36.338  30.047  30.465  1.00  0.00     0.014 A 
ATOM     48  C   UNL A   1      38.652  31.247  29.449  1.00  0.00     0.010 A 
ATOM     49  C   UNL A   1      37.582  29.654  30.940  1.00  0.00     0.010 A 
ATOM     50  C   UNL A   1      38.748  30.244  30.426  1.00  0.00    -0.014 A 
BRANCH  50  51
ATOM     51  C   UNL A   1      40.071  29.772  30.893  1.00  0.00     0.031 A 
ATOM     52  C   UNL A   1      40.738  30.473  32.042  1.00  0.00     0.074 A 
ATOM     53  C   UNL A   1      40.673  28.750  30.255  1.00  0.00     0.049 A 
ATOM     54  N   UNL A   1      41.893  30.226  32.600  1.00  0.00    -0.248 NA
ATOM     55  C   UNL A   1      40.025  31.624  32.624  1.00  0.00     0.031 C 
ATOM     56  C   UNL A   1      40.136  28.049  29.085  1.00  0.00     0.029 A 
ATOM     57  N   UNL A   1      41.870  28.125  30.494  1.00  0.00    -0.354 N 
ATOM     58  C   UNL A   1      42.051  31.196  33.583  1.00  0.00     0.074 A 
ATOM     59  C   UNL A   1      40.902  32.068  33.512  1.00  0.00     0.031 C 
ATOM     60  C   UNL A   1      40.992  27.079  28.722  1.00  0.00     0.029 A 
ATOM     61  C   UNL A   1      42.142  27.101  29.617  1.00  0.00     0.049 A 
ATOM     62  H   UNL A   1      42.476  28.385  31.225  1.00  0.00     0.167 HD
ATOM     63  C   UNL A   1      43.055  31.326  34.481  1.00  0.00     0.037 A 
ATOM     64  C   UNL A   1      43.204  26.273  29.552  1.00  0.00     0.037 A 
ATOM     65  C   UNL A   1      44.170  30.421  34.560  1.00  0.00     0.049 A 
ATOM     66  C   UNL A   1      44.284  26.410  30.593  1.00  0.00     0.074 A 
ATOM     67  C   UNL A   1      45.204  30.405  35.478  1.00  0.00     0.029 A 
ATOM     68  N   UNL A   1      44.392  29.368  33.685  1.00  0.00    -0.354 N 
ATOM     69  N   UNL A   1      44.376  27.276  31.576  1.00  0.00    -0.248 NA
ATOM     70  C   UNL A   1      45.397  25.453  30.529  1.00  0.00     0.031 C 
ATOM     71  C   UNL A   1      46.073  29.366  35.133  1.00  0.00     0.029 A 
ATOM     72  C   UNL A   1      45.558  28.707  34.027  1.00  0.00     0.049 A 
ATOM     73  H   UNL A   1      43.806  29.126  32.931  1.00  0.00     0.167 HD
ATOM     74  C   UNL A   1      45.543  26.958  32.257  1.00  0.00     0.074 A 
ATOM     75  C   UNL A   1      46.115  25.807  31.586  1.00  0.00     0.031 C 
ATOM     76  C   UNL A   1      46.097  27.560  33.338  1.00  0.00     0.037 A 
BRANCH  63  77
ATOM     77  C   UNL A   1      42.986  32.478  35.446  1.00  0.00     0.058 A 
ATOM     78  C   UNL A   1      42.362  32.356  36.698  1.00  0.00     0.135 A 
ATOM     79  C   UNL A   1      43.577  33.711  35.128  1.00  0.00     0.135 A 
ATOM     80  F   UNL A   1      41.764  31.206  37.047  1.00  0.00    -0.206 F 
ATOM     81  C   UNL A   1      42.302  33.423  37.589  1.00  0.00     0.059 A 
ATOM     82  C   UNL A   1      43.553  34.784  36.015  1.00  0.00     0.059 A 
ATOM     83  F   UNL A   1      44.182  33.885  33.942  1.00  0.00    -0.206 F 
ATOM     84  C   UNL A   1      42.901  34.633  37.238  1.00  0.00     0.060 A 
BRANCH  84  85
ATOM     85  S   UNL A   1      42.828  36.004  38.412  1.00  0.00     0.124 S 
ATOM     86  O   UNL A   1      42.714  35.293  39.681  1.00  0.00    -0.237 OA
ATOM     87  O   UNL A   1      44.097  36.684  38.178  1.00  0.00    -0.237 OA
ATOM     88  O   UNL A   1      41.638  36.743  37.998  1.00  0.00    -0.744 OA
ENDBRANCH  84  85
ENDBRANCH  63  77
BRANCH  64  89
ATOM     89  C   UNL A   1      43.280  25.236  28.490  1.00  0.00     0.058 A 
ATOM     90  C   UNL A   1      43.005  23.888  28.769  1.00  0.00     0.135 A 
ATOM     91  C   UNL A   1      43.614  25.571  27.168  1.00  0.00     0.135 A 
ATOM     92  F   UNL A   1      42.681  23.515  30.017  1.00  0.00    -0.206 F 
ATOM     93  C   UNL A   1      43.078  22.908  27.783  1.00  0.00     0.059 A 
ATOM     94  C   UNL A   1      43.671  24.613  26.160  1.00  0.00     0.059 A 
ATOM     95  F   UNL A   1      43.868  26.849  26.843  1.00  0.00    -0.206 F 
ATOM     96  C   UNL A   1      43.414  23.280  26.481  1.00  0.00     0.060 A 
BRANCH  96  97
ATOM     97  S   UNL A   1      43.471  22.008  25.200  1.00  0.00     0.124 S 
ATOM     98  O   UNL A   1      44.773  21.399  25.450  1.00  0.00    -0.237 OA
ATOM     99  O   UNL A   1      42.310  21.188  25.529  1.00  0.00    -0.237 OA
ATOM    100  O   UNL A   1      43.358  22.773  23.962  1.00  0.00    -0.744 OA
ENDBRANCH  96  97
ENDBRANCH  64  89
BRANCH  76 101
ATOM    101  C   UNL A   1      47.374  26.977  33.871  1.00  0.00     0.058 A 
ATOM    102  C   UNL A   1      47.367  25.943  34.819  1.00  0.00     0.135 A 
ATOM    103  C   UNL A   1      48.614  27.414  33.378  1.00  0.00     0.135 A 
ATOM    104  F   UNL A   1      46.206  25.496  35.323  1.00  0.00    -0.206 F 
ATOM    105  C   UNL A   1      48.550  25.372  35.276  1.00  0.00     0.059 A 
ATOM    106  C   UNL A   1      49.807  26.840  33.801  1.00  0.00     0.059 A 
ATOM    107  F   UNL A   1      48.671  28.392  32.462  1.00  0.00    -0.206 F 
ATOM    108  C   UNL A   1      49.765  25.826  34.759  1.00  0.00     0.060 A 
BRANCH 108 109
ATOM    109  S   UNL A   1      51.290  25.048  35.329  1.00  0.00     0.124 S 
ATOM    110  O   UNL A   1      52.291  25.749  34.532  1.00  0.00    -0.237 OA
ATOM    111  O   UNL A   1      51.285  25.356  36.755  1.00  0.00    -0.237 OA
ATOM    112  O   UNL A   1      51.096  23.639  34.996  1.00  0.00    -0.744 OA
ENDBRANCH 108 109
ENDBRANCH  76 101
ENDBRANCH  50  51
ENDBRANCH  42  45
ENDBRANCH  40  41
ENDBRANCH   1  40
TORSDOF 19
ENDMDL
MODEL 2
REMARK VINA RESULT:     -12.3      4.586      5.464
REMARK SMILES CC(=O)c1ccc(N2CCN(c3ccc(C(=O)NCCCNC(=O)c4ccc(-c5c6nc(c(-c7c(F)cc(S(=O)(=O)[O-])cc7F)c7ccc([nH]7)c(-c7c(F)cc(S(=O)(=O)[O-])cc7F)c7nc(c(-c8c(F)cc(S(=O)(=O)[O-])cc8F)c8ccc5[nH]8)C=C7)C=C6)cc4)cc3NS(=O)(=O)c3ccc(C)cc3)CC2)cc1
REMARK SMILES IDX 20 1 19 2 18 3 16 4 17 5 15 7 12 8 13 9 92 10 14 11 91 12
REMARK SMILES IDX 11 13 8 14 9 15 105 16 10 17 104 18 7 19 4 20 5 21 107 22
REMARK SMILES IDX 6 23 106 24 2 25 1 26 3 27 93 28 94 30 95 31 96 32 97 33
REMARK SMILES IDX 98 34 103 35 99 36 102 37 100 38 101 39 21 40 22 41 23 42
REMARK SMILES IDX 24 44 25 45 26 46 90 47 27 48 89 49 28 50 29 51 30 52 83 53
REMARK SMILES IDX 31 54 88 55 82 56 84 57 32 58 87 59 81 60 80 61 33 63 67 64
REMARK SMILES IDX 46 65 66 66 47 67 50 68 65 69 85 70 48 71 49 72 64 74 86 75
REMARK SMILES IDX 51 76 34 77 35 78 44 79 36 80 37 81 43 82 45 83 38 84 39 85
REMARK SMILES IDX 40 86 41 87 42 88 68 89 69 90 78 91 70 92 71 93 77 94 79 95
REMARK SMILES IDX 72 96 73 97 74 98 75 99 76 100 52 101 53 102 62 103 54 104
REMARK SMILES IDX 55 105 61 106 63 107 56 108 57 109 58 110 59 111 60 112
REMARK H PARENT 18 6 93 29 22 43 84 62 50 73
REMARK Flexibility Score: inf
ROOT
ATOM      1  C   UNL A   1      34.490  30.537  27.312  1.00  0.00     0.042 C 
ENDROOT
BRANCH   1   2
ATOM      2  C   UNL A   1      32.623  29.925  26.359  1.00  0.00     0.118 C 
BRANCH   2   3
ATOM      3  N   UNL A   1      31.658  30.580  25.216  1.00  0.00    -0.352 N 
ATOM      4  C   UNL A   1      30.624  29.973  24.508  1.00  0.00     0.251 C 
ATOM      5  O   UNL A   1      29.646  30.613  24.139  1.00  0.00    -0.269 OA
ATOM      6  H   UNL A   1      31.831  31.525  24.998  1.00  0.00     0.163 HD
BRANCH   4   7
ATOM      7  C   UNL A   1      30.726  28.530  24.203  1.00  0.00     0.042 A 
ATOM      8  C   UNL A   1      30.921  25.750  24.241  1.00  0.00     0.061 A 
ATOM      9  C   UNL A   1      29.829  26.378  23.618  1.00  0.00     0.029 A 
ATOM     10  C   UNL A   1      31.915  26.558  24.809  1.00  0.00     0.073 A 
ATOM     11  C   UNL A   1      29.694  27.774  23.655  1.00  0.00     0.016 A 
ATOM     12  C   UNL A   1      31.898  27.909  24.577  1.00  0.00     0.042 A 
BRANCH   8  13
ATOM     13  N   UNL A   1      31.095  24.390  24.205  1.00  0.00    -0.366 N 
ATOM     14  N   UNL A   1      32.122  21.805  24.463  1.00  0.00    -0.368 N 
ATOM     15  C   UNL A   1      32.780  22.719  23.519  1.00  0.00     0.138 C 
ATOM     16  C   UNL A   1      31.447  22.426  25.621  1.00  0.00     0.138 C 
ATOM     17  C   UNL A   1      31.763  23.782  23.045  1.00  0.00     0.138 C 
ATOM     18  C   UNL A   1      30.432  23.489  25.146  1.00  0.00     0.138 C 
BRANCH  14  19
ATOM     19  C   UNL A   1      32.367  20.453  24.453  1.00  0.00     0.037 A 
ATOM     20  C   UNL A   1      32.843  17.677  24.341  1.00  0.00     0.017 A 
ATOM     21  C   UNL A   1      33.008  18.374  25.541  1.00  0.00     0.014 A 
ATOM     22  C   UNL A   1      32.447  18.364  23.194  1.00  0.00     0.014 A 
ATOM     23  C   UNL A   1      32.788  19.755  25.588  1.00  0.00     0.026 A 
ATOM     24  C   UNL A   1      32.203  19.735  23.261  1.00  0.00     0.026 A 
BRANCH  20  25
ATOM     25  C   UNL A   1      33.091  16.211  24.318  1.00  0.00     0.159 C 
ATOM     26  C   UNL A   1      32.537  15.376  25.442  1.00  0.00     0.093 C 
ATOM     27  O   UNL A   1      33.702  15.705  23.381  1.00  0.00    -0.295 OA
ENDBRANCH  20  25
ENDBRANCH  14  19
ENDBRANCH   8  13
BRANCH  10  28
ATOM     28  N   UNL A   1      32.889  26.049  25.745  1.00  0.00    -0.277 N 
ATOM     29  H   UNL A   1      32.620  25.641  26.600  1.00  0.00     0.180 HD
BRANCH  28  30
ATOM     30  S   UNL A   1      34.552  26.192  25.294  1.00  0.00     0.261 S 
ATOM     31  O   UNL A   1      34.598  26.588  23.900  1.00  0.00    -0.201 OA
ATOM     32  O   UNL A   1      35.192  26.998  26.308  1.00  0.00    -0.201 OA
BRANCH  30  33
ATOM     33  C   UNL A   1      35.301  24.570  25.383  1.00  0.00     0.087 A 
ATOM     34  C   UNL A   1      36.271  23.997  23.968  1.00  0.00     0.022 A 
ATOM     35  C   UNL A   1      34.765  23.406  26.641  1.00  0.00     0.022 A 
ATOM     36  C   UNL A   1      36.792  22.264  23.864  1.00  0.00     0.005 A 
ATOM     37  C   UNL A   1      35.259  21.682  26.544  1.00  0.00     0.005 A 
ATOM     38  C   UNL A   1      36.219  21.088  25.117  1.00  0.00    -0.051 A 
ATOM     39  C   UNL A   1      36.468  19.616  24.971  1.00  0.00     0.044 C 
ENDBRANCH  30  33
ENDBRANCH  28  30
ENDBRANCH  10  28
ENDBRANCH   4   7
ENDBRANCH   2   3
ENDBRANCH   1   2
BRANCH   1  40
ATOM     40  C   UNL A   1      35.513  29.889  28.531  1.00  0.00     0.118 C 
BRANCH  40  41
ATOM     41  N   UNL A   1      35.435  30.509  29.855  1.00  0.00    -0.352 N 
ATOM     42  C   UNL A   1      36.474  30.820  30.697  1.00  0.00     0.251 C 
ATOM     43  H   UNL A   1      34.533  30.729  30.180  1.00  0.00     0.163 HD
ATOM     44  O   UNL A   1      36.271  31.276  31.816  1.00  0.00    -0.269 OA
BRANCH  42  45
ATOM     45  C   UNL A   1      37.842  30.536  30.235  1.00  0.00     0.039 A 
ATOM     46  C   UNL A   1      38.740  29.943  31.124  1.00  0.00     0.014 A 
ATOM     47  C   UNL A   1      38.197  30.781  28.907  1.00  0.00     0.014 A 
ATOM     48  C   UNL A   1      39.994  29.549  30.662  1.00  0.00     0.010 A 
ATOM     49  C   UNL A   1      39.421  30.329  28.433  1.00  0.00     0.010 A 
ATOM     50  C   UNL A   1      40.332  29.720  29.310  1.00  0.00    -0.014 A 
BRANCH  50  51
ATOM     51  C   UNL A   1      41.660  29.301  28.808  1.00  0.00     0.031 A 
ATOM     52  C   UNL A   1      42.746  30.327  28.653  1.00  0.00     0.074 A 
ATOM     53  C   UNL A   1      41.861  28.015  28.462  1.00  0.00     0.049 A 
ATOM     54  N   UNL A   1      43.971  30.174  28.227  1.00  0.00    -0.248 NA
ATOM     55  C   UNL A   1      42.399  31.719  28.995  1.00  0.00     0.031 C 
ATOM     56  C   UNL A   1      40.849  26.957  28.511  1.00  0.00     0.029 A 
ATOM     57  N   UNL A   1      42.982  27.378  27.993  1.00  0.00    -0.354 N 
ATOM     58  C   UNL A   1      44.533  31.445  28.234  1.00  0.00     0.074 A 
ATOM     59  C   UNL A   1      43.503  32.366  28.655  1.00  0.00     0.031 C 
ATOM     60  C   UNL A   1      41.401  25.800  28.109  1.00  0.00     0.029 A 
ATOM     61  C   UNL A   1      42.795  26.037  27.755  1.00  0.00     0.049 A 
ATOM     62  H   UNL A   1      43.839  27.838  27.841  1.00  0.00     0.167 HD
ATOM     63  C   UNL A   1      45.805  31.802  27.942  1.00  0.00     0.037 A 
ATOM     64  C   UNL A   1      43.660  25.106  27.304  1.00  0.00     0.037 A 
ATOM     65  C   UNL A   1      46.826  30.862  27.565  1.00  0.00     0.049 A 
ATOM     66  C   UNL A   1      45.082  25.522  27.032  1.00  0.00     0.074 A 
ATOM     67  C   UNL A   1      48.167  31.096  27.323  1.00  0.00     0.029 A 
ATOM     68  N   UNL A   1      46.614  29.504  27.376  1.00  0.00    -0.354 N 
ATOM     69  N   UNL A   1      45.625  26.713  27.131  1.00  0.00    -0.248 NA
ATOM     70  C   UNL A   1      46.013  24.471  26.600  1.00  0.00     0.031 C 
ATOM     71  C   UNL A   1      48.757  29.885  26.950  1.00  0.00     0.029 A 
ATOM     72  C   UNL A   1      47.794  28.888  27.002  1.00  0.00     0.049 A 
ATOM     73  H   UNL A   1      45.750  29.045  27.492  1.00  0.00     0.167 HD
ATOM     74  C   UNL A   1      46.963  26.552  26.794  1.00  0.00     0.074 A 
ATOM     75  C   UNL A   1      47.152  25.144  26.505  1.00  0.00     0.031 C 
ATOM     76  C   UNL A   1      47.948  27.481  26.726  1.00  0.00     0.037 A 
BRANCH  63  77
ATOM     77  C   UNL A   1      46.160  33.261  28.026  1.00  0.00     0.058 A 
ATOM     78  C   UNL A   1      46.053  34.113  26.915  1.00  0.00     0.135 A 
ATOM     79  C   UNL A   1      46.584  33.823  29.241  1.00  0.00     0.135 A 
ATOM     80  F   UNL A   1      45.670  33.626  25.724  1.00  0.00    -0.206 F 
ATOM     81  C   UNL A   1      46.380  35.462  26.997  1.00  0.00     0.059 A 
ATOM     82  C   UNL A   1      46.891  35.177  29.354  1.00  0.00     0.059 A 
ATOM     83  F   UNL A   1      46.710  33.054  30.334  1.00  0.00    -0.206 F 
ATOM     84  C   UNL A   1      46.798  35.985  28.222  1.00  0.00     0.060 A 
BRANCH  84  85
ATOM     85  S   UNL A   1      47.204  37.742  28.316  1.00  0.00     0.124 S 
ATOM     86  O   UNL A   1      45.878  38.350  28.276  1.00  0.00    -0.237 OA
ATOM     87  O   UNL A   1      47.905  37.833  29.592  1.00  0.00    -0.237 OA
ATOM     88  O   UNL A   1      48.032  37.963  27.133  1.00  0.00    -0.744 OA
ENDBRANCH  84  85
ENDBRANCH  63  77
BRANCH  64  89
ATOM     89  C   UNL A   1      43.215  23.700  27.114  1.00  0.00     0.058 A 
ATOM     90  C   UNL A   1      43.128  22.812  28.197  1.00  0.00     0.135 A 
ATOM     91  C   UNL A   1      42.851  23.218  25.846  1.00  0.00     0.135 A 
ATOM     92  F   UNL A   1      43.465  23.223  29.429  1.00  0.00    -0.206 F 
ATOM     93  C   UNL A   1      42.718  21.493  28.028  1.00  0.00     0.059 A 
ATOM     94  C   UNL A   1      42.415  21.910  25.656  1.00  0.00     0.059 A 
ATOM     95  F   UNL A   1      42.897  24.032  24.779  1.00  0.00    -0.206 F 
ATOM     96  C   UNL A   1      42.364  21.050  26.753  1.00  0.00     0.060 A 
BRANCH  96  97
ATOM     97  S   UNL A   1      41.798  19.347  26.549  1.00  0.00     0.124 S 
ATOM     98  O   UNL A   1      43.046  18.658  26.239  1.00  0.00    -0.237 OA
ATOM     99  O   UNL A   1      41.217  19.057  27.856  1.00  0.00    -0.237 OA
ATOM    100  O   UNL A   1      40.838  19.442  25.452  1.00  0.00    -0.744 OA
ENDBRANCH  96  97
ENDBRANCH  64  89
BRANCH  76 101
ATOM    101  C   UNL A   1      49.318  27.002  26.341  1.00  0.00     0.058 A 
ATOM    102  C   UNL A   1      50.177  26.410  27.279  1.00  0.00     0.135 A 
ATOM    103  C   UNL A   1      49.749  27.079  25.006  1.00  0.00     0.135 A 
ATOM    104  F   UNL A   1      49.811  26.320  28.567  1.00  0.00    -0.206 F 
ATOM    105  C   UNL A   1      51.426  25.925  26.910  1.00  0.00     0.059 A 
ATOM    106  C   UNL A   1      50.983  26.576  24.611  1.00  0.00     0.059 A 
ATOM    107  F   UNL A   1      48.957  27.626  24.071  1.00  0.00    -0.206 F 
ATOM    108  C   UNL A   1      51.819  26.011  25.573  1.00  0.00     0.060 A 
BRANCH 108 109
ATOM    109  S   UNL A   1      53.426  25.339  25.100  1.00  0.00     0.124 S 
ATOM    110  O   UNL A   1      53.232  23.915  25.350  1.00  0.00    -0.237 OA
ATOM    111  O   UNL A   1      53.529  25.728  23.698  1.00  0.00    -0.237 OA
ATOM    112  O   UNL A   1      54.354  26.015  26.003  1.00  0.00    -0.744 OA
ENDBRANCH 108 109
ENDBRANCH  76 101
ENDBRANCH  50  51
ENDBRANCH  42  45
ENDBRANCH  40  41
ENDBRANCH   1  40
TORSDOF 19
ENDMDL
MODEL 3
REMARK VINA RESULT:     -12.3      4.891      6.336
REMARK SMILES CC(=O)c1ccc(N2CCN(c3ccc(C(=O)NCCCNC(=O)c4ccc(-c5c6nc(c(-c7c(F)cc(S(=O)(=O)[O-])cc7F)c7ccc([nH]7)c(-c7c(F)cc(S(=O)(=O)[O-])cc7F)c7nc(c(-c8c(F)cc(S(=O)(=O)[O-])cc8F)c8ccc5[nH]8)C=C7)C=C6)cc4)cc3NS(=O)(=O)c3ccc(C)cc3)CC2)cc1
REMARK SMILES IDX 20 1 19 2 18 3 16 4 17 5 15 7 12 8 13 9 92 10 14 11 91 12
REMARK SMILES IDX 11 13 8 14 9 15 105 16 10 17 104 18 7 19 4 20 5 21 107 22
REMARK SMILES IDX 6 23 106 24 2 25 1 26 3 27 93 28 94 30 95 31 96 32 97 33
REMARK SMILES IDX 98 34 103 35 99 36 102 37 100 38 101 39 21 40 22 41 23 42
REMARK SMILES IDX 24 44 25 45 26 46 90 47 27 48 89 49 28 50 29 51 30 52 83 53
REMARK SMILES IDX 31 54 88 55 82 56 84 57 32 58 87 59 81 60 80 61 33 63 67 64
REMARK SMILES IDX 46 65 66 66 47 67 50 68 65 69 85 70 48 71 49 72 64 74 86 75
REMARK SMILES IDX 51 76 34 77 35 78 44 79 36 80 37 81 43 82 45 83 38 84 39 85
REMARK SMILES IDX 40 86 41 87 42 88 68 89 69 90 78 91 70 92 71 93 77 94 79 95
REMARK SMILES IDX 72 96 73 97 74 98 75 99 76 100 52 101 53 102 62 103 54 104
REMARK SMILES IDX 55 105 61 106 63 107 56 108 57 109 58 110 59 111 60 112
REMARK H PARENT 18 6 93 29 22 43 84 62 50 73
REMARK Flexibility Score: inf
ROOT
ATOM      1  C   UNL A   1      33.767  30.433  26.862  1.00  0.00     0.042 C 
ENDROOT
BRANCH   1   2
ATOM      2  C   UNL A   1      31.825  29.896  26.021  1.00  0.00     0.118 C 
BRANCH   2   3
ATOM      3  N   UNL A   1      30.948  30.424  24.748  1.00  0.00    -0.352 N 
ATOM      4  C   UNL A   1      30.001  29.725  24.003  1.00  0.00     0.251 C 
ATOM      5  O   UNL A   1      29.041  30.297  23.499  1.00  0.00    -0.269 OA
ATOM      6  H   UNL A   1      31.110  31.356  24.473  1.00  0.00     0.163 HD
BRANCH   4   7
ATOM      7  C   UNL A   1      30.176  28.268  23.824  1.00  0.00     0.042 A 
ATOM      8  C   UNL A   1      30.522  25.517  24.102  1.00  0.00     0.061 A 
ATOM      9  C   UNL A   1      29.386  26.029  23.451  1.00  0.00     0.029 A 
ATOM     10  C   UNL A   1      31.481  26.423  24.574  1.00  0.00     0.073 A 
ATOM     11  C   UNL A   1      29.177  27.413  23.369  1.00  0.00     0.016 A 
ATOM     12  C   UNL A   1      31.387  27.745  24.224  1.00  0.00     0.042 A 
BRANCH   8  13
ATOM     13  N   UNL A   1      30.769  24.170  24.182  1.00  0.00    -0.366 N 
ATOM     14  N   UNL A   1      31.992  21.675  24.468  1.00  0.00    -0.368 N 
ATOM     15  C   UNL A   1      32.332  22.480  23.286  1.00  0.00     0.138 C 
ATOM     16  C   UNL A   1      31.591  22.419  25.680  1.00  0.00     0.138 C 
ATOM     17  C   UNL A   1      31.161  23.438  22.968  1.00  0.00     0.138 C 
ATOM     18  C   UNL A   1      30.423  23.378  25.361  1.00  0.00     0.138 C 
BRANCH  14  19
ATOM     19  C   UNL A   1      32.312  20.342  24.554  1.00  0.00     0.037 A 
ATOM     20  C   UNL A   1      32.963  17.600  24.636  1.00  0.00     0.017 A 
ATOM     21  C   UNL A   1      32.864  18.338  25.819  1.00  0.00     0.014 A 
ATOM     22  C   UNL A   1      32.744  18.230  23.411  1.00  0.00     0.014 A 
ATOM     23  C   UNL A   1      32.559  19.703  25.772  1.00  0.00     0.026 A 
ATOM     24  C   UNL A   1      32.412  19.583  23.381  1.00  0.00     0.026 A 
BRANCH  20  25
ATOM     25  C   UNL A   1      33.296  16.153  24.715  1.00  0.00     0.159 C 
ATOM     26  C   UNL A   1      32.419  15.264  25.556  1.00  0.00     0.093 C 
ATOM     27  O   UNL A   1      34.242  15.704  24.075  1.00  0.00    -0.295 OA
ENDBRANCH  20  25
ENDBRANCH  14  19
ENDBRANCH   8  13
BRANCH  10  28
ATOM     28  N   UNL A   1      32.498  26.052  25.528  1.00  0.00    -0.277 N 
ATOM     29  H   UNL A   1      32.268  25.696  26.417  1.00  0.00     0.180 HD
BRANCH  28  30
ATOM     30  S   UNL A   1      34.142  26.261  25.036  1.00  0.00     0.261 S 
ATOM     31  O   UNL A   1      34.140  26.614  23.630  1.00  0.00    -0.201 OA
ATOM     32  O   UNL A   1      34.762  27.130  26.010  1.00  0.00    -0.201 OA
BRANCH  30  33
ATOM     33  C   UNL A   1      34.974  24.682  25.159  1.00  0.00     0.087 A 
ATOM     34  C   UNL A   1      35.832  24.051  23.698  1.00  0.00     0.022 A 
ATOM     35  C   UNL A   1      34.614  23.589  26.537  1.00  0.00     0.022 A 
ATOM     36  C   UNL A   1      36.424  22.339  23.659  1.00  0.00     0.005 A 
ATOM     37  C   UNL A   1      35.179  21.883  26.507  1.00  0.00     0.005 A 
ATOM     38  C   UNL A   1      36.028  21.231  25.037  1.00  0.00    -0.051 A 
ATOM     39  C   UNL A   1      36.333  19.764  24.964  1.00  0.00     0.044 C 
ENDBRANCH  30  33
ENDBRANCH  28  30
ENDBRANCH  10  28
ENDBRANCH   4   7
ENDBRANCH   2   3
ENDBRANCH   1   2
BRANCH   1  40
ATOM     40  C   UNL A   1      34.307  31.278  28.257  1.00  0.00     0.118 C 
BRANCH  40  41
ATOM     41  N   UNL A   1      33.812  32.645  28.431  1.00  0.00    -0.352 N 
ATOM     42  C   UNL A   1      34.474  33.711  28.988  1.00  0.00     0.251 C 
ATOM     43  H   UNL A   1      32.898  32.821  28.111  1.00  0.00     0.163 HD
ATOM     44  O   UNL A   1      33.921  34.794  29.141  1.00  0.00    -0.269 OA
BRANCH  42  45
ATOM     45  C   UNL A   1      35.855  33.498  29.451  1.00  0.00     0.039 A 
ATOM     46  C   UNL A   1      36.806  33.044  28.537  1.00  0.00     0.014 A 
ATOM     47  C   UNL A   1      36.212  33.829  30.761  1.00  0.00     0.014 A 
ATOM     48  C   UNL A   1      38.141  32.965  28.928  1.00  0.00     0.010 A 
ATOM     49  C   UNL A   1      37.550  33.811  31.128  1.00  0.00     0.010 A 
ATOM     50  C   UNL A   1      38.523  33.368  30.217  1.00  0.00    -0.014 A 
BRANCH  50  51
ATOM     51  C   UNL A   1      39.939  33.292  30.640  1.00  0.00     0.031 A 
ATOM     52  C   UNL A   1      40.914  34.317  30.135  1.00  0.00     0.074 A 
ATOM     53  C   UNL A   1      40.339  32.284  31.439  1.00  0.00     0.049 A 
ATOM     54  N   UNL A   1      42.193  34.429  30.376  1.00  0.00    -0.248 NA
ATOM     55  C   UNL A   1      40.387  35.338  29.210  1.00  0.00     0.031 C 
ATOM     56  C   UNL A   1      39.482  31.201  31.927  1.00  0.00     0.029 A 
ATOM     57  N   UNL A   1      41.568  32.000  31.976  1.00  0.00    -0.354 N 
ATOM     58  C   UNL A   1      42.624  35.516  29.624  1.00  0.00     0.074 A 
ATOM     59  C   UNL A   1      41.486  35.998  28.877  1.00  0.00     0.031 C 
ATOM     60  C   UNL A   1      40.207  30.382  32.707  1.00  0.00     0.029 A 
ATOM     61  C   UNL A   1      41.581  30.869  32.758  1.00  0.00     0.049 A 
ATOM     62  H   UNL A   1      42.367  32.554  31.816  1.00  0.00     0.167 HD
ATOM     63  C   UNL A   1      43.856  36.074  29.586  1.00  0.00     0.037 A 
ATOM     64  C   UNL A   1      42.592  30.297  33.442  1.00  0.00     0.037 A 
ATOM     65  C   UNL A   1      44.965  35.602  30.370  1.00  0.00     0.049 A 
ATOM     66  C   UNL A   1      43.940  30.966  33.420  1.00  0.00     0.074 A 
ATOM     67  C   UNL A   1      46.236  36.137  30.474  1.00  0.00     0.029 A 
ATOM     68  N   UNL A   1      44.931  34.481  31.186  1.00  0.00    -0.354 N 
ATOM     69  N   UNL A   1      44.312  32.049  32.776  1.00  0.00    -0.248 NA
ATOM     70  C   UNL A   1      45.004  30.350  34.224  1.00  0.00     0.031 C 
ATOM     71  C   UNL A   1      46.983  35.315  31.324  1.00  0.00     0.029 A 
ATOM     72  C   UNL A   1      46.165  34.294  31.784  1.00  0.00     0.049 A 
ATOM     73  H   UNL A   1      44.145  33.904  31.321  1.00  0.00     0.167 HD
ATOM     74  C   UNL A   1      45.644  32.255  33.112  1.00  0.00     0.074 A 
ATOM     75  C   UNL A   1      46.009  31.194  34.030  1.00  0.00     0.031 C 
ATOM     76  C   UNL A   1      46.493  33.228  32.699  1.00  0.00     0.037 A 
BRANCH  63  77
ATOM     77  C   UNL A   1      44.061  37.255  28.677  1.00  0.00     0.058 A 
ATOM     78  C   UNL A   1      44.471  37.099  27.343  1.00  0.00     0.135 A 
ATOM     79  C   UNL A   1      43.817  38.559  29.136  1.00  0.00     0.135 A 
ATOM     80  F   UNL A   1      44.737  35.876  26.857  1.00  0.00    -0.206 F 
ATOM     81  C   UNL A   1      44.658  38.193  26.505  1.00  0.00     0.059 A 
ATOM     82  C   UNL A   1      43.971  39.668  28.308  1.00  0.00     0.059 A 
ATOM     83  F   UNL A   1      43.428  38.768  30.405  1.00  0.00    -0.206 F 
ATOM     84  C   UNL A   1      44.405  39.474  26.997  1.00  0.00     0.060 A 
BRANCH  84  85
ATOM     85  S   UNL A   1      44.638  40.883  25.892  1.00  0.00     0.124 S 
ATOM     86  O   UNL A   1      43.342  40.946  25.224  1.00  0.00    -0.237 OA
ATOM     87  O   UNL A   1      44.923  41.969  26.825  1.00  0.00    -0.237 OA
ATOM     88  O   UNL A   1      45.759  40.474  25.051  1.00  0.00    -0.744 OA
ENDBRANCH  84  85
ENDBRANCH  63  77
BRANCH  64  89
ATOM     89  C   UNL A   1      42.359  29.051  34.219  1.00  0.00     0.058 A 
ATOM     90  C   UNL A   1      41.889  29.095  35.540  1.00  0.00     0.135 A 
ATOM     91  C   UNL A   1      42.587  27.787  33.651  1.00  0.00     0.135 A 
ATOM     92  F   UNL A   1      41.657  30.278  36.129  1.00  0.00    -0.206 F 
ATOM     93  C   UNL A   1      41.674  27.935  36.278  1.00  0.00     0.059 A 
ATOM     94  C   UNL A   1      42.356  26.612  34.360  1.00  0.00     0.059 A 
ATOM     95  F   UNL A   1      43.017  27.687  32.383  1.00  0.00    -0.206 F 
ATOM     96  C   UNL A   1      41.911  26.696  35.680  1.00  0.00     0.060 A 
BRANCH  96  97
ATOM     97  S   UNL A   1      41.593  25.195  36.632  1.00  0.00     0.124 S 
ATOM     98  O   UNL A   1      41.407  24.210  35.572  1.00  0.00    -0.237 OA
ATOM     99  O   UNL A   1      42.816  25.064  37.418  1.00  0.00    -0.237 OA
ATOM    100  O   UNL A   1      40.398  25.532  37.400  1.00  0.00    -0.744 OA
ENDBRANCH  96  97
ENDBRANCH  64  89
BRANCH  76 101
ATOM    101  C   UNL A   1      47.889  33.201  33.249  1.00  0.00     0.058 A 
ATOM    102  C   UNL A   1      48.212  33.836  34.458  1.00  0.00     0.135 A 
ATOM    103  C   UNL A   1      48.898  32.478  32.592  1.00  0.00     0.135 A 
ATOM    104  F   UNL A   1      47.283  34.543  35.118  1.00  0.00    -0.206 F 
ATOM    105  C   UNL A   1      49.495  33.770  34.989  1.00  0.00     0.059 A 
ATOM    106  C   UNL A   1      50.180  32.377  33.119  1.00  0.00     0.059 A 
ATOM    107  F   UNL A   1      48.634  31.844  31.439  1.00  0.00    -0.206 F 
ATOM    108  C   UNL A   1      50.472  33.036  34.313  1.00  0.00     0.060 A 
BRANCH 108 109
ATOM    109  S   UNL A   1      52.121  32.923  35.035  1.00  0.00     0.124 S 
ATOM    110  O   UNL A   1      51.820  32.441  36.379  1.00  0.00    -0.237 OA
ATOM    111  O   UNL A   1      52.786  31.969  34.154  1.00  0.00    -0.237 OA
ATOM    112  O   UNL A   1      52.620  34.294  34.956  1.00  0.00    -0.744 OA
ENDBRANCH 108 109
ENDBRANCH  76 101
ENDBRANCH  50  51
ENDBRANCH  42  45
ENDBRANCH  40  41
ENDBRANCH   1  40
TORSDOF 19
ENDMDL
