MODEL 1
REMARK VINA RESULT:     -10.1      0.000      0.000
REMARK SMILES CC(C)[C@@H](CC(=O)OC(C)(C)C)C(=O)NCCCNC(=O)c1ccc(-c2c3nc(c(-c4c(F)cc(S(=O)(=O)[O-])cc4F)c4ccc([nH]4)c(-c4c(F)cc(S(=O)(=O)[O-])cc4F)c4nc(c(-c5c(F)cc(S(=O)(=O)[O-])cc5F)c5ccc2[nH]5)C=C4)C=C3)cc1
REMARK SMILES IDX 16 1 15 2 13 3 14 4 4 6 2 7 1 8 3 9 5 10 6 11 7 12 8 13 9 14
REMARK SMILES IDX 10 15 11 16 12 17 17 18 18 19 19 20 20 21 21 23 22 24 23 25
REMARK SMILES IDX 87 26 24 27 86 28 25 29 26 30 27 31 80 32 28 33 85 34 79 35
REMARK SMILES IDX 81 36 29 37 84 38 78 39 77 40 30 42 64 43 43 44 63 45 44 46
REMARK SMILES IDX 47 47 62 48 82 49 45 50 46 51 61 53 83 54 48 55 31 56 32 57
REMARK SMILES IDX 41 58 33 59 34 60 40 61 42 62 35 63 36 64 37 65 38 66 39 67
REMARK SMILES IDX 65 68 66 69 75 70 67 71 68 72 74 73 76 74 69 75 70 76 71 77
REMARK SMILES IDX 72 78 73 79 49 80 50 81 59 82 51 83 52 84 58 85 60 86 53 87
REMARK SMILES IDX 54 88 55 89 56 90 57 91
REMARK H PARENT 15 5 19 22 81 41 47 52
REMARK Flexibility Score: inf
ROOT
ATOM      1  C   UNL A   1      31.908  27.079  26.038  1.00  0.00     0.117 C 
ENDROOT
BRANCH   1   2
ATOM      2  N   UNL A   1      31.251  25.919  26.570  1.00  0.00    -0.356 N 
ATOM      3  C   UNL A   1      31.675  24.627  26.518  1.00  0.00     0.223 C 
ATOM      4  O   UNL A   1      31.078  23.801  27.213  1.00  0.00    -0.275 OA
ATOM      5  H   UNL A   1      30.393  26.075  27.027  1.00  0.00     0.163 HD
BRANCH   3   6
ATOM      6  C   UNL A   1      32.839  24.185  25.617  1.00  0.00     0.092 C 
BRANCH   6   7
ATOM      7  C   UNL A   1      34.195  23.954  26.343  1.00  0.00    -0.004 C 
ATOM      8  C   UNL A   1      34.290  22.527  26.897  1.00  0.00     0.008 C 
ATOM      9  C   UNL A   1      35.394  24.192  25.410  1.00  0.00     0.008 C 
ENDBRANCH   6   7
BRANCH   6  10
ATOM     10  C   UNL A   1      32.412  23.162  24.540  1.00  0.00     0.136 C 
BRANCH  10  11
ATOM     11  C   UNL A   1      32.413  23.528  23.065  1.00  0.00     0.307 C 
ATOM     12  O   UNL A   1      32.971  22.846  22.219  1.00  0.00    -0.252 OA
BRANCH  11  13
ATOM     13  O   UNL A   1      31.698  24.655  22.813  1.00  0.00    -0.460 OA
BRANCH  13  14
ATOM     14  C   UNL A   1      32.294  25.834  22.181  1.00  0.00     0.104 C 
ATOM     15  C   UNL A   1      33.586  26.338  22.841  1.00  0.00     0.056 C 
ATOM     16  C   UNL A   1      32.531  25.573  20.694  1.00  0.00     0.056 C 
ATOM     17  C   UNL A   1      31.234  26.935  22.350  1.00  0.00     0.056 C 
ENDBRANCH  13  14
ENDBRANCH  11  13
ENDBRANCH  10  11
ENDBRANCH   6  10
ENDBRANCH   3   6
ENDBRANCH   1   2
BRANCH   1  18
ATOM     18  C   UNL A   1      33.046  27.623  26.872  1.00  0.00     0.042 C 
BRANCH  18  19
ATOM     19  C   UNL A   1      33.770  28.788  26.222  1.00  0.00     0.118 C 
BRANCH  19  20
ATOM     20  N   UNL A   1      33.673  30.038  26.979  1.00  0.00    -0.352 N 
ATOM     21  C   UNL A   1      34.504  30.634  27.898  1.00  0.00     0.251 C 
ATOM     22  H   UNL A   1      32.854  30.552  26.793  1.00  0.00     0.163 HD
ATOM     23  O   UNL A   1      34.093  31.602  28.534  1.00  0.00    -0.269 OA
BRANCH  21  24
ATOM     24  C   UNL A   1      35.865  30.114  28.145  1.00  0.00     0.039 A 
ATOM     25  C   UNL A   1      36.826  30.180  27.129  1.00  0.00     0.014 A 
ATOM     26  C   UNL A   1      36.197  29.545  29.369  1.00  0.00     0.014 A 
ATOM     27  C   UNL A   1      38.134  29.759  27.386  1.00  0.00     0.010 A 
ATOM     28  C   UNL A   1      37.521  29.273  29.671  1.00  0.00     0.010 A 
ATOM     29  C   UNL A   1      38.504  29.354  28.676  1.00  0.00    -0.014 A 
BRANCH  29  30
ATOM     30  C   UNL A   1      39.895  28.971  29.031  1.00  0.00     0.031 A 
ATOM     31  C   UNL A   1      40.811  29.994  29.653  1.00  0.00     0.074 A 
ATOM     32  C   UNL A   1      40.361  27.753  28.692  1.00  0.00     0.049 A 
ATOM     33  N   UNL A   1      42.097  29.923  29.881  1.00  0.00    -0.248 NA
ATOM     34  C   UNL A   1      40.211  31.290  30.019  1.00  0.00     0.031 C 
ATOM     35  C   UNL A   1      39.586  26.697  28.034  1.00  0.00     0.029 A 
ATOM     36  N   UNL A   1      41.608  27.201  28.839  1.00  0.00    -0.354 N 
ATOM     37  C   UNL A   1      42.458  31.168  30.386  1.00  0.00     0.074 A 
ATOM     38  C   UNL A   1      41.276  31.998  30.358  1.00  0.00     0.031 C 
ATOM     39  C   UNL A   1      40.366  25.619  27.861  1.00  0.00     0.029 A 
ATOM     40  C   UNL A   1      41.708  25.921  28.346  1.00  0.00     0.049 A 
ATOM     41  H   UNL A   1      42.362  27.677  29.257  1.00  0.00     0.167 HD
ATOM     42  C   UNL A   1      43.660  31.573  30.861  1.00  0.00     0.037 A 
ATOM     43  C   UNL A   1      42.767  25.090  28.280  1.00  0.00     0.037 A 
ATOM     44  C   UNL A   1      44.818  30.723  30.923  1.00  0.00     0.049 A 
ATOM     45  C   UNL A   1      44.091  25.559  28.820  1.00  0.00     0.074 A 
ATOM     46  C   UNL A   1      46.066  31.006  31.446  1.00  0.00     0.029 A 
ATOM     47  N   UNL A   1      44.868  29.418  30.450  1.00  0.00    -0.354 N 
ATOM     48  N   UNL A   1      44.402  26.719  29.349  1.00  0.00    -0.248 NA
ATOM     49  C   UNL A   1      45.206  24.606  28.759  1.00  0.00     0.031 C 
ATOM     50  C   UNL A   1      46.886  29.891  31.245  1.00  0.00     0.029 A 
ATOM     51  C   UNL A   1      46.132  28.891  30.650  1.00  0.00     0.049 A 
ATOM     52  H   UNL A   1      44.116  28.940  30.033  1.00  0.00     0.167 HD
ATOM     53  C   UNL A   1      45.741  26.623  29.714  1.00  0.00     0.074 A 
ATOM     54  C   UNL A   1      46.175  25.289  29.355  1.00  0.00     0.031 C 
ATOM     55  C   UNL A   1      46.539  27.554  30.294  1.00  0.00     0.037 A 
BRANCH  42  56
ATOM     56  C   UNL A   1      43.774  32.988  31.362  1.00  0.00     0.058 A 
ATOM     57  C   UNL A   1      44.177  34.040  30.522  1.00  0.00     0.135 A 
ATOM     58  C   UNL A   1      43.454  33.303  32.693  1.00  0.00     0.135 A 
ATOM     59  F   UNL A   1      44.512  33.797  29.245  1.00  0.00    -0.206 F 
ATOM     60  C   UNL A   1      44.295  35.344  30.992  1.00  0.00     0.059 A 
ATOM     61  C   UNL A   1      43.531  34.607  33.175  1.00  0.00     0.059 A 
ATOM     62  F   UNL A   1      43.066  32.339  33.542  1.00  0.00    -0.206 F 
ATOM     63  C   UNL A   1      43.968  35.618  32.321  1.00  0.00     0.060 A 
BRANCH  63  64
ATOM     64  S   UNL A   1      44.121  37.317  32.910  1.00  0.00     0.124 S 
ATOM     65  O   UNL A   1      45.441  37.291  33.534  1.00  0.00    -0.237 OA
ATOM     66  O   UNL A   1      44.021  38.085  31.673  1.00  0.00    -0.237 OA
ATOM     67  O   UNL A   1      42.996  37.461  33.829  1.00  0.00    -0.744 OA
ENDBRANCH  63  64
ENDBRANCH  42  56
BRANCH  43  68
ATOM     68  C   UNL A   1      42.609  23.725  27.710  1.00  0.00     0.058 A 
ATOM     69  C   UNL A   1      42.428  22.614  28.547  1.00  0.00     0.135 A 
ATOM     70  C   UNL A   1      42.618  23.503  26.324  1.00  0.00     0.135 A 
ATOM     71  F   UNL A   1      42.415  22.774  29.879  1.00  0.00    -0.206 F 
ATOM     72  C   UNL A   1      42.283  21.329  28.035  1.00  0.00     0.059 A 
ATOM     73  C   UNL A   1      42.446  22.231  25.786  1.00  0.00     0.059 A 
ATOM     74  F   UNL A   1      42.767  24.534  25.478  1.00  0.00    -0.206 F 
ATOM     75  C   UNL A   1      42.289  21.149  26.651  1.00  0.00     0.060 A 
BRANCH  75  76
ATOM     76  S   UNL A   1      42.053  19.482  25.997  1.00  0.00     0.124 S 
ATOM     77  O   UNL A   1      42.531  18.661  27.102  1.00  0.00    -0.237 OA
ATOM     78  O   UNL A   1      40.614  19.451  25.753  1.00  0.00    -0.237 OA
ATOM     79  O   UNL A   1      42.884  19.473  24.796  1.00  0.00    -0.744 OA
ENDBRANCH  75  76
ENDBRANCH  43  68
BRANCH  55  80
ATOM     80  C   UNL A   1      47.951  27.150  30.618  1.00  0.00     0.058 A 
ATOM     81  C   UNL A   1      48.990  27.276  29.683  1.00  0.00     0.135 A 
ATOM     82  C   UNL A   1      48.276  26.684  31.902  1.00  0.00     0.135 A 
ATOM     83  F   UNL A   1      48.732  27.710  28.439  1.00  0.00    -0.206 F 
ATOM     84  C   UNL A   1      50.299  26.930  30.002  1.00  0.00     0.059 A 
ATOM     85  C   UNL A   1      49.583  26.363  32.253  1.00  0.00     0.059 A 
ATOM     86  F   UNL A   1      47.321  26.557  32.838  1.00  0.00    -0.206 F 
ATOM     87  C   UNL A   1      50.586  26.478  31.292  1.00  0.00     0.060 A 
BRANCH  87  88
ATOM     88  S   UNL A   1      52.294  26.067  31.702  1.00  0.00     0.124 S 
ATOM     89  O   UNL A   1      52.986  26.416  30.466  1.00  0.00    -0.237 OA
ATOM     90  O   UNL A   1      52.558  26.937  32.845  1.00  0.00    -0.237 OA
ATOM     91  O   UNL A   1      52.237  24.641  32.009  1.00  0.00    -0.744 OA
ENDBRANCH  87  88
ENDBRANCH  55  80
ENDBRANCH  29  30
ENDBRANCH  21  24
ENDBRANCH  19  20
ENDBRANCH  18  19
ENDBRANCH   1  18
TORSDOF 18
ENDMDL
MODEL 2
REMARK VINA RESULT:      -9.9      2.553      3.336
REMARK SMILES CC(C)[C@@H](CC(=O)OC(C)(C)C)C(=O)NCCCNC(=O)c1ccc(-c2c3nc(c(-c4c(F)cc(S(=O)(=O)[O-])cc4F)c4ccc([nH]4)c(-c4c(F)cc(S(=O)(=O)[O-])cc4F)c4nc(c(-c5c(F)cc(S(=O)(=O)[O-])cc5F)c5ccc2[nH]5)C=C4)C=C3)cc1
REMARK SMILES IDX 16 1 15 2 13 3 14 4 4 6 2 7 1 8 3 9 5 10 6 11 7 12 8 13 9 14
REMARK SMILES IDX 10 15 11 16 12 17 17 18 18 19 19 20 20 21 21 23 22 24 23 25
REMARK SMILES IDX 87 26 24 27 86 28 25 29 26 30 27 31 80 32 28 33 85 34 79 35
REMARK SMILES IDX 81 36 29 37 84 38 78 39 77 40 30 42 64 43 43 44 63 45 44 46
REMARK SMILES IDX 47 47 62 48 82 49 45 50 46 51 61 53 83 54 48 55 31 56 32 57
REMARK SMILES IDX 41 58 33 59 34 60 40 61 42 62 35 63 36 64 37 65 38 66 39 67
REMARK SMILES IDX 65 68 66 69 75 70 67 71 68 72 74 73 76 74 69 75 70 76 71 77
REMARK SMILES IDX 72 78 73 79 49 80 50 81 59 82 51 83 52 84 58 85 60 86 53 87
REMARK SMILES IDX 54 88 55 89 56 90 57 91
REMARK H PARENT 15 5 19 22 81 41 47 52
REMARK Flexibility Score: inf
ROOT
ATOM      1  C   UNL A   1      31.939  27.110  25.917  1.00  0.00     0.117 C 
ENDROOT
BRANCH   1   2
ATOM      2  N   UNL A   1      31.302  25.975  26.525  1.00  0.00    -0.356 N 
ATOM      3  C   UNL A   1      31.737  24.686  26.536  1.00  0.00     0.223 C 
ATOM      4  O   UNL A   1      31.161  23.895  27.287  1.00  0.00    -0.275 OA
ATOM      5  H   UNL A   1      30.452  26.150  26.989  1.00  0.00     0.163 HD
BRANCH   3   6
ATOM      6  C   UNL A   1      32.888  24.204  25.639  1.00  0.00     0.092 C 
BRANCH   6   7
ATOM      7  C   UNL A   1      34.222  23.893  26.373  1.00  0.00    -0.004 C 
ATOM      8  C   UNL A   1      34.288  22.422  26.803  1.00  0.00     0.008 C 
ATOM      9  C   UNL A   1      35.447  24.195  25.494  1.00  0.00     0.008 C 
ENDBRANCH   6   7
BRANCH   6  10
ATOM     10  C   UNL A   1      32.423  23.224  24.538  1.00  0.00     0.136 C 
BRANCH  10  11
ATOM     11  C   UNL A   1      32.623  23.544  23.065  1.00  0.00     0.307 C 
ATOM     12  O   UNL A   1      33.428  22.947  22.367  1.00  0.00    -0.252 OA
BRANCH  11  13
ATOM     13  O   UNL A   1      31.784  24.520  22.631  1.00  0.00    -0.460 OA
BRANCH  13  14
ATOM     14  C   UNL A   1      32.273  25.801  22.120  1.00  0.00     0.104 C 
ATOM     15  C   UNL A   1      31.279  26.965  22.232  1.00  0.00     0.056 C 
ATOM     16  C   UNL A   1      33.593  26.170  22.798  1.00  0.00     0.056 C 
ATOM     17  C   UNL A   1      32.516  25.547  20.623  1.00  0.00     0.056 C 
ENDBRANCH  13  14
ENDBRANCH  11  13
ENDBRANCH  10  11
ENDBRANCH   6  10
ENDBRANCH   3   6
ENDBRANCH   1   2
BRANCH   1  18
ATOM     18  C   UNL A   1      33.094  27.702  26.693  1.00  0.00     0.042 C 
BRANCH  18  19
ATOM     19  C   UNL A   1      33.886  28.731  25.907  1.00  0.00     0.118 C 
BRANCH  19  20
ATOM     20  N   UNL A   1      33.755  30.096  26.425  1.00  0.00    -0.352 N 
ATOM     21  C   UNL A   1      34.442  30.793  27.390  1.00  0.00     0.251 C 
ATOM     22  H   UNL A   1      33.035  30.614  25.998  1.00  0.00     0.163 HD
ATOM     23  O   UNL A   1      34.003  31.876  27.769  1.00  0.00    -0.269 OA
BRANCH  21  24
ATOM     24  C   UNL A   1      35.679  30.249  27.987  1.00  0.00     0.039 A 
ATOM     25  C   UNL A   1      36.888  30.349  27.288  1.00  0.00     0.014 A 
ATOM     26  C   UNL A   1      35.653  29.624  29.229  1.00  0.00     0.014 A 
ATOM     27  C   UNL A   1      38.071  29.904  27.884  1.00  0.00     0.010 A 
ATOM     28  C   UNL A   1      36.839  29.327  29.880  1.00  0.00     0.010 A 
ATOM     29  C   UNL A   1      38.062  29.440  29.208  1.00  0.00    -0.014 A 
BRANCH  29  30
ATOM     30  C   UNL A   1      39.298  29.028  29.923  1.00  0.00     0.031 A 
ATOM     31  C   UNL A   1      39.739  29.793  31.145  1.00  0.00     0.074 A 
ATOM     32  C   UNL A   1      40.072  28.050  29.413  1.00  0.00     0.049 A 
ATOM     33  N   UNL A   1      40.860  29.712  31.813  1.00  0.00    -0.248 NA
ATOM     34  C   UNL A   1      38.816  30.826  31.652  1.00  0.00     0.031 C 
ATOM     35  C   UNL A   1      39.779  27.275  28.204  1.00  0.00     0.029 A 
ATOM     36  N   UNL A   1      41.276  27.551  29.839  1.00  0.00    -0.354 N 
ATOM     37  C   UNL A   1      40.787  30.697  32.792  1.00  0.00     0.074 A 
ATOM     38  C   UNL A   1      39.549  31.413  32.584  1.00  0.00     0.031 C 
ATOM     39  C   UNL A   1      40.761  26.382  28.004  1.00  0.00     0.029 A 
ATOM     40  C   UNL A   1      41.778  26.554  29.036  1.00  0.00     0.049 A 
ATOM     41  H   UNL A   1      41.740  27.877  30.645  1.00  0.00     0.167 HD
ATOM     42  C   UNL A   1      41.658  30.960  33.795  1.00  0.00     0.037 A 
ATOM     43  C   UNL A   1      42.933  25.866  29.115  1.00  0.00     0.037 A 
ATOM     44  C   UNL A   1      42.866  30.212  34.016  1.00  0.00     0.049 A 
ATOM     45  C   UNL A   1      43.883  26.170  30.241  1.00  0.00     0.074 A 
ATOM     46  C   UNL A   1      43.786  30.347  35.040  1.00  0.00     0.029 A 
ATOM     47  N   UNL A   1      43.318  29.182  33.202  1.00  0.00    -0.354 N 
ATOM     48  N   UNL A   1      43.771  27.065  31.195  1.00  0.00    -0.248 NA
ATOM     49  C   UNL A   1      45.112  25.369  30.307  1.00  0.00     0.031 C 
ATOM     50  C   UNL A   1      44.821  29.432  34.818  1.00  0.00     0.029 A 
ATOM     51  C   UNL A   1      44.516  28.686  33.689  1.00  0.00     0.049 A 
ATOM     52  H   UNL A   1      42.856  28.853  32.399  1.00  0.00     0.167 HD
ATOM     53  C   UNL A   1      44.900  26.912  31.993  1.00  0.00     0.074 A 
ATOM     54  C   UNL A   1      45.674  25.832  31.416  1.00  0.00     0.031 C 
ATOM     55  C   UNL A   1      45.264  27.602  33.103  1.00  0.00     0.037 A 
BRANCH  42  56
ATOM     56  C   UNL A   1      41.326  32.092  34.731  1.00  0.00     0.058 A 
ATOM     57  C   UNL A   1      40.467  31.916  35.829  1.00  0.00     0.135 A 
ATOM     58  C   UNL A   1      41.891  33.364  34.544  1.00  0.00     0.135 A 
ATOM     59  F   UNL A   1      39.883  30.727  36.048  1.00  0.00    -0.206 F 
ATOM     60  C   UNL A   1      40.151  32.967  36.683  1.00  0.00     0.059 A 
ATOM     61  C   UNL A   1      41.617  34.421  35.407  1.00  0.00     0.059 A 
ATOM     62  F   UNL A   1      42.717  33.592  33.511  1.00  0.00    -0.206 F 
ATOM     63  C   UNL A   1      40.732  34.216  36.465  1.00  0.00     0.060 A 
BRANCH  63  64
ATOM     64  S   UNL A   1      40.315  35.565  37.589  1.00  0.00     0.124 S 
ATOM     65  O   UNL A   1      39.842  36.584  36.657  1.00  0.00    -0.237 OA
ATOM     66  O   UNL A   1      39.294  34.959  38.437  1.00  0.00    -0.237 OA
ATOM     67  O   UNL A   1      41.582  35.862  38.250  1.00  0.00    -0.744 OA
ENDBRANCH  63  64
ENDBRANCH  42  56
BRANCH  43  68
ATOM     68  C   UNL A   1      43.239  24.804  28.118  1.00  0.00     0.058 A 
ATOM     69  C   UNL A   1      43.903  25.114  26.921  1.00  0.00     0.135 A 
ATOM     70  C   UNL A   1      42.892  23.463  28.343  1.00  0.00     0.135 A 
ATOM     71  F   UNL A   1      44.253  26.382  26.658  1.00  0.00    -0.206 F 
ATOM     72  C   UNL A   1      44.195  24.139  25.974  1.00  0.00     0.059 A 
ATOM     73  C   UNL A   1      43.199  22.464  27.424  1.00  0.00     0.059 A 
ATOM     74  F   UNL A   1      42.275  23.110  29.481  1.00  0.00    -0.206 F 
ATOM     75  C   UNL A   1      43.841  22.814  26.237  1.00  0.00     0.060 A 
BRANCH  75  76
ATOM     76  S   UNL A   1      44.266  21.549  25.020  1.00  0.00     0.124 S 
ATOM     77  O   UNL A   1      44.086  22.273  23.767  1.00  0.00    -0.237 OA
ATOM     78  O   UNL A   1      45.644  21.229  25.382  1.00  0.00    -0.237 OA
ATOM     79  O   UNL A   1      43.295  20.491  25.284  1.00  0.00    -0.744 OA
ENDBRANCH  75  76
ENDBRANCH  43  68
BRANCH  55  80
ATOM     80  C   UNL A   1      46.533  27.183  33.793  1.00  0.00     0.058 A 
ATOM     81  C   UNL A   1      47.771  27.770  33.488  1.00  0.00     0.135 A 
ATOM     82  C   UNL A   1      46.498  26.220  34.815  1.00  0.00     0.135 A 
ATOM     83  F   UNL A   1      47.861  28.691  32.516  1.00  0.00    -0.206 F 
ATOM     84  C   UNL A   1      48.934  27.399  34.154  1.00  0.00     0.059 A 
ATOM     85  C   UNL A   1      47.642  25.857  35.516  1.00  0.00     0.059 A 
ATOM     86  F   UNL A   1      45.337  25.636  35.154  1.00  0.00    -0.206 F 
ATOM     87  C   UNL A   1      48.858  26.443  35.170  1.00  0.00     0.060 A 
BRANCH  87  88
ATOM     88  S   UNL A   1      50.369  25.998  36.050  1.00  0.00     0.124 S 
ATOM     89  O   UNL A   1      51.172  25.416  34.980  1.00  0.00    -0.237 OA
ATOM     90  O   UNL A   1      50.826  27.289  36.557  1.00  0.00    -0.237 OA
ATOM     91  O   UNL A   1      49.906  25.061  37.069  1.00  0.00    -0.744 OA
ENDBRANCH  87  88
ENDBRANCH  55  80
ENDBRANCH  29  30
ENDBRANCH  21  24
ENDBRANCH  19  20
ENDBRANCH  18  19
ENDBRANCH   1  18
TORSDOF 18
ENDMDL
MODEL 3
REMARK VINA RESULT:      -9.8      2.999      4.158
REMARK SMILES CC(C)[C@@H](CC(=O)OC(C)(C)C)C(=O)NCCCNC(=O)c1ccc(-c2c3nc(c(-c4c(F)cc(S(=O)(=O)[O-])cc4F)c4ccc([nH]4)c(-c4c(F)cc(S(=O)(=O)[O-])cc4F)c4nc(c(-c5c(F)cc(S(=O)(=O)[O-])cc5F)c5ccc2[nH]5)C=C4)C=C3)cc1
REMARK SMILES IDX 16 1 15 2 13 3 14 4 4 6 2 7 1 8 3 9 5 10 6 11 7 12 8 13 9 14
REMARK SMILES IDX 10 15 11 16 12 17 17 18 18 19 19 20 20 21 21 23 22 24 23 25
REMARK SMILES IDX 87 26 24 27 86 28 25 29 26 30 27 31 80 32 28 33 85 34 79 35
REMARK SMILES IDX 81 36 29 37 84 38 78 39 77 40 30 42 64 43 43 44 63 45 44 46
REMARK SMILES IDX 47 47 62 48 82 49 45 50 46 51 61 53 83 54 48 55 31 56 32 57
REMARK SMILES IDX 41 58 33 59 34 60 40 61 42 62 35 63 36 64 37 65 38 66 39 67
REMARK SMILES IDX 65 68 66 69 75 70 67 71 68 72 74 73 76 74 69 75 70 76 71 77
REMARK SMILES IDX 72 78 73 79 49 80 50 81 59 82 51 83 52 84 58 85 60 86 53 87
REMARK SMILES IDX 54 88 55 89 56 90 57 91
REMARK H PARENT 15 5 19 22 81 41 47 52
REMARK Flexibility Score: inf
ROOT
ATOM      1  C   UNL A   1      33.591  30.094  26.932  1.00  0.00     0.117 C 
ENDROOT
BRANCH   1   2
ATOM      2  N   UNL A   1      32.472  29.465  27.575  1.00  0.00    -0.356 N 
ATOM      3  C   UNL A   1      31.837  28.321  27.203  1.00  0.00     0.223 C 
ATOM      4  O   UNL A   1      31.034  27.829  28.000  1.00  0.00    -0.275 OA
ATOM      5  H   UNL A   1      32.124  29.913  28.379  1.00  0.00     0.163 HD
BRANCH   3   6
ATOM      6  C   UNL A   1      32.079  27.658  25.838  1.00  0.00     0.092 C 
BRANCH   6   7
ATOM      7  C   UNL A   1      31.614  28.481  24.604  1.00  0.00    -0.004 C 
ATOM      8  C   UNL A   1      32.788  28.775  23.661  1.00  0.00     0.008 C 
ATOM      9  C   UNL A   1      30.523  27.751  23.804  1.00  0.00     0.008 C 
ENDBRANCH   6   7
BRANCH   6  10
ATOM     10  C   UNL A   1      33.442  26.934  25.754  1.00  0.00     0.136 C 
BRANCH  10  11
ATOM     11  C   UNL A   1      33.549  25.522  25.203  1.00  0.00     0.307 C 
ATOM     12  O   UNL A   1      34.103  25.270  24.144  1.00  0.00    -0.252 OA
BRANCH  11  13
ATOM     13  O   UNL A   1      33.004  24.600  26.039  1.00  0.00    -0.460 OA
BRANCH  13  14
ATOM     14  C   UNL A   1      32.016  23.620  25.584  1.00  0.00     0.104 C 
ATOM     15  C   UNL A   1      30.923  24.183  24.665  1.00  0.00     0.056 C 
ATOM     16  C   UNL A   1      32.715  22.441  24.908  1.00  0.00     0.056 C 
ATOM     17  C   UNL A   1      31.330  23.143  26.875  1.00  0.00     0.056 C 
ENDBRANCH  13  14
ENDBRANCH  11  13
ENDBRANCH  10  11
ENDBRANCH   6  10
ENDBRANCH   3   6
ENDBRANCH   1   2
BRANCH   1  18
ATOM     18  C   UNL A   1      34.942  29.815  27.554  1.00  0.00     0.042 C 
BRANCH  18  19
ATOM     19  C   UNL A   1      35.513  30.995  28.317  1.00  0.00     0.118 C 
BRANCH  19  20
ATOM     20  N   UNL A   1      35.543  30.799  29.768  1.00  0.00    -0.352 N 
ATOM     21  C   UNL A   1      36.433  30.163  30.601  1.00  0.00     0.251 C 
ATOM     22  H   UNL A   1      34.778  31.202  30.239  1.00  0.00     0.163 HD
ATOM     23  O   UNL A   1      36.122  29.977  31.775  1.00  0.00    -0.269 OA
BRANCH  21  24
ATOM     24  C   UNL A   1      37.737  29.683  30.099  1.00  0.00     0.039 A 
ATOM     25  C   UNL A   1      38.122  29.971  28.785  1.00  0.00     0.014 A 
ATOM     26  C   UNL A   1      38.580  28.934  30.914  1.00  0.00     0.014 A 
ATOM     27  C   UNL A   1      39.386  29.583  28.332  1.00  0.00     0.010 A 
ATOM     28  C   UNL A   1      39.885  28.688  30.520  1.00  0.00     0.010 A 
ATOM     29  C   UNL A   1      40.299  28.987  29.216  1.00  0.00    -0.014 A 
BRANCH  29  30
ATOM     30  C   UNL A   1      41.683  28.625  28.817  1.00  0.00     0.031 A 
ATOM     31  C   UNL A   1      42.739  29.699  28.745  1.00  0.00     0.074 A 
ATOM     32  C   UNL A   1      41.958  27.369  28.416  1.00  0.00     0.049 A 
ATOM     33  N   UNL A   1      43.953  29.635  28.264  1.00  0.00    -0.248 NA
ATOM     34  C   UNL A   1      42.362  31.038  29.233  1.00  0.00     0.031 C 
ATOM     35  C   UNL A   1      41.004  26.257  28.386  1.00  0.00     0.029 A 
ATOM     36  N   UNL A   1      43.119  26.818  27.937  1.00  0.00    -0.354 N 
ATOM     37  C   UNL A   1      44.467  30.924  28.364  1.00  0.00     0.074 A 
ATOM     38  C   UNL A   1      43.410  31.763  28.879  1.00  0.00     0.031 C 
ATOM     39  C   UNL A   1      41.626  25.153  27.942  1.00  0.00     0.029 A 
ATOM     40  C   UNL A   1      43.005  25.488  27.606  1.00  0.00     0.049 A 
ATOM     41  H   UNL A   1      43.956  27.327  27.839  1.00  0.00     0.167 HD
ATOM     42  C   UNL A   1      45.717  31.362  28.083  1.00  0.00     0.037 A 
ATOM     43  C   UNL A   1      43.908  24.638  27.079  1.00  0.00     0.037 A 
ATOM     44  C   UNL A   1      46.772  30.506  27.612  1.00  0.00     0.049 A 
ATOM     45  C   UNL A   1      45.293  25.145  26.781  1.00  0.00     0.074 A 
ATOM     46  C   UNL A   1      48.094  30.828  27.361  1.00  0.00     0.029 A 
ATOM     47  N   UNL A   1      46.627  29.155  27.328  1.00  0.00    -0.354 N 
ATOM     48  N   UNL A   1      45.781  26.353  26.938  1.00  0.00    -0.248 NA
ATOM     49  C   UNL A   1      46.253  24.174  26.241  1.00  0.00     0.031 C 
ATOM     50  C   UNL A   1      48.736  29.684  26.877  1.00  0.00     0.029 A 
ATOM     51  C   UNL A   1      47.830  28.634  26.883  1.00  0.00     0.049 A 
ATOM     52  H   UNL A   1      45.793  28.643  27.427  1.00  0.00     0.167 HD
ATOM     53  C   UNL A   1      47.113  26.279  26.545  1.00  0.00     0.074 A 
ATOM     54  C   UNL A   1      47.356  24.905  26.156  1.00  0.00     0.031 C 
ATOM     55  C   UNL A   1      48.051  27.258  26.510  1.00  0.00     0.037 A 
BRANCH  42  56
ATOM     56  C   UNL A   1      46.010  32.824  28.293  1.00  0.00     0.058 A 
ATOM     57  C   UNL A   1      46.467  33.317  29.526  1.00  0.00     0.135 A 
ATOM     58  C   UNL A   1      45.853  33.742  27.241  1.00  0.00     0.135 A 
ATOM     59  F   UNL A   1      46.618  32.490  30.572  1.00  0.00    -0.206 F 
ATOM     60  C   UNL A   1      46.723  34.671  29.720  1.00  0.00     0.059 A 
ATOM     61  C   UNL A   1      46.137  35.095  27.403  1.00  0.00     0.059 A 
ATOM     62  F   UNL A   1      45.417  33.328  26.041  1.00  0.00    -0.206 F 
ATOM     63  C   UNL A   1      46.556  35.552  28.651  1.00  0.00     0.060 A 
BRANCH  63  64
ATOM     64  S   UNL A   1      46.900  37.303  28.921  1.00  0.00     0.124 S 
ATOM     65  O   UNL A   1      47.498  37.682  27.644  1.00  0.00    -0.237 OA
ATOM     66  O   UNL A   1      45.570  37.844  29.184  1.00  0.00    -0.237 OA
ATOM     67  O   UNL A   1      47.810  37.300  30.062  1.00  0.00    -0.744 OA
ENDBRANCH  63  64
ENDBRANCH  42  56
BRANCH  43  68
ATOM     68  C   UNL A   1      43.539  23.219  26.829  1.00  0.00     0.058 A 
ATOM     69  C   UNL A   1      43.358  22.325  27.896  1.00  0.00     0.135 A 
ATOM     70  C   UNL A   1      43.341  22.729  25.528  1.00  0.00     0.135 A 
ATOM     71  F   UNL A   1      43.538  22.744  29.158  1.00  0.00    -0.206 F 
ATOM     72  C   UNL A   1      43.017  20.994  27.684  1.00  0.00     0.059 A 
ATOM     73  C   UNL A   1      42.971  21.409  25.292  1.00  0.00     0.059 A 
ATOM     74  F   UNL A   1      43.480  23.547  24.474  1.00  0.00    -0.206 F 
ATOM     75  C   UNL A   1      42.821  20.546  26.376  1.00  0.00     0.060 A 
BRANCH  75  76
ATOM     76  S   UNL A   1      42.333  18.827  26.117  1.00  0.00     0.124 S 
ATOM     77  O   UNL A   1      43.234  18.423  25.044  1.00  0.00    -0.237 OA
ATOM     78  O   UNL A   1      42.592  18.236  27.426  1.00  0.00    -0.237 OA
ATOM     79  O   UNL A   1      40.923  18.931  25.753  1.00  0.00    -0.744 OA
ENDBRANCH  75  76
ENDBRANCH  43  68
BRANCH  55  80
ATOM     80  C   UNL A   1      49.439  26.872  26.077  1.00  0.00     0.058 A 
ATOM     81  C   UNL A   1      50.356  26.288  26.965  1.00  0.00     0.135 A 
ATOM     82  C   UNL A   1      49.833  27.036  24.740  1.00  0.00     0.135 A 
ATOM     83  F   UNL A   1      50.031  26.114  28.255  1.00  0.00    -0.206 F 
ATOM     84  C   UNL A   1      51.626  25.904  26.547  1.00  0.00     0.059 A 
ATOM     85  C   UNL A   1      51.086  26.630  24.293  1.00  0.00     0.059 A 
ATOM     86  F   UNL A   1      48.989  27.578  23.847  1.00  0.00    -0.206 F 
ATOM     87  C   UNL A   1      51.980  26.075  25.207  1.00  0.00     0.060 A 
BRANCH  87  88
ATOM     88  S   UNL A   1      53.617  25.539  24.672  1.00  0.00     0.124 S 
ATOM     89  O   UNL A   1      54.477  26.206  25.644  1.00  0.00    -0.237 OA
ATOM     90  O   UNL A   1      53.526  24.088  24.795  1.00  0.00    -0.237 OA
ATOM     91  O   UNL A   1      53.709  26.041  23.303  1.00  0.00    -0.744 OA
ENDBRANCH  87  88
ENDBRANCH  55  80
ENDBRANCH  29  30
ENDBRANCH  21  24
ENDBRANCH  19  20
ENDBRANCH  18  19
ENDBRANCH   1  18
TORSDOF 18
ENDMDL
