MODEL 1
REMARK VINA RESULT:     -11.3      0.000      0.000
REMARK SMILES CCc1ccc(O[C@H](CC)C(=O)NCCCNC(=O)c2ccc(-c3c4nc(c(-c5c(F)cc(S(=O)(=O)[O-])cc5F)c5ccc([nH]5)c(-c5c(F)cc(S(=O)(=O)[O-])cc5F)c5nc(c(-c6c(F)cc(S(=O)(=O)[O-])cc6F)c6ccc3[nH]6)C=C5)C=C4)cc2)c(Cl)c1
REMARK SMILES IDX 15 1 14 2 13 3 11 4 12 5 8 7 7 8 6 9 3 10 4 11 88 12 5 13
REMARK SMILES IDX 86 14 87 15 2 16 1 17 9 18 10 19 16 20 17 21 18 22 19 24
REMARK SMILES IDX 20 25 21 26 85 27 22 28 84 29 23 30 24 31 25 32 78 33 26 34
REMARK SMILES IDX 83 35 77 36 79 37 27 38 82 39 76 40 75 41 28 43 62 44 41 45
REMARK SMILES IDX 61 46 42 47 45 48 60 49 80 50 43 51 44 52 59 54 81 55 46 56
REMARK SMILES IDX 29 57 30 58 39 59 31 60 32 61 38 62 40 63 33 64 34 65 35 66
REMARK SMILES IDX 36 67 37 68 63 69 64 70 73 71 65 72 66 73 72 74 74 75 67 76
REMARK SMILES IDX 68 77 69 78 70 79 71 80 47 81 48 82 57 83 49 84 50 85 56 86
REMARK SMILES IDX 58 87 51 88 52 89 53 90 54 91 55 92
REMARK H PARENT 13 6 17 23 79 42 45 53
REMARK Flexibility Score: inf
ROOT
ATOM      1  C   UNL A   1      32.074  27.911  27.167  1.00  0.00     0.042 C 
ENDROOT
BRANCH   1   2
ATOM      2  C   UNL A   1      32.045  26.560  26.488  1.00  0.00     0.118 C 
BRANCH   2   3
ATOM      3  N   UNL A   1      30.931  25.722  26.848  1.00  0.00    -0.353 N 
ATOM      4  C   UNL A   1      30.719  24.434  26.446  1.00  0.00     0.261 C 
ATOM      5  O   UNL A   1      30.018  23.731  27.184  1.00  0.00    -0.271 OA
ATOM      6  H   UNL A   1      30.255  26.117  27.445  1.00  0.00     0.163 HD
BRANCH   4   7
ATOM      7  C   UNL A   1      31.275  23.873  25.093  1.00  0.00     0.261 C 
BRANCH   7   8
ATOM      8  O   UNL A   1      32.569  23.314  24.871  1.00  0.00    -0.479 OA
BRANCH   8   9
ATOM      9  C   UNL A   1      32.698  21.999  24.537  1.00  0.00     0.139 A 
ATOM     10  C   UNL A   1      32.743  19.221  24.014  1.00  0.00    -0.047 A 
ATOM     11  C   UNL A   1      32.461  20.145  22.998  1.00  0.00     0.007 A 
ATOM     12  C   UNL A   1      33.171  19.720  25.247  1.00  0.00     0.028 A 
ATOM     13  C   UNL A   1      32.470  21.525  23.250  1.00  0.00     0.048 A 
ATOM     14  C   UNL A   1      33.174  21.098  25.497  1.00  0.00     0.083 A 
ATOM     15  Cl  UNL A   1      33.799  21.640  27.017  1.00  0.00    -0.080 Cl
BRANCH  10  16
ATOM     16  C   UNL A   1      32.566  17.747  23.720  1.00  0.00     0.032 C 
ATOM     17  C   UNL A   1      33.809  16.985  23.274  1.00  0.00     0.009 C 
ENDBRANCH  10  16
ENDBRANCH   8   9
ENDBRANCH   7   8
BRANCH   7  18
ATOM     18  C   UNL A   1      30.643  24.583  23.859  1.00  0.00     0.052 C 
ATOM     19  C   UNL A   1      31.533  25.324  22.871  1.00  0.00     0.008 C 
ENDBRANCH   7  18
ENDBRANCH   4   7
ENDBRANCH   2   3
ENDBRANCH   1   2
BRANCH   1  20
ATOM     20  C   UNL A   1      33.469  28.527  27.160  1.00  0.00     0.118 C 
BRANCH  20  21
ATOM     21  N   UNL A   1      33.488  29.914  27.636  1.00  0.00    -0.352 N 
ATOM     22  C   UNL A   1      34.465  30.632  28.289  1.00  0.00     0.251 C 
ATOM     23  H   UNL A   1      32.662  30.418  27.458  1.00  0.00     0.163 HD
ATOM     24  O   UNL A   1      34.204  31.724  28.763  1.00  0.00    -0.269 OA
BRANCH  22  25
ATOM     25  C   UNL A   1      35.816  30.052  28.420  1.00  0.00     0.039 A 
ATOM     26  C   UNL A   1      36.683  30.064  27.325  1.00  0.00     0.014 A 
ATOM     27  C   UNL A   1      36.232  29.534  29.645  1.00  0.00     0.014 A 
ATOM     28  C   UNL A   1      38.006  29.648  27.495  1.00  0.00     0.010 A 
ATOM     29  C   UNL A   1      37.570  29.239  29.842  1.00  0.00     0.010 A 
ATOM     30  C   UNL A   1      38.471  29.288  28.769  1.00  0.00    -0.014 A 
BRANCH  30  31
ATOM     31  C   UNL A   1      39.890  28.937  29.032  1.00  0.00     0.031 A 
ATOM     32  C   UNL A   1      40.820  29.995  29.564  1.00  0.00     0.074 A 
ATOM     33  C   UNL A   1      40.362  27.728  28.670  1.00  0.00     0.049 A 
ATOM     34  N   UNL A   1      42.123  29.983  29.650  1.00  0.00    -0.248 NA
ATOM     35  C   UNL A   1      40.201  31.259  29.998  1.00  0.00     0.031 C 
ATOM     36  C   UNL A   1      39.572  26.643  28.080  1.00  0.00     0.029 A 
ATOM     37  N   UNL A   1      41.633  27.215  28.726  1.00  0.00    -0.354 N 
ATOM     38  C   UNL A   1      42.481  31.252  30.091  1.00  0.00     0.074 A 
ATOM     39  C   UNL A   1      41.264  32.022  30.204  1.00  0.00     0.031 C 
ATOM     40  C   UNL A   1      40.369  25.587  27.855  1.00  0.00     0.029 A 
ATOM     41  C   UNL A   1      41.733  25.933  28.241  1.00  0.00     0.049 A 
ATOM     42  H   UNL A   1      42.401  27.719  29.080  1.00  0.00     0.167 HD
ATOM     43  C   UNL A   1      43.712  31.723  30.400  1.00  0.00     0.037 A 
ATOM     44  C   UNL A   1      42.808  25.131  28.115  1.00  0.00     0.037 A 
ATOM     45  C   UNL A   1      44.904  30.920  30.363  1.00  0.00     0.049 A 
ATOM     46  C   UNL A   1      44.152  25.645  28.549  1.00  0.00     0.074 A 
ATOM     47  C   UNL A   1      46.190  31.267  30.732  1.00  0.00     0.029 A 
ATOM     48  N   UNL A   1      44.947  29.595  29.953  1.00  0.00    -0.354 N 
ATOM     49  N   UNL A   1      44.470  26.836  29.000  1.00  0.00    -0.248 NA
ATOM     50  C   UNL A   1      45.282  24.711  28.464  1.00  0.00     0.031 C 
ATOM     51  C   UNL A   1      47.016  30.155  30.535  1.00  0.00     0.029 A 
ATOM     52  C   UNL A   1      46.236  29.107  30.069  1.00  0.00     0.049 A 
ATOM     53  H   UNL A   1      44.174  29.079  29.628  1.00  0.00     0.167 HD
ATOM     54  C   UNL A   1      45.831  26.786  29.277  1.00  0.00     0.074 A 
ATOM     55  C   UNL A   1      46.273  25.444  28.952  1.00  0.00     0.031 C 
ATOM     56  C   UNL A   1      46.642  27.760  29.757  1.00  0.00     0.037 A 
BRANCH  43  57
ATOM     57  C   UNL A   1      43.818  33.161  30.824  1.00  0.00     0.058 A 
ATOM     58  C   UNL A   1      44.033  34.190  29.892  1.00  0.00     0.135 A 
ATOM     59  C   UNL A   1      43.707  33.518  32.178  1.00  0.00     0.135 A 
ATOM     60  F   UNL A   1      44.166  33.903  28.588  1.00  0.00    -0.206 F 
ATOM     61  C   UNL A   1      44.175  35.515  30.290  1.00  0.00     0.059 A 
ATOM     62  C   UNL A   1      43.816  34.842  32.596  1.00  0.00     0.059 A 
ATOM     63  F   UNL A   1      43.502  32.576  33.112  1.00  0.00    -0.206 F 
ATOM     64  C   UNL A   1      44.070  35.830  31.645  1.00  0.00     0.060 A 
BRANCH  64  65
ATOM     65  S   UNL A   1      44.269  37.552  32.149  1.00  0.00     0.124 S 
ATOM     66  O   UNL A   1      45.697  37.603  32.449  1.00  0.00    -0.237 OA
ATOM     67  O   UNL A   1      43.848  38.280  30.956  1.00  0.00    -0.237 OA
ATOM     68  O   UNL A   1      43.380  37.673  33.300  1.00  0.00    -0.744 OA
ENDBRANCH  64  65
ENDBRANCH  43  57
BRANCH  44  69
ATOM     69  C   UNL A   1      42.646  23.746  27.600  1.00  0.00     0.058 A 
ATOM     70  C   UNL A   1      42.502  22.667  28.486  1.00  0.00     0.135 A 
ATOM     71  C   UNL A   1      42.609  23.472  26.224  1.00  0.00     0.135 A 
ATOM     72  F   UNL A   1      42.533  22.881  29.810  1.00  0.00    -0.206 F 
ATOM     73  C   UNL A   1      42.342  21.365  28.029  1.00  0.00     0.059 A 
ATOM     74  C   UNL A   1      42.429  22.179  25.742  1.00  0.00     0.059 A 
ATOM     75  F   UNL A   1      42.721  24.472  25.336  1.00  0.00    -0.206 F 
ATOM     76  C   UNL A   1      42.305  21.130  26.654  1.00  0.00     0.060 A 
BRANCH  76  77
ATOM     77  S   UNL A   1      42.044  19.440  26.070  1.00  0.00     0.124 S 
ATOM     78  O   UNL A   1      42.423  18.662  27.244  1.00  0.00    -0.237 OA
ATOM     79  O   UNL A   1      40.622  19.445  25.739  1.00  0.00    -0.237 OA
ATOM     80  O   UNL A   1      42.946  19.340  24.926  1.00  0.00    -0.744 OA
ENDBRANCH  76  77
ENDBRANCH  44  69
BRANCH  56  81
ATOM     81  C   UNL A   1      48.078  27.401  30.002  1.00  0.00     0.058 A 
ATOM     82  C   UNL A   1      49.082  27.715  29.074  1.00  0.00     0.135 A 
ATOM     83  C   UNL A   1      48.460  26.792  31.208  1.00  0.00     0.135 A 
ATOM     84  F   UNL A   1      48.764  28.290  27.903  1.00  0.00    -0.206 F 
ATOM     85  C   UNL A   1      50.417  27.426  29.328  1.00  0.00     0.059 A 
ATOM     86  C   UNL A   1      49.791  26.514  31.492  1.00  0.00     0.059 A 
ATOM     87  F   UNL A   1      47.534  26.481  32.130  1.00  0.00    -0.206 F 
ATOM     88  C   UNL A   1      50.762  26.827  30.542  1.00  0.00     0.060 A 
BRANCH  88  89
ATOM     89  S   UNL A   1      52.504  26.499  30.884  1.00  0.00     0.124 S 
ATOM     90  O   UNL A   1      52.413  25.387  31.824  1.00  0.00    -0.237 OA
ATOM     91  O   UNL A   1      53.027  26.170  29.561  1.00  0.00    -0.237 OA
ATOM     92  O   UNL A   1      52.983  27.759  31.443  1.00  0.00    -0.744 OA
ENDBRANCH  88  89
ENDBRANCH  56  81
ENDBRANCH  30  31
ENDBRANCH  22  25
ENDBRANCH  20  21
ENDBRANCH   1  20
TORSDOF 17
ENDMDL
MODEL 2
REMARK VINA RESULT:     -11.3      1.767      2.171
REMARK SMILES CCc1ccc(O[C@H](CC)C(=O)NCCCNC(=O)c2ccc(-c3c4nc(c(-c5c(F)cc(S(=O)(=O)[O-])cc5F)c5ccc([nH]5)c(-c5c(F)cc(S(=O)(=O)[O-])cc5F)c5nc(c(-c6c(F)cc(S(=O)(=O)[O-])cc6F)c6ccc3[nH]6)C=C5)C=C4)cc2)c(Cl)c1
REMARK SMILES IDX 15 1 14 2 13 3 11 4 12 5 8 7 7 8 6 9 3 10 4 11 88 12 5 13
REMARK SMILES IDX 86 14 87 15 2 16 1 17 9 18 10 19 16 20 17 21 18 22 19 24
REMARK SMILES IDX 20 25 21 26 85 27 22 28 84 29 23 30 24 31 25 32 78 33 26 34
REMARK SMILES IDX 83 35 77 36 79 37 27 38 82 39 76 40 75 41 28 43 62 44 41 45
REMARK SMILES IDX 61 46 42 47 45 48 60 49 80 50 43 51 44 52 59 54 81 55 46 56
REMARK SMILES IDX 29 57 30 58 39 59 31 60 32 61 38 62 40 63 33 64 34 65 35 66
REMARK SMILES IDX 36 67 37 68 63 69 64 70 73 71 65 72 66 73 72 74 74 75 67 76
REMARK SMILES IDX 68 77 69 78 70 79 71 80 47 81 48 82 57 83 49 84 50 85 56 86
REMARK SMILES IDX 58 87 51 88 52 89 53 90 54 91 55 92
REMARK H PARENT 13 6 17 23 79 42 45 53
REMARK Flexibility Score: inf
ROOT
ATOM      1  C   UNL A   1      34.105  28.069  26.196  1.00  0.00     0.042 C 
ENDROOT
BRANCH   1   2
ATOM      2  C   UNL A   1      33.568  28.693  24.927  1.00  0.00     0.118 C 
BRANCH   2   3
ATOM      3  N   UNL A   1      34.034  28.086  23.707  1.00  0.00    -0.353 N 
ATOM      4  C   UNL A   1      33.306  27.302  22.858  1.00  0.00     0.261 C 
ATOM      5  O   UNL A   1      33.681  27.262  21.680  1.00  0.00    -0.271 OA
ATOM      6  H   UNL A   1      34.972  28.254  23.459  1.00  0.00     0.163 HD
BRANCH   4   7
ATOM      7  C   UNL A   1      32.090  26.441  23.344  1.00  0.00     0.261 C 
BRANCH   7   8
ATOM      8  O   UNL A   1      32.124  25.076  23.757  1.00  0.00    -0.479 OA
BRANCH   8   9
ATOM      9  C   UNL A   1      33.302  24.504  24.132  1.00  0.00     0.139 A 
ATOM     10  C   UNL A   1      35.876  23.503  24.735  1.00  0.00    -0.047 A 
ATOM     11  C   UNL A   1      35.096  24.132  25.715  1.00  0.00     0.007 A 
ATOM     12  C   UNL A   1      35.278  23.230  23.502  1.00  0.00     0.028 A 
ATOM     13  C   UNL A   1      33.806  24.600  25.425  1.00  0.00     0.048 A 
ATOM     14  C   UNL A   1      33.992  23.704  23.213  1.00  0.00     0.083 A 
ATOM     15  Cl  UNL A   1      33.287  23.252  21.699  1.00  0.00    -0.080 Cl
BRANCH  10  16
ATOM     16  C   UNL A   1      37.313  23.159  25.064  1.00  0.00     0.032 C 
ATOM     17  C   UNL A   1      37.694  21.684  25.003  1.00  0.00     0.009 C 
ENDBRANCH  10  16
ENDBRANCH   8   9
ENDBRANCH   7   8
BRANCH   7  18
ATOM     18  C   UNL A   1      30.750  26.901  22.695  1.00  0.00     0.052 C 
ATOM     19  C   UNL A   1      29.542  27.195  23.572  1.00  0.00     0.008 C 
ENDBRANCH   7  18
ENDBRANCH   4   7
ENDBRANCH   2   3
ENDBRANCH   1   2
BRANCH   1  20
ATOM     20  C   UNL A   1      33.323  28.510  27.428  1.00  0.00     0.118 C 
BRANCH  20  21
ATOM     21  N   UNL A   1      33.403  29.953  27.674  1.00  0.00    -0.352 N 
ATOM     22  C   UNL A   1      34.428  30.732  28.162  1.00  0.00     0.251 C 
ATOM     23  H   UNL A   1      32.583  30.451  27.451  1.00  0.00     0.163 HD
ATOM     24  O   UNL A   1      34.219  31.894  28.466  1.00  0.00    -0.269 OA
BRANCH  22  25
ATOM     25  C   UNL A   1      35.767  30.134  28.330  1.00  0.00     0.039 A 
ATOM     26  C   UNL A   1      36.661  30.130  27.258  1.00  0.00     0.014 A 
ATOM     27  C   UNL A   1      36.144  29.613  29.567  1.00  0.00     0.014 A 
ATOM     28  C   UNL A   1      37.974  29.696  27.462  1.00  0.00     0.010 A 
ATOM     29  C   UNL A   1      37.473  29.301  29.799  1.00  0.00     0.010 A 
ATOM     30  C   UNL A   1      38.402  29.334  28.749  1.00  0.00    -0.014 A 
BRANCH  30  31
ATOM     31  C   UNL A   1      39.808  28.965  29.049  1.00  0.00     0.031 A 
ATOM     32  C   UNL A   1      40.735  30.007  29.615  1.00  0.00     0.074 A 
ATOM     33  C   UNL A   1      40.276  27.752  28.692  1.00  0.00     0.049 A 
ATOM     34  N   UNL A   1      42.036  29.980  29.737  1.00  0.00    -0.248 NA
ATOM     35  C   UNL A   1      40.120  31.276  30.039  1.00  0.00     0.031 C 
ATOM     36  C   UNL A   1      39.490  26.681  28.073  1.00  0.00     0.029 A 
ATOM     37  N   UNL A   1      41.538  27.224  28.780  1.00  0.00    -0.354 N 
ATOM     38  C   UNL A   1      42.396  31.241  30.197  1.00  0.00     0.074 A 
ATOM     39  C   UNL A   1      41.185  32.025  30.280  1.00  0.00     0.031 C 
ATOM     40  C   UNL A   1      40.281  25.617  27.863  1.00  0.00     0.029 A 
ATOM     41  C   UNL A   1      41.638  25.944  28.290  1.00  0.00     0.049 A 
ATOM     42  H   UNL A   1      42.303  27.716  29.160  1.00  0.00     0.167 HD
ATOM     43  C   UNL A   1      43.623  31.696  30.543  1.00  0.00     0.037 A 
ATOM     44  C   UNL A   1      42.706  25.129  28.189  1.00  0.00     0.037 A 
ATOM     45  C   UNL A   1      44.806  30.879  30.534  1.00  0.00     0.049 A 
ATOM     46  C   UNL A   1      44.043  25.625  28.663  1.00  0.00     0.074 A 
ATOM     47  C   UNL A   1      46.085  31.208  30.942  1.00  0.00     0.029 A 
ATOM     48  N   UNL A   1      44.845  29.556  30.117  1.00  0.00    -0.354 N 
ATOM     49  N   UNL A   1      44.363  26.809  29.131  1.00  0.00    -0.248 NA
ATOM     50  C   UNL A   1      45.164  24.678  28.604  1.00  0.00     0.031 C 
ATOM     51  C   UNL A   1      46.903  30.087  30.760  1.00  0.00     0.029 A 
ATOM     52  C   UNL A   1      46.124  29.052  30.265  1.00  0.00     0.049 A 
ATOM     53  H   UNL A   1      44.076  29.051  29.766  1.00  0.00     0.167 HD
ATOM     54  C   UNL A   1      45.714  26.741  29.446  1.00  0.00     0.074 A 
ATOM     55  C   UNL A   1      46.150  25.396  29.124  1.00  0.00     0.031 C 
ATOM     56  C   UNL A   1      46.523  27.702  29.956  1.00  0.00     0.037 A 
BRANCH  43  57
ATOM     57  C   UNL A   1      43.734  33.130  30.980  1.00  0.00     0.058 A 
ATOM     58  C   UNL A   1      43.975  34.163  30.060  1.00  0.00     0.135 A 
ATOM     59  C   UNL A   1      43.601  33.478  32.334  1.00  0.00     0.135 A 
ATOM     60  F   UNL A   1      44.131  33.884  28.756  1.00  0.00    -0.206 F 
ATOM     61  C   UNL A   1      44.122  35.484  30.470  1.00  0.00     0.059 A 
ATOM     62  C   UNL A   1      43.714  34.798  32.764  1.00  0.00     0.059 A 
ATOM     63  F   UNL A   1      43.369  32.530  33.257  1.00  0.00    -0.206 F 
ATOM     64  C   UNL A   1      43.994  35.790  31.825  1.00  0.00     0.060 A 
BRANCH  64  65
ATOM     65  S   UNL A   1      44.199  37.506  32.346  1.00  0.00     0.124 S 
ATOM     66  O   UNL A   1      43.235  37.594  33.439  1.00  0.00    -0.237 OA
ATOM     67  O   UNL A   1      45.604  37.551  32.738  1.00  0.00    -0.237 OA
ATOM     68  O   UNL A   1      43.861  38.266  31.147  1.00  0.00    -0.744 OA
ENDBRANCH  64  65
ENDBRANCH  43  57
BRANCH  44  69
ATOM     69  C   UNL A   1      42.542  23.750  27.659  1.00  0.00     0.058 A 
ATOM     70  C   UNL A   1      42.437  22.658  28.535  1.00  0.00     0.135 A 
ATOM     71  C   UNL A   1      42.465  23.495  26.282  1.00  0.00     0.135 A 
ATOM     72  F   UNL A   1      42.509  22.854  29.860  1.00  0.00    -0.206 F 
ATOM     73  C   UNL A   1      42.277  21.360  28.065  1.00  0.00     0.059 A 
ATOM     74  C   UNL A   1      42.283  22.206  25.788  1.00  0.00     0.059 A 
ATOM     75  F   UNL A   1      42.537  24.507  25.405  1.00  0.00    -0.206 F 
ATOM     76  C   UNL A   1      42.199  21.143  26.689  1.00  0.00     0.060 A 
BRANCH  76  77
ATOM     77  S   UNL A   1      41.937  19.459  26.090  1.00  0.00     0.124 S 
ATOM     78  O   UNL A   1      42.376  18.669  27.235  1.00  0.00    -0.237 OA
ATOM     79  O   UNL A   1      40.503  19.448  25.818  1.00  0.00    -0.237 OA
ATOM     80  O   UNL A   1      42.792  19.390  24.908  1.00  0.00    -0.744 OA
ENDBRANCH  76  77
ENDBRANCH  44  69
BRANCH  56  81
ATOM     81  C   UNL A   1      47.947  27.324  30.238  1.00  0.00     0.058 A 
ATOM     82  C   UNL A   1      48.953  27.479  29.273  1.00  0.00     0.135 A 
ATOM     83  C   UNL A   1      48.318  26.862  31.511  1.00  0.00     0.135 A 
ATOM     84  F   UNL A   1      48.645  27.910  28.039  1.00  0.00    -0.206 F 
ATOM     85  C   UNL A   1      50.279  27.175  29.556  1.00  0.00     0.059 A 
ATOM     86  C   UNL A   1      49.641  26.574  31.822  1.00  0.00     0.059 A 
ATOM     87  F   UNL A   1      47.390  26.707  32.470  1.00  0.00    -0.206 F 
ATOM     88  C   UNL A   1      50.614  26.726  30.835  1.00  0.00     0.060 A 
BRANCH  88  89
ATOM     89  S   UNL A   1      52.346  26.379  31.208  1.00  0.00     0.124 S 
ATOM     90  O   UNL A   1      52.249  25.083  31.871  1.00  0.00    -0.237 OA
ATOM     91  O   UNL A   1      52.957  26.371  29.883  1.00  0.00    -0.237 OA
ATOM     92  O   UNL A   1      52.737  27.495  32.063  1.00  0.00    -0.744 OA
ENDBRANCH  88  89
ENDBRANCH  56  81
ENDBRANCH  30  31
ENDBRANCH  22  25
ENDBRANCH  20  21
ENDBRANCH   1  20
TORSDOF 17
ENDMDL
MODEL 3
REMARK VINA RESULT:     -11.1      2.190      3.903
REMARK SMILES CCc1ccc(O[C@H](CC)C(=O)NCCCNC(=O)c2ccc(-c3c4nc(c(-c5c(F)cc(S(=O)(=O)[O-])cc5F)c5ccc([nH]5)c(-c5c(F)cc(S(=O)(=O)[O-])cc5F)c5nc(c(-c6c(F)cc(S(=O)(=O)[O-])cc6F)c6ccc3[nH]6)C=C5)C=C4)cc2)c(Cl)c1
REMARK SMILES IDX 15 1 14 2 13 3 11 4 12 5 8 7 7 8 6 9 3 10 4 11 88 12 5 13
REMARK SMILES IDX 86 14 87 15 2 16 1 17 9 18 10 19 16 20 17 21 18 22 19 24
REMARK SMILES IDX 20 25 21 26 85 27 22 28 84 29 23 30 24 31 25 32 78 33 26 34
REMARK SMILES IDX 83 35 77 36 79 37 27 38 82 39 76 40 75 41 28 43 62 44 41 45
REMARK SMILES IDX 61 46 42 47 45 48 60 49 80 50 43 51 44 52 59 54 81 55 46 56
REMARK SMILES IDX 29 57 30 58 39 59 31 60 32 61 38 62 40 63 33 64 34 65 35 66
REMARK SMILES IDX 36 67 37 68 63 69 64 70 73 71 65 72 66 73 72 74 74 75 67 76
REMARK SMILES IDX 68 77 69 78 70 79 71 80 47 81 48 82 57 83 49 84 50 85 56 86
REMARK SMILES IDX 58 87 51 88 52 89 53 90 54 91 55 92
REMARK H PARENT 13 6 17 23 79 42 45 53
REMARK Flexibility Score: inf
ROOT
ATOM      1  C   UNL A   1      31.989  27.970  27.332  1.00  0.00     0.042 C 
ENDROOT
BRANCH   1   2
ATOM      2  C   UNL A   1      31.850  26.768  26.425  1.00  0.00     0.118 C 
BRANCH   2   3
ATOM      3  N   UNL A   1      32.768  26.733  25.316  1.00  0.00    -0.353 N 
ATOM      4  C   UNL A   1      32.448  26.834  23.993  1.00  0.00     0.261 C 
ATOM      5  O   UNL A   1      33.335  27.253  23.238  1.00  0.00    -0.271 OA
ATOM      6  H   UNL A   1      33.722  26.627  25.534  1.00  0.00     0.163 HD
BRANCH   4   7
ATOM      7  C   UNL A   1      31.055  26.392  23.427  1.00  0.00     0.261 C 
BRANCH   7   8
ATOM      8  O   UNL A   1      29.786  26.960  23.750  1.00  0.00    -0.479 OA
BRANCH   8   9
ATOM      9  C   UNL A   1      29.375  28.106  23.140  1.00  0.00     0.139 A 
ATOM     10  C   UNL A   1      28.492  30.597  22.135  1.00  0.00    -0.047 A 
ATOM     11  C   UNL A   1      29.788  30.131  21.879  1.00  0.00     0.007 A 
ATOM     12  C   UNL A   1      27.594  29.720  22.752  1.00  0.00     0.028 A 
ATOM     13  C   UNL A   1      30.217  28.881  22.350  1.00  0.00     0.048 A 
ATOM     14  C   UNL A   1      28.027  28.475  23.226  1.00  0.00     0.083 A 
ATOM     15  Cl  UNL A   1      26.839  27.412  23.899  1.00  0.00    -0.080 Cl
BRANCH  10  16
ATOM     16  C   UNL A   1      28.139  32.014  21.736  1.00  0.00     0.032 C 
ATOM     17  C   UNL A   1      27.887  32.263  20.253  1.00  0.00     0.009 C 
ENDBRANCH  10  16
ENDBRANCH   8   9
ENDBRANCH   7   8
BRANCH   7  18
ATOM     18  C   UNL A   1      31.026  24.879  23.058  1.00  0.00     0.052 C 
ATOM     19  C   UNL A   1      30.915  23.831  24.155  1.00  0.00     0.008 C 
ENDBRANCH   7  18
ENDBRANCH   4   7
ENDBRANCH   2   3
ENDBRANCH   1   2
BRANCH   1  20
ATOM     20  C   UNL A   1      33.395  28.560  27.291  1.00  0.00     0.118 C 
BRANCH  20  21
ATOM     21  N   UNL A   1      33.439  29.969  27.693  1.00  0.00    -0.352 N 
ATOM     22  C   UNL A   1      34.440  30.709  28.285  1.00  0.00     0.251 C 
ATOM     23  H   UNL A   1      32.615  30.473  27.508  1.00  0.00     0.163 HD
ATOM     24  O   UNL A   1      34.201  31.827  28.708  1.00  0.00    -0.269 OA
BRANCH  22  25
ATOM     25  C   UNL A   1      35.787  30.120  28.416  1.00  0.00     0.039 A 
ATOM     26  C   UNL A   1      36.654  30.131  27.322  1.00  0.00     0.014 A 
ATOM     27  C   UNL A   1      36.199  29.595  29.640  1.00  0.00     0.014 A 
ATOM     28  C   UNL A   1      37.975  29.706  27.491  1.00  0.00     0.010 A 
ATOM     29  C   UNL A   1      37.535  29.293  29.837  1.00  0.00     0.010 A 
ATOM     30  C   UNL A   1      38.437  29.339  28.765  1.00  0.00    -0.014 A 
BRANCH  30  31
ATOM     31  C   UNL A   1      39.853  28.980  29.028  1.00  0.00     0.031 A 
ATOM     32  C   UNL A   1      40.790  30.031  29.559  1.00  0.00     0.074 A 
ATOM     33  C   UNL A   1      40.318  27.766  28.667  1.00  0.00     0.049 A 
ATOM     34  N   UNL A   1      42.094  30.011  29.645  1.00  0.00    -0.248 NA
ATOM     35  C   UNL A   1      40.180  31.300  29.991  1.00  0.00     0.031 C 
ATOM     36  C   UNL A   1      39.520  26.687  28.078  1.00  0.00     0.029 A 
ATOM     37  N   UNL A   1      41.585  27.246  28.723  1.00  0.00    -0.354 N 
ATOM     38  C   UNL A   1      42.460  31.278  30.085  1.00  0.00     0.074 A 
ATOM     39  C   UNL A   1      41.248  32.056  30.196  1.00  0.00     0.031 C 
ATOM     40  C   UNL A   1      40.311  25.625  27.854  1.00  0.00     0.029 A 
ATOM     41  C   UNL A   1      41.677  25.962  28.239  1.00  0.00     0.049 A 
ATOM     42  H   UNL A   1      42.357  27.744  29.077  1.00  0.00     0.167 HD
ATOM     43  C   UNL A   1      43.694  31.741  30.392  1.00  0.00     0.037 A 
ATOM     44  C   UNL A   1      42.746  25.153  28.114  1.00  0.00     0.037 A 
ATOM     45  C   UNL A   1      44.881  30.930  30.356  1.00  0.00     0.049 A 
ATOM     46  C   UNL A   1      44.094  25.659  28.547  1.00  0.00     0.074 A 
ATOM     47  C   UNL A   1      46.169  31.270  30.725  1.00  0.00     0.029 A 
ATOM     48  N   UNL A   1      44.915  29.605  29.948  1.00  0.00    -0.354 N 
ATOM     49  N   UNL A   1      44.420  26.848  28.997  1.00  0.00    -0.248 NA
ATOM     50  C   UNL A   1      45.217  24.717  28.463  1.00  0.00     0.031 C 
ATOM     51  C   UNL A   1      46.987  30.151  30.529  1.00  0.00     0.029 A 
ATOM     52  C   UNL A   1      46.201  29.108  30.063  1.00  0.00     0.049 A 
ATOM     53  H   UNL A   1      44.139  29.094  29.623  1.00  0.00     0.167 HD
ATOM     54  C   UNL A   1      45.780  26.789  29.274  1.00  0.00     0.074 A 
ATOM     55  C   UNL A   1      46.214  25.445  28.950  1.00  0.00     0.031 C 
ATOM     56  C   UNL A   1      46.598  27.759  29.753  1.00  0.00     0.037 A 
BRANCH  43  57
ATOM     57  C   UNL A   1      43.810  33.179  30.816  1.00  0.00     0.058 A 
ATOM     58  C   UNL A   1      44.103  34.197  29.893  1.00  0.00     0.135 A 
ATOM     59  C   UNL A   1      43.628  33.547  32.159  1.00  0.00     0.135 A 
ATOM     60  F   UNL A   1      44.306  33.898  28.600  1.00  0.00    -0.206 F 
ATOM     61  C   UNL A   1      44.254  35.521  30.293  1.00  0.00     0.059 A 
ATOM     62  C   UNL A   1      43.744  34.871  32.576  1.00  0.00     0.059 A 
ATOM     63  F   UNL A   1      43.346  32.615  33.083  1.00  0.00    -0.206 F 
ATOM     64  C   UNL A   1      44.077  35.846  31.637  1.00  0.00     0.060 A 
BRANCH  64  65
ATOM     65  S   UNL A   1      44.288  37.566  32.144  1.00  0.00     0.124 S 
ATOM     66  O   UNL A   1      43.886  38.276  30.933  1.00  0.00    -0.237 OA
ATOM     67  O   UNL A   1      43.370  37.676  33.274  1.00  0.00    -0.237 OA
ATOM     68  O   UNL A   1      45.705  37.649  32.480  1.00  0.00    -0.744 OA
ENDBRANCH  64  65
ENDBRANCH  43  57
BRANCH  44  69
ATOM     69  C   UNL A   1      42.575  23.769  27.600  1.00  0.00     0.058 A 
ATOM     70  C   UNL A   1      42.416  22.693  28.487  1.00  0.00     0.135 A 
ATOM     71  C   UNL A   1      42.545  23.493  26.224  1.00  0.00     0.135 A 
ATOM     72  F   UNL A   1      42.441  22.909  29.811  1.00  0.00    -0.206 F 
ATOM     73  C   UNL A   1      42.247  21.391  28.031  1.00  0.00     0.059 A 
ATOM     74  C   UNL A   1      42.356  22.201  25.744  1.00  0.00     0.059 A 
ATOM     75  F   UNL A   1      42.670  24.490  25.335  1.00  0.00    -0.206 F 
ATOM     76  C   UNL A   1      42.216  21.154  26.656  1.00  0.00     0.060 A 
BRANCH  76  77
ATOM     77  S   UNL A   1      41.944  19.466  26.073  1.00  0.00     0.124 S 
ATOM     78  O   UNL A   1      42.799  19.422  24.892  1.00  0.00    -0.237 OA
ATOM     79  O   UNL A   1      42.390  18.671  27.213  1.00  0.00    -0.237 OA
ATOM     80  O   UNL A   1      40.507  19.430  25.817  1.00  0.00    -0.744 OA
ENDBRANCH  76  77
ENDBRANCH  44  69
BRANCH  56  81
ATOM     81  C   UNL A   1      48.032  27.390  29.997  1.00  0.00     0.058 A 
ATOM     82  C   UNL A   1      49.023  27.618  29.032  1.00  0.00     0.135 A 
ATOM     83  C   UNL A   1      48.425  26.862  31.238  1.00  0.00     0.135 A 
ATOM     84  F   UNL A   1      48.694  28.113  27.829  1.00  0.00    -0.206 F 
ATOM     85  C   UNL A   1      50.358  27.321  29.283  1.00  0.00     0.059 A 
ATOM     86  C   UNL A   1      49.756  26.580  31.518  1.00  0.00     0.059 A 
ATOM     87  F   UNL A   1      47.511  26.636  32.196  1.00  0.00    -0.206 F 
ATOM     88  C   UNL A   1      50.714  26.805  30.531  1.00  0.00     0.060 A 
BRANCH  88  89
ATOM     89  S   UNL A   1      52.456  26.469  30.865  1.00  0.00     0.124 S 
ATOM     90  O   UNL A   1      52.866  27.693  31.545  1.00  0.00    -0.237 OA
ATOM     91  O   UNL A   1      52.391  25.272  31.698  1.00  0.00    -0.237 OA
ATOM     92  O   UNL A   1      53.023  26.268  29.535  1.00  0.00    -0.744 OA
ENDBRANCH  88  89
ENDBRANCH  56  81
ENDBRANCH  30  31
ENDBRANCH  22  25
ENDBRANCH  20  21
ENDBRANCH   1  20
TORSDOF 17
ENDMDL
