MODEL 1
REMARK VINA RESULT:     -12.3      0.000      0.000
REMARK SMILES O=C(Cn1nnnc1[C@H]1Cc2ccccc2S1)NCCCNC(=O)c1ccc(-c2c3nc(c(-c4c(F)cc(S(=O)(=O)[O-])cc4F)c4ccc([nH]4)c(-c4c(F)cc(S(=O)(=O)[O-])cc4F)c4nc(c(-c5c(F)cc(S(=O)(=O)[O-])cc5F)c5ccc2[nH]5)C=C4)C=C3)cc1
REMARK SMILES IDX 20 1 19 2 18 3 1 4 2 5 3 7 4 8 5 9 8 10 6 11 7 12 9 13 10 14
REMARK SMILES IDX 17 15 11 16 16 17 12 18 15 19 13 20 14 21 21 22 22 23 23 24
REMARK SMILES IDX 24 26 25 27 26 28 90 29 27 30 89 31 28 32 29 33 30 34 83 35
REMARK SMILES IDX 31 36 88 37 82 38 84 39 32 40 87 41 81 42 80 43 33 45 67 46
REMARK SMILES IDX 46 47 66 48 47 49 50 50 65 51 85 52 48 53 49 54 64 56 86 57
REMARK SMILES IDX 51 58 34 59 35 60 44 61 36 62 37 63 43 64 45 65 38 66 39 67
REMARK SMILES IDX 40 68 41 69 42 70 68 71 69 72 78 73 70 74 71 75 77 76 79 77
REMARK SMILES IDX 72 78 73 79 74 80 75 81 76 82 52 83 53 84 62 85 54 86 55 87
REMARK SMILES IDX 61 88 63 89 56 90 57 91 58 92 59 93 60 94
REMARK H PARENT 18 6 22 25 84 44 50 55
REMARK Flexibility Score: inf
ROOT
ATOM      1  C   UNL A   1      39.291  23.818  27.300  1.00  0.00     0.042 C 
ENDROOT
BRANCH   1   2
ATOM      2  C   UNL A   1      38.367  23.967  26.106  1.00  0.00     0.117 C 
BRANCH   2   3
ATOM      3  N   UNL A   1      37.071  23.343  26.295  1.00  0.00    -0.354 N 
ATOM      4  O   UNL A   1      37.312  21.900  24.529  1.00  0.00    -0.273 OA
ATOM      5  C   UNL A   1      36.704  22.249  25.536  1.00  0.00     0.241 C 
ATOM      6  H   UNL A   1      36.448  23.702  26.968  1.00  0.00     0.163 HD
BRANCH   5   7
ATOM      7  C   UNL A   1      35.522  21.485  26.077  1.00  0.00     0.248 C 
BRANCH   7   8
ATOM      8  N   UNL A   1      34.345  21.780  25.293  1.00  0.00    -0.219 N 
ATOM      9  N   UNL A   1      34.066  20.989  24.238  1.00  0.00    -0.044 NA
ATOM     10  C   UNL A   1      33.388  22.770  25.381  1.00  0.00     0.165 A 
ATOM     11  N   UNL A   1      32.909  21.413  23.767  1.00  0.00    -0.024 NA
ATOM     12  N   UNL A   1      32.473  22.505  24.463  1.00  0.00    -0.113 NA
BRANCH  10  13
ATOM     13  C   UNL A   1      33.366  23.996  26.237  1.00  0.00     0.126 C 
ATOM     14  C   UNL A   1      34.207  25.179  25.723  1.00  0.00     0.059 C 
ATOM     15  S   UNL A   1      31.663  24.574  26.569  1.00  0.00    -0.114 SA
ATOM     16  C   UNL A   1      33.414  26.440  25.936  1.00  0.00    -0.033 A 
ATOM     17  C   UNL A   1      32.069  26.254  26.237  1.00  0.00     0.011 A 
ATOM     18  C   UNL A   1      33.907  27.734  25.795  1.00  0.00     0.005 A 
ATOM     19  C   UNL A   1      31.186  27.323  26.281  1.00  0.00     0.015 A 
ATOM     20  C   UNL A   1      33.030  28.819  25.825  1.00  0.00     0.000 A 
ATOM     21  C   UNL A   1      31.667  28.611  26.044  1.00  0.00     0.001 A 
ENDBRANCH  10  13
ENDBRANCH   7   8
ENDBRANCH   5   7
ENDBRANCH   2   3
ENDBRANCH   1   2
BRANCH   1  22
ATOM     22  C   UNL A   1      40.242  22.635  27.240  1.00  0.00     0.118 C 
BRANCH  22  23
ATOM     23  N   UNL A   1      41.085  22.567  26.051  1.00  0.00    -0.352 N 
ATOM     24  C   UNL A   1      42.229  23.224  25.666  1.00  0.00     0.251 C 
ATOM     25  H   UNL A   1      40.767  21.914  25.387  1.00  0.00     0.163 HD
ATOM     26  O   UNL A   1      42.954  22.671  24.838  1.00  0.00    -0.269 OA
BRANCH  24  27
ATOM     27  C   UNL A   1      42.536  24.606  26.088  1.00  0.00     0.039 A 
ATOM     28  C   UNL A   1      43.269  24.911  27.224  1.00  0.00     0.014 A 
ATOM     29  C   UNL A   1      41.861  25.627  25.403  1.00  0.00     0.014 A 
ATOM     30  C   UNL A   1      42.997  26.088  27.886  1.00  0.00     0.010 A 
ATOM     31  C   UNL A   1      41.706  26.868  25.997  1.00  0.00     0.010 A 
ATOM     32  C   UNL A   1      42.153  27.041  27.302  1.00  0.00    -0.014 A 
BRANCH  32  33
ATOM     33  C   UNL A   1      41.851  28.225  28.102  1.00  0.00     0.031 A 
ATOM     34  C   UNL A   1      42.929  29.252  28.063  1.00  0.00     0.074 A 
ATOM     35  C   UNL A   1      40.706  28.390  28.796  1.00  0.00     0.049 A 
ATOM     36  N   UNL A   1      43.687  29.656  29.029  1.00  0.00    -0.248 NA
ATOM     37  C   UNL A   1      43.347  29.730  26.732  1.00  0.00     0.031 C 
ATOM     38  C   UNL A   1      39.490  27.573  28.741  1.00  0.00     0.029 A 
ATOM     39  N   UNL A   1      40.352  29.401  29.639  1.00  0.00    -0.354 N 
ATOM     40  C   UNL A   1      44.534  30.605  28.466  1.00  0.00     0.074 A 
ATOM     41  C   UNL A   1      44.406  30.479  27.038  1.00  0.00     0.031 C 
ATOM     42  C   UNL A   1      38.468  28.256  29.300  1.00  0.00     0.029 A 
ATOM     43  C   UNL A   1      38.985  29.481  29.882  1.00  0.00     0.049 A 
ATOM     44  H   UNL A   1      41.004  30.020  30.039  1.00  0.00     0.167 HD
ATOM     45  C   UNL A   1      45.087  31.600  29.208  1.00  0.00     0.037 A 
ATOM     46  C   UNL A   1      38.329  30.521  30.451  1.00  0.00     0.037 A 
ATOM     47  C   UNL A   1      45.068  31.294  30.611  1.00  0.00     0.049 A 
ATOM     48  C   UNL A   1      39.327  31.283  31.242  1.00  0.00     0.074 A 
ATOM     49  C   UNL A   1      45.710  30.395  31.434  1.00  0.00     0.029 A 
ATOM     50  N   UNL A   1      43.987  31.771  31.304  1.00  0.00    -0.354 N 
ATOM     51  N   UNL A   1      39.934  30.817  32.299  1.00  0.00    -0.248 NA
ATOM     52  C   UNL A   1      39.931  32.471  30.653  1.00  0.00     0.031 C 
ATOM     53  C   UNL A   1      44.789  30.110  32.484  1.00  0.00     0.029 A 
ATOM     54  C   UNL A   1      43.637  30.871  32.278  1.00  0.00     0.049 A 
ATOM     55  H   UNL A   1      43.532  32.625  31.130  1.00  0.00     0.167 HD
ATOM     56  C   UNL A   1      41.197  31.382  32.258  1.00  0.00     0.074 A 
ATOM     57  C   UNL A   1      41.082  32.497  31.328  1.00  0.00     0.031 C 
ATOM     58  C   UNL A   1      42.278  30.717  32.759  1.00  0.00     0.037 A 
BRANCH  45  59
ATOM     59  C   UNL A   1      45.234  33.012  28.689  1.00  0.00     0.058 A 
ATOM     60  C   UNL A   1      46.507  33.607  28.605  1.00  0.00     0.135 A 
ATOM     61  C   UNL A   1      44.137  33.893  28.542  1.00  0.00     0.135 A 
ATOM     62  F   UNL A   1      47.616  32.870  28.774  1.00  0.00    -0.206 F 
ATOM     63  C   UNL A   1      46.675  34.980  28.412  1.00  0.00     0.059 A 
ATOM     64  C   UNL A   1      44.281  35.250  28.292  1.00  0.00     0.059 A 
ATOM     65  F   UNL A   1      42.873  33.496  28.732  1.00  0.00    -0.206 F 
ATOM     66  C   UNL A   1      45.553  35.793  28.259  1.00  0.00     0.060 A 
BRANCH  66  67
ATOM     67  S   UNL A   1      45.759  37.573  28.074  1.00  0.00     0.124 S 
ATOM     68  O   UNL A   1      44.413  38.054  28.364  1.00  0.00    -0.237 OA
ATOM     69  O   UNL A   1      46.775  37.865  29.079  1.00  0.00    -0.237 OA
ATOM     70  O   UNL A   1      46.197  37.717  26.689  1.00  0.00    -0.744 OA
ENDBRANCH  66  67
ENDBRANCH  45  59
BRANCH  46  71
ATOM     71  C   UNL A   1      37.025  31.111  30.032  1.00  0.00     0.058 A 
ATOM     72  C   UNL A   1      36.137  31.636  30.989  1.00  0.00     0.135 A 
ATOM     73  C   UNL A   1      36.763  31.454  28.691  1.00  0.00     0.135 A 
ATOM     74  F   UNL A   1      36.312  31.366  32.292  1.00  0.00    -0.206 F 
ATOM     75  C   UNL A   1      35.107  32.518  30.647  1.00  0.00     0.059 A 
ATOM     76  C   UNL A   1      35.735  32.321  28.323  1.00  0.00     0.059 A 
ATOM     77  F   UNL A   1      37.562  31.040  27.696  1.00  0.00    -0.206 F 
ATOM     78  C   UNL A   1      34.934  32.879  29.312  1.00  0.00     0.060 A 
BRANCH  78  79
ATOM     79  S   UNL A   1      33.753  34.179  28.884  1.00  0.00     0.124 S 
ATOM     80  O   UNL A   1      34.631  35.213  28.336  1.00  0.00    -0.237 OA
ATOM     81  O   UNL A   1      32.893  33.501  27.914  1.00  0.00    -0.237 OA
ATOM     82  O   UNL A   1      33.124  34.502  30.153  1.00  0.00    -0.744 OA
ENDBRANCH  78  79
ENDBRANCH  46  71
BRANCH  58  83
ATOM     83  C   UNL A   1      42.022  29.613  33.750  1.00  0.00     0.058 A 
ATOM     84  C   UNL A   1      41.767  28.272  33.415  1.00  0.00     0.135 A 
ATOM     85  C   UNL A   1      42.159  29.919  35.113  1.00  0.00     0.135 A 
ATOM     86  F   UNL A   1      41.708  27.880  32.133  1.00  0.00    -0.206 F 
ATOM     87  C   UNL A   1      41.626  27.286  34.394  1.00  0.00     0.059 A 
ATOM     88  C   UNL A   1      42.055  28.948  36.104  1.00  0.00     0.059 A 
ATOM     89  F   UNL A   1      42.451  31.173  35.493  1.00  0.00    -0.206 F 
ATOM     90  C   UNL A   1      41.778  27.633  35.737  1.00  0.00     0.060 A 
BRANCH  90  91
ATOM     91  S   UNL A   1      41.687  26.343  36.998  1.00  0.00     0.124 S 
ATOM     92  O   UNL A   1      41.738  25.126  36.196  1.00  0.00    -0.237 OA
ATOM     93  O   UNL A   1      42.868  26.617  37.813  1.00  0.00    -0.237 OA
ATOM     94  O   UNL A   1      40.410  26.601  37.660  1.00  0.00    -0.744 OA
ENDBRANCH  90  91
ENDBRANCH  58  83
ENDBRANCH  32  33
ENDBRANCH  24  27
ENDBRANCH  22  23
ENDBRANCH   1  22
TORSDOF 15
ENDMDL
MODEL 2
REMARK VINA RESULT:     -12.2      2.953      9.363
REMARK SMILES O=C(Cn1nnnc1[C@H]1Cc2ccccc2S1)NCCCNC(=O)c1ccc(-c2c3nc(c(-c4c(F)cc(S(=O)(=O)[O-])cc4F)c4ccc([nH]4)c(-c4c(F)cc(S(=O)(=O)[O-])cc4F)c4nc(c(-c5c(F)cc(S(=O)(=O)[O-])cc5F)c5ccc2[nH]5)C=C4)C=C3)cc1
REMARK SMILES IDX 20 1 19 2 18 3 1 4 2 5 3 7 4 8 5 9 8 10 6 11 7 12 9 13 10 14
REMARK SMILES IDX 17 15 11 16 16 17 12 18 15 19 13 20 14 21 21 22 22 23 23 24
REMARK SMILES IDX 24 26 25 27 26 28 90 29 27 30 89 31 28 32 29 33 30 34 83 35
REMARK SMILES IDX 31 36 88 37 82 38 84 39 32 40 87 41 81 42 80 43 33 45 67 46
REMARK SMILES IDX 46 47 66 48 47 49 50 50 65 51 85 52 48 53 49 54 64 56 86 57
REMARK SMILES IDX 51 58 34 59 35 60 44 61 36 62 37 63 43 64 45 65 38 66 39 67
REMARK SMILES IDX 40 68 41 69 42 70 68 71 69 72 78 73 70 74 71 75 77 76 79 77
REMARK SMILES IDX 72 78 73 79 74 80 75 81 76 82 52 83 53 84 62 85 54 86 55 87
REMARK SMILES IDX 61 88 63 89 56 90 57 91 58 92 59 93 60 94
REMARK H PARENT 18 6 22 25 84 44 50 55
REMARK Flexibility Score: inf
ROOT
ATOM      1  C   UNL A   1      32.165  29.634  27.233  1.00  0.00     0.042 C 
ENDROOT
BRANCH   1   2
ATOM      2  C   UNL A   1      31.758  28.217  27.591  1.00  0.00     0.117 C 
BRANCH   2   3
ATOM      3  N   UNL A   1      31.168  27.486  26.485  1.00  0.00    -0.354 N 
ATOM      4  O   UNL A   1      33.154  26.566  25.803  1.00  0.00    -0.273 OA
ATOM      5  C   UNL A   1      31.930  26.605  25.744  1.00  0.00     0.241 C 
ATOM      6  H   UNL A   1      30.218  27.620  26.261  1.00  0.00     0.163 HD
BRANCH   5   7
ATOM      7  C   UNL A   1      31.128  25.655  24.891  1.00  0.00     0.248 C 
BRANCH   7   8
ATOM      8  N   UNL A   1      30.807  24.466  25.647  1.00  0.00    -0.219 N 
ATOM      9  N   UNL A   1      30.041  24.598  26.748  1.00  0.00    -0.044 NA
ATOM     10  C   UNL A   1      31.148  23.139  25.490  1.00  0.00     0.165 A 
ATOM     11  N   UNL A   1      29.824  23.371  27.183  1.00  0.00    -0.024 NA
ATOM     12  N   UNL A   1      30.492  22.459  26.417  1.00  0.00    -0.113 NA
BRANCH  10  13
ATOM     13  C   UNL A   1      32.138  22.516  24.557  1.00  0.00     0.126 C 
ATOM     14  C   UNL A   1      33.293  23.432  24.111  1.00  0.00     0.059 C 
ATOM     15  S   UNL A   1      32.831  20.962  25.225  1.00  0.00    -0.114 SA
ATOM     16  C   UNL A   1      34.561  22.620  24.125  1.00  0.00    -0.033 A 
ATOM     17  C   UNL A   1      34.479  21.400  24.788  1.00  0.00     0.011 A 
ATOM     18  C   UNL A   1      35.781  23.023  23.591  1.00  0.00     0.005 A 
ATOM     19  C   UNL A   1      35.611  20.635  25.033  1.00  0.00     0.015 A 
ATOM     20  C   UNL A   1      36.931  22.272  23.838  1.00  0.00     0.000 A 
ATOM     21  C   UNL A   1      36.849  21.090  24.579  1.00  0.00     0.001 A 
ENDBRANCH  10  13
ENDBRANCH   7   8
ENDBRANCH   5   7
ENDBRANCH   2   3
ENDBRANCH   1   2
BRANCH   1  22
ATOM     22  C   UNL A   1      33.663  29.885  27.191  1.00  0.00     0.118 C 
BRANCH  22  23
ATOM     23  N   UNL A   1      34.078  31.257  27.461  1.00  0.00    -0.352 N 
ATOM     24  C   UNL A   1      35.282  31.830  27.795  1.00  0.00     0.251 C 
ATOM     25  H   UNL A   1      33.342  31.907  27.388  1.00  0.00     0.163 HD
ATOM     26  O   UNL A   1      35.437  33.025  27.537  1.00  0.00    -0.269 OA
BRANCH  24  27
ATOM     27  C   UNL A   1      36.317  31.118  28.572  1.00  0.00     0.039 A 
ATOM     28  C   UNL A   1      37.288  31.765  29.320  1.00  0.00     0.014 A 
ATOM     29  C   UNL A   1      36.418  29.737  28.350  1.00  0.00     0.014 A 
ATOM     30  C   UNL A   1      38.513  31.154  29.475  1.00  0.00     0.010 A 
ATOM     31  C   UNL A   1      37.601  29.078  28.639  1.00  0.00     0.010 A 
ATOM     32  C   UNL A   1      38.691  29.828  29.066  1.00  0.00    -0.014 A 
BRANCH  32  33
ATOM     33  C   UNL A   1      40.039  29.280  29.190  1.00  0.00     0.031 A 
ATOM     34  C   UNL A   1      40.472  29.097  30.604  1.00  0.00     0.074 A 
ATOM     35  C   UNL A   1      40.817  28.953  28.137  1.00  0.00     0.049 A 
ATOM     36  N   UNL A   1      41.420  29.706  31.237  1.00  0.00    -0.248 NA
ATOM     37  C   UNL A   1      39.598  28.282  31.468  1.00  0.00     0.031 C 
ATOM     38  C   UNL A   1      40.437  28.873  26.723  1.00  0.00     0.029 A 
ATOM     39  N   UNL A   1      42.109  28.520  28.127  1.00  0.00    -0.354 N 
ATOM     40  C   UNL A   1      41.399  29.186  32.527  1.00  0.00     0.074 A 
ATOM     41  C   UNL A   1      40.163  28.460  32.661  1.00  0.00     0.031 C 
ATOM     42  C   UNL A   1      41.379  28.182  26.046  1.00  0.00     0.029 A 
ATOM     43  C   UNL A   1      42.489  27.905  26.939  1.00  0.00     0.049 A 
ATOM     44  H   UNL A   1      42.720  28.634  28.890  1.00  0.00     0.167 HD
ATOM     45  C   UNL A   1      42.510  29.168  33.309  1.00  0.00     0.037 A 
ATOM     46  C   UNL A   1      43.602  27.157  26.741  1.00  0.00     0.037 A 
ATOM     47  C   UNL A   1      43.500  30.103  32.853  1.00  0.00     0.049 A 
ATOM     48  C   UNL A   1      44.580  27.549  27.785  1.00  0.00     0.074 A 
ATOM     49  C   UNL A   1      43.616  31.476  32.808  1.00  0.00     0.029 A 
ATOM     50  N   UNL A   1      44.443  29.594  32.000  1.00  0.00    -0.354 N 
ATOM     51  N   UNL A   1      45.133  28.729  27.864  1.00  0.00    -0.248 NA
ATOM     52  C   UNL A   1      44.694  26.729  28.983  1.00  0.00     0.031 C 
ATOM     53  C   UNL A   1      44.415  31.757  31.662  1.00  0.00     0.029 A 
ATOM     54  C   UNL A   1      44.781  30.546  31.073  1.00  0.00     0.049 A 
ATOM     55  H   UNL A   1      44.820  28.686  32.045  1.00  0.00     0.167 HD
ATOM     56  C   UNL A   1      45.289  28.955  29.221  1.00  0.00     0.074 A 
ATOM     57  C   UNL A   1      45.153  27.644  29.841  1.00  0.00     0.031 C 
ATOM     58  C   UNL A   1      45.227  30.219  29.732  1.00  0.00     0.037 A 
BRANCH  45  59
ATOM     59  C   UNL A   1      42.853  28.000  34.205  1.00  0.00     0.058 A 
ATOM     60  C   UNL A   1      42.956  28.181  35.597  1.00  0.00     0.135 A 
ATOM     61  C   UNL A   1      43.360  26.775  33.709  1.00  0.00     0.135 A 
ATOM     62  F   UNL A   1      42.546  29.325  36.168  1.00  0.00    -0.206 F 
ATOM     63  C   UNL A   1      43.542  27.225  36.431  1.00  0.00     0.059 A 
ATOM     64  C   UNL A   1      43.893  25.788  34.525  1.00  0.00     0.059 A 
ATOM     65  F   UNL A   1      43.453  26.522  32.399  1.00  0.00    -0.206 F 
ATOM     66  C   UNL A   1      44.010  26.032  35.882  1.00  0.00     0.060 A 
BRANCH  66  67
ATOM     67  S   UNL A   1      44.823  24.822  36.939  1.00  0.00     0.124 S 
ATOM     68  O   UNL A   1      44.222  25.115  38.235  1.00  0.00    -0.237 OA
ATOM     69  O   UNL A   1      44.425  23.564  36.317  1.00  0.00    -0.237 OA
ATOM     70  O   UNL A   1      46.237  25.159  36.807  1.00  0.00    -0.744 OA
ENDBRANCH  66  67
ENDBRANCH  45  59
BRANCH  46  71
ATOM     71  C   UNL A   1      43.712  25.876  25.986  1.00  0.00     0.058 A 
ATOM     72  C   UNL A   1      44.873  25.578  25.248  1.00  0.00     0.135 A 
ATOM     73  C   UNL A   1      42.836  24.798  26.222  1.00  0.00     0.135 A 
ATOM     74  F   UNL A   1      45.768  26.542  24.979  1.00  0.00    -0.206 F 
ATOM     75  C   UNL A   1      45.188  24.277  24.845  1.00  0.00     0.059 A 
ATOM     76  C   UNL A   1      43.122  23.494  25.819  1.00  0.00     0.059 A 
ATOM     77  F   UNL A   1      41.716  24.955  26.943  1.00  0.00    -0.206 F 
ATOM     78  C   UNL A   1      44.319  23.235  25.164  1.00  0.00     0.060 A 
BRANCH  78  79
ATOM     79  S   UNL A   1      44.817  21.527  24.843  1.00  0.00     0.124 S 
ATOM     80  O   UNL A   1      43.853  20.777  25.649  1.00  0.00    -0.237 OA
ATOM     81  O   UNL A   1      44.642  21.427  23.394  1.00  0.00    -0.237 OA
ATOM     82  O   UNL A   1      46.192  21.477  25.308  1.00  0.00    -0.744 OA
ENDBRANCH  78  79
ENDBRANCH  46  71
BRANCH  58  83
ATOM     83  C   UNL A   1      45.456  31.367  28.786  1.00  0.00     0.058 A 
ATOM     84  C   UNL A   1      46.714  31.896  28.450  1.00  0.00     0.135 A 
ATOM     85  C   UNL A   1      44.343  31.876  28.099  1.00  0.00     0.135 A 
ATOM     86  F   UNL A   1      47.837  31.405  28.996  1.00  0.00    -0.206 F 
ATOM     87  C   UNL A   1      46.854  32.906  27.496  1.00  0.00     0.059 A 
ATOM     88  C   UNL A   1      44.460  32.858  27.122  1.00  0.00     0.059 A 
ATOM     89  F   UNL A   1      43.119  31.376  28.340  1.00  0.00    -0.206 F 
ATOM     90  C   UNL A   1      45.720  33.377  26.831  1.00  0.00     0.060 A 
BRANCH  90  91
ATOM     91  S   UNL A   1      45.910  34.617  25.532  1.00  0.00     0.124 S 
ATOM     92  O   UNL A   1      44.965  34.152  24.523  1.00  0.00    -0.237 OA
ATOM     93  O   UNL A   1      45.545  35.852  26.222  1.00  0.00    -0.237 OA
ATOM     94  O   UNL A   1      47.319  34.512  25.163  1.00  0.00    -0.744 OA
ENDBRANCH  90  91
ENDBRANCH  58  83
ENDBRANCH  32  33
ENDBRANCH  24  27
ENDBRANCH  22  23
ENDBRANCH   1  22
TORSDOF 15
ENDMDL
MODEL 3
REMARK VINA RESULT:     -12.2      2.422      3.188
REMARK SMILES O=C(Cn1nnnc1[C@H]1Cc2ccccc2S1)NCCCNC(=O)c1ccc(-c2c3nc(c(-c4c(F)cc(S(=O)(=O)[O-])cc4F)c4ccc([nH]4)c(-c4c(F)cc(S(=O)(=O)[O-])cc4F)c4nc(c(-c5c(F)cc(S(=O)(=O)[O-])cc5F)c5ccc2[nH]5)C=C4)C=C3)cc1
REMARK SMILES IDX 20 1 19 2 18 3 1 4 2 5 3 7 4 8 5 9 8 10 6 11 7 12 9 13 10 14
REMARK SMILES IDX 17 15 11 16 16 17 12 18 15 19 13 20 14 21 21 22 22 23 23 24
REMARK SMILES IDX 24 26 25 27 26 28 90 29 27 30 89 31 28 32 29 33 30 34 83 35
REMARK SMILES IDX 31 36 88 37 82 38 84 39 32 40 87 41 81 42 80 43 33 45 67 46
REMARK SMILES IDX 46 47 66 48 47 49 50 50 65 51 85 52 48 53 49 54 64 56 86 57
REMARK SMILES IDX 51 58 34 59 35 60 44 61 36 62 37 63 43 64 45 65 38 66 39 67
REMARK SMILES IDX 40 68 41 69 42 70 68 71 69 72 78 73 70 74 71 75 77 76 79 77
REMARK SMILES IDX 72 78 73 79 74 80 75 81 76 82 52 83 53 84 62 85 54 86 55 87
REMARK SMILES IDX 61 88 63 89 56 90 57 91 58 92 59 93 60 94
REMARK H PARENT 18 6 22 25 84 44 50 55
REMARK Flexibility Score: inf
ROOT
ATOM      1  C   UNL A   1      40.430  20.381  26.210  1.00  0.00     0.042 C 
ENDROOT
BRANCH   1   2
ATOM      2  C   UNL A   1      39.784  21.710  26.555  1.00  0.00     0.117 C 
BRANCH   2   3
ATOM      3  N   UNL A   1      38.457  21.873  25.990  1.00  0.00    -0.354 N 
ATOM      4  O   UNL A   1      38.419  24.146  26.287  1.00  0.00    -0.273 OA
ATOM      5  C   UNL A   1      37.932  23.135  25.793  1.00  0.00     0.241 C 
ATOM      6  H   UNL A   1      37.928  21.079  25.746  1.00  0.00     0.163 HD
BRANCH   5   7
ATOM      7  C   UNL A   1      36.736  23.174  24.876  1.00  0.00     0.248 C 
BRANCH   7   8
ATOM      8  N   UNL A   1      35.519  23.153  25.653  1.00  0.00    -0.219 N 
ATOM      9  N   UNL A   1      35.242  22.048  26.374  1.00  0.00    -0.044 NA
ATOM     10  C   UNL A   1      34.500  24.069  25.820  1.00  0.00     0.165 A 
ATOM     11  N   UNL A   1      34.145  22.328  27.052  1.00  0.00    -0.024 NA
ATOM     12  N   UNL A   1      33.678  23.571  26.729  1.00  0.00    -0.113 NA
BRANCH  10  13
ATOM     13  C   UNL A   1      34.239  25.343  25.082  1.00  0.00     0.126 C 
ATOM     14  C   UNL A   1      33.609  25.183  23.686  1.00  0.00     0.059 C 
ATOM     15  S   UNL A   1      33.231  26.513  26.062  1.00  0.00    -0.114 SA
ATOM     16  C   UNL A   1      32.555  26.246  23.527  1.00  0.00    -0.033 A 
ATOM     17  C   UNL A   1      32.184  26.895  24.699  1.00  0.00     0.011 A 
ATOM     18  C   UNL A   1      31.908  26.566  22.338  1.00  0.00     0.005 A 
ATOM     19  C   UNL A   1      31.103  27.765  24.730  1.00  0.00     0.015 A 
ATOM     20  C   UNL A   1      30.811  27.430  22.353  1.00  0.00     0.000 A 
ATOM     21  C   UNL A   1      30.395  28.010  23.553  1.00  0.00     0.001 A 
ENDBRANCH  10  13
ENDBRANCH   7   8
ENDBRANCH   5   7
ENDBRANCH   2   3
ENDBRANCH   1   2
BRANCH   1  22
ATOM     22  C   UNL A   1      41.872  20.225  26.663  1.00  0.00     0.118 C 
BRANCH  22  23
ATOM     23  N   UNL A   1      42.844  19.998  25.600  1.00  0.00    -0.352 N 
ATOM     24  C   UNL A   1      44.021  20.615  25.250  1.00  0.00     0.251 C 
ATOM     25  H   UNL A   1      42.606  19.246  25.011  1.00  0.00     0.163 HD
ATOM     26  O   UNL A   1      44.838  19.960  24.600  1.00  0.00    -0.269 OA
BRANCH  24  27
ATOM     27  C   UNL A   1      44.272  22.051  25.490  1.00  0.00     0.039 A 
ATOM     28  C   UNL A   1      45.117  22.522  26.481  1.00  0.00     0.014 A 
ATOM     29  C   UNL A   1      43.439  22.948  24.805  1.00  0.00     0.014 A 
ATOM     30  C   UNL A   1      44.842  23.743  27.055  1.00  0.00     0.010 A 
ATOM     31  C   UNL A   1      43.265  24.233  25.290  1.00  0.00     0.010 A 
ATOM     32  C   UNL A   1      43.860  24.572  26.500  1.00  0.00    -0.014 A 
BRANCH  32  33
ATOM     33  C   UNL A   1      43.572  25.813  27.213  1.00  0.00     0.031 A 
ATOM     34  C   UNL A   1      44.610  26.862  27.013  1.00  0.00     0.074 A 
ATOM     35  C   UNL A   1      42.470  26.008  27.966  1.00  0.00     0.049 A 
ATOM     36  N   UNL A   1      45.415  27.371  27.887  1.00  0.00    -0.248 NA
ATOM     37  C   UNL A   1      44.925  27.232  25.620  1.00  0.00     0.031 C 
ATOM     38  C   UNL A   1      41.279  25.157  28.064  1.00  0.00     0.029 A 
ATOM     39  N   UNL A   1      42.137  27.080  28.741  1.00  0.00    -0.354 N 
ATOM     40  C   UNL A   1      46.192  28.288  27.188  1.00  0.00     0.074 A 
ATOM     41  C   UNL A   1      45.976  28.033  25.788  1.00  0.00     0.031 C 
ATOM     42  C   UNL A   1      40.274  25.859  28.631  1.00  0.00     0.029 A 
ATOM     43  C   UNL A   1      40.788  27.143  29.069  1.00  0.00     0.049 A 
ATOM     44  H   UNL A   1      42.794  27.748  29.042  1.00  0.00     0.167 HD
ATOM     45  C   UNL A   1      46.759  29.360  27.802  1.00  0.00     0.037 A 
ATOM     46  C   UNL A   1      40.135  28.212  29.589  1.00  0.00     0.037 A 
ATOM     47  C   UNL A   1      46.842  29.179  29.225  1.00  0.00     0.049 A 
ATOM     48  C   UNL A   1      41.157  29.067  30.242  1.00  0.00     0.074 A 
ATOM     49  C   UNL A   1      47.565  28.373  30.077  1.00  0.00     0.029 A 
ATOM     50  N   UNL A   1      45.793  29.684  29.946  1.00  0.00    -0.354 N 
ATOM     51  N   UNL A   1      41.847  28.712  31.291  1.00  0.00    -0.248 NA
ATOM     52  C   UNL A   1      41.682  30.214  29.513  1.00  0.00     0.031 C 
ATOM     53  C   UNL A   1      46.725  28.157  31.207  1.00  0.00     0.029 A 
ATOM     54  C   UNL A   1      45.537  28.865  31.015  1.00  0.00     0.049 A 
ATOM     55  H   UNL A   1      45.299  30.508  29.730  1.00  0.00     0.167 HD
ATOM     56  C   UNL A   1      43.086  29.306  31.116  1.00  0.00     0.074 A 
ATOM     57  C   UNL A   1      42.873  30.331  30.104  1.00  0.00     0.031 C 
ATOM     58  C   UNL A   1      44.218  28.717  31.598  1.00  0.00     0.037 A 
BRANCH  45  59
ATOM     59  C   UNL A   1      46.826  30.724  27.156  1.00  0.00     0.058 A 
ATOM     60  C   UNL A   1      48.058  31.393  27.037  1.00  0.00     0.135 A 
ATOM     61  C   UNL A   1      45.677  31.512  26.907  1.00  0.00     0.135 A 
ATOM     62  F   UNL A   1      49.209  30.751  27.294  1.00  0.00    -0.206 F 
ATOM     63  C   UNL A   1      48.141  32.751  26.718  1.00  0.00     0.059 A 
ATOM     64  C   UNL A   1      45.738  32.846  26.532  1.00  0.00     0.059 A 
ATOM     65  F   UNL A   1      44.438  31.050  27.113  1.00  0.00    -0.206 F 
ATOM     66  C   UNL A   1      46.972  33.468  26.470  1.00  0.00     0.060 A 
BRANCH  66  67
ATOM     67  S   UNL A   1      47.065  35.233  26.121  1.00  0.00     0.124 S 
ATOM     68  O   UNL A   1      47.243  35.786  27.458  1.00  0.00    -0.237 OA
ATOM     69  O   UNL A   1      48.224  35.304  25.238  1.00  0.00    -0.237 OA
ATOM     70  O   UNL A   1      45.782  35.516  25.485  1.00  0.00    -0.744 OA
ENDBRANCH  66  67
ENDBRANCH  45  59
BRANCH  46  71
ATOM     71  C   UNL A   1      38.789  28.726  29.210  1.00  0.00     0.058 A 
ATOM     72  C   UNL A   1      37.789  28.900  30.185  1.00  0.00     0.135 A 
ATOM     73  C   UNL A   1      38.555  29.346  27.966  1.00  0.00     0.135 A 
ATOM     74  F   UNL A   1      37.929  28.350  31.401  1.00  0.00    -0.206 F 
ATOM     75  C   UNL A   1      36.670  29.710  29.969  1.00  0.00     0.059 A 
ATOM     76  C   UNL A   1      37.440  30.148  27.723  1.00  0.00     0.059 A 
ATOM     77  F   UNL A   1      39.453  29.277  26.973  1.00  0.00    -0.206 F 
ATOM     78  C   UNL A   1      36.520  30.356  28.744  1.00  0.00     0.060 A 
BRANCH  78  79
ATOM     79  S   UNL A   1      35.200  31.572  28.530  1.00  0.00     0.124 S 
ATOM     80  O   UNL A   1      35.884  32.630  27.785  1.00  0.00    -0.237 OA
ATOM     81  O   UNL A   1      34.205  30.810  27.775  1.00  0.00    -0.237 OA
ATOM     82  O   UNL A   1      34.822  31.911  29.890  1.00  0.00    -0.744 OA
ENDBRANCH  78  79
ENDBRANCH  46  71
BRANCH  58  83
ATOM     83  C   UNL A   1      44.063  27.698  32.696  1.00  0.00     0.058 A 
ATOM     84  C   UNL A   1      43.873  28.001  34.055  1.00  0.00     0.135 A 
ATOM     85  C   UNL A   1      43.989  26.348  32.323  1.00  0.00     0.135 A 
ATOM     86  F   UNL A   1      43.842  29.272  34.482  1.00  0.00    -0.206 F 
ATOM     87  C   UNL A   1      43.649  27.001  35.004  1.00  0.00     0.059 A 
ATOM     88  C   UNL A   1      43.735  25.338  33.244  1.00  0.00     0.059 A 
ATOM     89  F   UNL A   1      44.113  26.000  31.031  1.00  0.00    -0.206 F 
ATOM     90  C   UNL A   1      43.575  25.670  34.588  1.00  0.00     0.060 A 
BRANCH  90  91
ATOM     91  S   UNL A   1      43.194  24.386  35.799  1.00  0.00     0.124 S 
ATOM     92  O   UNL A   1      43.025  25.159  37.024  1.00  0.00    -0.237 OA
ATOM     93  O   UNL A   1      41.978  23.790  35.252  1.00  0.00    -0.237 OA
ATOM     94  O   UNL A   1      44.372  23.522  35.763  1.00  0.00    -0.744 OA
ENDBRANCH  90  91
ENDBRANCH  58  83
ENDBRANCH  32  33
ENDBRANCH  24  27
ENDBRANCH  22  23
ENDBRANCH   1  22
TORSDOF 15
ENDMDL
