MODEL 1
REMARK VINA RESULT:     -12.9      0.000      0.000
REMARK SMILES CCOc1ccc2[nH]c(C)c/c(=N\c3cccc(C(=O)NCCCNC(=O)c4ccc(-c5c6nc(c(-c7c(F)cc(S(=O)(=O)[O-])cc7F)c7ccc([nH]7)c(-c7c(F)cc(S(=O)(=O)[O-])cc7F)c7nc(c(-c8c(F)cc(S(=O)(=O)[O-])cc8F)c8ccc5[nH]8)C=C7)C=C6)cc4)c3)c2c1
REMARK SMILES IDX 23 1 22 2 21 3 19 4 20 5 18 7 14 8 15 9 94 10 16 11 17 12
REMARK SMILES IDX 13 13 4 14 5 15 96 16 6 17 95 18 7 19 12 20 8 21 11 22 9 23
REMARK SMILES IDX 10 25 3 26 2 27 1 28 24 29 25 30 26 31 27 33 28 34 29 35
REMARK SMILES IDX 93 36 30 37 92 38 31 39 32 40 33 41 86 42 34 43 91 44 85 45
REMARK SMILES IDX 87 46 35 47 90 48 84 49 83 50 36 52 70 53 49 54 69 55 50 56
REMARK SMILES IDX 53 57 68 58 88 59 51 60 52 61 67 63 89 64 54 65 37 66 38 67
REMARK SMILES IDX 47 68 39 69 40 70 46 71 48 72 41 73 42 74 43 75 44 76 45 77
REMARK SMILES IDX 71 78 72 79 81 80 73 81 74 82 80 83 82 84 75 85 76 86 77 87
REMARK SMILES IDX 78 88 79 89 55 90 56 91 65 92 57 93 58 94 64 95 66 96 59 97
REMARK SMILES IDX 60 98 61 99 62 100 63 101
REMARK H PARENT 21 6 8 24 25 32 87 51 53 62
REMARK Flexibility Score: inf
ROOT
ATOM      1  C   UNL A   1      39.150  22.464  26.397  1.00  0.00     0.042 C 
ENDROOT
BRANCH   1   2
ATOM      2  C   UNL A   1      38.164  23.560  26.021  1.00  0.00     0.118 C 
BRANCH   2   3
ATOM      3  N   UNL A   1      37.572  23.387  24.700  1.00  0.00    -0.352 N 
ATOM      4  C   UNL A   1      36.301  23.393  24.181  1.00  0.00     0.251 C 
ATOM      5  O   UNL A   1      36.215  23.218  22.961  1.00  0.00    -0.269 OA
ATOM      6  H   UNL A   1      38.253  23.225  24.008  1.00  0.00     0.163 HD
BRANCH   4   7
ATOM      7  C   UNL A   1      35.040  23.545  24.961  1.00  0.00     0.041 A 
ATOM      8  C   UNL A   1      32.872  24.544  25.424  1.00  0.00     0.064 A 
ATOM      9  C   UNL A   1      32.791  23.858  26.634  1.00  0.00     0.028 A 
ATOM     10  C   UNL A   1      33.932  24.280  24.555  1.00  0.00     0.042 A 
ATOM     11  C   UNL A   1      33.843  23.035  27.031  1.00  0.00     0.003 A 
ATOM     12  C   UNL A   1      34.974  22.912  26.217  1.00  0.00     0.014 A 
BRANCH   8  13
ATOM     13  N   UNL A   1      31.996  25.583  25.063  1.00  0.00    -0.248 NA
ATOM     14  C   UNL A   1      29.774  28.816  23.322  1.00  0.00     0.120 A 
ATOM     15  C   UNL A   1      30.008  30.100  23.814  1.00  0.00     0.048 A 
ATOM     16  C   UNL A   1      30.502  27.730  23.813  1.00  0.00     0.059 A 
ATOM     17  C   UNL A   1      31.026  30.321  24.737  1.00  0.00     0.030 A 
ATOM     18  C   UNL A   1      31.519  27.949  24.754  1.00  0.00     0.027 A 
ATOM     19  C   UNL A   1      31.802  29.256  25.199  1.00  0.00     0.048 A 
ATOM     20  C   UNL A   1      32.363  26.820  25.274  1.00  0.00     0.075 A 
ATOM     21  N   UNL A   1      32.861  29.497  26.082  1.00  0.00    -0.359 N 
ATOM     22  C   UNL A   1      33.608  27.245  26.010  1.00  0.00     0.050 A 
ATOM     23  C   UNL A   1      33.760  28.516  26.413  1.00  0.00     0.014 A 
ATOM     24  H   UNL A   1      32.964  30.394  26.474  1.00  0.00     0.166 HD
ATOM     25  C   UNL A   1      34.935  28.922  27.258  1.00  0.00     0.064 C 
BRANCH  14  26
ATOM     26  O   UNL A   1      28.762  28.582  22.431  1.00  0.00    -0.494 OA
BRANCH  26  27
ATOM     27  C   UNL A   1      27.522  29.208  22.800  1.00  0.00     0.226 C 
ATOM     28  C   UNL A   1      26.563  28.256  23.499  1.00  0.00     0.049 C 
ENDBRANCH  26  27
ENDBRANCH  14  26
ENDBRANCH   8  13
ENDBRANCH   4   7
ENDBRANCH   2   3
ENDBRANCH   1   2
BRANCH   1  29
ATOM     29  C   UNL A   1      40.427  22.975  27.043  1.00  0.00     0.118 C 
BRANCH  29  30
ATOM     30  N   UNL A   1      41.276  23.721  26.122  1.00  0.00    -0.352 N 
ATOM     31  C   UNL A   1      41.621  25.053  26.058  1.00  0.00     0.251 C 
ATOM     32  H   UNL A   1      41.679  23.168  25.413  1.00  0.00     0.163 HD
ATOM     33  O   UNL A   1      42.210  25.464  25.064  1.00  0.00    -0.269 OA
BRANCH  31  34
ATOM     34  C   UNL A   1      41.263  25.996  27.142  1.00  0.00     0.039 A 
ATOM     35  C   UNL A   1      41.856  27.252  27.240  1.00  0.00     0.014 A 
ATOM     36  C   UNL A   1      40.278  25.633  28.069  1.00  0.00     0.014 A 
ATOM     37  C   UNL A   1      41.639  28.040  28.363  1.00  0.00     0.010 A 
ATOM     38  C   UNL A   1      39.965  26.485  29.134  1.00  0.00     0.010 A 
ATOM     39  C   UNL A   1      40.685  27.673  29.325  1.00  0.00    -0.014 A 
BRANCH  39  40
ATOM     40  C   UNL A   1      40.467  28.553  30.507  1.00  0.00     0.031 A 
ATOM     41  C   UNL A   1      41.387  28.490  31.698  1.00  0.00     0.074 A 
ATOM     42  C   UNL A   1      39.481  29.471  30.470  1.00  0.00     0.049 A 
ATOM     43  N   UNL A   1      41.374  29.214  32.789  1.00  0.00    -0.248 NA
ATOM     44  C   UNL A   1      42.459  27.483  31.664  1.00  0.00     0.031 C 
ATOM     45  C   UNL A   1      38.532  29.641  29.365  1.00  0.00     0.029 A 
ATOM     46  N   UNL A   1      39.137  30.460  31.355  1.00  0.00    -0.354 N 
ATOM     47  C   UNL A   1      42.420  28.744  33.575  1.00  0.00     0.074 A 
ATOM     48  C   UNL A   1      43.023  27.643  32.854  1.00  0.00     0.031 C 
ATOM     49  C   UNL A   1      37.773  30.719  29.600  1.00  0.00     0.029 A 
ATOM     50  C   UNL A   1      38.124  31.274  30.904  1.00  0.00     0.049 A 
ATOM     51  H   UNL A   1      39.572  30.577  32.230  1.00  0.00     0.167 HD
ATOM     52  C   UNL A   1      42.851  29.197  34.777  1.00  0.00     0.037 A 
ATOM     53  C   UNL A   1      37.534  32.343  31.472  1.00  0.00     0.037 A 
ATOM     54  C   UNL A   1      42.255  30.301  35.486  1.00  0.00     0.049 A 
ATOM     55  C   UNL A   1      37.990  32.793  32.829  1.00  0.00     0.074 A 
ATOM     56  C   UNL A   1      42.614  30.832  36.712  1.00  0.00     0.029 A 
ATOM     57  N   UNL A   1      41.176  31.046  35.029  1.00  0.00    -0.354 N 
ATOM     58  N   UNL A   1      38.967  32.320  33.564  1.00  0.00    -0.248 NA
ATOM     59  C   UNL A   1      37.255  33.907  33.439  1.00  0.00     0.031 C 
ATOM     60  C   UNL A   1      41.729  31.872  37.015  1.00  0.00     0.029 A 
ATOM     61  C   UNL A   1      40.846  32.021  35.957  1.00  0.00     0.049 A 
ATOM     62  H   UNL A   1      40.714  30.903  34.172  1.00  0.00     0.167 HD
ATOM     63  C   UNL A   1      38.970  33.083  34.726  1.00  0.00     0.074 A 
ATOM     64  C   UNL A   1      37.907  34.059  34.585  1.00  0.00     0.031 C 
ATOM     65  C   UNL A   1      39.779  32.980  35.808  1.00  0.00     0.037 A 
BRANCH  52  66
ATOM     66  C   UNL A   1      44.018  28.483  35.406  1.00  0.00     0.058 A 
ATOM     67  C   UNL A   1      43.832  27.400  36.282  1.00  0.00     0.135 A 
ATOM     68  C   UNL A   1      45.336  28.882  35.134  1.00  0.00     0.135 A 
ATOM     69  F   UNL A   1      42.594  26.983  36.588  1.00  0.00    -0.206 F 
ATOM     70  C   UNL A   1      44.909  26.769  36.898  1.00  0.00     0.059 A 
ATOM     71  C   UNL A   1      46.430  28.248  35.720  1.00  0.00     0.059 A 
ATOM     72  F   UNL A   1      45.573  29.908  34.301  1.00  0.00    -0.206 F 
ATOM     73  C   UNL A   1      46.203  27.207  36.618  1.00  0.00     0.060 A 
BRANCH  73  74
ATOM     74  S   UNL A   1      47.582  26.406  37.467  1.00  0.00     0.124 S 
ATOM     75  O   UNL A   1      46.881  25.459  38.328  1.00  0.00    -0.237 OA
ATOM     76  O   UNL A   1      48.329  25.818  36.360  1.00  0.00    -0.237 OA
ATOM     77  O   UNL A   1      48.246  27.509  38.155  1.00  0.00    -0.744 OA
ENDBRANCH  73  74
ENDBRANCH  52  66
BRANCH  53  78
ATOM     78  C   UNL A   1      36.462  33.060  30.732  1.00  0.00     0.058 A 
ATOM     79  C   UNL A   1      35.122  32.943  31.124  1.00  0.00     0.135 A 
ATOM     80  C   UNL A   1      36.766  33.941  29.682  1.00  0.00     0.135 A 
ATOM     81  F   UNL A   1      34.782  32.107  32.116  1.00  0.00    -0.206 F 
ATOM     82  C   UNL A   1      34.119  33.690  30.512  1.00  0.00     0.059 A 
ATOM     83  C   UNL A   1      35.785  34.716  29.073  1.00  0.00     0.059 A 
ATOM     84  F   UNL A   1      38.037  34.095  29.281  1.00  0.00    -0.206 F 
ATOM     85  C   UNL A   1      34.464  34.586  29.498  1.00  0.00     0.060 A 
BRANCH  85  86
ATOM     86  S   UNL A   1      33.170  35.628  28.791  1.00  0.00     0.124 S 
ATOM     87  O   UNL A   1      32.523  36.149  29.989  1.00  0.00    -0.237 OA
ATOM     88  O   UNL A   1      33.945  36.590  28.013  1.00  0.00    -0.237 OA
ATOM     89  O   UNL A   1      32.377  34.690  28.001  1.00  0.00    -0.744 OA
ENDBRANCH  85  86
ENDBRANCH  53  78
BRANCH  65  90
ATOM     90  C   UNL A   1      39.556  33.953  36.933  1.00  0.00     0.058 A 
ATOM     91  C   UNL A   1      38.810  33.600  38.068  1.00  0.00     0.135 A 
ATOM     92  C   UNL A   1      40.152  35.224  36.905  1.00  0.00     0.135 A 
ATOM     93  F   UNL A   1      38.213  32.400  38.139  1.00  0.00    -0.206 F 
ATOM     94  C   UNL A   1      38.656  34.478  39.136  1.00  0.00     0.059 A 
ATOM     95  C   UNL A   1      40.030  36.109  37.970  1.00  0.00     0.059 A 
ATOM     96  F   UNL A   1      40.880  35.606  35.844  1.00  0.00    -0.206 F 
ATOM     97  C   UNL A   1      39.276  35.728  39.080  1.00  0.00     0.060 A 
BRANCH  97  98
ATOM     98  S   UNL A   1      39.110  36.836  40.496  1.00  0.00     0.124 S 
ATOM     99  O   UNL A   1      38.522  38.019  39.878  1.00  0.00    -0.237 OA
ATOM    100  O   UNL A   1      38.231  36.080  41.382  1.00  0.00    -0.237 OA
ATOM    101  O   UNL A   1      40.483  36.992  40.969  1.00  0.00    -0.744 OA
ENDBRANCH  97  98
ENDBRANCH  65  90
ENDBRANCH  39  40
ENDBRANCH  31  34
ENDBRANCH  29  30
ENDBRANCH   1  29
TORSDOF 16
ENDMDL
MODEL 2
REMARK VINA RESULT:     -12.7      1.291      2.217
REMARK SMILES CCOc1ccc2[nH]c(C)c/c(=N\c3cccc(C(=O)NCCCNC(=O)c4ccc(-c5c6nc(c(-c7c(F)cc(S(=O)(=O)[O-])cc7F)c7ccc([nH]7)c(-c7c(F)cc(S(=O)(=O)[O-])cc7F)c7nc(c(-c8c(F)cc(S(=O)(=O)[O-])cc8F)c8ccc5[nH]8)C=C7)C=C6)cc4)c3)c2c1
REMARK SMILES IDX 23 1 22 2 21 3 19 4 20 5 18 7 14 8 15 9 94 10 16 11 17 12
REMARK SMILES IDX 13 13 4 14 5 15 96 16 6 17 95 18 7 19 12 20 8 21 11 22 9 23
REMARK SMILES IDX 10 25 3 26 2 27 1 28 24 29 25 30 26 31 27 33 28 34 29 35
REMARK SMILES IDX 93 36 30 37 92 38 31 39 32 40 33 41 86 42 34 43 91 44 85 45
REMARK SMILES IDX 87 46 35 47 90 48 84 49 83 50 36 52 70 53 49 54 69 55 50 56
REMARK SMILES IDX 53 57 68 58 88 59 51 60 52 61 67 63 89 64 54 65 37 66 38 67
REMARK SMILES IDX 47 68 39 69 40 70 46 71 48 72 41 73 42 74 43 75 44 76 45 77
REMARK SMILES IDX 71 78 72 79 81 80 73 81 74 82 80 83 82 84 75 85 76 86 77 87
REMARK SMILES IDX 78 88 79 89 55 90 56 91 65 92 57 93 58 94 64 95 66 96 59 97
REMARK SMILES IDX 60 98 61 99 62 100 63 101
REMARK H PARENT 21 6 8 24 25 32 87 51 53 62
REMARK Flexibility Score: inf
ROOT
ATOM      1  C   UNL A   1      40.395  21.920  26.924  1.00  0.00     0.042 C 
ENDROOT
BRANCH   1   2
ATOM      2  C   UNL A   1      39.071  22.597  26.602  1.00  0.00     0.118 C 
BRANCH   2   3
ATOM      3  N   UNL A   1      38.488  22.170  25.336  1.00  0.00    -0.352 N 
ATOM      4  C   UNL A   1      37.235  22.172  24.777  1.00  0.00     0.251 C 
ATOM      5  O   UNL A   1      37.153  21.720  23.630  1.00  0.00    -0.269 OA
ATOM      6  H   UNL A   1      39.162  21.784  24.731  1.00  0.00     0.163 HD
BRANCH   4   7
ATOM      7  C   UNL A   1      35.981  22.625  25.446  1.00  0.00     0.041 A 
ATOM      8  C   UNL A   1      34.322  24.292  26.063  1.00  0.00     0.064 A 
ATOM      9  C   UNL A   1      33.695  23.383  26.913  1.00  0.00     0.028 A 
ATOM     10  C   UNL A   1      35.375  23.862  25.253  1.00  0.00     0.042 A 
ATOM     11  C   UNL A   1      34.221  22.100  27.059  1.00  0.00     0.003 A 
ATOM     12  C   UNL A   1      35.378  21.741  26.359  1.00  0.00     0.014 A 
BRANCH   8  13
ATOM     13  N   UNL A   1      34.028  25.667  26.048  1.00  0.00    -0.248 NA
ATOM     14  C   UNL A   1      32.649  29.694  26.604  1.00  0.00     0.120 A 
ATOM     15  C   UNL A   1      31.663  30.164  25.737  1.00  0.00     0.048 A 
ATOM     16  C   UNL A   1      33.103  28.376  26.505  1.00  0.00     0.059 A 
ATOM     17  C   UNL A   1      31.064  29.302  24.823  1.00  0.00     0.030 A 
ATOM     18  C   UNL A   1      32.509  27.509  25.575  1.00  0.00     0.027 A 
ATOM     19  C   UNL A   1      31.465  27.967  24.747  1.00  0.00     0.048 A 
ATOM     20  C   UNL A   1      32.928  26.071  25.467  1.00  0.00     0.075 A 
ATOM     21  N   UNL A   1      30.817  27.094  23.866  1.00  0.00    -0.359 N 
ATOM     22  C   UNL A   1      31.993  25.195  24.672  1.00  0.00     0.050 A 
ATOM     23  C   UNL A   1      31.048  25.742  23.891  1.00  0.00     0.014 A 
ATOM     24  H   UNL A   1      30.178  27.459  23.213  1.00  0.00     0.166 HD
ATOM     25  C   UNL A   1      30.195  24.886  22.997  1.00  0.00     0.064 C 
BRANCH  14  26
ATOM     26  O   UNL A   1      33.261  30.535  27.492  1.00  0.00    -0.494 OA
BRANCH  26  27
ATOM     27  C   UNL A   1      34.630  30.186  27.758  1.00  0.00     0.226 C 
ATOM     28  C   UNL A   1      35.578  31.369  27.633  1.00  0.00     0.049 C 
ENDBRANCH  26  27
ENDBRANCH  14  26
ENDBRANCH   8  13
ENDBRANCH   4   7
ENDBRANCH   2   3
ENDBRANCH   1   2
BRANCH   1  29
ATOM     29  C   UNL A   1      41.540  22.888  27.173  1.00  0.00     0.118 C 
BRANCH  29  30
ATOM     30  N   UNL A   1      41.697  23.875  26.110  1.00  0.00    -0.352 N 
ATOM     31  C   UNL A   1      41.589  25.248  26.102  1.00  0.00     0.251 C 
ATOM     32  H   UNL A   1      41.924  23.486  25.234  1.00  0.00     0.163 HD
ATOM     33  O   UNL A   1      41.588  25.835  25.025  1.00  0.00    -0.269 OA
BRANCH  31  34
ATOM     34  C   UNL A   1      41.440  26.018  27.358  1.00  0.00     0.039 A 
ATOM     35  C   UNL A   1      40.361  25.812  28.214  1.00  0.00     0.014 A 
ATOM     36  C   UNL A   1      42.426  26.948  27.713  1.00  0.00     0.014 A 
ATOM     37  C   UNL A   1      40.149  26.670  29.287  1.00  0.00     0.010 A 
ATOM     38  C   UNL A   1      42.276  27.727  28.866  1.00  0.00     0.010 A 
ATOM     39  C   UNL A   1      41.106  27.637  29.634  1.00  0.00    -0.014 A 
BRANCH  39  40
ATOM     40  C   UNL A   1      40.851  28.526  30.801  1.00  0.00     0.031 A 
ATOM     41  C   UNL A   1      41.760  28.504  32.002  1.00  0.00     0.074 A 
ATOM     42  C   UNL A   1      39.841  29.416  30.742  1.00  0.00     0.049 A 
ATOM     43  N   UNL A   1      41.715  29.241  33.084  1.00  0.00    -0.248 NA
ATOM     44  C   UNL A   1      42.858  27.526  31.993  1.00  0.00     0.031 C 
ATOM     45  C   UNL A   1      38.900  29.547  29.625  1.00  0.00     0.029 A 
ATOM     46  N   UNL A   1      39.461  30.408  31.611  1.00  0.00    -0.354 N 
ATOM     47  C   UNL A   1      42.765  28.810  33.886  1.00  0.00     0.074 A 
ATOM     48  C   UNL A   1      43.405  27.717  33.187  1.00  0.00     0.031 C 
ATOM     49  C   UNL A   1      38.110  30.607  29.838  1.00  0.00     0.029 A 
ATOM     50  C   UNL A   1      38.431  31.187  31.137  1.00  0.00     0.049 A 
ATOM     51  H   UNL A   1      39.883  30.547  32.488  1.00  0.00     0.167 HD
ATOM     52  C   UNL A   1      43.171  29.290  35.087  1.00  0.00     0.037 A 
ATOM     53  C   UNL A   1      37.807  32.248  31.685  1.00  0.00     0.037 A 
ATOM     54  C   UNL A   1      42.538  30.386  35.775  1.00  0.00     0.049 A 
ATOM     55  C   UNL A   1      38.235  32.727  33.041  1.00  0.00     0.074 A 
ATOM     56  C   UNL A   1      42.868  30.943  36.998  1.00  0.00     0.029 A 
ATOM     57  N   UNL A   1      41.444  31.096  35.297  1.00  0.00    -0.354 N 
ATOM     58  N   UNL A   1      39.217  32.290  33.793  1.00  0.00    -0.248 NA
ATOM     59  C   UNL A   1      37.464  33.829  33.629  1.00  0.00     0.031 C 
ATOM     60  C   UNL A   1      41.953  31.963  37.278  1.00  0.00     0.029 A 
ATOM     61  C   UNL A   1      41.078  32.073  36.209  1.00  0.00     0.049 A 
ATOM     62  H   UNL A   1      40.995  30.929  34.437  1.00  0.00     0.167 HD
ATOM     63  C   UNL A   1      39.187  33.069  34.944  1.00  0.00     0.074 A 
ATOM     64  C   UNL A   1      38.099  34.014  34.779  1.00  0.00     0.031 C 
ATOM     65  C   UNL A   1      39.986  33.002  36.036  1.00  0.00     0.037 A 
BRANCH  52  66
ATOM     66  C   UNL A   1      44.349  28.616  35.738  1.00  0.00     0.058 A 
ATOM     67  C   UNL A   1      44.183  27.549  36.636  1.00  0.00     0.135 A 
ATOM     68  C   UNL A   1      45.660  29.039  35.464  1.00  0.00     0.135 A 
ATOM     69  F   UNL A   1      42.952  27.111  36.945  1.00  0.00    -0.206 F 
ATOM     70  C   UNL A   1      45.270  26.956  37.272  1.00  0.00     0.059 A 
ATOM     71  C   UNL A   1      46.765  28.442  36.069  1.00  0.00     0.059 A 
ATOM     72  F   UNL A   1      45.879  30.051  34.610  1.00  0.00    -0.206 F 
ATOM     73  C   UNL A   1      46.555  27.416  36.989  1.00  0.00     0.060 A 
BRANCH  73  74
ATOM     74  S   UNL A   1      47.947  26.665  37.862  1.00  0.00     0.124 S 
ATOM     75  O   UNL A   1      47.840  27.295  39.174  1.00  0.00    -0.237 OA
ATOM     76  O   UNL A   1      47.614  25.245  37.816  1.00  0.00    -0.237 OA
ATOM     77  O   UNL A   1      49.104  27.062  37.066  1.00  0.00    -0.744 OA
ENDBRANCH  73  74
ENDBRANCH  52  66
BRANCH  53  78
ATOM     78  C   UNL A   1      36.724  32.925  30.925  1.00  0.00     0.058 A 
ATOM     79  C   UNL A   1      35.378  32.702  31.244  1.00  0.00     0.135 A 
ATOM     80  C   UNL A   1      37.015  33.873  29.930  1.00  0.00     0.135 A 
ATOM     81  F   UNL A   1      35.050  31.800  32.181  1.00  0.00    -0.206 F 
ATOM     82  C   UNL A   1      34.356  33.409  30.617  1.00  0.00     0.059 A 
ATOM     83  C   UNL A   1      36.013  34.608  29.307  1.00  0.00     0.059 A 
ATOM     84  F   UNL A   1      38.290  34.130  29.600  1.00  0.00    -0.206 F 
ATOM     85  C   UNL A   1      34.686  34.371  29.660  1.00  0.00     0.060 A 
BRANCH  85  86
ATOM     86  S   UNL A   1      33.358  35.358  28.935  1.00  0.00     0.124 S 
ATOM     87  O   UNL A   1      32.703  35.891  30.124  1.00  0.00    -0.237 OA
ATOM     88  O   UNL A   1      34.100  36.321  28.127  1.00  0.00    -0.237 OA
ATOM     89  O   UNL A   1      32.587  34.377  28.176  1.00  0.00    -0.744 OA
ENDBRANCH  85  86
ENDBRANCH  53  78
BRANCH  65  90
ATOM     90  C   UNL A   1      39.725  33.982  37.145  1.00  0.00     0.058 A 
ATOM     91  C   UNL A   1      38.932  33.641  38.251  1.00  0.00     0.135 A 
ATOM     92  C   UNL A   1      40.330  35.249  37.134  1.00  0.00     0.135 A 
ATOM     93  F   UNL A   1      38.324  32.446  38.305  1.00  0.00    -0.206 F 
ATOM     94  C   UNL A   1      38.741  34.527  39.307  1.00  0.00     0.059 A 
ATOM     95  C   UNL A   1      40.173  36.141  38.189  1.00  0.00     0.059 A 
ATOM     96  F   UNL A   1      41.103  35.620  36.101  1.00  0.00    -0.206 F 
ATOM     97  C   UNL A   1      39.371  35.772  39.269  1.00  0.00     0.060 A 
BRANCH  97  98
ATOM     98  S   UNL A   1      39.157  36.890  40.671  1.00  0.00     0.124 S 
ATOM     99  O   UNL A   1      40.531  37.306  40.929  1.00  0.00    -0.237 OA
ATOM    100  O   UNL A   1      38.277  37.915  40.119  1.00  0.00    -0.237 OA
ATOM    101  O   UNL A   1      38.554  36.041  41.695  1.00  0.00    -0.744 OA
ENDBRANCH  97  98
ENDBRANCH  65  90
ENDBRANCH  39  40
ENDBRANCH  31  34
ENDBRANCH  29  30
ENDBRANCH   1  29
TORSDOF 16
ENDMDL
MODEL 3
REMARK VINA RESULT:     -12.4      4.658     10.618
REMARK SMILES CCOc1ccc2[nH]c(C)c/c(=N\c3cccc(C(=O)NCCCNC(=O)c4ccc(-c5c6nc(c(-c7c(F)cc(S(=O)(=O)[O-])cc7F)c7ccc([nH]7)c(-c7c(F)cc(S(=O)(=O)[O-])cc7F)c7nc(c(-c8c(F)cc(S(=O)(=O)[O-])cc8F)c8ccc5[nH]8)C=C7)C=C6)cc4)c3)c2c1
REMARK SMILES IDX 23 1 22 2 21 3 19 4 20 5 18 7 14 8 15 9 94 10 16 11 17 12
REMARK SMILES IDX 13 13 4 14 5 15 96 16 6 17 95 18 7 19 12 20 8 21 11 22 9 23
REMARK SMILES IDX 10 25 3 26 2 27 1 28 24 29 25 30 26 31 27 33 28 34 29 35
REMARK SMILES IDX 93 36 30 37 92 38 31 39 32 40 33 41 86 42 34 43 91 44 85 45
REMARK SMILES IDX 87 46 35 47 90 48 84 49 83 50 36 52 70 53 49 54 69 55 50 56
REMARK SMILES IDX 53 57 68 58 88 59 51 60 52 61 67 63 89 64 54 65 37 66 38 67
REMARK SMILES IDX 47 68 39 69 40 70 46 71 48 72 41 73 42 74 43 75 44 76 45 77
REMARK SMILES IDX 71 78 72 79 81 80 73 81 74 82 80 83 82 84 75 85 76 86 77 87
REMARK SMILES IDX 78 88 79 89 55 90 56 91 65 92 57 93 58 94 64 95 66 96 59 97
REMARK SMILES IDX 60 98 61 99 62 100 63 101
REMARK H PARENT 21 6 8 24 25 32 87 51 53 62
REMARK Flexibility Score: inf
ROOT
ATOM      1  C   UNL A   1      33.009  29.139  24.924  1.00  0.00     0.042 C 
ENDROOT
BRANCH   1   2
ATOM      2  C   UNL A   1      33.636  28.572  23.660  1.00  0.00     0.118 C 
BRANCH   2   3
ATOM      3  N   UNL A   1      32.666  28.023  22.720  1.00  0.00    -0.352 N 
ATOM      4  C   UNL A   1      31.801  26.958  22.707  1.00  0.00     0.251 C 
ATOM      5  O   UNL A   1      31.108  26.836  21.691  1.00  0.00    -0.269 OA
ATOM      6  H   UNL A   1      32.621  28.546  21.888  1.00  0.00     0.163 HD
BRANCH   4   7
ATOM      7  C   UNL A   1      31.665  25.930  23.779  1.00  0.00     0.041 A 
ATOM      8  C   UNL A   1      32.058  23.741  24.761  1.00  0.00     0.064 A 
ATOM      9  C   UNL A   1      31.168  24.022  25.795  1.00  0.00     0.028 A 
ATOM     10  C   UNL A   1      32.384  24.742  23.844  1.00  0.00     0.042 A 
ATOM     11  C   UNL A   1      30.498  25.244  25.815  1.00  0.00     0.003 A 
ATOM     12  C   UNL A   1      30.718  26.172  24.792  1.00  0.00     0.014 A 
BRANCH   8  13
ATOM     13  N   UNL A   1      32.576  22.457  24.513  1.00  0.00    -0.248 NA
ATOM     14  C   UNL A   1      33.985  18.402  24.514  1.00  0.00     0.120 A 
ATOM     15  C   UNL A   1      35.359  18.196  24.617  1.00  0.00     0.048 A 
ATOM     16  C   UNL A   1      33.461  19.697  24.558  1.00  0.00     0.059 A 
ATOM     17  C   UNL A   1      36.213  19.271  24.848  1.00  0.00     0.030 A 
ATOM     18  C   UNL A   1      34.322  20.783  24.778  1.00  0.00     0.027 A 
ATOM     19  C   UNL A   1      35.703  20.567  24.951  1.00  0.00     0.048 A 
ATOM     20  C   UNL A   1      33.800  22.187  24.885  1.00  0.00     0.075 A 
ATOM     21  N   UNL A   1      36.563  21.632  25.243  1.00  0.00    -0.359 N 
ATOM     22  C   UNL A   1      34.780  23.188  25.442  1.00  0.00     0.050 A 
ATOM     23  C   UNL A   1      36.084  22.884  25.536  1.00  0.00     0.014 A 
ATOM     24  H   UNL A   1      37.534  21.480  25.239  1.00  0.00     0.166 HD
ATOM     25  C   UNL A   1      37.088  23.915  25.969  1.00  0.00     0.064 C 
BRANCH  14  26
ATOM     26  O   UNL A   1      33.137  17.358  24.264  1.00  0.00    -0.494 OA
BRANCH  26  27
ATOM     27  C   UNL A   1      33.596  16.109  24.808  1.00  0.00     0.226 C 
ATOM     28  C   UNL A   1      32.467  15.259  25.374  1.00  0.00     0.049 C 
ENDBRANCH  26  27
ENDBRANCH  14  26
ENDBRANCH   8  13
ENDBRANCH   4   7
ENDBRANCH   2   3
ENDBRANCH   1   2
BRANCH   1  29
ATOM     29  C   UNL A   1      33.902  29.052  26.151  1.00  0.00     0.118 C 
BRANCH  29  30
ATOM     30  N   UNL A   1      33.783  30.210  27.030  1.00  0.00    -0.352 N 
ATOM     31  C   UNL A   1      34.616  30.721  28.001  1.00  0.00     0.251 C 
ATOM     32  H   UNL A   1      32.952  30.723  26.905  1.00  0.00     0.163 HD
ATOM     33  O   UNL A   1      34.196  31.610  28.733  1.00  0.00    -0.269 OA
BRANCH  31  34
ATOM     34  C   UNL A   1      35.987  30.194  28.198  1.00  0.00     0.039 A 
ATOM     35  C   UNL A   1      36.369  29.590  29.393  1.00  0.00     0.014 A 
ATOM     36  C   UNL A   1      36.908  30.270  27.146  1.00  0.00     0.014 A 
ATOM     37  C   UNL A   1      37.703  29.272  29.617  1.00  0.00     0.010 A 
ATOM     38  C   UNL A   1      38.224  29.831  27.329  1.00  0.00     0.010 A 
ATOM     39  C   UNL A   1      38.651  29.381  28.587  1.00  0.00    -0.014 A 
BRANCH  39  40
ATOM     40  C   UNL A   1      40.068  29.012  28.860  1.00  0.00     0.031 A 
ATOM     41  C   UNL A   1      40.971  29.935  29.637  1.00  0.00     0.074 A 
ATOM     42  C   UNL A   1      40.519  27.802  28.474  1.00  0.00     0.049 A 
ATOM     43  N   UNL A   1      42.214  29.753  30.006  1.00  0.00    -0.248 NA
ATOM     44  C   UNL A   1      40.409  31.230  30.049  1.00  0.00     0.031 C 
ATOM     45  C   UNL A   1      39.736  26.812  27.729  1.00  0.00     0.029 A 
ATOM     46  N   UNL A   1      41.721  27.176  28.690  1.00  0.00    -0.354 N 
ATOM     47  C   UNL A   1      42.587  30.911  30.679  1.00  0.00     0.074 A 
ATOM     48  C   UNL A   1      41.452  31.807  30.632  1.00  0.00     0.031 C 
ATOM     49  C   UNL A   1      40.444  25.679  27.624  1.00  0.00     0.029 A 
ATOM     50  C   UNL A   1      41.758  25.883  28.224  1.00  0.00     0.049 A 
ATOM     51  H   UNL A   1      42.483  27.611  29.136  1.00  0.00     0.167 HD
ATOM     52  C   UNL A   1      43.760  31.196  31.296  1.00  0.00     0.037 A 
ATOM     53  C   UNL A   1      42.740  24.962  28.265  1.00  0.00     0.037 A 
ATOM     54  C   UNL A   1      44.884  30.296  31.351  1.00  0.00     0.049 A 
ATOM     55  C   UNL A   1      44.050  25.318  28.902  1.00  0.00     0.074 A 
ATOM     56  C   UNL A   1      46.118  30.493  31.944  1.00  0.00     0.029 A 
ATOM     57  N   UNL A   1      44.909  29.025  30.792  1.00  0.00    -0.354 N 
ATOM     58  N   UNL A   1      44.390  26.427  29.515  1.00  0.00    -0.248 NA
ATOM     59  C   UNL A   1      45.114  24.308  28.841  1.00  0.00     0.031 C 
ATOM     60  C   UNL A   1      46.902  29.358  31.713  1.00  0.00     0.029 A 
ATOM     61  C   UNL A   1      46.143  28.433  31.013  1.00  0.00     0.049 A 
ATOM     62  H   UNL A   1      44.160  28.605  30.310  1.00  0.00     0.167 HD
ATOM     63  C   UNL A   1      45.707  26.248  29.919  1.00  0.00     0.074 A 
ATOM     64  C   UNL A   1      46.095  24.916  29.495  1.00  0.00     0.031 C 
ATOM     65  C   UNL A   1      46.519  27.110  30.578  1.00  0.00     0.037 A 
BRANCH  52  66
ATOM     66  C   UNL A   1      43.888  32.547  31.947  1.00  0.00     0.058 A 
ATOM     67  C   UNL A   1      44.345  33.667  31.234  1.00  0.00     0.135 A 
ATOM     68  C   UNL A   1      43.550  32.727  33.299  1.00  0.00     0.135 A 
ATOM     69  F   UNL A   1      44.693  33.551  29.944  1.00  0.00    -0.206 F 
ATOM     70  C   UNL A   1      44.505  34.906  31.849  1.00  0.00     0.059 A 
ATOM     71  C   UNL A   1      43.678  33.964  33.928  1.00  0.00     0.059 A 
ATOM     72  F   UNL A   1      43.103  31.693  34.028  1.00  0.00    -0.206 F 
ATOM     73  C   UNL A   1      44.178  35.041  33.198  1.00  0.00     0.060 A 
BRANCH  73  74
ATOM     74  S   UNL A   1      44.440  36.645  33.987  1.00  0.00     0.124 S 
ATOM     75  O   UNL A   1      43.691  37.530  33.100  1.00  0.00    -0.237 OA
ATOM     76  O   UNL A   1      43.859  36.441  35.310  1.00  0.00    -0.237 OA
ATOM     77  O   UNL A   1      45.891  36.807  33.958  1.00  0.00    -0.744 OA
ENDBRANCH  73  74
ENDBRANCH  52  66
BRANCH  53  78
ATOM     78  C   UNL A   1      42.492  23.611  27.694  1.00  0.00     0.058 A 
ATOM     79  C   UNL A   1      42.563  23.394  26.312  1.00  0.00     0.135 A 
ATOM     80  C   UNL A   1      42.270  22.500  28.524  1.00  0.00     0.135 A 
ATOM     81  F   UNL A   1      42.765  24.426  25.479  1.00  0.00    -0.206 F 
ATOM     82  C   UNL A   1      42.442  22.118  25.770  1.00  0.00     0.059 A 
ATOM     83  C   UNL A   1      42.169  21.212  28.007  1.00  0.00     0.059 A 
ATOM     84  F   UNL A   1      42.207  22.657  29.855  1.00  0.00    -0.206 F 
ATOM     85  C   UNL A   1      42.260  21.032  26.628  1.00  0.00     0.060 A 
BRANCH  85  86
ATOM     86  S   UNL A   1      42.216  19.371  25.920  1.00  0.00     0.124 S 
ATOM     87  O   UNL A   1      40.797  19.214  25.624  1.00  0.00    -0.237 OA
ATOM     88  O   UNL A   1      43.099  19.508  24.766  1.00  0.00    -0.237 OA
ATOM     89  O   UNL A   1      42.733  18.532  26.998  1.00  0.00    -0.744 OA
ENDBRANCH  85  86
ENDBRANCH  53  78
BRANCH  65  90
ATOM     90  C   UNL A   1      47.913  26.644  30.893  1.00  0.00     0.058 A 
ATOM     91  C   UNL A   1      48.993  26.945  30.049  1.00  0.00     0.135 A 
ATOM     92  C   UNL A   1      48.181  25.951  32.084  1.00  0.00     0.135 A 
ATOM     93  F   UNL A   1      48.788  27.598  28.894  1.00  0.00    -0.206 F 
ATOM     94  C   UNL A   1      50.292  26.567  30.372  1.00  0.00     0.059 A 
ATOM     95  C   UNL A   1      49.474  25.584  32.438  1.00  0.00     0.059 A 
ATOM     96  F   UNL A   1      47.182  25.645  32.927  1.00  0.00    -0.206 F 
ATOM     97  C   UNL A   1      50.523  25.892  31.572  1.00  0.00     0.060 A 
BRANCH  97  98
ATOM     98  S   UNL A   1      52.222  25.456  32.002  1.00  0.00     0.124 S 
ATOM     99  O   UNL A   1      52.481  26.350  33.125  1.00  0.00    -0.237 OA
ATOM    100  O   UNL A   1      52.103  24.039  32.335  1.00  0.00    -0.237 OA
ATOM    101  O   UNL A   1      52.968  25.746  30.782  1.00  0.00    -0.744 OA
ENDBRANCH  97  98
ENDBRANCH  65  90
ENDBRANCH  39  40
ENDBRANCH  31  34
ENDBRANCH  29  30
ENDBRANCH   1  29
TORSDOF 16
ENDMDL
