MODEL 1
REMARK VINA RESULT:     -12.6      0.000      0.000
REMARK SMILES CCOc1cc(C[NH+]2CCC3(CC2)[C@H](C(=O)NCCCNC(=O)c2ccc(-c4c5nc(c(-c6c(F)cc(S(=O)(=O)[O-])cc6F)c6ccc([nH]6)c(-c6c(F)cc(S(=O)(=O)[O-])cc6F)c6nc(c(-c7c(F)cc(S(=O)(=O)[O-])cc7F)c7ccc4[nH]7)C=C6)C=C5)cc2)CC(=O)N3C)ccc1OC
REMARK SMILES IDX 18 1 17 2 15 3 16 4 14 6 8 7 9 8 13 9 10 11 12 12 11 13
REMARK SMILES IDX 93 14 90 15 91 16 94 17 92 18 7 19 6 20 4 21 5 22 97 23
REMARK SMILES IDX 96 24 95 25 3 26 2 27 1 28 98 29 99 30 19 31 20 32 21 33
REMARK SMILES IDX 22 34 23 36 24 37 25 38 89 39 26 40 88 41 27 42 28 43 29 44
REMARK SMILES IDX 82 45 30 46 87 47 81 48 83 49 31 50 86 51 80 52 79 53 32 55
REMARK SMILES IDX 66 56 45 57 65 58 46 59 49 60 64 61 84 62 47 63 48 64 63 66
REMARK SMILES IDX 85 67 50 68 33 69 34 70 43 71 35 72 36 73 42 74 44 75 37 76
REMARK SMILES IDX 38 77 39 78 40 79 41 80 67 81 68 82 77 83 69 84 70 85 76 86
REMARK SMILES IDX 78 87 71 88 72 89 73 90 74 91 75 92 51 93 52 94 61 95 53 96
REMARK SMILES IDX 54 97 60 98 62 99 55 100 56 101 57 102 58 103 59 104
REMARK H PARENT 17 5 8 10 21 35 83 54 49 65
REMARK Flexibility Score: inf
ROOT
ATOM      1  C   UNL A   1      36.504  23.399  26.126  1.00  0.00     0.117 C 
ENDROOT
BRANCH   1   2
ATOM      2  N   UNL A   1      36.446  22.032  25.639  1.00  0.00    -0.356 N 
ATOM      3  C   UNL A   1      35.483  21.132  25.368  1.00  0.00     0.226 C 
ATOM      4  O   UNL A   1      35.915  20.048  24.959  1.00  0.00    -0.275 OA
ATOM      5  H   UNL A   1      37.344  21.670  25.462  1.00  0.00     0.163 HD
BRANCH   3   6
ATOM      6  C   UNL A   1      33.974  21.354  25.455  1.00  0.00     0.114 C 
ATOM      7  N   UNL A   1      32.503  24.510  22.942  1.00  0.00    -0.331 N 
ATOM      8  C   UNL A   1      33.496  23.648  22.328  1.00  0.00     0.265 C 
ATOM      9  C   UNL A   1      31.474  23.761  23.643  1.00  0.00     0.265 C 
ATOM     10  H   UNL A   1      31.991  24.935  22.168  1.00  0.00     0.348 HD
ATOM     11  C   UNL A   1      34.129  22.669  23.305  1.00  0.00     0.091 C 
ATOM     12  C   UNL A   1      31.955  22.708  24.654  1.00  0.00     0.091 C 
ATOM     13  C   UNL A   1      33.181  21.860  24.213  1.00  0.00     0.065 C 
ATOM     14  N   UNL A   1      32.679  20.580  23.690  1.00  0.00    -0.339 N 
ATOM     15  C   UNL A   1      33.272  20.091  25.921  1.00  0.00     0.116 C 
ATOM     16  C   UNL A   1      32.613  19.585  24.671  1.00  0.00     0.223 C 
ATOM     17  C   UNL A   1      31.929  20.410  22.466  1.00  0.00     0.147 C 
ATOM     18  O   UNL A   1      32.091  18.493  24.564  1.00  0.00    -0.275 OA
BRANCH   7  19
ATOM     19  C   UNL A   1      32.977  25.776  23.520  1.00  0.00     0.299 C 
BRANCH  19  20
ATOM     20  C   UNL A   1      31.959  26.890  23.668  1.00  0.00     0.010 A 
ATOM     21  C   UNL A   1      31.327  28.998  24.706  1.00  0.00     0.161 A 
ATOM     22  C   UNL A   1      32.004  27.772  24.759  1.00  0.00     0.060 A 
ATOM     23  C   UNL A   1      30.438  29.262  23.656  1.00  0.00     0.160 A 
ATOM     24  C   UNL A   1      30.249  28.291  22.669  1.00  0.00     0.051 A 
ATOM     25  C   UNL A   1      31.029  27.134  22.649  1.00  0.00     0.013 A 
BRANCH  21  26
ATOM     26  O   UNL A   1      31.764  30.044  25.463  1.00  0.00    -0.490 OA
BRANCH  26  27
ATOM     27  C   UNL A   1      31.873  29.892  26.867  1.00  0.00     0.226 C 
ATOM     28  C   UNL A   1      33.326  30.233  27.176  1.00  0.00     0.049 C 
ENDBRANCH  26  27
ENDBRANCH  21  26
BRANCH  23  29
ATOM     29  O   UNL A   1      29.704  30.398  23.439  1.00  0.00    -0.493 OA
ATOM     30  C   UNL A   1      28.306  30.278  23.218  1.00  0.00     0.278 C 
ENDBRANCH  23  29
ENDBRANCH  19  20
ENDBRANCH   7  19
ENDBRANCH   3   6
ENDBRANCH   1   2
BRANCH   1  31
ATOM     31  C   UNL A   1      37.851  24.077  25.873  1.00  0.00     0.042 C 
BRANCH  31  32
ATOM     32  C   UNL A   1      38.909  23.739  26.914  1.00  0.00     0.118 C 
BRANCH  32  33
ATOM     33  N   UNL A   1      40.241  23.870  26.345  1.00  0.00    -0.352 N 
ATOM     34  C   UNL A   1      41.072  24.962  26.413  1.00  0.00     0.251 C 
ATOM     35  H   UNL A   1      40.587  23.088  25.858  1.00  0.00     0.163 HD
ATOM     36  O   UNL A   1      41.953  25.122  25.576  1.00  0.00    -0.269 OA
BRANCH  34  37
ATOM     37  C   UNL A   1      40.879  25.938  27.506  1.00  0.00     0.039 A 
ATOM     38  C   UNL A   1      39.907  25.705  28.478  1.00  0.00     0.014 A 
ATOM     39  C   UNL A   1      41.668  27.091  27.554  1.00  0.00     0.014 A 
ATOM     40  C   UNL A   1      39.754  26.617  29.524  1.00  0.00     0.010 A 
ATOM     41  C   UNL A   1      41.580  27.945  28.647  1.00  0.00     0.010 A 
ATOM     42  C   UNL A   1      40.604  27.732  29.630  1.00  0.00    -0.014 A 
BRANCH  42  43
ATOM     43  C   UNL A   1      40.465  28.705  30.744  1.00  0.00     0.031 A 
ATOM     44  C   UNL A   1      41.319  28.563  31.977  1.00  0.00     0.074 A 
ATOM     45  C   UNL A   1      39.539  29.680  30.666  1.00  0.00     0.049 A 
ATOM     46  N   UNL A   1      41.322  29.287  33.066  1.00  0.00    -0.248 NA
ATOM     47  C   UNL A   1      42.274  27.442  32.004  1.00  0.00     0.031 C 
ATOM     48  C   UNL A   1      38.608  29.877  29.550  1.00  0.00     0.029 A 
ATOM     49  N   UNL A   1      39.220  30.686  31.541  1.00  0.00    -0.354 N 
ATOM     50  C   UNL A   1      42.260  28.702  33.909  1.00  0.00     0.074 A 
ATOM     51  C   UNL A   1      42.762  27.527  33.232  1.00  0.00     0.031 C 
ATOM     52  C   UNL A   1      37.848  30.955  29.796  1.00  0.00     0.029 A 
ATOM     53  C   UNL A   1      38.207  31.504  31.099  1.00  0.00     0.049 A 
ATOM     54  H   UNL A   1      39.674  30.811  32.406  1.00  0.00     0.167 HD
ATOM     55  C   UNL A   1      42.688  29.122  35.123  1.00  0.00     0.037 A 
ATOM     56  C   UNL A   1      37.630  32.574  31.680  1.00  0.00     0.037 A 
ATOM     57  C   UNL A   1      42.206  30.312  35.773  1.00  0.00     0.049 A 
ATOM     58  C   UNL A   1      38.134  33.032  33.023  1.00  0.00     0.074 A 
ATOM     59  C   UNL A   1      42.622  30.869  36.969  1.00  0.00     0.029 A 
ATOM     60  N   UNL A   1      41.196  31.130  35.283  1.00  0.00    -0.354 N 
ATOM     61  N   UNL A   1      39.080  32.512  33.769  1.00  0.00    -0.248 NA
ATOM     62  C   UNL A   1      37.500  34.225  33.598  1.00  0.00     0.031 C 
ATOM     63  C   UNL A   1      41.830  31.991  37.229  1.00  0.00     0.029 A 
ATOM     64  C   UNL A   1      40.958  32.169  36.166  1.00  0.00     0.049 A 
ATOM     65  H   UNL A   1      40.720  30.990  34.433  1.00  0.00     0.167 HD
ATOM     66  C   UNL A   1      39.170  33.329  34.892  1.00  0.00     0.074 A 
ATOM     67  C   UNL A   1      38.197  34.387  34.714  1.00  0.00     0.031 C 
ATOM     68  C   UNL A   1      39.982  33.213  35.972  1.00  0.00     0.037 A 
BRANCH  55  69
ATOM     69  C   UNL A   1      43.733  28.296  35.823  1.00  0.00     0.058 A 
ATOM     70  C   UNL A   1      43.389  27.218  36.656  1.00  0.00     0.135 A 
ATOM     71  C   UNL A   1      45.099  28.560  35.630  1.00  0.00     0.135 A 
ATOM     72  F   UNL A   1      42.099  26.929  36.891  1.00  0.00    -0.206 F 
ATOM     73  C   UNL A   1      44.359  26.451  37.294  1.00  0.00     0.059 A 
ATOM     74  C   UNL A   1      46.087  27.785  36.234  1.00  0.00     0.059 A 
ATOM     75  F   UNL A   1      45.487  29.578  34.847  1.00  0.00    -0.206 F 
ATOM     76  C   UNL A   1      45.706  26.741  37.075  1.00  0.00     0.060 A 
BRANCH  76  77
ATOM     77  S   UNL A   1      46.951  25.725  37.897  1.00  0.00     0.124 S 
ATOM     78  O   UNL A   1      47.121  24.639  36.936  1.00  0.00    -0.237 OA
ATOM     79  O   UNL A   1      48.077  26.646  38.018  1.00  0.00    -0.237 OA
ATOM     80  O   UNL A   1      46.311  25.353  39.154  1.00  0.00    -0.744 OA
ENDBRANCH  76  77
ENDBRANCH  55  69
BRANCH  56  81
ATOM     81  C   UNL A   1      36.530  33.296  30.986  1.00  0.00     0.058 A 
ATOM     82  C   UNL A   1      36.784  34.106  29.869  1.00  0.00     0.135 A 
ATOM     83  C   UNL A   1      35.198  33.178  31.418  1.00  0.00     0.135 A 
ATOM     84  F   UNL A   1      38.040  34.254  29.422  1.00  0.00    -0.206 F 
ATOM     85  C   UNL A   1      35.763  34.790  29.216  1.00  0.00     0.059 A 
ATOM     86  C   UNL A   1      34.157  33.830  30.763  1.00  0.00     0.059 A 
ATOM     87  F   UNL A   1      34.898  32.401  32.468  1.00  0.00    -0.206 F 
ATOM     88  C   UNL A   1      34.451  34.643  29.669  1.00  0.00     0.060 A 
BRANCH  88  89
ATOM     89  S   UNL A   1      33.128  35.497  28.786  1.00  0.00     0.124 S 
ATOM     90  O   UNL A   1      33.880  36.468  27.999  1.00  0.00    -0.237 OA
ATOM     91  O   UNL A   1      32.508  34.408  28.037  1.00  0.00    -0.237 OA
ATOM     92  O   UNL A   1      32.312  36.053  29.862  1.00  0.00    -0.744 OA
ENDBRANCH  88  89
ENDBRANCH  56  81
BRANCH  68  93
ATOM     93  C   UNL A   1      39.868  34.271  37.036  1.00  0.00     0.058 A 
ATOM     94  C   UNL A   1      40.531  35.503  36.926  1.00  0.00     0.135 A 
ATOM     95  C   UNL A   1      39.055  34.062  38.162  1.00  0.00     0.135 A 
ATOM     96  F   UNL A   1      41.324  35.753  35.872  1.00  0.00    -0.206 F 
ATOM     97  C   UNL A   1      40.418  36.478  37.911  1.00  0.00     0.059 A 
ATOM     98  C   UNL A   1      38.902  35.036  39.144  1.00  0.00     0.059 A 
ATOM     99  F   UNL A   1      38.388  32.906  38.310  1.00  0.00    -0.206 F 
ATOM    100  C   UNL A   1      39.603  36.235  39.017  1.00  0.00     0.060 A 
BRANCH 100 101
ATOM    101  S   UNL A   1      39.453  37.515  40.281  1.00  0.00     0.124 S 
ATOM    102  O   UNL A   1      38.552  38.463  39.633  1.00  0.00    -0.237 OA
ATOM    103  O   UNL A   1      38.895  36.776  41.408  1.00  0.00    -0.237 OA
ATOM    104  O   UNL A   1      40.827  37.976  40.461  1.00  0.00    -0.744 OA
ENDBRANCH 100 101
ENDBRANCH  68  93
ENDBRANCH  42  43
ENDBRANCH  34  37
ENDBRANCH  32  33
ENDBRANCH  31  32
ENDBRANCH   1  31
TORSDOF 18
ENDMDL
MODEL 2
REMARK VINA RESULT:     -12.3      0.310      1.734
REMARK SMILES CCOc1cc(C[NH+]2CCC3(CC2)[C@H](C(=O)NCCCNC(=O)c2ccc(-c4c5nc(c(-c6c(F)cc(S(=O)(=O)[O-])cc6F)c6ccc([nH]6)c(-c6c(F)cc(S(=O)(=O)[O-])cc6F)c6nc(c(-c7c(F)cc(S(=O)(=O)[O-])cc7F)c7ccc4[nH]7)C=C6)C=C5)cc2)CC(=O)N3C)ccc1OC
REMARK SMILES IDX 18 1 17 2 15 3 16 4 14 6 8 7 9 8 13 9 10 11 12 12 11 13
REMARK SMILES IDX 93 14 90 15 91 16 94 17 92 18 7 19 6 20 4 21 5 22 97 23
REMARK SMILES IDX 96 24 95 25 3 26 2 27 1 28 98 29 99 30 19 31 20 32 21 33
REMARK SMILES IDX 22 34 23 36 24 37 25 38 89 39 26 40 88 41 27 42 28 43 29 44
REMARK SMILES IDX 82 45 30 46 87 47 81 48 83 49 31 50 86 51 80 52 79 53 32 55
REMARK SMILES IDX 66 56 45 57 65 58 46 59 49 60 64 61 84 62 47 63 48 64 63 66
REMARK SMILES IDX 85 67 50 68 33 69 34 70 43 71 35 72 36 73 42 74 44 75 37 76
REMARK SMILES IDX 38 77 39 78 40 79 41 80 67 81 68 82 77 83 69 84 70 85 76 86
REMARK SMILES IDX 78 87 71 88 72 89 73 90 74 91 75 92 51 93 52 94 61 95 53 96
REMARK SMILES IDX 54 97 60 98 62 99 55 100 56 101 57 102 58 103 59 104
REMARK H PARENT 17 5 8 10 21 35 83 54 49 65
REMARK Flexibility Score: inf
ROOT
ATOM      1  C   UNL A   1      36.663  23.435  26.099  1.00  0.00     0.117 C 
ENDROOT
BRANCH   1   2
ATOM      2  N   UNL A   1      36.596  22.057  25.648  1.00  0.00    -0.356 N 
ATOM      3  C   UNL A   1      35.628  21.152  25.414  1.00  0.00     0.226 C 
ATOM      4  O   UNL A   1      36.052  20.057  25.026  1.00  0.00    -0.275 OA
ATOM      5  H   UNL A   1      37.491  21.688  25.467  1.00  0.00     0.163 HD
BRANCH   3   6
ATOM      6  C   UNL A   1      34.120  21.379  25.517  1.00  0.00     0.114 C 
ATOM      7  N   UNL A   1      32.592  24.361  22.832  1.00  0.00    -0.331 N 
ATOM      8  C   UNL A   1      33.574  23.461  22.257  1.00  0.00     0.265 C 
ATOM      9  C   UNL A   1      31.579  23.660  23.604  1.00  0.00     0.265 C 
ATOM     10  H   UNL A   1      32.064  24.734  22.043  1.00  0.00     0.348 HD
ATOM     11  C   UNL A   1      34.228  22.549  23.283  1.00  0.00     0.091 C 
ATOM     12  C   UNL A   1      32.083  22.677  24.671  1.00  0.00     0.091 C 
ATOM     13  C   UNL A   1      33.301  21.801  24.262  1.00  0.00     0.065 C 
ATOM     14  N   UNL A   1      32.790  20.490  23.835  1.00  0.00    -0.339 N 
ATOM     15  C   UNL A   1      33.431  20.149  26.081  1.00  0.00     0.116 C 
ATOM     16  C   UNL A   1      32.747  19.562  24.882  1.00  0.00     0.223 C 
ATOM     17  C   UNL A   1      32.015  20.238  22.641  1.00  0.00     0.147 C 
ATOM     18  O   UNL A   1      32.224  18.464  24.858  1.00  0.00    -0.275 OA
BRANCH   7  19
ATOM     19  C   UNL A   1      33.076  25.663  23.315  1.00  0.00     0.299 C 
BRANCH  19  20
ATOM     20  C   UNL A   1      32.037  26.743  23.545  1.00  0.00     0.010 A 
ATOM     21  C   UNL A   1      31.473  28.911  24.494  1.00  0.00     0.161 A 
ATOM     22  C   UNL A   1      32.217  27.724  24.531  1.00  0.00     0.060 A 
ATOM     23  C   UNL A   1      30.404  29.038  23.597  1.00  0.00     0.160 A 
ATOM     24  C   UNL A   1      30.105  27.972  22.745  1.00  0.00     0.051 A 
ATOM     25  C   UNL A   1      30.934  26.851  22.686  1.00  0.00     0.013 A 
BRANCH  21  26
ATOM     26  O   UNL A   1      31.973  30.040  25.070  1.00  0.00    -0.490 OA
BRANCH  26  27
ATOM     27  C   UNL A   1      32.805  29.931  26.211  1.00  0.00     0.226 C 
ATOM     28  C   UNL A   1      31.889  29.385  27.300  1.00  0.00     0.049 C 
ENDBRANCH  26  27
ENDBRANCH  21  26
BRANCH  23  29
ATOM     29  O   UNL A   1      29.581  30.118  23.415  1.00  0.00    -0.493 OA
ATOM     30  C   UNL A   1      29.379  30.611  22.098  1.00  0.00     0.278 C 
ENDBRANCH  23  29
ENDBRANCH  19  20
ENDBRANCH   7  19
ENDBRANCH   3   6
ENDBRANCH   1   2
BRANCH   1  31
ATOM     31  C   UNL A   1      38.016  24.095  25.834  1.00  0.00     0.042 C 
BRANCH  31  32
ATOM     32  C   UNL A   1      39.089  23.716  26.847  1.00  0.00     0.118 C 
BRANCH  32  33
ATOM     33  N   UNL A   1      40.411  23.813  26.246  1.00  0.00    -0.352 N 
ATOM     34  C   UNL A   1      41.288  24.868  26.332  1.00  0.00     0.251 C 
ATOM     35  H   UNL A   1      40.711  23.037  25.721  1.00  0.00     0.163 HD
ATOM     36  O   UNL A   1      42.152  25.024  25.477  1.00  0.00    -0.269 OA
BRANCH  34  37
ATOM     37  C   UNL A   1      41.163  25.809  27.464  1.00  0.00     0.039 A 
ATOM     38  C   UNL A   1      42.066  26.864  27.589  1.00  0.00     0.014 A 
ATOM     39  C   UNL A   1      40.145  25.632  28.406  1.00  0.00     0.014 A 
ATOM     40  C   UNL A   1      41.921  27.767  28.644  1.00  0.00     0.010 A 
ATOM     41  C   UNL A   1      39.944  26.585  29.397  1.00  0.00     0.010 A 
ATOM     42  C   UNL A   1      40.846  27.649  29.543  1.00  0.00    -0.014 A 
BRANCH  42  43
ATOM     43  C   UNL A   1      40.667  28.608  30.662  1.00  0.00     0.031 A 
ATOM     44  C   UNL A   1      41.510  28.480  31.905  1.00  0.00     0.074 A 
ATOM     45  C   UNL A   1      39.716  29.560  30.580  1.00  0.00     0.049 A 
ATOM     46  N   UNL A   1      41.480  29.195  33.000  1.00  0.00    -0.248 NA
ATOM     47  C   UNL A   1      42.494  27.385  31.936  1.00  0.00     0.031 C 
ATOM     48  C   UNL A   1      38.795  29.740  29.454  1.00  0.00     0.029 A 
ATOM     49  N   UNL A   1      39.360  30.550  31.459  1.00  0.00    -0.354 N 
ATOM     50  C   UNL A   1      42.423  28.629  33.849  1.00  0.00     0.074 A 
ATOM     51  C   UNL A   1      42.965  27.473  33.170  1.00  0.00     0.031 C 
ATOM     52  C   UNL A   1      38.003  30.796  29.698  1.00  0.00     0.029 A 
ATOM     53  C   UNL A   1      38.331  31.344  31.010  1.00  0.00     0.049 A 
ATOM     54  H   UNL A   1      39.800  30.680  32.331  1.00  0.00     0.167 HD
ATOM     55  C   UNL A   1      42.825  29.051  35.072  1.00  0.00     0.037 A 
ATOM     56  C   UNL A   1      37.719  32.394  31.592  1.00  0.00     0.037 A 
ATOM     57  C   UNL A   1      42.303  30.223  35.725  1.00  0.00     0.049 A 
ATOM     58  C   UNL A   1      38.193  32.855  32.944  1.00  0.00     0.074 A 
ATOM     59  C   UNL A   1      42.690  30.781  36.930  1.00  0.00     0.029 A 
ATOM     60  N   UNL A   1      41.278  31.017  35.228  1.00  0.00    -0.354 N 
ATOM     61  N   UNL A   1      39.145  32.354  33.699  1.00  0.00    -0.248 NA
ATOM     62  C   UNL A   1      37.521  34.026  33.520  1.00  0.00     0.031 C 
ATOM     63  C   UNL A   1      41.864  31.880  37.188  1.00  0.00     0.029 A 
ATOM     64  C   UNL A   1      41.001  32.042  36.115  1.00  0.00     0.049 A 
ATOM     65  H   UNL A   1      40.816  30.871  34.371  1.00  0.00     0.167 HD
ATOM     66  C   UNL A   1      39.199  33.165  34.828  1.00  0.00     0.074 A 
ATOM     67  C   UNL A   1      38.200  34.198  34.646  1.00  0.00     0.031 C 
ATOM     68  C   UNL A   1      40.000  33.062  35.917  1.00  0.00     0.037 A 
BRANCH  55  69
ATOM     69  C   UNL A   1      43.883  28.248  35.779  1.00  0.00     0.058 A 
ATOM     70  C   UNL A   1      45.253  28.488  35.579  1.00  0.00     0.135 A 
ATOM     71  C   UNL A   1      43.524  27.249  36.699  1.00  0.00     0.135 A 
ATOM     72  F   UNL A   1      45.655  29.419  34.699  1.00  0.00    -0.206 F 
ATOM     73  C   UNL A   1      46.228  27.749  36.243  1.00  0.00     0.059 A 
ATOM     74  C   UNL A   1      44.483  26.519  37.398  1.00  0.00     0.059 A 
ATOM     75  F   UNL A   1      42.232  26.974  36.929  1.00  0.00    -0.206 F 
ATOM     76  C   UNL A   1      45.832  26.768  37.153  1.00  0.00     0.060 A 
BRANCH  76  77
ATOM     77  S   UNL A   1      47.110  25.832  38.017  1.00  0.00     0.124 S 
ATOM     78  O   UNL A   1      48.189  26.813  38.094  1.00  0.00    -0.237 OA
ATOM     79  O   UNL A   1      46.458  25.507  39.282  1.00  0.00    -0.237 OA
ATOM     80  O   UNL A   1      47.358  24.697  37.134  1.00  0.00    -0.744 OA
ENDBRANCH  76  77
ENDBRANCH  55  69
BRANCH  56  81
ATOM     81  C   UNL A   1      36.608  33.091  30.889  1.00  0.00     0.058 A 
ATOM     82  C   UNL A   1      35.282  32.970  31.329  1.00  0.00     0.135 A 
ATOM     83  C   UNL A   1      36.854  33.905  29.771  1.00  0.00     0.135 A 
ATOM     84  F   UNL A   1      34.996  32.200  32.390  1.00  0.00    -0.206 F 
ATOM     85  C   UNL A   1      34.235  33.613  30.676  1.00  0.00     0.059 A 
ATOM     86  C   UNL A   1      35.827  34.581  29.119  1.00  0.00     0.059 A 
ATOM     87  F   UNL A   1      38.106  34.070  29.320  1.00  0.00    -0.206 F 
ATOM     88  C   UNL A   1      34.518  34.419  29.572  1.00  0.00     0.060 A 
BRANCH  88  89
ATOM     89  S   UNL A   1      33.159  35.287  28.761  1.00  0.00     0.124 S 
ATOM     90  O   UNL A   1      32.408  35.791  29.905  1.00  0.00    -0.237 OA
ATOM     91  O   UNL A   1      33.865  36.288  27.968  1.00  0.00    -0.237 OA
ATOM     92  O   UNL A   1      32.502  34.235  27.989  1.00  0.00    -0.744 OA
ENDBRANCH  88  89
ENDBRANCH  56  81
BRANCH  68  93
ATOM     93  C   UNL A   1      39.845  34.108  36.988  1.00  0.00     0.058 A 
ATOM     94  C   UNL A   1      39.031  33.899  38.111  1.00  0.00     0.135 A 
ATOM     95  C   UNL A   1      40.550  35.320  36.904  1.00  0.00     0.135 A 
ATOM     96  F   UNL A   1      38.332  32.761  38.238  1.00  0.00    -0.206 F 
ATOM     97  C   UNL A   1      38.895  34.869  39.099  1.00  0.00     0.059 A 
ATOM     98  C   UNL A   1      40.454  36.290  37.896  1.00  0.00     0.059 A 
ATOM     99  F   UNL A   1      41.353  35.565  35.857  1.00  0.00    -0.206 F 
ATOM    100  C   UNL A   1      39.610  36.062  38.982  1.00  0.00     0.060 A 
BRANCH 100 101
ATOM    101  S   UNL A   1      39.436  37.306  40.279  1.00  0.00     0.124 S 
ATOM    102  O   UNL A   1      40.822  37.491  40.695  1.00  0.00    -0.237 OA
ATOM    103  O   UNL A   1      38.834  38.424  39.559  1.00  0.00    -0.237 OA
ATOM    104  O   UNL A   1      38.567  36.658  41.257  1.00  0.00    -0.744 OA
ENDBRANCH 100 101
ENDBRANCH  68  93
ENDBRANCH  42  43
ENDBRANCH  34  37
ENDBRANCH  32  33
ENDBRANCH  31  32
ENDBRANCH   1  31
TORSDOF 18
ENDMDL
MODEL 3
REMARK VINA RESULT:     -12.3      6.297     11.987
REMARK SMILES CCOc1cc(C[NH+]2CCC3(CC2)[C@H](C(=O)NCCCNC(=O)c2ccc(-c4c5nc(c(-c6c(F)cc(S(=O)(=O)[O-])cc6F)c6ccc([nH]6)c(-c6c(F)cc(S(=O)(=O)[O-])cc6F)c6nc(c(-c7c(F)cc(S(=O)(=O)[O-])cc7F)c7ccc4[nH]7)C=C6)C=C5)cc2)CC(=O)N3C)ccc1OC
REMARK SMILES IDX 18 1 17 2 15 3 16 4 14 6 8 7 9 8 13 9 10 11 12 12 11 13
REMARK SMILES IDX 93 14 90 15 91 16 94 17 92 18 7 19 6 20 4 21 5 22 97 23
REMARK SMILES IDX 96 24 95 25 3 26 2 27 1 28 98 29 99 30 19 31 20 32 21 33
REMARK SMILES IDX 22 34 23 36 24 37 25 38 89 39 26 40 88 41 27 42 28 43 29 44
REMARK SMILES IDX 82 45 30 46 87 47 81 48 83 49 31 50 86 51 80 52 79 53 32 55
REMARK SMILES IDX 66 56 45 57 65 58 46 59 49 60 64 61 84 62 47 63 48 64 63 66
REMARK SMILES IDX 85 67 50 68 33 69 34 70 43 71 35 72 36 73 42 74 44 75 37 76
REMARK SMILES IDX 38 77 39 78 40 79 41 80 67 81 68 82 77 83 69 84 70 85 76 86
REMARK SMILES IDX 78 87 71 88 72 89 73 90 74 91 75 92 51 93 52 94 61 95 53 96
REMARK SMILES IDX 54 97 60 98 62 99 55 100 56 101 57 102 58 103 59 104
REMARK H PARENT 17 5 8 10 21 35 83 54 49 65
REMARK Flexibility Score: inf
ROOT
ATOM      1  C   UNL A   1      34.637  29.309  27.464  1.00  0.00     0.117 C 
ENDROOT
BRANCH   1   2
ATOM      2  N   UNL A   1      33.415  28.526  27.501  1.00  0.00    -0.356 N 
ATOM      3  C   UNL A   1      32.481  28.131  26.617  1.00  0.00     0.226 C 
ATOM      4  O   UNL A   1      31.578  27.450  27.117  1.00  0.00    -0.275 OA
ATOM      5  H   UNL A   1      33.218  28.200  28.409  1.00  0.00     0.163 HD
BRANCH   3   6
ATOM      6  C   UNL A   1      32.483  28.384  25.110  1.00  0.00     0.114 C 
ATOM      7  N   UNL A   1      32.139  24.835  22.718  1.00  0.00    -0.331 N 
ATOM      8  C   UNL A   1      31.273  24.879  23.881  1.00  0.00     0.265 C 
ATOM      9  C   UNL A   1      32.125  26.078  21.967  1.00  0.00     0.265 C 
ATOM     10  H   UNL A   1      31.704  24.172  22.075  1.00  0.00     0.348 HD
ATOM     11  C   UNL A   1      31.560  26.055  24.801  1.00  0.00     0.091 C 
ATOM     12  C   UNL A   1      32.376  27.368  22.763  1.00  0.00     0.091 C 
ATOM     13  C   UNL A   1      31.685  27.449  24.154  1.00  0.00     0.065 C 
ATOM     14  N   UNL A   1      30.450  28.232  23.999  1.00  0.00    -0.339 N 
ATOM     15  C   UNL A   1      32.022  29.798  24.804  1.00  0.00     0.116 C 
ATOM     16  C   UNL A   1      30.641  29.595  24.253  1.00  0.00     0.223 C 
ATOM     17  C   UNL A   1      29.275  27.811  23.270  1.00  0.00     0.147 C 
ATOM     18  O   UNL A   1      29.845  30.490  24.046  1.00  0.00    -0.275 OA
BRANCH   7  19
ATOM     19  C   UNL A   1      33.406  24.102  22.852  1.00  0.00     0.299 C 
BRANCH  19  20
ATOM     20  C   UNL A   1      33.322  22.653  23.291  1.00  0.00     0.010 A 
ATOM     21  C   UNL A   1      33.813  20.961  24.969  1.00  0.00     0.161 A 
ATOM     22  C   UNL A   1      34.141  22.157  24.317  1.00  0.00     0.060 A 
ATOM     23  C   UNL A   1      32.785  20.150  24.469  1.00  0.00     0.160 A 
ATOM     24  C   UNL A   1      32.098  20.559  23.323  1.00  0.00     0.051 A 
ATOM     25  C   UNL A   1      32.331  21.814  22.761  1.00  0.00     0.013 A 
BRANCH  21  26
ATOM     26  O   UNL A   1      34.243  20.747  26.244  1.00  0.00    -0.490 OA
BRANCH  26  27
ATOM     27  C   UNL A   1      34.408  21.849  27.118  1.00  0.00     0.226 C 
ATOM     28  C   UNL A   1      32.986  22.292  27.445  1.00  0.00     0.049 C 
ENDBRANCH  26  27
ENDBRANCH  21  26
BRANCH  23  29
ATOM     29  O   UNL A   1      32.325  18.964  24.977  1.00  0.00    -0.493 OA
ATOM     30  C   UNL A   1      32.653  17.757  24.304  1.00  0.00     0.278 C 
ENDBRANCH  23  29
ENDBRANCH  19  20
ENDBRANCH   7  19
ENDBRANCH   3   6
ENDBRANCH   1   2
BRANCH   1  31
ATOM     31  C   UNL A   1      34.426  30.781  27.815  1.00  0.00     0.042 C 
BRANCH  31  32
ATOM     32  C   UNL A   1      35.656  31.447  28.418  1.00  0.00     0.118 C 
BRANCH  32  33
ATOM     33  N   UNL A   1      35.598  31.399  29.871  1.00  0.00    -0.352 N 
ATOM     34  C   UNL A   1      36.394  30.657  30.711  1.00  0.00     0.251 C 
ATOM     35  H   UNL A   1      34.914  31.961  30.300  1.00  0.00     0.163 HD
ATOM     36  O   UNL A   1      36.003  30.367  31.836  1.00  0.00    -0.269 OA
BRANCH  34  37
ATOM     37  C   UNL A   1      37.718  30.212  30.231  1.00  0.00     0.039 A 
ATOM     38  C   UNL A   1      37.973  30.149  28.862  1.00  0.00     0.014 A 
ATOM     39  C   UNL A   1      38.706  29.852  31.153  1.00  0.00     0.014 A 
ATOM     40  C   UNL A   1      39.237  29.758  28.418  1.00  0.00     0.010 A 
ATOM     41  C   UNL A   1      39.991  29.559  30.712  1.00  0.00     0.010 A 
ATOM     42  C   UNL A   1      40.263  29.482  29.339  1.00  0.00    -0.014 A 
BRANCH  42  43
ATOM     43  C   UNL A   1      41.619  29.080  28.885  1.00  0.00     0.031 A 
ATOM     44  C   UNL A   1      42.726  30.100  28.821  1.00  0.00     0.074 A 
ATOM     45  C   UNL A   1      41.839  27.812  28.485  1.00  0.00     0.049 A 
ATOM     46  N   UNL A   1      43.962  29.953  28.421  1.00  0.00    -0.248 NA
ATOM     47  C   UNL A   1      42.392  31.475  29.231  1.00  0.00     0.031 C 
ATOM     48  C   UNL A   1      40.829  26.751  28.439  1.00  0.00     0.029 A 
ATOM     49  N   UNL A   1      42.980  27.199  28.034  1.00  0.00    -0.354 N 
ATOM     50  C   UNL A   1      44.544  31.213  28.516  1.00  0.00     0.074 A 
ATOM     51  C   UNL A   1      43.510  32.125  28.950  1.00  0.00     0.031 C 
ATOM     52  C   UNL A   1      41.402  25.614  28.017  1.00  0.00     0.029 A 
ATOM     53  C   UNL A   1      42.809  25.870  27.724  1.00  0.00     0.049 A 
ATOM     54  H   UNL A   1      43.841  27.668  27.940  1.00  0.00     0.167 HD
ATOM     55  C   UNL A   1      45.830  31.571  28.290  1.00  0.00     0.037 A 
ATOM     56  C   UNL A   1      43.686  24.962  27.255  1.00  0.00     0.037 A 
ATOM     57  C   UNL A   1      46.859  30.648  27.890  1.00  0.00     0.049 A 
ATOM     58  C   UNL A   1      45.114  25.380  27.027  1.00  0.00     0.074 A 
ATOM     59  C   UNL A   1      48.208  30.890  27.704  1.00  0.00     0.029 A 
ATOM     60  N   UNL A   1      46.653  29.304  27.610  1.00  0.00    -0.354 N 
ATOM     61  N   UNL A   1      45.666  26.559  27.200  1.00  0.00    -0.248 NA
ATOM     62  C   UNL A   1      46.041  24.345  26.552  1.00  0.00     0.031 C 
ATOM     63  C   UNL A   1      48.809  29.708  27.261  1.00  0.00     0.029 A 
ATOM     64  C   UNL A   1      47.845  28.712  27.226  1.00  0.00     0.049 A 
ATOM     65  H   UNL A   1      45.787  28.841  27.674  1.00  0.00     0.167 HD
ATOM     66  C   UNL A   1      47.009  26.400  26.875  1.00  0.00     0.074 A 
ATOM     67  C   UNL A   1      47.189  25.008  26.517  1.00  0.00     0.031 C 
ATOM     68  C   UNL A   1      48.003  27.323  26.871  1.00  0.00     0.037 A 
BRANCH  55  69
ATOM     69  C   UNL A   1      46.199  33.018  28.478  1.00  0.00     0.058 A 
ATOM     70  C   UNL A   1      46.638  33.516  29.717  1.00  0.00     0.135 A 
ATOM     71  C   UNL A   1      46.150  33.913  27.397  1.00  0.00     0.135 A 
ATOM     72  F   UNL A   1      46.690  32.711  30.790  1.00  0.00    -0.206 F 
ATOM     73  C   UNL A   1      46.988  34.853  29.883  1.00  0.00     0.059 A 
ATOM     74  C   UNL A   1      46.525  35.248  27.533  1.00  0.00     0.059 A 
ATOM     75  F   UNL A   1      45.736  33.495  26.191  1.00  0.00    -0.206 F 
ATOM     76  C   UNL A   1      46.930  35.711  28.784  1.00  0.00     0.060 A 
BRANCH  76  77
ATOM     77  S   UNL A   1      47.403  37.437  29.015  1.00  0.00     0.124 S 
ATOM     78  O   UNL A   1      46.173  38.129  28.641  1.00  0.00    -0.237 OA
ATOM     79  O   UNL A   1      47.748  37.480  30.432  1.00  0.00    -0.237 OA
ATOM     80  O   UNL A   1      48.522  37.610  28.095  1.00  0.00    -0.744 OA
ENDBRANCH  76  77
ENDBRANCH  55  69
BRANCH  56  81
ATOM     81  C   UNL A   1      43.243  23.566  26.991  1.00  0.00     0.058 A 
ATOM     82  C   UNL A   1      43.060  23.098  25.681  1.00  0.00     0.135 A 
ATOM     83  C   UNL A   1      43.007  22.668  28.044  1.00  0.00     0.135 A 
ATOM     84  F   UNL A   1      43.268  23.920  24.642  1.00  0.00    -0.206 F 
ATOM     85  C   UNL A   1      42.640  21.797  25.423  1.00  0.00     0.059 A 
ATOM     86  C   UNL A   1      42.614  21.353  27.810  1.00  0.00     0.059 A 
ATOM     87  F   UNL A   1      43.185  23.058  29.315  1.00  0.00    -0.206 F 
ATOM     88  C   UNL A   1      42.422  20.930  26.495  1.00  0.00     0.060 A 
BRANCH  88  89
ATOM     89  S   UNL A   1      41.924  19.230  26.148  1.00  0.00     0.124 S 
ATOM     90  O   UNL A   1      42.807  18.886  25.039  1.00  0.00    -0.237 OA
ATOM     91  O   UNL A   1      42.201  18.565  27.417  1.00  0.00    -0.237 OA
ATOM     92  O   UNL A   1      40.509  19.358  25.810  1.00  0.00    -0.744 OA
ENDBRANCH  88  89
ENDBRANCH  56  81
BRANCH  68  93
ATOM     93  C   UNL A   1      49.380  26.851  26.489  1.00  0.00     0.058 A 
ATOM     94  C   UNL A   1      50.261  26.304  27.435  1.00  0.00     0.135 A 
ATOM     95  C   UNL A   1      49.807  26.914  25.153  1.00  0.00     0.135 A 
ATOM     96  F   UNL A   1      49.904  26.224  28.726  1.00  0.00    -0.206 F 
ATOM     97  C   UNL A   1      51.531  25.865  27.074  1.00  0.00     0.059 A 
ATOM     98  C   UNL A   1      51.060  26.452  24.765  1.00  0.00     0.059 A 
ATOM     99  F   UNL A   1      48.998  27.416  24.206  1.00  0.00    -0.206 F 
ATOM    100  C   UNL A   1      51.922  25.944  25.737  1.00  0.00     0.060 A 
BRANCH 100 101
ATOM    101  S   UNL A   1      53.567  25.358  25.280  1.00  0.00     0.124 S 
ATOM    102  O   UNL A   1      54.411  26.099  26.211  1.00  0.00    -0.237 OA
ATOM    103  O   UNL A   1      53.464  23.922  25.521  1.00  0.00    -0.237 OA
ATOM    104  O   UNL A   1      53.689  25.744  23.878  1.00  0.00    -0.744 OA
ENDBRANCH 100 101
ENDBRANCH  68  93
ENDBRANCH  42  43
ENDBRANCH  34  37
ENDBRANCH  32  33
ENDBRANCH  31  32
ENDBRANCH   1  31
TORSDOF 18
ENDMDL
