MODEL 1
REMARK VINA RESULT:     -11.6      0.000      0.000
REMARK SMILES COc1nc2c(cc1C(=O)NCc1ccc(C(=O)NCCCNC(=O)c3ccc(-c4c5nc(c(-c6c(F)cc(S(=O)(=O)[O-])cc6F)c6ccc([nH]6)c(-c6c(F)cc(S(=O)(=O)[O-])cc6F)c6nc(c(-c7c(F)cc(S(=O)(=O)[O-])cc7F)c7ccc4[nH]7)C=C6)C=C5)cc3)s1)CCC2
REMARK SMILES IDX 20 1 19 2 17 3 18 4 16 6 13 7 14 8 92 9 15 10 12 11 11 12
REMARK SMILES IDX 9 13 10 14 8 16 3 17 4 18 5 19 7 20 6 21 95 22 93 23 94 24
REMARK SMILES IDX 2 25 1 26 21 27 22 28 23 29 24 30 25 32 26 33 27 34 91 35
REMARK SMILES IDX 28 36 90 37 29 38 30 39 31 40 84 41 32 42 89 43 83 44 85 45
REMARK SMILES IDX 33 46 88 47 82 48 81 49 34 51 68 52 47 53 67 54 48 55 51 56
REMARK SMILES IDX 66 57 86 58 49 59 50 60 65 62 87 63 52 64 35 65 36 66 45 67
REMARK SMILES IDX 37 68 38 69 44 70 46 71 39 72 40 73 41 74 42 75 43 76 69 77
REMARK SMILES IDX 70 78 79 79 71 80 72 81 78 82 80 83 73 84 74 85 75 86 76 87
REMARK SMILES IDX 77 88 53 89 54 90 63 91 55 92 56 93 62 94 64 95 57 96 58 97
REMARK SMILES IDX 59 98 60 99 61 100
REMARK H PARENT 19 5 11 15 23 31 85 50 51 61
REMARK Flexibility Score: inf
ROOT
ATOM      1  C   UNL A   1      33.037  27.347  24.798  1.00  0.00     0.118 C 
ENDROOT
BRANCH   1   2
ATOM      2  N   UNL A   1      33.385  27.238  23.400  1.00  0.00    -0.351 N 
ATOM      3  C   UNL A   1      33.224  26.233  22.482  1.00  0.00     0.261 C 
ATOM      4  O   UNL A   1      33.717  26.485  21.376  1.00  0.00    -0.268 OA
ATOM      5  H   UNL A   1      33.822  28.041  23.036  1.00  0.00     0.163 HD
BRANCH   3   6
ATOM      6  C   UNL A   1      32.510  24.992  22.776  1.00  0.00     0.092 A 
ATOM      7  C   UNL A   1      31.963  22.548  22.719  1.00  0.00     0.025 A 
ATOM      8  C   UNL A   1      30.976  23.291  23.325  1.00  0.00     0.018 A 
ATOM      9  S   UNL A   1      33.283  23.536  22.267  1.00  0.00    -0.133 S 
ATOM     10  C   UNL A   1      31.305  24.685  23.385  1.00  0.00     0.026 A 
BRANCH   7  11
ATOM     11  C   UNL A   1      32.015  21.103  22.365  1.00  0.00     0.163 C 
BRANCH  11  12
ATOM     12  N   UNL A   1      32.214  20.253  23.515  1.00  0.00    -0.347 N 
ATOM     13  C   UNL A   1      32.780  20.353  24.751  1.00  0.00     0.257 C 
ATOM     14  O   UNL A   1      32.396  19.483  25.544  1.00  0.00    -0.269 OA
ATOM     15  H   UNL A   1      31.835  19.357  23.366  1.00  0.00     0.164 HD
BRANCH  13  16
ATOM     16  C   UNL A   1      33.823  21.302  25.242  1.00  0.00     0.102 A 
ATOM     17  C   UNL A   1      33.696  22.511  25.932  1.00  0.00     0.226 A 
ATOM     18  N   UNL A   1      34.738  23.318  26.299  1.00  0.00    -0.218 NA
ATOM     19  C   UNL A   1      35.964  22.878  25.986  1.00  0.00     0.048 A 
ATOM     20  C   UNL A   1      35.149  20.877  24.990  1.00  0.00     0.025 A 
ATOM     21  C   UNL A   1      36.215  21.670  25.367  1.00  0.00    -0.025 A 
ATOM     22  C   UNL A   1      37.246  23.592  26.308  1.00  0.00     0.057 C 
ATOM     23  C   UNL A   1      37.678  21.404  25.252  1.00  0.00     0.038 C 
ATOM     24  C   UNL A   1      38.251  22.816  25.439  1.00  0.00     0.011 C 
BRANCH  17  25
ATOM     25  O   UNL A   1      32.490  23.004  26.332  1.00  0.00    -0.480 OA
ATOM     26  C   UNL A   1      32.662  24.345  26.791  1.00  0.00     0.280 C 
ENDBRANCH  17  25
ENDBRANCH  13  16
ENDBRANCH  11  12
ENDBRANCH   7  11
ENDBRANCH   3   6
ENDBRANCH   1   2
BRANCH   1  27
ATOM     27  C   UNL A   1      34.164  27.993  25.599  1.00  0.00     0.042 C 
BRANCH  27  28
ATOM     28  C   UNL A   1      33.765  28.253  27.052  1.00  0.00     0.118 C 
BRANCH  28  29
ATOM     29  N   UNL A   1      33.604  29.680  27.310  1.00  0.00    -0.352 N 
ATOM     30  C   UNL A   1      34.410  30.524  28.032  1.00  0.00     0.251 C 
ATOM     31  H   UNL A   1      32.806  30.096  26.909  1.00  0.00     0.163 HD
ATOM     32  O   UNL A   1      33.977  31.599  28.430  1.00  0.00    -0.269 OA
BRANCH  30  33
ATOM     33  C   UNL A   1      35.803  30.126  28.306  1.00  0.00     0.039 A 
ATOM     34  C   UNL A   1      36.152  29.668  29.577  1.00  0.00     0.014 A 
ATOM     35  C   UNL A   1      36.766  30.244  27.298  1.00  0.00     0.014 A 
ATOM     36  C   UNL A   1      37.470  29.285  29.827  1.00  0.00     0.010 A 
ATOM     37  C   UNL A   1      38.061  29.803  27.529  1.00  0.00     0.010 A 
ATOM     38  C   UNL A   1      38.427  29.338  28.800  1.00  0.00    -0.014 A 
BRANCH  38  39
ATOM     39  C   UNL A   1      39.838  28.968  29.049  1.00  0.00     0.031 A 
ATOM     40  C   UNL A   1      40.772  29.991  29.632  1.00  0.00     0.074 A 
ATOM     41  C   UNL A   1      40.280  27.743  28.708  1.00  0.00     0.049 A 
ATOM     42  N   UNL A   1      42.051  29.894  29.876  1.00  0.00    -0.248 NA
ATOM     43  C   UNL A   1      40.195  31.306  29.968  1.00  0.00     0.031 C 
ATOM     44  C   UNL A   1      39.463  26.687  28.104  1.00  0.00     0.029 A 
ATOM     45  N   UNL A   1      41.526  27.180  28.811  1.00  0.00    -0.354 N 
ATOM     46  C   UNL A   1      42.430  31.125  30.395  1.00  0.00     0.074 A 
ATOM     47  C   UNL A   1      41.263  31.977  30.374  1.00  0.00     0.031 C 
ATOM     48  C   UNL A   1      40.227  25.600  27.906  1.00  0.00     0.029 A 
ATOM     49  C   UNL A   1      41.591  25.890  28.339  1.00  0.00     0.049 A 
ATOM     50  H   UNL A   1      42.301  27.654  29.188  1.00  0.00     0.167 HD
ATOM     51  C   UNL A   1      43.638  31.500  30.876  1.00  0.00     0.037 A 
ATOM     52  C   UNL A   1      42.636  25.044  28.262  1.00  0.00     0.037 A 
ATOM     53  C   UNL A   1      44.787  30.635  30.911  1.00  0.00     0.049 A 
ATOM     54  C   UNL A   1      43.978  25.500  28.773  1.00  0.00     0.074 A 
ATOM     55  C   UNL A   1      46.046  30.903  31.416  1.00  0.00     0.029 A 
ATOM     56  N   UNL A   1      44.815  29.336  30.425  1.00  0.00    -0.354 N 
ATOM     57  N   UNL A   1      44.306  26.649  29.316  1.00  0.00    -0.248 NA
ATOM     58  C   UNL A   1      45.091  24.546  28.670  1.00  0.00     0.031 C 
ATOM     59  C   UNL A   1      46.849  29.781  31.195  1.00  0.00     0.029 A 
ATOM     60  C   UNL A   1      46.077  28.796  30.599  1.00  0.00     0.049 A 
ATOM     61  H   UNL A   1      44.051  28.869  30.017  1.00  0.00     0.167 HD
ATOM     62  C   UNL A   1      45.654  26.544  29.643  1.00  0.00     0.074 A 
ATOM     63  C   UNL A   1      46.077  25.216  29.249  1.00  0.00     0.031 C 
ATOM     64  C   UNL A   1      46.470  27.464  30.214  1.00  0.00     0.037 A 
BRANCH  51  65
ATOM     65  C   UNL A   1      43.779  32.888  31.430  1.00  0.00     0.058 A 
ATOM     66  C   UNL A   1      44.192  33.957  30.618  1.00  0.00     0.135 A 
ATOM     67  C   UNL A   1      43.419  33.172  32.756  1.00  0.00     0.135 A 
ATOM     68  F   UNL A   1      44.570  33.737  29.350  1.00  0.00    -0.206 F 
ATOM     69  C   UNL A   1      44.242  35.259  31.103  1.00  0.00     0.059 A 
ATOM     70  C   UNL A   1      43.436  34.472  33.255  1.00  0.00     0.059 A 
ATOM     71  F   UNL A   1      43.025  32.185  33.576  1.00  0.00    -0.206 F 
ATOM     72  C   UNL A   1      43.851  35.509  32.419  1.00  0.00     0.060 A 
BRANCH  72  73
ATOM     73  S   UNL A   1      43.866  37.215  33.008  1.00  0.00     0.124 S 
ATOM     74  O   UNL A   1      43.723  37.956  31.758  1.00  0.00    -0.237 OA
ATOM     75  O   UNL A   1      42.710  37.244  33.898  1.00  0.00    -0.237 OA
ATOM     76  O   UNL A   1      45.164  37.339  33.664  1.00  0.00    -0.744 OA
ENDBRANCH  72  73
ENDBRANCH  51  65
BRANCH  52  77
ATOM     77  C   UNL A   1      42.457  23.677  27.701  1.00  0.00     0.058 A 
ATOM     78  C   UNL A   1      42.368  22.559  28.543  1.00  0.00     0.135 A 
ATOM     79  C   UNL A   1      42.380  23.458  26.316  1.00  0.00     0.135 A 
ATOM     80  F   UNL A   1      42.440  22.715  29.874  1.00  0.00    -0.206 F 
ATOM     81  C   UNL A   1      42.235  21.271  28.035  1.00  0.00     0.059 A 
ATOM     82  C   UNL A   1      42.220  22.182  25.785  1.00  0.00     0.059 A 
ATOM     83  F   UNL A   1      42.443  24.495  25.466  1.00  0.00    -0.206 F 
ATOM     84  C   UNL A   1      42.161  21.093  26.653  1.00  0.00     0.060 A 
BRANCH  84  85
ATOM     85  S   UNL A   1      41.966  19.417  26.008  1.00  0.00     0.124 S 
ATOM     86  O   UNL A   1      40.529  19.358  25.772  1.00  0.00    -0.237 OA
ATOM     87  O   UNL A   1      42.809  19.450  24.816  1.00  0.00    -0.237 OA
ATOM     88  O   UNL A   1      42.463  18.579  27.095  1.00  0.00    -0.744 OA
ENDBRANCH  84  85
ENDBRANCH  52  77
BRANCH  64  89
ATOM     89  C   UNL A   1      47.895  27.067  30.477  1.00  0.00     0.058 A 
ATOM     90  C   UNL A   1      48.930  27.425  29.600  1.00  0.00     0.135 A 
ATOM     91  C   UNL A   1      48.239  26.402  31.665  1.00  0.00     0.135 A 
ATOM     92  F   UNL A   1      48.653  28.057  28.449  1.00  0.00    -0.206 F 
ATOM     93  C   UNL A   1      50.257  27.127  29.886  1.00  0.00     0.059 A 
ATOM     94  C   UNL A   1      49.563  26.119  31.986  1.00  0.00     0.059 A 
ATOM     95  F   UNL A   1      47.287  26.049  32.543  1.00  0.00    -0.206 F 
ATOM     96  C   UNL A   1      50.565  26.481  31.086  1.00  0.00     0.060 A 
BRANCH  96  97
ATOM     97  S   UNL A   1      52.298  26.152  31.466  1.00  0.00     0.124 S 
ATOM     98  O   UNL A   1      52.217  24.837  32.096  1.00  0.00    -0.237 OA
ATOM     99  O   UNL A   1      52.917  26.185  30.145  1.00  0.00    -0.237 OA
ATOM    100  O   UNL A   1      52.668  27.251  32.353  1.00  0.00    -0.744 OA
ENDBRANCH  96  97
ENDBRANCH  64  89
ENDBRANCH  38  39
ENDBRANCH  30  33
ENDBRANCH  28  29
ENDBRANCH  27  28
ENDBRANCH   1  27
TORSDOF 17
ENDMDL
MODEL 2
REMARK VINA RESULT:     -11.6      2.727      3.690
REMARK SMILES COc1nc2c(cc1C(=O)NCc1ccc(C(=O)NCCCNC(=O)c3ccc(-c4c5nc(c(-c6c(F)cc(S(=O)(=O)[O-])cc6F)c6ccc([nH]6)c(-c6c(F)cc(S(=O)(=O)[O-])cc6F)c6nc(c(-c7c(F)cc(S(=O)(=O)[O-])cc7F)c7ccc4[nH]7)C=C6)C=C5)cc3)s1)CCC2
REMARK SMILES IDX 20 1 19 2 17 3 18 4 16 6 13 7 14 8 92 9 15 10 12 11 11 12
REMARK SMILES IDX 9 13 10 14 8 16 3 17 4 18 5 19 7 20 6 21 95 22 93 23 94 24
REMARK SMILES IDX 2 25 1 26 21 27 22 28 23 29 24 30 25 32 26 33 27 34 91 35
REMARK SMILES IDX 28 36 90 37 29 38 30 39 31 40 84 41 32 42 89 43 83 44 85 45
REMARK SMILES IDX 33 46 88 47 82 48 81 49 34 51 68 52 47 53 67 54 48 55 51 56
REMARK SMILES IDX 66 57 86 58 49 59 50 60 65 62 87 63 52 64 35 65 36 66 45 67
REMARK SMILES IDX 37 68 38 69 44 70 46 71 39 72 40 73 41 74 42 75 43 76 69 77
REMARK SMILES IDX 70 78 79 79 71 80 72 81 78 82 80 83 73 84 74 85 75 86 76 87
REMARK SMILES IDX 77 88 53 89 54 90 63 91 55 92 56 93 62 94 64 95 57 96 58 97
REMARK SMILES IDX 59 98 60 99 61 100
REMARK H PARENT 19 5 11 15 23 31 85 50 51 61
REMARK Flexibility Score: inf
ROOT
ATOM      1  C   UNL A   1      33.144  29.840  26.357  1.00  0.00     0.118 C 
ENDROOT
BRANCH   1   2
ATOM      2  N   UNL A   1      33.561  29.722  24.979  1.00  0.00    -0.351 N 
ATOM      3  C   UNL A   1      33.146  28.914  23.952  1.00  0.00     0.261 C 
ATOM      4  O   UNL A   1      33.797  29.060  22.911  1.00  0.00    -0.268 OA
ATOM      5  H   UNL A   1      34.282  30.343  24.729  1.00  0.00     0.163 HD
BRANCH   3   6
ATOM      6  C   UNL A   1      32.020  27.990  24.071  1.00  0.00     0.092 A 
ATOM      7  C   UNL A   1      30.805  25.805  24.216  1.00  0.00     0.025 A 
ATOM      8  C   UNL A   1      29.948  26.871  24.070  1.00  0.00     0.018 A 
ATOM      9  S   UNL A   1      32.427  26.333  24.328  1.00  0.00    -0.133 S 
ATOM     10  C   UNL A   1      30.644  28.123  24.018  1.00  0.00     0.026 A 
BRANCH   7  11
ATOM     11  C   UNL A   1      30.543  24.339  24.228  1.00  0.00     0.163 C 
BRANCH  11  12
ATOM     12  N   UNL A   1      30.616  23.770  25.553  1.00  0.00    -0.347 N 
ATOM     13  C   UNL A   1      31.560  23.181  26.341  1.00  0.00     0.257 C 
ATOM     14  O   UNL A   1      31.268  23.176  27.544  1.00  0.00    -0.269 OA
ATOM     15  H   UNL A   1      29.748  23.822  26.013  1.00  0.00     0.164 HD
BRANCH  13  16
ATOM     16  C   UNL A   1      32.830  22.501  25.953  1.00  0.00     0.102 A 
ATOM     17  C   UNL A   1      33.053  21.215  25.452  1.00  0.00     0.226 A 
ATOM     18  N   UNL A   1      34.283  20.686  25.165  1.00  0.00    -0.218 NA
ATOM     19  C   UNL A   1      35.333  21.495  25.362  1.00  0.00     0.048 A 
ATOM     20  C   UNL A   1      33.981  23.313  26.088  1.00  0.00     0.025 A 
ATOM     21  C   UNL A   1      35.230  22.804  25.788  1.00  0.00    -0.025 A 
ATOM     22  C   UNL A   1      36.766  21.129  25.098  1.00  0.00     0.057 C 
ATOM     23  C   UNL A   1      36.557  23.484  25.805  1.00  0.00     0.038 C 
ATOM     24  C   UNL A   1      37.507  22.278  25.804  1.00  0.00     0.011 C 
BRANCH  17  25
ATOM     25  O   UNL A   1      32.038  20.348  25.176  1.00  0.00    -0.480 OA
ATOM     26  C   UNL A   1      32.423  19.506  24.090  1.00  0.00     0.280 C 
ENDBRANCH  17  25
ENDBRANCH  13  16
ENDBRANCH  11  12
ENDBRANCH   7  11
ENDBRANCH   3   6
ENDBRANCH   1   2
BRANCH   1  27
ATOM     27  C   UNL A   1      33.914  28.874  27.253  1.00  0.00     0.042 C 
BRANCH  27  28
ATOM     28  C   UNL A   1      35.323  29.377  27.570  1.00  0.00     0.118 C 
BRANCH  28  29
ATOM     29  N   UNL A   1      35.327  30.228  28.754  1.00  0.00    -0.352 N 
ATOM     30  C   UNL A   1      36.302  30.377  29.708  1.00  0.00     0.251 C 
ATOM     31  H   UNL A   1      34.517  30.773  28.888  1.00  0.00     0.163 HD
ATOM     32  O   UNL A   1      36.029  30.866  30.798  1.00  0.00    -0.269 OA
BRANCH  30  33
ATOM     33  C   UNL A   1      37.680  29.957  29.397  1.00  0.00     0.039 A 
ATOM     34  C   UNL A   1      38.532  29.565  30.430  1.00  0.00     0.014 A 
ATOM     35  C   UNL A   1      38.129  29.987  28.072  1.00  0.00     0.014 A 
ATOM     36  C   UNL A   1      39.833  29.160  30.128  1.00  0.00     0.010 A 
ATOM     37  C   UNL A   1      39.401  29.523  27.766  1.00  0.00     0.010 A 
ATOM     38  C   UNL A   1      40.268  29.124  28.792  1.00  0.00    -0.014 A 
BRANCH  38  39
ATOM     39  C   UNL A   1      41.653  28.730  28.449  1.00  0.00     0.031 A 
ATOM     40  C   UNL A   1      42.727  29.780  28.416  1.00  0.00     0.074 A 
ATOM     41  C   UNL A   1      41.924  27.452  28.125  1.00  0.00     0.049 A 
ATOM     42  N   UNL A   1      43.985  29.661  28.087  1.00  0.00    -0.248 NA
ATOM     43  C   UNL A   1      42.330  31.152  28.782  1.00  0.00     0.031 C 
ATOM     44  C   UNL A   1      40.946  26.361  28.094  1.00  0.00     0.029 A 
ATOM     45  N   UNL A   1      43.100  26.854  27.751  1.00  0.00    -0.354 N 
ATOM     46  C   UNL A   1      44.529  30.934  28.210  1.00  0.00     0.074 A 
ATOM     47  C   UNL A   1      43.454  31.825  28.582  1.00  0.00     0.031 C 
ATOM     48  C   UNL A   1      41.567  25.225  27.736  1.00  0.00     0.029 A 
ATOM     49  C   UNL A   1      42.977  25.511  27.484  1.00  0.00     0.049 A 
ATOM     50  H   UNL A   1      43.952  27.341  27.681  1.00  0.00     0.167 HD
ATOM     51  C   UNL A   1      45.817  31.316  28.058  1.00  0.00     0.037 A 
ATOM     52  C   UNL A   1      43.899  24.617  27.078  1.00  0.00     0.037 A 
ATOM     53  C   UNL A   1      46.882  30.414  27.708  1.00  0.00     0.049 A 
ATOM     54  C   UNL A   1      45.320  25.078  26.882  1.00  0.00     0.074 A 
ATOM     55  C   UNL A   1      48.230  30.693  27.569  1.00  0.00     0.029 A 
ATOM     56  N   UNL A   1      46.720  29.062  27.446  1.00  0.00    -0.354 N 
ATOM     57  N   UNL A   1      45.830  26.275  27.060  1.00  0.00    -0.248 NA
ATOM     58  C   UNL A   1      46.293  24.071  26.438  1.00  0.00     0.031 C 
ATOM     59  C   UNL A   1      48.877  29.516  27.179  1.00  0.00     0.029 A 
ATOM     60  C   UNL A   1      47.941  28.496  27.125  1.00  0.00     0.049 A 
ATOM     61  H   UNL A   1      45.864  28.578  27.483  1.00  0.00     0.167 HD
ATOM     62  C   UNL A   1      47.187  26.156  26.776  1.00  0.00     0.074 A 
ATOM     63  C   UNL A   1      47.420  24.770  26.427  1.00  0.00     0.031 C 
ATOM     64  C   UNL A   1      48.152  27.108  26.797  1.00  0.00     0.037 A 
BRANCH  51  65
ATOM     65  C   UNL A   1      46.159  32.759  28.293  1.00  0.00     0.058 A 
ATOM     66  C   UNL A   1      46.107  33.699  27.251  1.00  0.00     0.135 A 
ATOM     67  C   UNL A   1      46.459  33.225  29.582  1.00  0.00     0.135 A 
ATOM     68  F   UNL A   1      45.849  33.303  25.995  1.00  0.00    -0.206 F 
ATOM     69  C   UNL A   1      46.339  35.051  27.481  1.00  0.00     0.059 A 
ATOM     70  C   UNL A   1      46.668  34.577  29.840  1.00  0.00     0.059 A 
ATOM     71  F   UNL A   1      46.530  32.366  30.611  1.00  0.00    -0.206 F 
ATOM     72  C   UNL A   1      46.607  35.481  28.780  1.00  0.00     0.060 A 
BRANCH  72  73
ATOM     73  S   UNL A   1      46.845  37.248  29.065  1.00  0.00     0.124 S 
ATOM     74  O   UNL A   1      46.676  37.786  27.718  1.00  0.00    -0.237 OA
ATOM     75  O   UNL A   1      45.775  37.555  30.008  1.00  0.00    -0.237 OA
ATOM     76  O   UNL A   1      48.198  37.328  29.606  1.00  0.00    -0.744 OA
ENDBRANCH  72  73
ENDBRANCH  51  65
BRANCH  52  77
ATOM     77  C   UNL A   1      43.520  23.196  26.850  1.00  0.00     0.058 A 
ATOM     78  C   UNL A   1      43.446  22.670  25.551  1.00  0.00     0.135 A 
ATOM     79  C   UNL A   1      43.216  22.339  27.919  1.00  0.00     0.135 A 
ATOM     80  F   UNL A   1      43.723  23.450  24.496  1.00  0.00    -0.206 F 
ATOM     81  C   UNL A   1      43.061  21.354  25.317  1.00  0.00     0.059 A 
ATOM     82  C   UNL A   1      42.854  21.011  27.712  1.00  0.00     0.059 A 
ATOM     83  F   UNL A   1      43.287  22.786  29.182  1.00  0.00    -0.206 F 
ATOM     84  C   UNL A   1      42.767  20.532  26.406  1.00  0.00     0.060 A 
BRANCH  84  85
ATOM     85  S   UNL A   1      42.288  18.819  26.089  1.00  0.00     0.124 S 
ATOM     86  O   UNL A   1      43.228  18.441  25.040  1.00  0.00    -0.237 OA
ATOM     87  O   UNL A   1      42.501  18.197  27.392  1.00  0.00    -0.237 OA
ATOM     88  O   UNL A   1      40.893  18.931  25.676  1.00  0.00    -0.744 OA
ENDBRANCH  84  85
ENDBRANCH  52  77
BRANCH  64  89
ATOM     89  C   UNL A   1      49.555  26.688  26.464  1.00  0.00     0.058 A 
ATOM     90  C   UNL A   1      50.362  26.022  27.397  1.00  0.00     0.135 A 
ATOM     91  C   UNL A   1      50.063  26.871  25.167  1.00  0.00     0.135 A 
ATOM     92  F   UNL A   1      49.925  25.826  28.652  1.00  0.00    -0.206 F 
ATOM     93  C   UNL A   1      51.631  25.562  27.061  1.00  0.00     0.059 A 
ATOM     94  C   UNL A   1      51.317  26.394  24.800  1.00  0.00     0.059 A 
ATOM     95  F   UNL A   1      49.325  27.492  24.233  1.00  0.00    -0.206 F 
ATOM     96  C   UNL A   1      52.096  25.745  25.758  1.00  0.00     0.060 A 
BRANCH  96  97
ATOM     97  S   UNL A   1      53.722  25.092  25.324  1.00  0.00     0.124 S 
ATOM     98  O   UNL A   1      54.565  25.699  26.349  1.00  0.00    -0.237 OA
ATOM     99  O   UNL A   1      53.518  23.652  25.441  1.00  0.00    -0.237 OA
ATOM    100  O   UNL A   1      53.935  25.582  23.965  1.00  0.00    -0.744 OA
ENDBRANCH  96  97
ENDBRANCH  64  89
ENDBRANCH  38  39
ENDBRANCH  30  33
ENDBRANCH  28  29
ENDBRANCH  27  28
ENDBRANCH   1  27
TORSDOF 17
ENDMDL
MODEL 3
REMARK VINA RESULT:     -11.3      3.149      9.113
REMARK SMILES COc1nc2c(cc1C(=O)NCc1ccc(C(=O)NCCCNC(=O)c3ccc(-c4c5nc(c(-c6c(F)cc(S(=O)(=O)[O-])cc6F)c6ccc([nH]6)c(-c6c(F)cc(S(=O)(=O)[O-])cc6F)c6nc(c(-c7c(F)cc(S(=O)(=O)[O-])cc7F)c7ccc4[nH]7)C=C6)C=C5)cc3)s1)CCC2
REMARK SMILES IDX 20 1 19 2 17 3 18 4 16 6 13 7 14 8 92 9 15 10 12 11 11 12
REMARK SMILES IDX 9 13 10 14 8 16 3 17 4 18 5 19 7 20 6 21 95 22 93 23 94 24
REMARK SMILES IDX 2 25 1 26 21 27 22 28 23 29 24 30 25 32 26 33 27 34 91 35
REMARK SMILES IDX 28 36 90 37 29 38 30 39 31 40 84 41 32 42 89 43 83 44 85 45
REMARK SMILES IDX 33 46 88 47 82 48 81 49 34 51 68 52 47 53 67 54 48 55 51 56
REMARK SMILES IDX 66 57 86 58 49 59 50 60 65 62 87 63 52 64 35 65 36 66 45 67
REMARK SMILES IDX 37 68 38 69 44 70 46 71 39 72 40 73 41 74 42 75 43 76 69 77
REMARK SMILES IDX 70 78 79 79 71 80 72 81 78 82 80 83 73 84 74 85 75 86 76 87
REMARK SMILES IDX 77 88 53 89 54 90 63 91 55 92 56 93 62 94 64 95 57 96 58 97
REMARK SMILES IDX 59 98 60 99 61 100
REMARK H PARENT 19 5 11 15 23 31 85 50 51 61
REMARK Flexibility Score: inf
ROOT
ATOM      1  C   UNL A   1      36.866  20.941  24.789  1.00  0.00     0.118 C 
ENDROOT
BRANCH   1   2
ATOM      2  N   UNL A   1      36.059  21.090  25.978  1.00  0.00    -0.351 N 
ATOM      3  C   UNL A   1      34.746  21.432  26.169  1.00  0.00     0.261 C 
ATOM      4  O   UNL A   1      34.423  21.521  27.360  1.00  0.00    -0.268 OA
ATOM      5  H   UNL A   1      36.548  20.910  26.813  1.00  0.00     0.163 HD
BRANCH   3   6
ATOM      6  C   UNL A   1      33.809  21.641  25.067  1.00  0.00     0.092 A 
ATOM      7  C   UNL A   1      32.193  22.844  23.579  1.00  0.00     0.025 A 
ATOM      8  C   UNL A   1      32.233  21.493  23.323  1.00  0.00     0.018 A 
ATOM      9  S   UNL A   1      33.324  23.273  24.787  1.00  0.00    -0.133 S 
ATOM     10  C   UNL A   1      33.181  20.811  24.154  1.00  0.00     0.026 A 
BRANCH   7  11
ATOM     11  C   UNL A   1      31.313  23.914  23.031  1.00  0.00     0.163 C 
BRANCH  11  12
ATOM     12  N   UNL A   1      32.002  24.784  22.108  1.00  0.00    -0.347 N 
ATOM     13  C   UNL A   1      32.604  26.006  22.140  1.00  0.00     0.257 C 
ATOM     14  O   UNL A   1      33.385  26.200  21.198  1.00  0.00    -0.269 OA
ATOM     15  H   UNL A   1      32.052  24.384  21.209  1.00  0.00     0.164 HD
BRANCH  13  16
ATOM     16  C   UNL A   1      32.403  27.138  23.093  1.00  0.00     0.102 A 
ATOM     17  C   UNL A   1      31.461  28.170  23.089  1.00  0.00     0.226 A 
ATOM     18  N   UNL A   1      31.401  29.182  24.008  1.00  0.00    -0.218 NA
ATOM     19  C   UNL A   1      32.309  29.139  24.993  1.00  0.00     0.048 A 
ATOM     20  C   UNL A   1      33.298  27.130  24.190  1.00  0.00     0.025 A 
ATOM     21  C   UNL A   1      33.243  28.134  25.137  1.00  0.00    -0.025 A 
ATOM     22  C   UNL A   1      32.415  30.134  26.114  1.00  0.00     0.057 C 
ATOM     23  C   UNL A   1      34.040  28.297  26.387  1.00  0.00     0.038 C 
ATOM     24  C   UNL A   1      33.790  29.779  26.705  1.00  0.00     0.011 C 
BRANCH  17  25
ATOM     25  O   UNL A   1      30.474  28.259  22.153  1.00  0.00    -0.480 OA
ATOM     26  C   UNL A   1      30.143  29.632  21.950  1.00  0.00     0.280 C 
ENDBRANCH  17  25
ENDBRANCH  13  16
ENDBRANCH  11  12
ENDBRANCH   7  11
ENDBRANCH   3   6
ENDBRANCH   1   2
BRANCH   1  27
ATOM     27  C   UNL A   1      37.979  19.919  25.000  1.00  0.00     0.042 C 
BRANCH  27  28
ATOM     28  C   UNL A   1      39.112  20.470  25.867  1.00  0.00     0.118 C 
BRANCH  28  29
ATOM     29  N   UNL A   1      40.165  19.477  26.056  1.00  0.00    -0.352 N 
ATOM     30  C   UNL A   1      41.523  19.661  26.128  1.00  0.00     0.251 C 
ATOM     31  H   UNL A   1      39.858  18.545  26.145  1.00  0.00     0.163 HD
ATOM     32  O   UNL A   1      42.283  18.715  25.957  1.00  0.00    -0.269 OA
BRANCH  30  33
ATOM     33  C   UNL A   1      42.050  21.004  26.430  1.00  0.00     0.039 A 
ATOM     34  C   UNL A   1      42.287  21.371  27.755  1.00  0.00     0.014 A 
ATOM     35  C   UNL A   1      42.276  21.908  25.386  1.00  0.00     0.014 A 
ATOM     36  C   UNL A   1      42.794  22.641  28.033  1.00  0.00     0.010 A 
ATOM     37  C   UNL A   1      42.841  23.147  25.659  1.00  0.00     0.010 A 
ATOM     38  C   UNL A   1      43.086  23.529  26.984  1.00  0.00    -0.014 A 
BRANCH  38  39
ATOM     39  C   UNL A   1      43.594  24.892  27.255  1.00  0.00     0.031 A 
ATOM     40  C   UNL A   1      45.052  25.188  27.042  1.00  0.00     0.074 A 
ATOM     41  C   UNL A   1      42.759  25.835  27.733  1.00  0.00     0.049 A 
ATOM     42  N   UNL A   1      45.710  26.292  27.271  1.00  0.00    -0.248 NA
ATOM     43  C   UNL A   1      45.885  24.089  26.522  1.00  0.00     0.031 C 
ATOM     44  C   UNL A   1      41.333  25.642  28.006  1.00  0.00     0.029 A 
ATOM     45  N   UNL A   1      42.990  27.141  28.081  1.00  0.00    -0.354 N 
ATOM     46  C   UNL A   1      47.027  26.025  26.920  1.00  0.00     0.074 A 
ATOM     47  C   UNL A   1      47.091  24.637  26.522  1.00  0.00     0.031 C 
ATOM     48  C   UNL A   1      40.814  26.793  28.465  1.00  0.00     0.029 A 
ATOM     49  C   UNL A   1      41.873  27.795  28.547  1.00  0.00     0.049 A 
ATOM     50  H   UNL A   1      43.872  27.570  28.005  1.00  0.00     0.167 HD
ATOM     51  C   UNL A   1      48.081  26.873  26.901  1.00  0.00     0.037 A 
ATOM     52  C   UNL A   1      41.727  29.057  28.992  1.00  0.00     0.037 A 
ATOM     53  C   UNL A   1      47.999  28.258  27.279  1.00  0.00     0.049 A 
ATOM     54  C   UNL A   1      42.927  29.970  28.993  1.00  0.00     0.074 A 
ATOM     55  C   UNL A   1      48.999  29.213  27.256  1.00  0.00     0.029 A 
ATOM     56  N   UNL A   1      46.853  28.885  27.744  1.00  0.00    -0.354 N 
ATOM     57  N   UNL A   1      44.154  29.718  28.602  1.00  0.00    -0.248 NA
ATOM     58  C   UNL A   1      42.723  31.338  29.487  1.00  0.00     0.031 C 
ATOM     59  C   UNL A   1      48.467  30.408  27.750  1.00  0.00     0.029 A 
ATOM     60  C   UNL A   1      47.125  30.210  28.032  1.00  0.00     0.049 A 
ATOM     61  H   UNL A   1      45.976  28.450  27.853  1.00  0.00     0.167 HD
ATOM     62  C   UNL A   1      44.860  30.903  28.777  1.00  0.00     0.074 A 
ATOM     63  C   UNL A   1      43.921  31.875  29.297  1.00  0.00     0.031 C 
ATOM     64  C   UNL A   1      46.168  31.164  28.534  1.00  0.00     0.037 A 
BRANCH  51  65
ATOM     65  C   UNL A   1      49.406  26.343  26.432  1.00  0.00     0.058 A 
ATOM     66  C   UNL A   1      49.883  26.616  25.139  1.00  0.00     0.135 A 
ATOM     67  C   UNL A   1      50.243  25.631  27.304  1.00  0.00     0.135 A 
ATOM     68  F   UNL A   1      49.113  27.272  24.258  1.00  0.00    -0.206 F 
ATOM     69  C   UNL A   1      51.145  26.201  24.730  1.00  0.00     0.059 A 
ATOM     70  C   UNL A   1      51.521  25.229  26.924  1.00  0.00     0.059 A 
ATOM     71  F   UNL A   1      49.831  25.337  28.547  1.00  0.00    -0.206 F 
ATOM     72  C   UNL A   1      51.961  25.518  25.633  1.00  0.00     0.060 A 
BRANCH  72  73
ATOM     73  S   UNL A   1      53.619  25.043  25.099  1.00  0.00     0.124 S 
ATOM     74  O   UNL A   1      53.626  25.513  23.716  1.00  0.00    -0.237 OA
ATOM     75  O   UNL A   1      54.466  25.788  26.024  1.00  0.00    -0.237 OA
ATOM     76  O   UNL A   1      53.630  23.594  25.267  1.00  0.00    -0.744 OA
ENDBRANCH  72  73
ENDBRANCH  51  65
BRANCH  52  77
ATOM     77  C   UNL A   1      40.399  29.543  29.454  1.00  0.00     0.058 A 
ATOM     78  C   UNL A   1      39.381  29.840  28.535  1.00  0.00     0.135 A 
ATOM     79  C   UNL A   1      40.120  29.728  30.818  1.00  0.00     0.135 A 
ATOM     80  F   UNL A   1      39.599  29.684  27.221  1.00  0.00    -0.206 F 
ATOM     81  C   UNL A   1      38.145  30.327  28.946  1.00  0.00     0.059 A 
ATOM     82  C   UNL A   1      38.882  30.188  31.256  1.00  0.00     0.059 A 
ATOM     83  F   UNL A   1      41.052  29.443  31.740  1.00  0.00    -0.206 F 
ATOM     84  C   UNL A   1      37.905  30.498  30.311  1.00  0.00     0.060 A 
BRANCH  84  85
ATOM     85  S   UNL A   1      36.288  31.110  30.832  1.00  0.00     0.124 S 
ATOM     86  O   UNL A   1      36.608  32.471  31.246  1.00  0.00    -0.237 OA
ATOM     87  O   UNL A   1      35.505  30.982  29.607  1.00  0.00    -0.237 OA
ATOM     88  O   UNL A   1      35.912  30.196  31.907  1.00  0.00    -0.744 OA
ENDBRANCH  84  85
ENDBRANCH  52  77
BRANCH  64  89
ATOM     89  C   UNL A   1      46.663  32.558  28.797  1.00  0.00     0.058 A 
ATOM     90  C   UNL A   1      46.609  33.554  27.811  1.00  0.00     0.135 A 
ATOM     91  C   UNL A   1      47.110  32.924  30.077  1.00  0.00     0.135 A 
ATOM     92  F   UNL A   1      46.194  33.255  26.570  1.00  0.00    -0.206 F 
ATOM     93  C   UNL A   1      46.992  34.863  28.081  1.00  0.00     0.059 A 
ATOM     94  C   UNL A   1      47.470  34.233  30.378  1.00  0.00     0.059 A 
ATOM     95  F   UNL A   1      47.169  32.011  31.060  1.00  0.00    -0.206 F 
ATOM     96  C   UNL A   1      47.413  35.195  29.370  1.00  0.00     0.060 A 
BRANCH  96  97
ATOM     97  S   UNL A   1      47.853  36.911  29.717  1.00  0.00     0.124 S 
ATOM     98  O   UNL A   1      47.583  37.549  28.432  1.00  0.00    -0.237 OA
ATOM     99  O   UNL A   1      46.937  37.253  30.799  1.00  0.00    -0.237 OA
ATOM    100  O   UNL A   1      49.261  36.832  30.095  1.00  0.00    -0.744 OA
ENDBRANCH  96  97
ENDBRANCH  64  89
ENDBRANCH  38  39
ENDBRANCH  30  33
ENDBRANCH  28  29
ENDBRANCH  27  28
ENDBRANCH   1  27
TORSDOF 17
ENDMDL
