MODEL 1
REMARK VINA RESULT:     -10.6      0.000      0.000
REMARK SMILES O=C(NCCCNC(=O)c1cn2ccccc2n1)c1ccc(-c2c3nc(c(-c4c(F)cc(S(=O)(=O)[O-])cc4F)c4ccc([nH]4)c(-c4c(F)cc(S(=O)(=O)[O-])cc4F)c4nc(c(-c5c(F)cc(S(=O)(=O)[O-])cc5F)c5ccc2[nH]5)C=C4)C=C3)cc1
REMARK SMILES IDX 1 1 2 2 3 3 19 5 20 6 84 7 21 8 83 9 22 10 23 11 24 12 77 13
REMARK SMILES IDX 25 14 82 15 76 16 78 17 26 18 81 19 75 20 74 21 27 23 61 24
REMARK SMILES IDX 40 25 60 26 41 27 44 28 59 29 79 30 42 31 43 32 58 34 80 35
REMARK SMILES IDX 45 36 28 37 29 38 38 39 30 40 31 41 37 42 39 43 32 44 33 45
REMARK SMILES IDX 34 46 35 47 36 48 62 49 63 50 72 51 64 52 65 53 71 54 73 55
REMARK SMILES IDX 66 56 67 57 68 58 69 59 70 60 46 61 47 62 56 63 48 64 49 65
REMARK SMILES IDX 55 66 57 67 50 68 51 69 52 70 53 71 54 72 4 73 5 74 6 75
REMARK SMILES IDX 7 76 8 77 9 79 10 80 11 81 18 82 12 83 17 84 13 85 16 86
REMARK SMILES IDX 14 87 15 88
REMARK H PARENT 3 4 78 22 44 33 7 78
REMARK Flexibility Score: inf
ROOT
ATOM      1  O   UNL A   1      33.558  29.299  27.390  1.00  0.00    -0.269 OA
ATOM      2  C   UNL A   1      34.285  30.181  27.840  1.00  0.00     0.251 C 
ATOM      3  N   UNL A   1      33.757  31.434  28.027  1.00  0.00    -0.352 N 
ATOM      4  H   UNL A   1      32.776  31.477  27.955  1.00  0.00     0.163 HD
ENDROOT
BRANCH   2   5
ATOM      5  C   UNL A   1      35.699  29.875  28.157  1.00  0.00     0.039 A 
ATOM      6  C   UNL A   1      36.086  29.381  29.406  1.00  0.00     0.014 A 
ATOM      7  C   UNL A   1      36.651  29.996  27.137  1.00  0.00     0.014 A 
ATOM      8  C   UNL A   1      37.431  29.108  29.665  1.00  0.00     0.010 A 
ATOM      9  C   UNL A   1      37.989  29.674  27.380  1.00  0.00     0.010 A 
ATOM     10  C   UNL A   1      38.395  29.250  28.654  1.00  0.00    -0.014 A 
BRANCH  10  11
ATOM     11  C   UNL A   1      39.818  28.925  28.925  1.00  0.00     0.031 A 
ATOM     12  C   UNL A   1      40.722  29.934  29.574  1.00  0.00     0.074 A 
ATOM     13  C   UNL A   1      40.300  27.717  28.580  1.00  0.00     0.049 A 
ATOM     14  N   UNL A   1      41.995  29.835  29.860  1.00  0.00    -0.248 NA
ATOM     15  C   UNL A   1      40.121  31.226  29.939  1.00  0.00     0.031 C 
ATOM     16  C   UNL A   1      39.532  26.656  27.927  1.00  0.00     0.029 A 
ATOM     17  N   UNL A   1      41.552  27.177  28.734  1.00  0.00    -0.354 N 
ATOM     18  C   UNL A   1      42.357  31.056  30.413  1.00  0.00     0.074 A 
ATOM     19  C   UNL A   1      41.168  31.884  30.418  1.00  0.00     0.031 C 
ATOM     20  C   UNL A   1      40.322  25.585  27.756  1.00  0.00     0.029 A 
ATOM     21  C   UNL A   1      41.658  25.893  28.259  1.00  0.00     0.049 A 
ATOM     22  H   UNL A   1      42.302  27.664  29.144  1.00  0.00     0.167 HD
ATOM     23  C   UNL A   1      43.566  31.453  30.877  1.00  0.00     0.037 A 
ATOM     24  C   UNL A   1      42.712  25.056  28.225  1.00  0.00     0.037 A 
ATOM     25  C   UNL A   1      44.744  30.628  30.901  1.00  0.00     0.049 A 
ATOM     26  C   UNL A   1      44.033  25.501  28.779  1.00  0.00     0.074 A 
ATOM     27  C   UNL A   1      46.006  30.937  31.378  1.00  0.00     0.029 A 
ATOM     28  N   UNL A   1      44.804  29.324  30.430  1.00  0.00    -0.354 N 
ATOM     29  N   UNL A   1      44.352  26.656  29.311  1.00  0.00    -0.248 NA
ATOM     30  C   UNL A   1      45.139  24.535  28.723  1.00  0.00     0.031 C 
ATOM     31  C   UNL A   1      46.833  29.822  31.186  1.00  0.00     0.029 A 
ATOM     32  C   UNL A   1      46.081  28.816  30.602  1.00  0.00     0.049 A 
ATOM     33  H   UNL A   1      44.049  28.832  30.033  1.00  0.00     0.167 HD
ATOM     34  C   UNL A   1      45.693  26.556  29.656  1.00  0.00     0.074 A 
ATOM     35  C   UNL A   1      46.126  25.223  29.283  1.00  0.00     0.031 C 
ATOM     36  C   UNL A   1      46.495  27.489  30.226  1.00  0.00     0.037 A 
BRANCH  23  37
ATOM     37  C   UNL A   1      43.668  32.860  31.383  1.00  0.00     0.058 A 
ATOM     38  C   UNL A   1      44.059  33.913  30.543  1.00  0.00     0.135 A 
ATOM     39  C   UNL A   1      43.390  33.156  32.726  1.00  0.00     0.135 A 
ATOM     40  F   UNL A   1      44.353  33.675  29.256  1.00  0.00    -0.206 F 
ATOM     41  C   UNL A   1      44.201  35.211  31.025  1.00  0.00     0.059 A 
ATOM     42  C   UNL A   1      43.515  34.448  33.226  1.00  0.00     0.059 A 
ATOM     43  F   UNL A   1      43.018  32.181  33.568  1.00  0.00    -0.206 F 
ATOM     44  C   UNL A   1      43.941  35.465  32.373  1.00  0.00     0.060 A 
BRANCH  44  45
ATOM     45  S   UNL A   1      44.167  37.139  33.011  1.00  0.00     0.124 S 
ATOM     46  O   UNL A   1      45.508  37.051  33.579  1.00  0.00    -0.237 OA
ATOM     47  O   UNL A   1      44.042  37.962  31.811  1.00  0.00    -0.237 OA
ATOM     48  O   UNL A   1      43.080  37.275  33.976  1.00  0.00    -0.744 OA
ENDBRANCH  44  45
ENDBRANCH  23  37
BRANCH  24  49
ATOM     49  C   UNL A   1      42.536  23.701  27.652  1.00  0.00     0.058 A 
ATOM     50  C   UNL A   1      42.638  23.487  26.272  1.00  0.00     0.135 A 
ATOM     51  C   UNL A   1      42.343  22.586  28.480  1.00  0.00     0.135 A 
ATOM     52  F   UNL A   1      42.820  24.528  25.445  1.00  0.00    -0.206 F 
ATOM     53  C   UNL A   1      42.571  22.209  25.728  1.00  0.00     0.059 A 
ATOM     54  C   UNL A   1      42.284  21.297  27.962  1.00  0.00     0.059 A 
ATOM     55  F   UNL A   1      42.252  22.745  29.809  1.00  0.00    -0.206 F 
ATOM     56  C   UNL A   1      42.401  21.119  26.583  1.00  0.00     0.060 A 
BRANCH  56  57
ATOM     57  S   UNL A   1      42.425  19.449  25.894  1.00  0.00     0.124 S 
ATOM     58  O   UNL A   1      43.290  19.623  24.735  1.00  0.00    -0.237 OA
ATOM     59  O   UNL A   1      42.979  18.661  26.992  1.00  0.00    -0.237 OA
ATOM     60  O   UNL A   1      41.017  19.194  25.604  1.00  0.00    -0.744 OA
ENDBRANCH  56  57
ENDBRANCH  24  49
BRANCH  36  61
ATOM     61  C   UNL A   1      47.919  27.102  30.485  1.00  0.00     0.058 A 
ATOM     62  C   UNL A   1      48.930  27.397  29.559  1.00  0.00     0.135 A 
ATOM     63  C   UNL A   1      48.285  26.479  31.687  1.00  0.00     0.135 A 
ATOM     64  F   UNL A   1      48.624  27.987  28.393  1.00  0.00    -0.206 F 
ATOM     65  C   UNL A   1      50.260  27.082  29.813  1.00  0.00     0.059 A 
ATOM     66  C   UNL A   1      49.611  26.164  31.966  1.00  0.00     0.059 A 
ATOM     67  F   UNL A   1      47.352  26.180  32.604  1.00  0.00    -0.206 F 
ATOM     68  C   UNL A   1      50.592  26.463  31.020  1.00  0.00     0.060 A 
BRANCH  68  69
ATOM     69  S   UNL A   1      52.324  26.094  31.370  1.00  0.00     0.124 S 
ATOM     70  O   UNL A   1      52.675  27.176  32.282  1.00  0.00    -0.237 OA
ATOM     71  O   UNL A   1      52.255  24.763  31.964  1.00  0.00    -0.237 OA
ATOM     72  O   UNL A   1      52.949  26.151  30.052  1.00  0.00    -0.744 OA
ENDBRANCH  68  69
ENDBRANCH  36  61
ENDBRANCH  10  11
ENDBRANCH   2   5
BRANCH   3  73
ATOM     73  C   UNL A   1      34.395  32.711  28.314  1.00  0.00     0.118 C 
BRANCH  73  74
ATOM     74  C   UNL A   1      33.428  33.888  28.201  1.00  0.00     0.042 C 
BRANCH  74  75
ATOM     75  C   UNL A   1      33.917  35.184  28.845  1.00  0.00     0.118 C 
BRANCH  75  76
ATOM     76  N   UNL A   1      33.169  35.534  30.040  1.00  0.00    -0.351 N 
ATOM     77  C   UNL A   1      33.275  35.067  31.330  1.00  0.00     0.271 C 
ATOM     78  H   UNL A   1      32.473  36.217  29.905  1.00  0.00     0.163 HD
ATOM     79  O   UNL A   1      32.384  35.369  32.122  1.00  0.00    -0.267 OA
BRANCH  77  80
ATOM     80  C   UNL A   1      34.429  34.256  31.721  1.00  0.00     0.147 A 
ATOM     81  C   UNL A   1      35.668  34.702  32.150  1.00  0.00     0.127 A 
ATOM     82  N   UNL A   1      34.379  32.872  31.798  1.00  0.00    -0.223 NA
ATOM     83  N   UNL A   1      36.399  33.580  32.433  1.00  0.00    -0.306 N 
ATOM     84  C   UNL A   1      35.567  32.491  32.212  1.00  0.00     0.137 A 
ATOM     85  C   UNL A   1      37.719  33.470  32.865  1.00  0.00     0.093 A 
ATOM     86  C   UNL A   1      36.113  31.199  32.461  1.00  0.00     0.048 A 
ATOM     87  C   UNL A   1      38.232  32.248  33.089  1.00  0.00     0.018 A 
ATOM     88  C   UNL A   1      37.387  31.080  32.880  1.00  0.00     0.005 A 
ENDBRANCH  77  80
ENDBRANCH  75  76
ENDBRANCH  74  75
ENDBRANCH  73  74
ENDBRANCH   3  73
TORSDOF 13
ENDMDL
MODEL 2
REMARK VINA RESULT:     -10.6      4.736     12.398
REMARK SMILES O=C(NCCCNC(=O)c1cn2ccccc2n1)c1ccc(-c2c3nc(c(-c4c(F)cc(S(=O)(=O)[O-])cc4F)c4ccc([nH]4)c(-c4c(F)cc(S(=O)(=O)[O-])cc4F)c4nc(c(-c5c(F)cc(S(=O)(=O)[O-])cc5F)c5ccc2[nH]5)C=C4)C=C3)cc1
REMARK SMILES IDX 1 1 2 2 3 3 19 5 20 6 84 7 21 8 83 9 22 10 23 11 24 12 77 13
REMARK SMILES IDX 25 14 82 15 76 16 78 17 26 18 81 19 75 20 74 21 27 23 61 24
REMARK SMILES IDX 40 25 60 26 41 27 44 28 59 29 79 30 42 31 43 32 58 34 80 35
REMARK SMILES IDX 45 36 28 37 29 38 38 39 30 40 31 41 37 42 39 43 32 44 33 45
REMARK SMILES IDX 34 46 35 47 36 48 62 49 63 50 72 51 64 52 65 53 71 54 73 55
REMARK SMILES IDX 66 56 67 57 68 58 69 59 70 60 46 61 47 62 56 63 48 64 49 65
REMARK SMILES IDX 55 66 57 67 50 68 51 69 52 70 53 71 54 72 4 73 5 74 6 75
REMARK SMILES IDX 7 76 8 77 9 79 10 80 11 81 18 82 12 83 17 84 13 85 16 86
REMARK SMILES IDX 14 87 15 88
REMARK H PARENT 3 4 78 22 44 33 7 78
REMARK Flexibility Score: inf
ROOT
ATOM      1  O   UNL A   1      41.230  25.577  25.012  1.00  0.00    -0.269 OA
ATOM      2  C   UNL A   1      41.035  25.136  26.142  1.00  0.00     0.251 C 
ATOM      3  N   UNL A   1      40.998  23.776  26.318  1.00  0.00    -0.352 N 
ATOM      4  H   UNL A   1      41.316  23.257  25.545  1.00  0.00     0.163 HD
ENDROOT
BRANCH   2   5
ATOM      5  C   UNL A   1      40.838  26.076  27.271  1.00  0.00     0.039 A 
ATOM      6  C   UNL A   1      39.879  25.850  28.261  1.00  0.00     0.014 A 
ATOM      7  C   UNL A   1      41.709  27.166  27.388  1.00  0.00     0.014 A 
ATOM      8  C   UNL A   1      39.723  26.763  29.307  1.00  0.00     0.010 A 
ATOM      9  C   UNL A   1      41.587  28.052  28.463  1.00  0.00     0.010 A 
ATOM     10  C   UNL A   1      40.577  27.871  29.418  1.00  0.00    -0.014 A 
BRANCH  10  11
ATOM     11  C   UNL A   1      40.430  28.819  30.551  1.00  0.00     0.031 A 
ATOM     12  C   UNL A   1      41.329  28.722  31.751  1.00  0.00     0.074 A 
ATOM     13  C   UNL A   1      39.477  29.768  30.502  1.00  0.00     0.049 A 
ATOM     14  N   UNL A   1      41.326  29.444  32.843  1.00  0.00    -0.248 NA
ATOM     15  C   UNL A   1      42.358  27.672  31.726  1.00  0.00     0.031 C 
ATOM     16  C   UNL A   1      38.527  29.956  29.405  1.00  0.00     0.029 A 
ATOM     17  N   UNL A   1      39.152  30.755  31.398  1.00  0.00    -0.354 N 
ATOM     18  C   UNL A   1      42.330  28.923  33.647  1.00  0.00     0.074 A 
ATOM     19  C   UNL A   1      42.919  27.817  32.919  1.00  0.00     0.031 C 
ATOM     20  C   UNL A   1      37.741  31.007  29.681  1.00  0.00     0.029 A 
ATOM     21  C   UNL A   1      38.110  31.549  30.985  1.00  0.00     0.049 A 
ATOM     22  H   UNL A   1      39.620  30.881  32.255  1.00  0.00     0.167 HD
ATOM     23  C   UNL A   1      42.728  29.326  34.877  1.00  0.00     0.037 A 
ATOM     24  C   UNL A   1      37.513  32.594  31.590  1.00  0.00     0.037 A 
ATOM     25  C   UNL A   1      42.166  30.439  35.594  1.00  0.00     0.049 A 
ATOM     26  C   UNL A   1      37.994  33.049  32.936  1.00  0.00     0.074 A 
ATOM     27  C   UNL A   1      42.526  30.937  36.835  1.00  0.00     0.029 A 
ATOM     28  N   UNL A   1      41.127  31.232  35.131  1.00  0.00    -0.354 N 
ATOM     29  N   UNL A   1      38.955  32.551  33.674  1.00  0.00    -0.248 NA
ATOM     30  C   UNL A   1      37.307  34.203  33.533  1.00  0.00     0.031 C 
ATOM     31  C   UNL A   1      41.694  32.027  37.127  1.00  0.00     0.029 A 
ATOM     32  C   UNL A   1      40.828  32.214  36.062  1.00  0.00     0.049 A 
ATOM     33  H   UNL A   1      40.668  31.115  34.268  1.00  0.00     0.167 HD
ATOM     34  C   UNL A   1      38.992  33.331  34.823  1.00  0.00     0.074 A 
ATOM     35  C   UNL A   1      37.964  34.342  34.679  1.00  0.00     0.031 C 
ATOM     36  C   UNL A   1      39.803  33.213  35.903  1.00  0.00     0.037 A 
BRANCH  23  37
ATOM     37  C   UNL A   1      43.822  28.535  35.528  1.00  0.00     0.058 A 
ATOM     38  C   UNL A   1      45.174  28.826  35.293  1.00  0.00     0.135 A 
ATOM     39  C   UNL A   1      43.517  27.464  36.381  1.00  0.00     0.135 A 
ATOM     40  F   UNL A   1      45.515  29.829  34.470  1.00  0.00    -0.206 F 
ATOM     41  C   UNL A   1      46.189  28.061  35.859  1.00  0.00     0.059 A 
ATOM     42  C   UNL A   1      44.516  26.693  36.966  1.00  0.00     0.059 A 
ATOM     43  F   UNL A   1      42.238  27.145  36.631  1.00  0.00    -0.206 F 
ATOM     44  C   UNL A   1      45.850  26.986  36.682  1.00  0.00     0.060 A 
BRANCH  44  45
ATOM     45  S   UNL A   1      47.164  25.966  37.382  1.00  0.00     0.124 S 
ATOM     46  O   UNL A   1      46.840  24.657  36.823  1.00  0.00    -0.237 OA
ATOM     47  O   UNL A   1      48.374  26.593  36.860  1.00  0.00    -0.237 OA
ATOM     48  O   UNL A   1      46.961  26.105  38.821  1.00  0.00    -0.744 OA
ENDBRANCH  44  45
ENDBRANCH  23  37
BRANCH  24  49
ATOM     49  C   UNL A   1      36.398  33.282  30.898  1.00  0.00     0.058 A 
ATOM     50  C   UNL A   1      35.084  33.170  31.369  1.00  0.00     0.135 A 
ATOM     51  C   UNL A   1      36.637  34.128  29.806  1.00  0.00     0.135 A 
ATOM     52  F   UNL A   1      34.812  32.369  32.410  1.00  0.00    -0.206 F 
ATOM     53  C   UNL A   1      34.042  33.886  30.789  1.00  0.00     0.059 A 
ATOM     54  C   UNL A   1      35.615  34.863  29.217  1.00  0.00     0.059 A 
ATOM     55  F   UNL A   1      37.884  34.274  29.332  1.00  0.00    -0.206 F 
ATOM     56  C   UNL A   1      34.319  34.736  29.718  1.00  0.00     0.060 A 
BRANCH  56  57
ATOM     57  S   UNL A   1      32.990  35.752  29.035  1.00  0.00     0.124 S 
ATOM     58  O   UNL A   1      32.358  34.822  28.108  1.00  0.00    -0.237 OA
ATOM     59  O   UNL A   1      32.214  36.098  30.222  1.00  0.00    -0.237 OA
ATOM     60  O   UNL A   1      33.711  36.866  28.425  1.00  0.00    -0.744 OA
ENDBRANCH  56  57
ENDBRANCH  24  49
BRANCH  36  61
ATOM     61  C   UNL A   1      39.615  34.203  37.012  1.00  0.00     0.058 A 
ATOM     62  C   UNL A   1      38.876  33.875  38.158  1.00  0.00     0.135 A 
ATOM     63  C   UNL A   1      40.218  35.468  36.953  1.00  0.00     0.135 A 
ATOM     64  F   UNL A   1      38.278  32.678  38.254  1.00  0.00    -0.206 F 
ATOM     65  C   UNL A   1      38.736  34.772  39.211  1.00  0.00     0.059 A 
ATOM     66  C   UNL A   1      40.098  36.377  37.999  1.00  0.00     0.059 A 
ATOM     67  F   UNL A   1      40.936  35.824  35.877  1.00  0.00    -0.206 F 
ATOM     68  C   UNL A   1      39.349  36.023  39.122  1.00  0.00     0.060 A 
BRANCH  68  69
ATOM     69  S   UNL A   1      39.205  37.173  40.507  1.00  0.00     0.124 S 
ATOM     70  O   UNL A   1      40.589  37.602  40.677  1.00  0.00    -0.237 OA
ATOM     71  O   UNL A   1      38.287  38.183  39.992  1.00  0.00    -0.237 OA
ATOM     72  O   UNL A   1      38.667  36.337  41.577  1.00  0.00    -0.744 OA
ENDBRANCH  68  69
ENDBRANCH  36  61
ENDBRANCH  10  11
ENDBRANCH   2   5
BRANCH   3  73
ATOM     73  C   UNL A   1      40.569  22.967  27.450  1.00  0.00     0.118 C 
BRANCH  73  74
ATOM     74  C   UNL A   1      40.731  21.470  27.195  1.00  0.00     0.042 C 
BRANCH  74  75
ATOM     75  C   UNL A   1      42.093  20.897  27.583  1.00  0.00     0.118 C 
BRANCH  75  76
ATOM     76  N   UNL A   1      42.707  20.134  26.509  1.00  0.00    -0.351 N 
ATOM     77  C   UNL A   1      43.584  20.525  25.524  1.00  0.00     0.271 C 
ATOM     78  H   UNL A   1      42.454  19.183  26.482  1.00  0.00     0.163 HD
ATOM     79  O   UNL A   1      43.798  19.738  24.603  1.00  0.00    -0.267 OA
BRANCH  77  80
ATOM     80  C   UNL A   1      44.241  21.831  25.606  1.00  0.00     0.147 A 
ATOM     81  C   UNL A   1      45.509  22.109  26.088  1.00  0.00     0.127 A 
ATOM     82  N   UNL A   1      43.671  22.988  25.096  1.00  0.00    -0.223 NA
ATOM     83  N   UNL A   1      45.689  23.456  25.928  1.00  0.00    -0.306 N 
ATOM     84  C   UNL A   1      44.546  23.946  25.310  1.00  0.00     0.137 A 
ATOM     85  C   UNL A   1      46.776  24.253  26.283  1.00  0.00     0.093 A 
ATOM     86  C   UNL A   1      44.512  25.340  25.022  1.00  0.00     0.048 A 
ATOM     87  C   UNL A   1      46.735  25.570  26.017  1.00  0.00     0.018 A 
ATOM     88  C   UNL A   1      45.557  26.119  25.360  1.00  0.00     0.005 A 
ENDBRANCH  77  80
ENDBRANCH  75  76
ENDBRANCH  74  75
ENDBRANCH  73  74
ENDBRANCH   3  73
TORSDOF 13
ENDMDL
MODEL 3
REMARK VINA RESULT:     -10.5      2.366      3.161
REMARK SMILES O=C(NCCCNC(=O)c1cn2ccccc2n1)c1ccc(-c2c3nc(c(-c4c(F)cc(S(=O)(=O)[O-])cc4F)c4ccc([nH]4)c(-c4c(F)cc(S(=O)(=O)[O-])cc4F)c4nc(c(-c5c(F)cc(S(=O)(=O)[O-])cc5F)c5ccc2[nH]5)C=C4)C=C3)cc1
REMARK SMILES IDX 1 1 2 2 3 3 19 5 20 6 84 7 21 8 83 9 22 10 23 11 24 12 77 13
REMARK SMILES IDX 25 14 82 15 76 16 78 17 26 18 81 19 75 20 74 21 27 23 61 24
REMARK SMILES IDX 40 25 60 26 41 27 44 28 59 29 79 30 42 31 43 32 58 34 80 35
REMARK SMILES IDX 45 36 28 37 29 38 38 39 30 40 31 41 37 42 39 43 32 44 33 45
REMARK SMILES IDX 34 46 35 47 36 48 62 49 63 50 72 51 64 52 65 53 71 54 73 55
REMARK SMILES IDX 66 56 67 57 68 58 69 59 70 60 46 61 47 62 56 63 48 64 49 65
REMARK SMILES IDX 55 66 57 67 50 68 51 69 52 70 53 71 54 72 4 73 5 74 6 75
REMARK SMILES IDX 7 76 8 77 9 79 10 80 11 81 18 82 12 83 17 84 13 85 16 86
REMARK SMILES IDX 14 87 15 88
REMARK H PARENT 3 4 78 22 44 33 7 78
REMARK Flexibility Score: inf
ROOT
ATOM      1  O   UNL A   1      33.773  29.713  26.698  1.00  0.00    -0.269 OA
ATOM      2  C   UNL A   1      34.366  30.522  27.407  1.00  0.00     0.251 C 
ATOM      3  N   UNL A   1      33.788  31.746  27.631  1.00  0.00    -0.352 N 
ATOM      4  H   UNL A   1      32.847  31.809  27.349  1.00  0.00     0.163 HD
ENDROOT
BRANCH   2   5
ATOM      5  C   UNL A   1      35.680  30.162  27.988  1.00  0.00     0.039 A 
ATOM      6  C   UNL A   1      36.879  30.401  27.310  1.00  0.00     0.014 A 
ATOM      7  C   UNL A   1      35.714  29.655  29.294  1.00  0.00     0.014 A 
ATOM      8  C   UNL A   1      38.097  30.042  27.892  1.00  0.00     0.010 A 
ATOM      9  C   UNL A   1      36.937  29.344  29.896  1.00  0.00     0.010 A 
ATOM     10  C   UNL A   1      38.137  29.513  29.191  1.00  0.00    -0.014 A 
BRANCH  10  11
ATOM     11  C   UNL A   1      39.437  29.165  29.818  1.00  0.00     0.031 A 
ATOM     12  C   UNL A   1      39.933  29.920  31.018  1.00  0.00     0.074 A 
ATOM     13  C   UNL A   1      40.179  28.169  29.300  1.00  0.00     0.049 A 
ATOM     14  N   UNL A   1      41.054  29.775  31.677  1.00  0.00    -0.248 NA
ATOM     15  C   UNL A   1      39.061  30.984  31.540  1.00  0.00     0.031 C 
ATOM     16  C   UNL A   1      39.820  27.372  28.126  1.00  0.00     0.029 A 
ATOM     17  N   UNL A   1      41.387  27.655  29.697  1.00  0.00    -0.354 N 
ATOM     18  C   UNL A   1      41.039  30.742  32.674  1.00  0.00     0.074 A 
ATOM     19  C   UNL A   1      39.797  31.474  32.529  1.00  0.00     0.031 C 
ATOM     20  C   UNL A   1      40.776  26.455  27.911  1.00  0.00     0.029 A 
ATOM     21  C   UNL A   1      41.827  26.618  28.911  1.00  0.00     0.049 A 
ATOM     22  H   UNL A   1      41.891  27.997  30.470  1.00  0.00     0.167 HD
ATOM     23  C   UNL A   1      41.970  30.998  33.623  1.00  0.00     0.037 A 
ATOM     24  C   UNL A   1      42.953  25.883  28.981  1.00  0.00     0.037 A 
ATOM     25  C   UNL A   1      43.192  30.258  33.790  1.00  0.00     0.049 A 
ATOM     26  C   UNL A   1      43.954  26.157  30.064  1.00  0.00     0.074 A 
ATOM     27  C   UNL A   1      44.182  30.429  34.743  1.00  0.00     0.029 A 
ATOM     28  N   UNL A   1      43.590  29.200  32.986  1.00  0.00    -0.354 N 
ATOM     29  N   UNL A   1      43.914  27.068  31.005  1.00  0.00    -0.248 NA
ATOM     30  C   UNL A   1      45.154  25.310  30.091  1.00  0.00     0.031 C 
ATOM     31  C   UNL A   1      45.186  29.480  34.507  1.00  0.00     0.029 A 
ATOM     32  C   UNL A   1      44.812  28.710  33.418  1.00  0.00     0.049 A 
ATOM     33  H   UNL A   1      43.079  28.849  32.222  1.00  0.00     0.167 HD
ATOM     34  C   UNL A   1      45.081  26.903  31.740  1.00  0.00     0.074 A 
ATOM     35  C   UNL A   1      45.803  25.798  31.141  1.00  0.00     0.031 C 
ATOM     36  C   UNL A   1      45.516  27.610  32.811  1.00  0.00     0.037 A 
BRANCH  23  37
ATOM     37  C   UNL A   1      41.697  32.147  34.547  1.00  0.00     0.058 A 
ATOM     38  C   UNL A   1      41.001  31.967  35.752  1.00  0.00     0.135 A 
ATOM     39  C   UNL A   1      42.120  33.442  34.216  1.00  0.00     0.135 A 
ATOM     40  F   UNL A   1      40.561  30.749  36.101  1.00  0.00    -0.206 F 
ATOM     41  C   UNL A   1      40.706  33.041  36.585  1.00  0.00     0.059 A 
ATOM     42  C   UNL A   1      41.845  34.529  35.041  1.00  0.00     0.059 A 
ATOM     43  F   UNL A   1      42.784  33.664  33.072  1.00  0.00    -0.206 F 
ATOM     44  C   UNL A   1      41.119  34.321  36.213  1.00  0.00     0.060 A 
BRANCH  44  45
ATOM     45  S   UNL A   1      40.699  35.723  37.271  1.00  0.00     0.124 S 
ATOM     46  O   UNL A   1      39.969  36.577  36.340  1.00  0.00    -0.237 OA
ATOM     47  O   UNL A   1      39.898  35.105  38.324  1.00  0.00    -0.237 OA
ATOM     48  O   UNL A   1      42.004  36.222  37.694  1.00  0.00    -0.744 OA
ENDBRANCH  44  45
ENDBRANCH  23  37
BRANCH  24  49
ATOM     49  C   UNL A   1      43.169  24.803  27.989  1.00  0.00     0.058 A 
ATOM     50  C   UNL A   1      43.781  25.072  26.759  1.00  0.00     0.135 A 
ATOM     51  C   UNL A   1      42.842  23.473  28.286  1.00  0.00     0.135 A 
ATOM     52  F   UNL A   1      44.107  26.332  26.434  1.00  0.00    -0.206 F 
ATOM     53  C   UNL A   1      44.078  24.055  25.858  1.00  0.00     0.059 A 
ATOM     54  C   UNL A   1      43.139  22.438  27.408  1.00  0.00     0.059 A 
ATOM     55  F   UNL A   1      42.266  23.170  29.460  1.00  0.00    -0.206 F 
ATOM     56  C   UNL A   1      43.759  22.739  26.195  1.00  0.00     0.060 A 
BRANCH  56  57
ATOM     57  S   UNL A   1      44.243  21.403  25.079  1.00  0.00     0.124 S 
ATOM     58  O   UNL A   1      43.227  20.398  25.368  1.00  0.00    -0.237 OA
ATOM     59  O   UNL A   1      44.157  22.039  23.768  1.00  0.00    -0.237 OA
ATOM     60  O   UNL A   1      45.598  21.083  25.520  1.00  0.00    -0.744 OA
ENDBRANCH  56  57
ENDBRANCH  24  49
BRANCH  36  61
ATOM     61  C   UNL A   1      46.831  27.210  33.408  1.00  0.00     0.058 A 
ATOM     62  C   UNL A   1      46.906  26.219  34.398  1.00  0.00     0.135 A 
ATOM     63  C   UNL A   1      48.028  27.781  32.953  1.00  0.00     0.135 A 
ATOM     64  F   UNL A   1      45.785  25.650  34.867  1.00  0.00    -0.206 F 
ATOM     65  C   UNL A   1      48.126  25.810  34.924  1.00  0.00     0.059 A 
ATOM     66  C   UNL A   1      49.261  27.380  33.458  1.00  0.00     0.059 A 
ATOM     67  F   UNL A   1      48.006  28.731  32.005  1.00  0.00    -0.206 F 
ATOM     68  C   UNL A   1      49.300  26.399  34.449  1.00  0.00     0.060 A 
BRANCH  68  69
ATOM     69  S   UNL A   1      50.889  25.837  35.099  1.00  0.00     0.124 S 
ATOM     70  O   UNL A   1      51.118  26.793  36.176  1.00  0.00    -0.237 OA
ATOM     71  O   UNL A   1      50.600  24.470  35.517  1.00  0.00    -0.237 OA
ATOM     72  O   UNL A   1      51.779  25.957  33.948  1.00  0.00    -0.744 OA
ENDBRANCH  68  69
ENDBRANCH  36  61
ENDBRANCH  10  11
ENDBRANCH   2   5
BRANCH   3  73
ATOM     73  C   UNL A   1      34.324  32.968  28.213  1.00  0.00     0.118 C 
BRANCH  73  74
ATOM     74  C   UNL A   1      33.333  34.129  28.155  1.00  0.00     0.042 C 
BRANCH  74  75
ATOM     75  C   UNL A   1      33.882  35.467  28.647  1.00  0.00     0.118 C 
BRANCH  75  76
ATOM     76  N   UNL A   1      32.989  36.130  29.581  1.00  0.00    -0.351 N 
ATOM     77  C   UNL A   1      32.846  35.978  30.941  1.00  0.00     0.271 C 
ATOM     78  H   UNL A   1      32.390  36.797  29.176  1.00  0.00     0.163 HD
ATOM     79  O   UNL A   1      31.872  36.507  31.476  1.00  0.00    -0.267 OA
BRANCH  77  80
ATOM     80  C   UNL A   1      33.843  35.224  31.702  1.00  0.00     0.147 A 
ATOM     81  C   UNL A   1      34.717  35.708  32.660  1.00  0.00     0.127 A 
ATOM     82  N   UNL A   1      33.969  33.846  31.610  1.00  0.00    -0.223 NA
ATOM     83  N   UNL A   1      35.424  34.627  33.112  1.00  0.00    -0.306 N 
ATOM     84  C   UNL A   1      34.925  33.513  32.449  1.00  0.00     0.137 A 
ATOM     85  C   UNL A   1      36.452  34.570  34.050  1.00  0.00     0.093 A 
ATOM     86  C   UNL A   1      35.503  32.253  32.773  1.00  0.00     0.048 A 
ATOM     87  C   UNL A   1      37.001  33.379  34.347  1.00  0.00     0.018 A 
ATOM     88  C   UNL A   1      36.496  32.186  33.680  1.00  0.00     0.005 A 
ENDBRANCH  77  80
ENDBRANCH  75  76
ENDBRANCH  74  75
ENDBRANCH  73  74
ENDBRANCH   3  73
TORSDOF 13
ENDMDL
