MODEL 1
REMARK VINA RESULT:     -10.3      0.000      0.000
REMARK SMILES CC(C)C[C@H](NC(=O)[C@H](Cc1ccccc1)NC(=O)CNC(=O)CNC(=O)OCc1ccccc1)C(=O)NCCCNC(=O)c1ccc(-c2c3nc(c(-c4c(F)cc(S(=O)(=O)[O-])cc4F)c4ccc([nH]4)c(-c4c(F)cc(S(=O)(=O)[O-])cc4F)c4nc(c(-c5c(F)cc(S(=O)(=O)[O-])cc5F)c5ccc2[nH]5)C=C4)C=C3)cc1
REMARK SMILES IDX 6 1 7 2 8 3 5 5 4 6 2 7 1 8 3 9 36 10 37 11 38 12 39 14
REMARK SMILES IDX 40 15 41 16 42 17 43 18 44 20 45 21 46 22 110 23 47 24
REMARK SMILES IDX 109 25 48 26 49 27 50 28 103 29 51 30 108 31 102 32 104 33
REMARK SMILES IDX 52 34 107 35 101 36 100 37 53 39 87 40 66 41 86 42 67 43
REMARK SMILES IDX 70 44 85 45 105 46 68 47 69 48 84 50 106 51 71 52 54 53
REMARK SMILES IDX 55 54 64 55 56 56 57 57 63 58 65 59 58 60 59 61 60 62 61 63
REMARK SMILES IDX 62 64 88 65 89 66 98 67 90 68 91 69 97 70 99 71 92 72 93 73
REMARK SMILES IDX 94 74 95 75 96 76 72 77 73 78 82 79 74 80 75 81 81 82 83 83
REMARK SMILES IDX 76 84 77 85 78 86 79 87 80 88 9 89 17 90 18 91 19 93 20 94
REMARK SMILES IDX 21 95 22 96 23 98 24 99 25 100 26 101 27 103 28 104 29 105
REMARK SMILES IDX 30 106 31 107 35 108 32 109 34 110 33 111 10 112 11 113
REMARK SMILES IDX 12 114 16 115 13 116 15 117 14 118
REMARK H PARENT 6 4 38 13 42 19 104 38 70 49 17 92 21 97 25 102
REMARK Flexibility Score: inf
ROOT
ATOM      1  N   UNL A   1      31.712  25.671  22.639  1.00  0.00    -0.343 N 
ATOM      2  C   UNL A   1      30.551  25.426  23.339  1.00  0.00     0.243 C 
ATOM      3  O   UNL A   1      29.812  24.542  22.883  1.00  0.00    -0.273 OA
ATOM      4  H   UNL A   1      31.604  25.759  21.664  1.00  0.00     0.164 HD
ENDROOT
BRANCH   1   5
ATOM      5  C   UNL A   1      33.097  25.820  23.133  1.00  0.00     0.171 C 
BRANCH   5   6
ATOM      6  C   UNL A   1      34.049  24.740  22.572  1.00  0.00     0.038 C 
BRANCH   6   7
ATOM      7  C   UNL A   1      34.318  23.513  23.486  1.00  0.00    -0.015 C 
ATOM      8  C   UNL A   1      33.291  22.392  23.285  1.00  0.00     0.007 C 
ATOM      9  C   UNL A   1      35.715  22.951  23.181  1.00  0.00     0.007 C 
ENDBRANCH   6   7
ENDBRANCH   5   6
BRANCH   5  10
ATOM     10  C   UNL A   1      33.696  27.259  23.030  1.00  0.00     0.242 C 
ATOM     11  O   UNL A   1      34.218  27.591  21.957  1.00  0.00    -0.273 OA
ATOM     12  N   UNL A   1      33.820  28.170  24.047  1.00  0.00    -0.354 N 
ATOM     13  H   UNL A   1      34.483  28.868  23.842  1.00  0.00     0.163 HD
BRANCH  12  14
ATOM     14  C   UNL A   1      33.208  28.355  25.364  1.00  0.00     0.117 C 
BRANCH  14  15
ATOM     15  C   UNL A   1      34.093  28.257  26.644  1.00  0.00     0.042 C 
BRANCH  15  16
ATOM     16  C   UNL A   1      35.030  29.409  27.044  1.00  0.00     0.118 C 
BRANCH  16  17
ATOM     17  N   UNL A   1      35.059  29.649  28.478  1.00  0.00    -0.352 N 
ATOM     18  C   UNL A   1      36.033  29.728  29.442  1.00  0.00     0.251 C 
ATOM     19  H   UNL A   1      34.158  29.789  28.848  1.00  0.00     0.163 HD
ATOM     20  O   UNL A   1      35.618  29.851  30.600  1.00  0.00    -0.269 OA
BRANCH  18  21
ATOM     21  C   UNL A   1      37.516  29.664  29.247  1.00  0.00     0.039 A 
ATOM     22  C   UNL A   1      37.959  29.675  27.912  1.00  0.00     0.014 A 
ATOM     23  C   UNL A   1      38.458  29.372  30.236  1.00  0.00     0.014 A 
ATOM     24  C   UNL A   1      39.289  29.377  27.567  1.00  0.00     0.010 A 
ATOM     25  C   UNL A   1      39.814  29.109  29.888  1.00  0.00     0.010 A 
ATOM     26  C   UNL A   1      40.246  29.078  28.547  1.00  0.00    -0.014 A 
BRANCH  26  27
ATOM     27  C   UNL A   1      41.645  28.689  28.130  1.00  0.00     0.031 A 
ATOM     28  C   UNL A   1      42.773  29.703  28.099  1.00  0.00     0.074 A 
ATOM     29  C   UNL A   1      41.947  27.405  27.834  1.00  0.00     0.049 A 
ATOM     30  N   UNL A   1      44.044  29.528  27.814  1.00  0.00    -0.248 NA
ATOM     31  C   UNL A   1      42.429  31.093  28.428  1.00  0.00     0.031 C 
ATOM     32  C   UNL A   1      40.991  26.298  27.814  1.00  0.00     0.029 A 
ATOM     33  N   UNL A   1      43.146  26.807  27.502  1.00  0.00    -0.354 N 
ATOM     34  C   UNL A   1      44.645  30.781  27.914  1.00  0.00     0.074 A 
ATOM     35  C   UNL A   1      43.590  31.713  28.255  1.00  0.00     0.031 C 
ATOM     36  C   UNL A   1      41.637  25.160  27.510  1.00  0.00     0.029 A 
ATOM     37  C   UNL A   1      43.052  25.450  27.279  1.00  0.00     0.049 A 
ATOM     38  H   UNL A   1      43.992  27.305  27.430  1.00  0.00     0.167 HD
ATOM     39  C   UNL A   1      45.948  31.131  27.755  1.00  0.00     0.037 A 
ATOM     40  C   UNL A   1      43.982  24.536  26.924  1.00  0.00     0.037 A 
ATOM     41  C   UNL A   1      47.021  30.215  27.448  1.00  0.00     0.049 A 
ATOM     42  C   UNL A   1      45.421  24.947  26.736  1.00  0.00     0.074 A 
ATOM     43  C   UNL A   1      48.375  30.488  27.320  1.00  0.00     0.029 A 
ATOM     44  N   UNL A   1      46.871  28.856  27.218  1.00  0.00    -0.354 N 
ATOM     45  N   UNL A   1      45.967  26.129  26.885  1.00  0.00    -0.248 NA
ATOM     46  C   UNL A   1      46.373  23.897  26.337  1.00  0.00     0.031 C 
ATOM     47  C   UNL A   1      49.036  29.304  26.975  1.00  0.00     0.029 A 
ATOM     48  C   UNL A   1      48.102  28.283  26.933  1.00  0.00     0.049 A 
ATOM     49  H   UNL A   1      46.017  28.369  27.254  1.00  0.00     0.167 HD
ATOM     50  C   UNL A   1      47.324  25.959  26.625  1.00  0.00     0.074 A 
ATOM     51  C   UNL A   1      47.523  24.560  26.318  1.00  0.00     0.031 C 
ATOM     52  C   UNL A   1      48.313  26.886  26.644  1.00  0.00     0.037 A 
BRANCH  39  53
ATOM     53  C   UNL A   1      46.309  32.588  27.909  1.00  0.00     0.058 A 
ATOM     54  C   UNL A   1      46.098  33.512  26.875  1.00  0.00     0.135 A 
ATOM     55  C   UNL A   1      46.819  33.075  29.125  1.00  0.00     0.135 A 
ATOM     56  F   UNL A   1      45.611  33.105  25.692  1.00  0.00    -0.206 F 
ATOM     57  C   UNL A   1      46.416  34.860  27.025  1.00  0.00     0.059 A 
ATOM     58  C   UNL A   1      47.120  34.423  29.307  1.00  0.00     0.059 A 
ATOM     59  F   UNL A   1      47.026  32.239  30.155  1.00  0.00    -0.206 F 
ATOM     60  C   UNL A   1      46.934  35.304  28.243  1.00  0.00     0.060 A 
BRANCH  60  61
ATOM     61  S   UNL A   1      47.363  37.050  28.414  1.00  0.00     0.124 S 
ATOM     62  O   UNL A   1      48.699  36.964  28.999  1.00  0.00    -0.237 OA
ATOM     63  O   UNL A   1      47.307  37.525  27.035  1.00  0.00    -0.237 OA
ATOM     64  O   UNL A   1      46.325  37.573  29.297  1.00  0.00    -0.744 OA
ENDBRANCH  60  61
ENDBRANCH  39  53
BRANCH  40  65
ATOM     65  C   UNL A   1      43.585  23.113  26.726  1.00  0.00     0.058 A 
ATOM     66  C   UNL A   1      43.447  22.568  25.440  1.00  0.00     0.135 A 
ATOM     67  C   UNL A   1      43.332  22.270  27.820  1.00  0.00     0.135 A 
ATOM     68  F   UNL A   1      43.657  23.337  24.361  1.00  0.00    -0.206 F 
ATOM     69  C   UNL A   1      43.069  21.243  25.245  1.00  0.00     0.059 A 
ATOM     70  C   UNL A   1      42.978  20.935  27.650  1.00  0.00     0.059 A 
ATOM     71  F   UNL A   1      43.452  22.739  29.071  1.00  0.00    -0.206 F 
ATOM     72  C   UNL A   1      42.842  20.431  26.358  1.00  0.00     0.060 A 
BRANCH  72  73
ATOM     73  S   UNL A   1      42.419  18.695  26.095  1.00  0.00     0.124 S 
ATOM     74  O   UNL A   1      42.730  18.114  27.396  1.00  0.00    -0.237 OA
ATOM     75  O   UNL A   1      41.003  18.771  25.750  1.00  0.00    -0.237 OA
ATOM     76  O   UNL A   1      43.300  18.299  24.999  1.00  0.00    -0.744 OA
ENDBRANCH  72  73
ENDBRANCH  40  65
BRANCH  52  77
ATOM     77  C   UNL A   1      49.721  26.432  26.364  1.00  0.00     0.058 A 
ATOM     78  C   UNL A   1      50.311  26.586  25.100  1.00  0.00     0.135 A 
ATOM     79  C   UNL A   1      50.520  25.912  27.397  1.00  0.00     0.135 A 
ATOM     80  F   UNL A   1      49.593  27.069  24.074  1.00  0.00    -0.206 F 
ATOM     81  C   UNL A   1      51.640  26.238  24.868  1.00  0.00     0.059 A 
ATOM     82  C   UNL A   1      51.857  25.579  27.194  1.00  0.00     0.059 A 
ATOM     83  F   UNL A   1      50.009  25.748  28.628  1.00  0.00    -0.206 F 
ATOM     84  C   UNL A   1      52.408  25.741  25.924  1.00  0.00     0.060 A 
BRANCH  84  85
ATOM     85  S   UNL A   1      54.148  25.357  25.626  1.00  0.00     0.124 S 
ATOM     86  O   UNL A   1      54.051  24.296  24.630  1.00  0.00    -0.237 OA
ATOM     87  O   UNL A   1      54.674  26.631  25.147  1.00  0.00    -0.237 OA
ATOM     88  O   UNL A   1      54.634  24.942  26.940  1.00  0.00    -0.744 OA
ENDBRANCH  84  85
ENDBRANCH  52  77
ENDBRANCH  26  27
ENDBRANCH  18  21
ENDBRANCH  16  17
ENDBRANCH  15  16
ENDBRANCH  14  15
ENDBRANCH  12  14
ENDBRANCH   5  10
ENDBRANCH   1   5
BRANCH   2  89
ATOM     89  C   UNL A   1      30.048  26.337  24.498  1.00  0.00     0.175 C 
BRANCH  89  90
ATOM     90  N   UNL A   1      28.808  26.935  23.926  1.00  0.00    -0.342 N 
ATOM     91  C   UNL A   1      28.415  28.093  23.355  1.00  0.00     0.240 C 
ATOM     92  H   UNL A   1      28.057  26.300  23.981  1.00  0.00     0.164 HD
ATOM     93  O   UNL A   1      27.203  28.206  23.128  1.00  0.00    -0.273 OA
BRANCH  91  94
ATOM     94  C   UNL A   1      29.348  29.197  22.878  1.00  0.00     0.216 C 
BRANCH  94  95
ATOM     95  N   UNL A   1      28.912  30.566  22.981  1.00  0.00    -0.346 N 
ATOM     96  C   UNL A   1      29.452  31.487  23.817  1.00  0.00     0.239 C 
ATOM     97  H   UNL A   1      28.169  30.855  22.403  1.00  0.00     0.164 HD
ATOM     98  O   UNL A   1      29.150  32.675  23.710  1.00  0.00    -0.273 OA
BRANCH  96  99
ATOM     99  C   UNL A   1      30.489  31.020  24.823  1.00  0.00     0.219 C 
BRANCH  99 100
ATOM    100  N   UNL A   1      31.028  31.912  25.815  1.00  0.00    -0.312 N 
ATOM    101  C   UNL A   1      31.813  31.406  26.805  1.00  0.00     0.407 C 
ATOM    102  H   UNL A   1      30.831  32.875  25.779  1.00  0.00     0.167 HD
ATOM    103  O   UNL A   1      31.592  30.368  27.389  1.00  0.00    -0.225 OA
BRANCH 101 104
ATOM    104  O   UNL A   1      32.964  32.128  26.845  1.00  0.00    -0.445 OA
BRANCH 104 105
ATOM    105  C   UNL A   1      32.934  33.110  27.887  1.00  0.00     0.270 C 
BRANCH 105 106
ATOM    106  C   UNL A   1      34.274  33.170  28.571  1.00  0.00    -0.011 A 
ATOM    107  C   UNL A   1      34.400  33.335  29.959  1.00  0.00     0.007 A 
ATOM    108  C   UNL A   1      35.433  33.092  27.790  1.00  0.00     0.007 A 
ATOM    109  C   UNL A   1      35.665  33.407  30.549  1.00  0.00     0.000 A 
ATOM    110  C   UNL A   1      36.694  33.169  28.378  1.00  0.00     0.000 A 
ATOM    111  C   UNL A   1      36.810  33.324  29.757  1.00  0.00     0.000 A 
ENDBRANCH 105 106
ENDBRANCH 104 105
ENDBRANCH 101 104
ENDBRANCH  99 100
ENDBRANCH  96  99
ENDBRANCH  94  95
ENDBRANCH  91  94
ENDBRANCH  89  90
BRANCH  89 112
ATOM    112  C   UNL A   1      29.631  25.581  25.774  1.00  0.00     0.070 C 
BRANCH 112 113
ATOM    113  C   UNL A   1      30.667  24.620  26.283  1.00  0.00    -0.045 A 
ATOM    114  C   UNL A   1      31.986  25.028  26.494  1.00  0.00     0.004 A 
ATOM    115  C   UNL A   1      30.325  23.271  26.451  1.00  0.00     0.004 A 
ATOM    116  C   UNL A   1      32.961  24.084  26.811  1.00  0.00     0.000 A 
ATOM    117  C   UNL A   1      31.301  22.330  26.759  1.00  0.00     0.000 A 
ATOM    118  C   UNL A   1      32.622  22.736  26.927  1.00  0.00     0.000 A 
ENDBRANCH 112 113
ENDBRANCH  89 112
ENDBRANCH   2  89
TORSDOF 27
ENDMDL
MODEL 2
REMARK VINA RESULT:      -8.4      2.872      3.559
REMARK SMILES CC(C)C[C@H](NC(=O)[C@H](Cc1ccccc1)NC(=O)CNC(=O)CNC(=O)OCc1ccccc1)C(=O)NCCCNC(=O)c1ccc(-c2c3nc(c(-c4c(F)cc(S(=O)(=O)[O-])cc4F)c4ccc([nH]4)c(-c4c(F)cc(S(=O)(=O)[O-])cc4F)c4nc(c(-c5c(F)cc(S(=O)(=O)[O-])cc5F)c5ccc2[nH]5)C=C4)C=C3)cc1
REMARK SMILES IDX 6 1 7 2 8 3 5 5 4 6 2 7 1 8 3 9 36 10 37 11 38 12 39 14
REMARK SMILES IDX 40 15 41 16 42 17 43 18 44 20 45 21 46 22 110 23 47 24
REMARK SMILES IDX 109 25 48 26 49 27 50 28 103 29 51 30 108 31 102 32 104 33
REMARK SMILES IDX 52 34 107 35 101 36 100 37 53 39 87 40 66 41 86 42 67 43
REMARK SMILES IDX 70 44 85 45 105 46 68 47 69 48 84 50 106 51 71 52 54 53
REMARK SMILES IDX 55 54 64 55 56 56 57 57 63 58 65 59 58 60 59 61 60 62 61 63
REMARK SMILES IDX 62 64 88 65 89 66 98 67 90 68 91 69 97 70 99 71 92 72 93 73
REMARK SMILES IDX 94 74 95 75 96 76 72 77 73 78 82 79 74 80 75 81 81 82 83 83
REMARK SMILES IDX 76 84 77 85 78 86 79 87 80 88 9 89 17 90 18 91 19 93 20 94
REMARK SMILES IDX 21 95 22 96 23 98 24 99 25 100 26 101 27 103 28 104 29 105
REMARK SMILES IDX 30 106 31 107 35 108 32 109 34 110 33 111 10 112 11 113
REMARK SMILES IDX 12 114 16 115 13 116 15 117 14 118
REMARK H PARENT 6 4 38 13 42 19 104 38 70 49 17 92 21 97 25 102
REMARK Flexibility Score: inf
ROOT
ATOM      1  N   UNL A   1      31.545  26.127  22.499  1.00  0.00    -0.343 N 
ATOM      2  C   UNL A   1      30.448  25.705  23.218  1.00  0.00     0.243 C 
ATOM      3  O   UNL A   1      29.766  24.809  22.702  1.00  0.00    -0.273 OA
ATOM      4  H   UNL A   1      31.377  26.307  21.546  1.00  0.00     0.164 HD
ENDROOT
BRANCH   1   5
ATOM      5  C   UNL A   1      32.935  26.352  22.946  1.00  0.00     0.171 C 
BRANCH   5   6
ATOM      6  C   UNL A   1      33.865  25.161  22.622  1.00  0.00     0.038 C 
BRANCH   6   7
ATOM      7  C   UNL A   1      34.087  24.128  23.760  1.00  0.00    -0.015 C 
ATOM      8  C   UNL A   1      34.531  22.757  23.232  1.00  0.00     0.007 C 
ATOM      9  C   UNL A   1      35.167  24.652  24.717  1.00  0.00     0.007 C 
ENDBRANCH   6   7
ENDBRANCH   5   6
BRANCH   5  10
ATOM     10  C   UNL A   1      33.557  27.726  22.541  1.00  0.00     0.242 C 
ATOM     11  O   UNL A   1      34.093  27.811  21.427  1.00  0.00    -0.273 OA
ATOM     12  N   UNL A   1      33.689  28.834  23.337  1.00  0.00    -0.354 N 
ATOM     13  H   UNL A   1      34.364  29.462  22.994  1.00  0.00     0.163 HD
BRANCH  12  14
ATOM     14  C   UNL A   1      33.069  29.308  24.577  1.00  0.00     0.117 C 
BRANCH  14  15
ATOM     15  C   UNL A   1      32.919  28.332  25.784  1.00  0.00     0.042 C 
BRANCH  15  16
ATOM     16  C   UNL A   1      34.072  28.130  26.781  1.00  0.00     0.118 C 
BRANCH  16  17
ATOM     17  N   UNL A   1      34.167  29.195  27.766  1.00  0.00    -0.352 N 
ATOM     18  C   UNL A   1      35.177  29.777  28.492  1.00  0.00     0.251 C 
ATOM     19  H   UNL A   1      33.291  29.599  27.960  1.00  0.00     0.163 HD
ATOM     20  O   UNL A   1      34.812  30.614  29.324  1.00  0.00    -0.269 OA
BRANCH  18  21
ATOM     21  C   UNL A   1      36.645  29.497  28.397  1.00  0.00     0.039 A 
ATOM     22  C   UNL A   1      37.234  28.927  29.540  1.00  0.00     0.014 A 
ATOM     23  C   UNL A   1      37.499  29.949  27.389  1.00  0.00     0.014 A 
ATOM     24  C   UNL A   1      38.630  28.835  29.691  1.00  0.00     0.010 A 
ATOM     25  C   UNL A   1      38.912  29.820  27.526  1.00  0.00     0.010 A 
ATOM     26  C   UNL A   1      39.501  29.288  28.690  1.00  0.00    -0.014 A 
BRANCH  26  27
ATOM     27  C   UNL A   1      40.993  29.241  28.923  1.00  0.00     0.031 A 
ATOM     28  C   UNL A   1      41.698  30.296  29.755  1.00  0.00     0.074 A 
ATOM     29  C   UNL A   1      41.735  28.214  28.450  1.00  0.00     0.049 A 
ATOM     30  N   UNL A   1      42.964  30.379  30.096  1.00  0.00    -0.248 NA
ATOM     31  C   UNL A   1      40.877  31.401  30.266  1.00  0.00     0.031 C 
ATOM     32  C   UNL A   1      41.225  27.112  27.634  1.00  0.00     0.029 A 
ATOM     33  N   UNL A   1      43.077  27.922  28.592  1.00  0.00    -0.354 N 
ATOM     34  C   UNL A   1      43.093  31.547  30.845  1.00  0.00     0.074 A 
ATOM     35  C   UNL A   1      41.780  32.155  30.880  1.00  0.00     0.031 C 
ATOM     36  C   UNL A   1      42.228  26.259  27.367  1.00  0.00     0.029 A 
ATOM     37  C   UNL A   1      43.467  26.761  27.961  1.00  0.00     0.049 A 
ATOM     38  H   UNL A   1      43.699  28.493  29.098  1.00  0.00     0.167 HD
ATOM     39  C   UNL A   1      44.189  32.063  31.461  1.00  0.00     0.037 A 
ATOM     40  C   UNL A   1      44.673  26.161  27.859  1.00  0.00     0.037 A 
ATOM     41  C   UNL A   1      45.500  31.457  31.468  1.00  0.00     0.049 A 
ATOM     42  C   UNL A   1      45.881  26.758  28.536  1.00  0.00     0.074 A 
ATOM     43  C   UNL A   1      46.646  31.897  32.112  1.00  0.00     0.029 A 
ATOM     44  N   UNL A   1      45.844  30.290  30.803  1.00  0.00    -0.354 N 
ATOM     45  N   UNL A   1      45.961  27.836  29.277  1.00  0.00    -0.248 NA
ATOM     46  C   UNL A   1      47.163  26.054  28.368  1.00  0.00     0.031 C 
ATOM     47  C   UNL A   1      47.692  31.019  31.804  1.00  0.00     0.029 A 
ATOM     48  C   UNL A   1      47.187  30.006  31.008  1.00  0.00     0.049 A 
ATOM     49  H   UNL A   1      45.226  29.743  30.267  1.00  0.00     0.167 HD
ATOM     50  C   UNL A   1      47.290  27.923  29.684  1.00  0.00     0.074 A 
ATOM     51  C   UNL A   1      47.980  26.786  29.116  1.00  0.00     0.031 C 
ATOM     52  C   UNL A   1      47.878  28.865  30.461  1.00  0.00     0.037 A 
BRANCH  39  53
ATOM     53  C   UNL A   1      44.031  33.371  32.197  1.00  0.00     0.058 A 
ATOM     54  C   UNL A   1      44.215  34.604  31.554  1.00  0.00     0.135 A 
ATOM     55  C   UNL A   1      43.635  33.391  33.545  1.00  0.00     0.135 A 
ATOM     56  F   UNL A   1      44.592  34.646  30.266  1.00  0.00    -0.206 F 
ATOM     57  C   UNL A   1      44.053  35.811  32.231  1.00  0.00     0.059 A 
ATOM     58  C   UNL A   1      43.440  34.586  34.235  1.00  0.00     0.059 A 
ATOM     59  F   UNL A   1      43.427  32.242  34.207  1.00  0.00    -0.206 F 
ATOM     60  C   UNL A   1      43.672  35.791  33.573  1.00  0.00     0.060 A 
BRANCH  60  61
ATOM     61  S   UNL A   1      43.488  37.363  34.443  1.00  0.00     0.124 S 
ATOM     62  O   UNL A   1      42.820  38.178  33.431  1.00  0.00    -0.237 OA
ATOM     63  O   UNL A   1      42.671  36.992  35.595  1.00  0.00    -0.237 OA
ATOM     64  O   UNL A   1      44.862  37.747  34.750  1.00  0.00    -0.744 OA
ENDBRANCH  60  61
ENDBRANCH  39  53
BRANCH  40  65
ATOM     65  C   UNL A   1      44.809  24.897  27.080  1.00  0.00     0.058 A 
ATOM     66  C   UNL A   1      45.224  24.910  25.739  1.00  0.00     0.135 A 
ATOM     67  C   UNL A   1      44.523  23.651  27.661  1.00  0.00     0.135 A 
ATOM     68  F   UNL A   1      45.490  26.076  25.131  1.00  0.00    -0.206 F 
ATOM     69  C   UNL A   1      45.346  23.737  25.001  1.00  0.00     0.059 A 
ATOM     70  C   UNL A   1      44.662  22.462  26.950  1.00  0.00     0.059 A 
ATOM     71  F   UNL A   1      44.126  23.581  28.940  1.00  0.00    -0.206 F 
ATOM     72  C   UNL A   1      45.068  22.515  25.618  1.00  0.00     0.060 A 
BRANCH  72  73
ATOM     73  S   UNL A   1      45.296  20.993  24.673  1.00  0.00     0.124 S 
ATOM     74  O   UNL A   1      44.425  20.067  25.387  1.00  0.00    -0.237 OA
ATOM     75  O   UNL A   1      44.853  21.388  23.339  1.00  0.00    -0.237 OA
ATOM     76  O   UNL A   1      46.729  20.735  24.794  1.00  0.00    -0.744 OA
ENDBRANCH  72  73
ENDBRANCH  40  65
BRANCH  52  77
ATOM     77  C   UNL A   1      49.339  28.705  30.792  1.00  0.00     0.058 A 
ATOM     78  C   UNL A   1      49.769  27.977  31.912  1.00  0.00     0.135 A 
ATOM     79  C   UNL A   1      50.324  29.218  29.931  1.00  0.00     0.135 A 
ATOM     80  F   UNL A   1      48.872  27.472  32.774  1.00  0.00    -0.206 F 
ATOM     81  C   UNL A   1      51.121  27.764  32.168  1.00  0.00     0.059 A 
ATOM     82  C   UNL A   1      51.681  28.998  30.155  1.00  0.00     0.059 A 
ATOM     83  F   UNL A   1      49.970  29.918  28.841  1.00  0.00    -0.206 F 
ATOM     84  C   UNL A   1      52.071  28.273  31.280  1.00  0.00     0.060 A 
BRANCH  84  85
ATOM     85  S   UNL A   1      53.819  27.933  31.588  1.00  0.00     0.124 S 
ATOM     86  O   UNL A   1      54.412  28.229  30.288  1.00  0.00    -0.237 OA
ATOM     87  O   UNL A   1      54.138  28.873  32.658  1.00  0.00    -0.237 OA
ATOM     88  O   UNL A   1      53.829  26.526  31.977  1.00  0.00    -0.744 OA
ENDBRANCH  84  85
ENDBRANCH  52  77
ENDBRANCH  26  27
ENDBRANCH  18  21
ENDBRANCH  16  17
ENDBRANCH  15  16
ENDBRANCH  14  15
ENDBRANCH  12  14
ENDBRANCH   5  10
ENDBRANCH   1   5
BRANCH   2  89
ATOM     89  C   UNL A   1      29.929  26.440  24.490  1.00  0.00     0.175 C 
BRANCH  89  90
ATOM     90  N   UNL A   1      28.696  27.117  23.993  1.00  0.00    -0.342 N 
ATOM     91  C   UNL A   1      28.342  28.303  23.458  1.00  0.00     0.240 C 
ATOM     92  H   UNL A   1      27.914  26.526  24.083  1.00  0.00     0.164 HD
ATOM     93  O   UNL A   1      27.128  28.489  23.299  1.00  0.00    -0.273 OA
BRANCH  91  94
ATOM     94  C   UNL A   1      29.311  29.358  22.942  1.00  0.00     0.216 C 
BRANCH  94  95
ATOM     95  N   UNL A   1      28.865  30.725  22.854  1.00  0.00    -0.346 N 
ATOM     96  C   UNL A   1      29.326  31.739  23.626  1.00  0.00     0.239 C 
ATOM     97  H   UNL A   1      28.175  30.939  22.184  1.00  0.00     0.164 HD
ATOM     98  O   UNL A   1      29.033  32.905  23.361  1.00  0.00    -0.273 OA
BRANCH  96  99
ATOM     99  C   UNL A   1      30.271  31.399  24.765  1.00  0.00     0.219 C 
BRANCH  99 100
ATOM    100  N   UNL A   1      30.665  32.386  25.735  1.00  0.00    -0.312 N 
ATOM    101  C   UNL A   1      31.578  32.053  26.687  1.00  0.00     0.407 C 
ATOM    102  H   UNL A   1      30.278  33.290  25.711  1.00  0.00     0.167 HD
ATOM    103  O   UNL A   1      31.595  30.995  27.277  1.00  0.00    -0.225 OA
BRANCH 101 104
ATOM    104  O   UNL A   1      32.562  32.990  26.678  1.00  0.00    -0.445 OA
BRANCH 104 105
ATOM    105  C   UNL A   1      32.535  33.795  27.861  1.00  0.00     0.270 C 
BRANCH 105 106
ATOM    106  C   UNL A   1      33.887  33.775  28.524  1.00  0.00    -0.011 A 
ATOM    107  C   UNL A   1      34.070  34.149  29.865  1.00  0.00     0.007 A 
ATOM    108  C   UNL A   1      35.004  33.404  27.766  1.00  0.00     0.007 A 
ATOM    109  C   UNL A   1      35.347  34.136  30.432  1.00  0.00     0.000 A 
ATOM    110  C   UNL A   1      36.277  33.396  28.332  1.00  0.00     0.000 A 
ATOM    111  C   UNL A   1      36.449  33.760  29.665  1.00  0.00     0.000 A 
ENDBRANCH 105 106
ENDBRANCH 104 105
ENDBRANCH 101 104
ENDBRANCH  99 100
ENDBRANCH  96  99
ENDBRANCH  94  95
ENDBRANCH  91  94
ENDBRANCH  89  90
BRANCH  89 112
ATOM    112  C   UNL A   1      29.495  25.508  25.638  1.00  0.00     0.070 C 
BRANCH 112 113
ATOM    113  C   UNL A   1      30.605  24.667  26.198  1.00  0.00    -0.045 A 
ATOM    114  C   UNL A   1      31.817  25.242  26.588  1.00  0.00     0.004 A 
ATOM    115  C   UNL A   1      30.458  23.273  26.232  1.00  0.00     0.004 A 
ATOM    116  C   UNL A   1      32.886  24.425  26.953  1.00  0.00     0.000 A 
ATOM    117  C   UNL A   1      31.529  22.461  26.588  1.00  0.00     0.000 A 
ATOM    118  C   UNL A   1      32.747  23.038  26.937  1.00  0.00     0.000 A 
ENDBRANCH 112 113
ENDBRANCH  89 112
ENDBRANCH   2  89
TORSDOF 27
ENDMDL
MODEL 3
REMARK VINA RESULT:      -8.2      6.935     16.388
REMARK SMILES CC(C)C[C@H](NC(=O)[C@H](Cc1ccccc1)NC(=O)CNC(=O)CNC(=O)OCc1ccccc1)C(=O)NCCCNC(=O)c1ccc(-c2c3nc(c(-c4c(F)cc(S(=O)(=O)[O-])cc4F)c4ccc([nH]4)c(-c4c(F)cc(S(=O)(=O)[O-])cc4F)c4nc(c(-c5c(F)cc(S(=O)(=O)[O-])cc5F)c5ccc2[nH]5)C=C4)C=C3)cc1
REMARK SMILES IDX 6 1 7 2 8 3 5 5 4 6 2 7 1 8 3 9 36 10 37 11 38 12 39 14
REMARK SMILES IDX 40 15 41 16 42 17 43 18 44 20 45 21 46 22 110 23 47 24
REMARK SMILES IDX 109 25 48 26 49 27 50 28 103 29 51 30 108 31 102 32 104 33
REMARK SMILES IDX 52 34 107 35 101 36 100 37 53 39 87 40 66 41 86 42 67 43
REMARK SMILES IDX 70 44 85 45 105 46 68 47 69 48 84 50 106 51 71 52 54 53
REMARK SMILES IDX 55 54 64 55 56 56 57 57 63 58 65 59 58 60 59 61 60 62 61 63
REMARK SMILES IDX 62 64 88 65 89 66 98 67 90 68 91 69 97 70 99 71 92 72 93 73
REMARK SMILES IDX 94 74 95 75 96 76 72 77 73 78 82 79 74 80 75 81 81 82 83 83
REMARK SMILES IDX 76 84 77 85 78 86 79 87 80 88 9 89 17 90 18 91 19 93 20 94
REMARK SMILES IDX 21 95 22 96 23 98 24 99 25 100 26 101 27 103 28 104 29 105
REMARK SMILES IDX 30 106 31 107 35 108 32 109 34 110 33 111 10 112 11 113
REMARK SMILES IDX 12 114 16 115 13 116 15 117 14 118
REMARK H PARENT 6 4 38 13 42 19 104 38 70 49 17 92 21 97 25 102
REMARK Flexibility Score: inf
ROOT
ATOM      1  N   UNL A   1      52.017  26.836  23.164  1.00  0.00    -0.343 N 
ATOM      2  C   UNL A   1      53.382  26.936  23.011  1.00  0.00     0.243 C 
ATOM      3  O   UNL A   1      53.883  26.261  22.101  1.00  0.00    -0.273 OA
ATOM      4  H   UNL A   1      51.660  25.918  23.158  1.00  0.00     0.164 HD
ENDROOT
BRANCH   1   5
ATOM      5  C   UNL A   1      51.008  27.901  23.336  1.00  0.00     0.171 C 
BRANCH   5   6
ATOM      6  C   UNL A   1      49.941  27.897  22.218  1.00  0.00     0.038 C 
BRANCH   6   7
ATOM      7  C   UNL A   1      50.233  26.998  20.986  1.00  0.00    -0.015 C 
ATOM      8  C   UNL A   1      49.005  26.196  20.537  1.00  0.00     0.007 C 
ATOM      9  C   UNL A   1      50.692  27.879  19.814  1.00  0.00     0.007 C 
ENDBRANCH   6   7
ENDBRANCH   5   6
BRANCH   5  10
ATOM     10  C   UNL A   1      50.380  28.010  24.762  1.00  0.00     0.242 C 
ATOM     11  O   UNL A   1      50.983  28.685  25.608  1.00  0.00    -0.273 OA
ATOM     12  N   UNL A   1      49.284  27.332  25.230  1.00  0.00    -0.354 N 
ATOM     13  H   UNL A   1      49.249  27.314  26.213  1.00  0.00     0.163 HD
BRANCH  12  14
ATOM     14  C   UNL A   1      48.154  26.628  24.621  1.00  0.00     0.117 C 
BRANCH  14  15
ATOM     15  C   UNL A   1      46.889  27.432  24.190  1.00  0.00     0.042 C 
BRANCH  15  16
ATOM     16  C   UNL A   1      45.667  27.534  25.118  1.00  0.00     0.118 C 
BRANCH  16  17
ATOM     17  N   UNL A   1      44.859  26.325  25.131  1.00  0.00    -0.352 N 
ATOM     18  C   UNL A   1      43.792  25.862  25.860  1.00  0.00     0.251 C 
ATOM     19  H   UNL A   1      45.149  25.679  24.448  1.00  0.00     0.163 HD
ATOM     20  O   UNL A   1      43.452  24.699  25.616  1.00  0.00    -0.269 OA
BRANCH  18  21
ATOM     21  C   UNL A   1      43.021  26.596  26.913  1.00  0.00     0.039 A 
ATOM     22  C   UNL A   1      43.462  27.902  27.196  1.00  0.00     0.014 A 
ATOM     23  C   UNL A   1      42.076  26.035  27.775  1.00  0.00     0.014 A 
ATOM     24  C   UNL A   1      43.001  28.617  28.317  1.00  0.00     0.010 A 
ATOM     25  C   UNL A   1      41.581  26.775  28.887  1.00  0.00     0.010 A 
ATOM     26  C   UNL A   1      42.056  28.066  29.193  1.00  0.00    -0.014 A 
BRANCH  26  27
ATOM     27  C   UNL A   1      41.644  28.836  30.426  1.00  0.00     0.031 A 
ATOM     28  C   UNL A   1      42.441  28.752  31.715  1.00  0.00     0.074 A 
ATOM     29  C   UNL A   1      40.586  29.677  30.395  1.00  0.00     0.049 A 
ATOM     30  N   UNL A   1      42.257  29.386  32.851  1.00  0.00    -0.248 NA
ATOM     31  C   UNL A   1      43.591  27.838  31.730  1.00  0.00     0.031 C 
ATOM     32  C   UNL A   1      39.709  29.884  29.243  1.00  0.00     0.029 A 
ATOM     33  N   UNL A   1      40.071  30.523  31.355  1.00  0.00    -0.354 N 
ATOM     34  C   UNL A   1      43.252  28.937  33.716  1.00  0.00     0.074 A 
ATOM     35  C   UNL A   1      44.019  27.953  32.981  1.00  0.00     0.031 C 
ATOM     36  C   UNL A   1      38.783  30.807  29.553  1.00  0.00     0.029 A 
ATOM     37  C   UNL A   1      38.971  31.242  30.937  1.00  0.00     0.049 A 
ATOM     38  H   UNL A   1      40.453  30.607  32.258  1.00  0.00     0.167 HD
ATOM     39  C   UNL A   1      43.521  29.314  34.994  1.00  0.00     0.037 A 
ATOM     40  C   UNL A   1      38.194  32.141  31.579  1.00  0.00     0.037 A 
ATOM     41  C   UNL A   1      42.792  30.315  35.736  1.00  0.00     0.049 A 
ATOM     42  C   UNL A   1      38.498  32.533  33.003  1.00  0.00     0.074 A 
ATOM     43  C   UNL A   1      43.037  30.784  37.017  1.00  0.00     0.029 A 
ATOM     44  N   UNL A   1      41.681  31.002  35.271  1.00  0.00    -0.354 N 
ATOM     45  N   UNL A   1      39.475  32.128  33.778  1.00  0.00    -0.248 NA
ATOM     46  C   UNL A   1      37.598  33.508  33.640  1.00  0.00     0.031 C 
ATOM     47  C   UNL A   1      42.052  31.723  37.342  1.00  0.00     0.029 A 
ATOM     48  C   UNL A   1      41.220  31.874  36.247  1.00  0.00     0.049 A 
ATOM     49  H   UNL A   1      41.279  30.887  34.380  1.00  0.00     0.167 HD
ATOM     50  C   UNL A   1      39.322  32.818  34.978  1.00  0.00     0.074 A 
ATOM     51  C   UNL A   1      38.165  33.673  34.828  1.00  0.00     0.031 C 
ATOM     52  C   UNL A   1      40.080  32.744  36.100  1.00  0.00     0.037 A 
BRANCH  39  53
ATOM     53  C   UNL A   1      44.669  28.634  35.700  1.00  0.00     0.058 A 
ATOM     54  C   UNL A   1      44.494  27.431  36.401  1.00  0.00     0.135 A 
ATOM     55  C   UNL A   1      45.970  29.162  35.625  1.00  0.00     0.135 A 
ATOM     56  F   UNL A   1      43.275  26.879  36.504  1.00  0.00    -0.206 F 
ATOM     57  C   UNL A   1      45.558  26.797  37.038  1.00  0.00     0.059 A 
ATOM     58  C   UNL A   1      47.053  28.531  36.232  1.00  0.00     0.059 A 
ATOM     59  F   UNL A   1      46.200  30.301  34.953  1.00  0.00    -0.206 F 
ATOM     60  C   UNL A   1      46.833  27.359  36.953  1.00  0.00     0.060 A 
BRANCH  60  61
ATOM     61  S   UNL A   1      48.198  26.537  37.803  1.00  0.00     0.124 S 
ATOM     62  O   UNL A   1      47.733  26.558  39.188  1.00  0.00    -0.237 OA
ATOM     63  O   UNL A   1      48.222  25.225  37.165  1.00  0.00    -0.237 OA
ATOM     64  O   UNL A   1      49.345  27.392  37.515  1.00  0.00    -0.744 OA
ENDBRANCH  60  61
ENDBRANCH  39  53
BRANCH  40  65
ATOM     65  C   UNL A   1      37.033  32.756  30.873  1.00  0.00     0.058 A 
ATOM     66  C   UNL A   1      35.727  32.282  31.071  1.00  0.00     0.135 A 
ATOM     67  C   UNL A   1      37.209  33.827  29.983  1.00  0.00     0.135 A 
ATOM     68  F   UNL A   1      35.508  31.247  31.895  1.00  0.00    -0.206 F 
ATOM     69  C   UNL A   1      34.639  32.844  30.410  1.00  0.00     0.059 A 
ATOM     70  C   UNL A   1      36.133  34.422  29.330  1.00  0.00     0.059 A 
ATOM     71  F   UNL A   1      38.436  34.321  29.760  1.00  0.00    -0.206 F 
ATOM     72  C   UNL A   1      34.851  33.919  29.545  1.00  0.00     0.060 A 
BRANCH  72  73
ATOM     73  S   UNL A   1      33.424  34.686  28.746  1.00  0.00     0.124 S 
ATOM     74  O   UNL A   1      34.022  35.874  28.149  1.00  0.00    -0.237 OA
ATOM     75  O   UNL A   1      32.998  33.647  27.813  1.00  0.00    -0.237 OA
ATOM     76  O   UNL A   1      32.509  34.929  29.858  1.00  0.00    -0.744 OA
ENDBRANCH  72  73
ENDBRANCH  40  65
BRANCH  52  77
ATOM     77  C   UNL A   1      39.723  33.636  37.260  1.00  0.00     0.058 A 
ATOM     78  C   UNL A   1      38.783  33.251  38.228  1.00  0.00     0.135 A 
ATOM     79  C   UNL A   1      40.392  34.857  37.450  1.00  0.00     0.135 A 
ATOM     80  F   UNL A   1      38.107  32.099  38.093  1.00  0.00    -0.206 F 
ATOM     81  C   UNL A   1      38.517  34.045  39.342  1.00  0.00     0.059 A 
ATOM     82  C   UNL A   1      40.158  35.656  38.567  1.00  0.00     0.059 A 
ATOM     83  F   UNL A   1      41.305  35.273  36.558  1.00  0.00    -0.206 F 
ATOM     84  C   UNL A   1      39.215  35.243  39.507  1.00  0.00     0.060 A 
BRANCH  84  85
ATOM     85  S   UNL A   1      38.908  36.230  40.989  1.00  0.00     0.124 S 
ATOM     86  O   UNL A   1      40.184  36.119  41.688  1.00  0.00    -0.237 OA
ATOM     87  O   UNL A   1      38.602  37.544  40.433  1.00  0.00    -0.237 OA
ATOM     88  O   UNL A   1      37.783  35.550  41.624  1.00  0.00    -0.744 OA
ENDBRANCH  84  85
ENDBRANCH  52  77
ENDBRANCH  26  27
ENDBRANCH  18  21
ENDBRANCH  16  17
ENDBRANCH  15  16
ENDBRANCH  14  15
ENDBRANCH  12  14
ENDBRANCH   5  10
ENDBRANCH   1   5
BRANCH   2  89
ATOM     89  C   UNL A   1      54.304  27.654  24.041  1.00  0.00     0.175 C 
BRANCH  89  90
ATOM     90  N   UNL A   1      55.376  26.645  24.277  1.00  0.00    -0.342 N 
ATOM     91  C   UNL A   1      55.670  25.672  25.165  1.00  0.00     0.240 C 
ATOM     92  H   UNL A   1      56.072  26.707  23.583  1.00  0.00     0.164 HD
ATOM     93  O   UNL A   1      56.778  25.135  25.039  1.00  0.00    -0.273 OA
BRANCH  91  94
ATOM     94  C   UNL A   1      54.713  25.123  26.214  1.00  0.00     0.216 C 
BRANCH  94  95
ATOM     95  N   UNL A   1      53.395  24.711  25.803  1.00  0.00    -0.346 N 
ATOM     96  C   UNL A   1      52.241  25.150  26.360  1.00  0.00     0.239 C 
ATOM     97  H   UNL A   1      53.329  24.065  25.062  1.00  0.00     0.164 HD
ATOM     98  O   UNL A   1      51.159  24.896  25.830  1.00  0.00    -0.273 OA
BRANCH  96  99
ATOM     99  C   UNL A   1      52.330  26.022  27.600  1.00  0.00     0.219 C 
BRANCH  99 100
ATOM    100  N   UNL A   1      51.181  26.722  28.111  1.00  0.00    -0.312 N 
ATOM    101  C   UNL A   1      50.609  26.301  29.271  1.00  0.00     0.407 C 
ATOM    102  H   UNL A   1      50.813  27.496  27.627  1.00  0.00     0.167 HD
ATOM    103  O   UNL A   1      50.436  25.139  29.564  1.00  0.00    -0.225 OA
BRANCH 101 104
ATOM    104  O   UNL A   1      50.496  27.371  30.102  1.00  0.00    -0.445 OA
BRANCH 104 105
ATOM    105  C   UNL A   1      49.319  28.135  29.819  1.00  0.00     0.270 C 
BRANCH 105 106
ATOM    106  C   UNL A   1      48.117  27.228  29.784  1.00  0.00    -0.011 A 
ATOM    107  C   UNL A   1      47.459  26.901  28.588  1.00  0.00     0.007 A 
ATOM    108  C   UNL A   1      47.620  26.721  30.990  1.00  0.00     0.007 A 
ATOM    109  C   UNL A   1      46.333  26.073  28.606  1.00  0.00     0.000 A 
ATOM    110  C   UNL A   1      46.495  25.899  31.008  1.00  0.00     0.000 A 
ATOM    111  C   UNL A   1      45.853  25.573  29.816  1.00  0.00     0.000 A 
ENDBRANCH 105 106
ENDBRANCH 104 105
ENDBRANCH 101 104
ENDBRANCH  99 100
ENDBRANCH  96  99
ENDBRANCH  94  95
ENDBRANCH  91  94
ENDBRANCH  89  90
BRANCH  89 112
ATOM    112  C   UNL A   1      54.995  28.924  23.508  1.00  0.00     0.070 C 
BRANCH 112 113
ATOM    113  C   UNL A   1      54.107  29.803  22.676  1.00  0.00    -0.045 A 
ATOM    114  C   UNL A   1      53.183  30.663  23.273  1.00  0.00     0.004 A 
ATOM    115  C   UNL A   1      54.136  29.680  21.279  1.00  0.00     0.004 A 
ATOM    116  C   UNL A   1      52.261  31.348  22.482  1.00  0.00     0.000 A 
ATOM    117  C   UNL A   1      53.210  30.357  20.494  1.00  0.00     0.000 A 
ATOM    118  C   UNL A   1      52.265  31.183  21.097  1.00  0.00     0.000 A 
ENDBRANCH 112 113
ENDBRANCH  89 112
ENDBRANCH   2  89
TORSDOF 27
ENDMDL
