MODEL 1
REMARK VINA RESULT:     -12.0      0.000      0.000
REMARK SMILES O=C(CCc1cccnc1)Nc1cccc(F)c1C(=O)NCCCNC(=O)c1ccc(-c2c3nc(c(-c4c(F)cc(S(=O)(=O)[O-])cc4F)c4ccc([nH]4)c(-c4c(F)cc(S(=O)(=O)[O-])cc4F)c4nc(c(-c5c(F)cc(S(=O)(=O)[O-])cc5F)c5ccc2[nH]5)C=C4)C=C3)cc1
REMARK SMILES IDX 22 1 21 2 19 3 20 4 18 6 12 7 13 8 14 9 16 10 15 11 17 12
REMARK SMILES IDX 11 13 1 14 2 15 3 17 4 18 5 19 6 20 10 21 7 22 9 23 8 24
REMARK SMILES IDX 23 25 24 26 25 27 26 28 27 30 28 31 29 32 93 33 30 34 92 35
REMARK SMILES IDX 31 36 32 37 33 38 86 39 34 40 91 41 85 42 87 43 35 44 90 45
REMARK SMILES IDX 84 46 83 47 36 49 70 50 49 51 69 52 50 53 53 54 68 55 88 56
REMARK SMILES IDX 51 57 52 58 67 60 89 61 54 62 37 63 38 64 47 65 39 66 40 67
REMARK SMILES IDX 46 68 48 69 41 70 42 71 43 72 44 73 45 74 71 75 72 76 81 77
REMARK SMILES IDX 73 78 74 79 80 80 82 81 75 82 76 83 77 84 78 85 79 86 55 87
REMARK SMILES IDX 56 88 65 89 57 90 58 91 64 92 66 93 59 94 60 95 61 96 62 97
REMARK SMILES IDX 63 98
REMARK H PARENT 21 5 11 16 25 29 87 48 53 59
REMARK Flexibility Score: inf
ROOT
ATOM      1  C   UNL A   1      32.766  25.992  26.216  1.00  0.00     0.118 C 
ENDROOT
BRANCH   1   2
ATOM      2  N   UNL A   1      31.824  25.144  26.927  1.00  0.00    -0.352 N 
ATOM      3  C   UNL A   1      31.202  23.969  26.606  1.00  0.00     0.256 C 
ATOM      4  O   UNL A   1      30.292  23.594  27.348  1.00  0.00    -0.269 OA
ATOM      5  H   UNL A   1      31.586  25.484  27.820  1.00  0.00     0.163 HD
BRANCH   3   6
ATOM      6  C   UNL A   1      31.619  23.055  25.523  1.00  0.00     0.099 A 
ATOM      7  C   UNL A   1      31.129  23.293  24.210  1.00  0.00     0.056 A 
ATOM      8  C   UNL A   1      31.523  22.435  23.173  1.00  0.00     0.027 A 
ATOM      9  C   UNL A   1      32.406  21.381  23.412  1.00  0.00     0.005 A 
ATOM     10  C   UNL A   1      32.530  22.020  25.731  1.00  0.00     0.138 A 
ATOM     11  C   UNL A   1      32.913  21.177  24.690  1.00  0.00     0.040 A 
ATOM     12  F   UNL A   1      33.111  21.827  26.921  1.00  0.00    -0.206 F 
BRANCH   7  13
ATOM     13  N   UNL A   1      30.325  24.439  23.949  1.00  0.00    -0.325 N 
ATOM     14  O   UNL A   1      31.703  25.733  22.608  1.00  0.00    -0.275 OA
ATOM     15  C   UNL A   1      30.687  25.588  23.284  1.00  0.00     0.224 C 
ATOM     16  H   UNL A   1      29.400  24.404  24.286  1.00  0.00     0.169 HD
BRANCH  15  17
ATOM     17  C   UNL A   1      29.722  26.749  23.468  1.00  0.00     0.105 C 
BRANCH  17  18
ATOM     18  C   UNL A   1      30.143  28.035  22.757  1.00  0.00     0.047 C 
BRANCH  18  19
ATOM     19  C   UNL A   1      29.278  29.232  23.056  1.00  0.00    -0.029 A 
ATOM     20  C   UNL A   1      29.786  30.347  23.725  1.00  0.00     0.007 A 
ATOM     21  C   UNL A   1      27.929  29.263  22.702  1.00  0.00     0.114 A 
ATOM     22  C   UNL A   1      28.962  31.445  23.961  1.00  0.00     0.020 A 
ATOM     23  N   UNL A   1      27.105  30.311  22.923  1.00  0.00    -0.264 NA
ATOM     24  C   UNL A   1      27.647  31.387  23.529  1.00  0.00     0.111 A 
ENDBRANCH  18  19
ENDBRANCH  17  18
ENDBRANCH  15  17
ENDBRANCH   7  13
ENDBRANCH   3   6
ENDBRANCH   1   2
BRANCH   1  25
ATOM     25  C   UNL A   1      32.597  27.448  26.660  1.00  0.00     0.042 C 
BRANCH  25  26
ATOM     26  C   UNL A   1      33.914  28.224  26.732  1.00  0.00     0.118 C 
BRANCH  26  27
ATOM     27  N   UNL A   1      33.716  29.599  27.166  1.00  0.00    -0.352 N 
ATOM     28  C   UNL A   1      34.523  30.402  27.935  1.00  0.00     0.251 C 
ATOM     29  H   UNL A   1      32.877  30.015  26.863  1.00  0.00     0.163 HD
ATOM     30  O   UNL A   1      34.067  31.450  28.383  1.00  0.00    -0.269 OA
BRANCH  28  31
ATOM     31  C   UNL A   1      35.923  30.017  28.230  1.00  0.00     0.039 A 
ATOM     32  C   UNL A   1      36.876  30.121  27.212  1.00  0.00     0.014 A 
ATOM     33  C   UNL A   1      36.289  29.495  29.475  1.00  0.00     0.014 A 
ATOM     34  C   UNL A   1      38.200  29.744  27.454  1.00  0.00     0.010 A 
ATOM     35  C   UNL A   1      37.623  29.173  29.732  1.00  0.00     0.010 A 
ATOM     36  C   UNL A   1      38.592  29.287  28.722  1.00  0.00    -0.014 A 
BRANCH  36  37
ATOM     37  C   UNL A   1      40.004  28.918  29.005  1.00  0.00     0.031 A 
ATOM     38  C   UNL A   1      40.939  29.912  29.640  1.00  0.00     0.074 A 
ATOM     39  C   UNL A   1      40.459  27.699  28.649  1.00  0.00     0.049 A 
ATOM     40  N   UNL A   1      42.217  29.797  29.898  1.00  0.00    -0.248 NA
ATOM     41  C   UNL A   1      40.367  31.215  30.018  1.00  0.00     0.031 C 
ATOM     42  C   UNL A   1      39.663  26.657  27.999  1.00  0.00     0.029 A 
ATOM     43  N   UNL A   1      41.703  27.132  28.779  1.00  0.00    -0.354 N 
ATOM     44  C   UNL A   1      42.604  31.011  30.453  1.00  0.00     0.074 A 
ATOM     45  C   UNL A   1      41.436  31.865  30.456  1.00  0.00     0.031 C 
ATOM     46  C   UNL A   1      40.429  25.571  27.811  1.00  0.00     0.029 A 
ATOM     47  C   UNL A   1      41.779  25.849  28.291  1.00  0.00     0.049 A 
ATOM     48  H   UNL A   1      42.469  27.601  29.182  1.00  0.00     0.167 HD
ATOM     49  C   UNL A   1      43.817  31.372  30.938  1.00  0.00     0.037 A 
ATOM     50  C   UNL A   1      42.819  24.992  28.233  1.00  0.00     0.037 A 
ATOM     51  C   UNL A   1      44.970  30.509  30.962  1.00  0.00     0.049 A 
ATOM     52  C   UNL A   1      44.154  25.416  28.778  1.00  0.00     0.074 A 
ATOM     53  C   UNL A   1      46.232  30.773  31.467  1.00  0.00     0.029 A 
ATOM     54  N   UNL A   1      45.001  29.214  30.468  1.00  0.00    -0.354 N 
ATOM     55  N   UNL A   1      44.495  26.558  29.324  1.00  0.00    -0.248 NA
ATOM     56  C   UNL A   1      45.247  24.435  28.704  1.00  0.00     0.031 C 
ATOM     57  C   UNL A   1      47.034  29.649  31.251  1.00  0.00     0.029 A 
ATOM     58  C   UNL A   1      46.262  28.669  30.649  1.00  0.00     0.049 A 
ATOM     59  H   UNL A   1      44.240  28.749  30.051  1.00  0.00     0.167 HD
ATOM     60  C   UNL A   1      45.832  26.427  29.677  1.00  0.00     0.074 A 
ATOM     61  C   UNL A   1      46.237  25.091  29.293  1.00  0.00     0.031 C 
ATOM     62  C   UNL A   1      46.650  27.334  30.268  1.00  0.00     0.037 A 
BRANCH  49  63
ATOM     63  C   UNL A   1      43.962  32.760  31.499  1.00  0.00     0.058 A 
ATOM     64  C   UNL A   1      44.416  33.817  30.694  1.00  0.00     0.135 A 
ATOM     65  C   UNL A   1      43.706  33.034  32.853  1.00  0.00     0.135 A 
ATOM     66  F   UNL A   1      44.672  33.613  29.392  1.00  0.00    -0.206 F 
ATOM     67  C   UNL A   1      44.621  35.092  31.213  1.00  0.00     0.059 A 
ATOM     68  C   UNL A   1      43.880  34.306  33.387  1.00  0.00     0.059 A 
ATOM     69  F   UNL A   1      43.251  32.063  33.663  1.00  0.00    -0.206 F 
ATOM     70  C   UNL A   1      44.351  35.327  32.562  1.00  0.00     0.060 A 
BRANCH  70  71
ATOM     71  S   UNL A   1      44.584  36.995  33.212  1.00  0.00     0.124 S 
ATOM     72  O   UNL A   1      46.025  37.169  33.084  1.00  0.00    -0.237 OA
ATOM     73  O   UNL A   1      43.761  37.795  32.309  1.00  0.00    -0.237 OA
ATOM     74  O   UNL A   1      44.079  36.897  34.579  1.00  0.00    -0.744 OA
ENDBRANCH  70  71
ENDBRANCH  49  63
BRANCH  50  75
ATOM     75  C   UNL A   1      42.618  23.633  27.668  1.00  0.00     0.058 A 
ATOM     76  C   UNL A   1      42.397  22.521  28.495  1.00  0.00     0.135 A 
ATOM     77  C   UNL A   1      42.686  23.414  26.283  1.00  0.00     0.135 A 
ATOM     78  F   UNL A   1      42.332  22.675  29.827  1.00  0.00    -0.206 F 
ATOM     79  C   UNL A   1      42.277  21.238  27.973  1.00  0.00     0.059 A 
ATOM     80  C   UNL A   1      42.547  22.143  25.735  1.00  0.00     0.059 A 
ATOM     81  F   UNL A   1      42.883  24.449  25.452  1.00  0.00    -0.206 F 
ATOM     82  C   UNL A   1      42.361  21.058  26.591  1.00  0.00     0.060 A 
BRANCH  82  83
ATOM     83  S   UNL A   1      42.228  19.382  25.933  1.00  0.00     0.124 S 
ATOM     84  O   UNL A   1      43.068  19.470  24.743  1.00  0.00    -0.237 OA
ATOM     85  O   UNL A   1      42.763  18.578  27.029  1.00  0.00    -0.237 OA
ATOM     86  O   UNL A   1      40.799  19.228  25.685  1.00  0.00    -0.744 OA
ENDBRANCH  82  83
ENDBRANCH  50  75
BRANCH  62  87
ATOM     87  C   UNL A   1      48.062  26.911  30.562  1.00  0.00     0.058 A 
ATOM     88  C   UNL A   1      48.370  26.251  31.762  1.00  0.00     0.135 A 
ATOM     89  C   UNL A   1      49.119  27.227  29.695  1.00  0.00     0.135 A 
ATOM     90  F   UNL A   1      47.396  25.929  32.627  1.00  0.00    -0.206 F 
ATOM     91  C   UNL A   1      49.680  25.932  32.099  1.00  0.00     0.059 A 
ATOM     92  C   UNL A   1      50.436  26.897  30.002  1.00  0.00     0.059 A 
ATOM     93  F   UNL A   1      48.873  27.849  28.530  1.00  0.00    -0.206 F 
ATOM     94  C   UNL A   1      50.707  26.264  31.216  1.00  0.00     0.060 A 
BRANCH  94  95
ATOM     95  S   UNL A   1      52.404  25.835  31.663  1.00  0.00     0.124 S 
ATOM     96  O   UNL A   1      53.091  25.967  30.383  1.00  0.00    -0.237 OA
ATOM     97  O   UNL A   1      52.726  26.849  32.663  1.00  0.00    -0.237 OA
ATOM     98  O   UNL A   1      52.285  24.475  32.177  1.00  0.00    -0.744 OA
ENDBRANCH  94  95
ENDBRANCH  62  87
ENDBRANCH  36  37
ENDBRANCH  28  31
ENDBRANCH  26  27
ENDBRANCH  25  26
ENDBRANCH   1  25
TORSDOF 17
ENDMDL
MODEL 2
REMARK VINA RESULT:     -11.7      2.942      5.024
REMARK SMILES O=C(CCc1cccnc1)Nc1cccc(F)c1C(=O)NCCCNC(=O)c1ccc(-c2c3nc(c(-c4c(F)cc(S(=O)(=O)[O-])cc4F)c4ccc([nH]4)c(-c4c(F)cc(S(=O)(=O)[O-])cc4F)c4nc(c(-c5c(F)cc(S(=O)(=O)[O-])cc5F)c5ccc2[nH]5)C=C4)C=C3)cc1
REMARK SMILES IDX 22 1 21 2 19 3 20 4 18 6 12 7 13 8 14 9 16 10 15 11 17 12
REMARK SMILES IDX 11 13 1 14 2 15 3 17 4 18 5 19 6 20 10 21 7 22 9 23 8 24
REMARK SMILES IDX 23 25 24 26 25 27 26 28 27 30 28 31 29 32 93 33 30 34 92 35
REMARK SMILES IDX 31 36 32 37 33 38 86 39 34 40 91 41 85 42 87 43 35 44 90 45
REMARK SMILES IDX 84 46 83 47 36 49 70 50 49 51 69 52 50 53 53 54 68 55 88 56
REMARK SMILES IDX 51 57 52 58 67 60 89 61 54 62 37 63 38 64 47 65 39 66 40 67
REMARK SMILES IDX 46 68 48 69 41 70 42 71 43 72 44 73 45 74 71 75 72 76 81 77
REMARK SMILES IDX 73 78 74 79 80 80 82 81 75 82 76 83 77 84 78 85 79 86 55 87
REMARK SMILES IDX 56 88 65 89 57 90 58 91 64 92 66 93 59 94 60 95 61 96 62 97
REMARK SMILES IDX 63 98
REMARK H PARENT 21 5 11 16 25 29 87 48 53 59
REMARK Flexibility Score: inf
ROOT
ATOM      1  C   UNL A   1      31.943  27.732  26.949  1.00  0.00     0.118 C 
ENDROOT
BRANCH   1   2
ATOM      2  N   UNL A   1      31.217  26.474  26.916  1.00  0.00    -0.352 N 
ATOM      3  C   UNL A   1      30.707  25.718  25.897  1.00  0.00     0.256 C 
ATOM      4  O   UNL A   1      29.957  24.789  26.205  1.00  0.00    -0.269 OA
ATOM      5  H   UNL A   1      31.060  26.087  27.808  1.00  0.00     0.163 HD
BRANCH   3   6
ATOM      6  C   UNL A   1      31.085  25.845  24.474  1.00  0.00     0.099 A 
ATOM      7  C   UNL A   1      31.732  24.747  23.844  1.00  0.00     0.056 A 
ATOM      8  C   UNL A   1      32.089  24.854  22.493  1.00  0.00     0.027 A 
ATOM      9  C   UNL A   1      31.791  26.005  21.762  1.00  0.00     0.005 A 
ATOM     10  C   UNL A   1      30.763  26.970  23.715  1.00  0.00     0.138 A 
ATOM     11  C   UNL A   1      31.123  27.061  22.373  1.00  0.00     0.040 A 
ATOM     12  F   UNL A   1      30.051  27.980  24.228  1.00  0.00    -0.206 F 
BRANCH   7  13
ATOM     13  N   UNL A   1      31.925  23.532  24.561  1.00  0.00    -0.325 N 
ATOM     14  O   UNL A   1      34.216  23.505  24.910  1.00  0.00    -0.275 OA
ATOM     15  C   UNL A   1      33.117  22.956  24.937  1.00  0.00     0.224 C 
ATOM     16  H   UNL A   1      31.107  23.046  24.817  1.00  0.00     0.169 HD
BRANCH  15  17
ATOM     17  C   UNL A   1      32.999  21.508  25.384  1.00  0.00     0.105 C 
BRANCH  17  18
ATOM     18  C   UNL A   1      32.192  20.620  24.435  1.00  0.00     0.047 C 
BRANCH  18  19
ATOM     19  C   UNL A   1      32.882  19.345  24.027  1.00  0.00    -0.029 A 
ATOM     20  C   UNL A   1      34.081  18.945  24.622  1.00  0.00     0.007 A 
ATOM     21  C   UNL A   1      32.367  18.526  23.022  1.00  0.00     0.114 A 
ATOM     22  C   UNL A   1      34.676  17.746  24.237  1.00  0.00     0.020 A 
ATOM     23  N   UNL A   1      32.926  17.361  22.625  1.00  0.00    -0.264 NA
ATOM     24  C   UNL A   1      34.057  16.988  23.257  1.00  0.00     0.111 A 
ENDBRANCH  18  19
ENDBRANCH  17  18
ENDBRANCH  15  17
ENDBRANCH   7  13
ENDBRANCH   3   6
ENDBRANCH   1   2
BRANCH   1  25
ATOM     25  C   UNL A   1      33.436  27.480  26.722  1.00  0.00     0.042 C 
BRANCH  25  26
ATOM     26  C   UNL A   1      34.116  28.551  25.866  1.00  0.00     0.118 C 
BRANCH  26  27
ATOM     27  N   UNL A   1      33.759  29.897  26.288  1.00  0.00    -0.352 N 
ATOM     28  C   UNL A   1      34.277  30.665  27.303  1.00  0.00     0.251 C 
ATOM     29  H   UNL A   1      33.038  30.320  25.768  1.00  0.00     0.163 HD
ATOM     30  O   UNL A   1      33.679  31.682  27.645  1.00  0.00    -0.269 OA
BRANCH  28  31
ATOM     31  C   UNL A   1      35.534  30.280  27.985  1.00  0.00     0.039 A 
ATOM     32  C   UNL A   1      36.748  30.483  27.320  1.00  0.00     0.014 A 
ATOM     33  C   UNL A   1      35.525  29.665  29.241  1.00  0.00     0.014 A 
ATOM     34  C   UNL A   1      37.949  30.110  27.928  1.00  0.00     0.010 A 
ATOM     35  C   UNL A   1      36.729  29.344  29.871  1.00  0.00     0.010 A 
ATOM     36  C   UNL A   1      37.954  29.557  29.219  1.00  0.00    -0.014 A 
BRANCH  36  37
ATOM     37  C   UNL A   1      39.227  29.189  29.894  1.00  0.00     0.031 A 
ATOM     38  C   UNL A   1      39.682  29.935  31.120  1.00  0.00     0.074 A 
ATOM     39  C   UNL A   1      39.997  28.211  29.378  1.00  0.00     0.049 A 
ATOM     40  N   UNL A   1      40.791  29.805  31.802  1.00  0.00    -0.248 NA
ATOM     41  C   UNL A   1      38.780  30.978  31.637  1.00  0.00     0.031 C 
ATOM     42  C   UNL A   1      39.683  27.433  28.178  1.00  0.00     0.029 A 
ATOM     43  N   UNL A   1      41.205  27.705  29.793  1.00  0.00    -0.354 N 
ATOM     44  C   UNL A   1      40.728  30.754  32.816  1.00  0.00     0.074 A 
ATOM     45  C   UNL A   1      39.491  31.482  32.635  1.00  0.00     0.031 C 
ATOM     46  C   UNL A   1      40.658  26.534  27.968  1.00  0.00     0.029 A 
ATOM     47  C   UNL A   1      41.683  26.693  28.995  1.00  0.00     0.049 A 
ATOM     48  H   UNL A   1      41.683  28.037  30.587  1.00  0.00     0.167 HD
ATOM     49  C   UNL A   1      41.610  30.981  33.819  1.00  0.00     0.037 A 
ATOM     50  C   UNL A   1      42.822  25.974  29.077  1.00  0.00     0.037 A 
ATOM     51  C   UNL A   1      42.827  30.234  34.014  1.00  0.00     0.049 A 
ATOM     52  C   UNL A   1      43.784  26.244  30.200  1.00  0.00     0.074 A 
ATOM     53  C   UNL A   1      43.765  30.366  35.023  1.00  0.00     0.029 A 
ATOM     54  N   UNL A   1      43.268  29.210  33.190  1.00  0.00    -0.354 N 
ATOM     55  N   UNL A   1      43.695  27.128  31.165  1.00  0.00    -0.248 NA
ATOM     56  C   UNL A   1      45.000  25.420  30.249  1.00  0.00     0.031 C 
ATOM     57  C   UNL A   1      44.789  29.442  34.792  1.00  0.00     0.029 A 
ATOM     58  C   UNL A   1      44.469  28.707  33.663  1.00  0.00     0.049 A 
ATOM     59  H   UNL A   1      42.798  28.887  32.387  1.00  0.00     0.167 HD
ATOM     60  C   UNL A   1      44.830  26.952  31.947  1.00  0.00     0.074 A 
ATOM     61  C   UNL A   1      45.586  25.871  31.350  1.00  0.00     0.031 C 
ATOM     62  C   UNL A   1      45.209  27.625  33.062  1.00  0.00     0.037 A 
BRANCH  49  63
ATOM     63  C   UNL A   1      41.290  32.076  34.799  1.00  0.00     0.058 A 
ATOM     64  C   UNL A   1      40.442  31.837  35.892  1.00  0.00     0.135 A 
ATOM     65  C   UNL A   1      41.780  33.381  34.625  1.00  0.00     0.135 A 
ATOM     66  F   UNL A   1      39.949  30.608  36.110  1.00  0.00    -0.206 F 
ATOM     67  C   UNL A   1      40.081  32.855  36.770  1.00  0.00     0.059 A 
ATOM     68  C   UNL A   1      41.452  34.408  35.505  1.00  0.00     0.059 A 
ATOM     69  F   UNL A   1      42.611  33.659  33.607  1.00  0.00    -0.206 F 
ATOM     70  C   UNL A   1      40.591  34.138  36.568  1.00  0.00     0.060 A 
BRANCH  70  71
ATOM     71  S   UNL A   1      40.146  35.439  37.738  1.00  0.00     0.124 S 
ATOM     72  O   UNL A   1      41.349  35.532  38.556  1.00  0.00    -0.237 OA
ATOM     73  O   UNL A   1      39.887  36.572  36.854  1.00  0.00    -0.237 OA
ATOM     74  O   UNL A   1      38.967  34.900  38.409  1.00  0.00    -0.744 OA
ENDBRANCH  70  71
ENDBRANCH  49  63
BRANCH  50  75
ATOM     75  C   UNL A   1      43.087  24.904  28.081  1.00  0.00     0.058 A 
ATOM     76  C   UNL A   1      42.799  23.559  28.357  1.00  0.00     0.135 A 
ATOM     77  C   UNL A   1      43.676  25.206  26.843  1.00  0.00     0.135 A 
ATOM     78  F   UNL A   1      42.244  23.216  29.530  1.00  0.00    -0.206 F 
ATOM     79  C   UNL A   1      43.110  22.549  27.454  1.00  0.00     0.059 A 
ATOM     80  C   UNL A   1      43.975  24.215  25.914  1.00  0.00     0.059 A 
ATOM     81  F   UNL A   1      43.957  26.480  26.530  1.00  0.00    -0.206 F 
ATOM     82  C   UNL A   1      43.704  22.886  26.237  1.00  0.00     0.060 A 
BRANCH  82  83
ATOM     83  S   UNL A   1      44.123  21.558  25.088  1.00  0.00     0.124 S 
ATOM     84  O   UNL A   1      43.072  20.587  25.369  1.00  0.00    -0.237 OA
ATOM     85  O   UNL A   1      44.036  22.232  23.795  1.00  0.00    -0.237 OA
ATOM     86  O   UNL A   1      45.468  21.167  25.498  1.00  0.00    -0.744 OA
ENDBRANCH  82  83
ENDBRANCH  50  75
BRANCH  62  87
ATOM     87  C   UNL A   1      46.487  27.204  33.730  1.00  0.00     0.058 A 
ATOM     88  C   UNL A   1      47.713  27.756  33.328  1.00  0.00     0.135 A 
ATOM     89  C   UNL A   1      46.508  26.200  34.711  1.00  0.00     0.135 A 
ATOM     90  F   UNL A   1      47.750  28.716  32.391  1.00  0.00    -0.206 F 
ATOM     91  C   UNL A   1      48.918  27.316  33.865  1.00  0.00     0.059 A 
ATOM     92  C   UNL A   1      47.700  25.761  35.278  1.00  0.00     0.059 A 
ATOM     93  F   UNL A   1      45.360  25.649  35.136  1.00  0.00    -0.206 F 
ATOM     94  C   UNL A   1      48.903  26.315  34.835  1.00  0.00     0.060 A 
BRANCH  94  95
ATOM     95  S   UNL A   1      50.475  25.761  35.530  1.00  0.00     0.124 S 
ATOM     96  O   UNL A   1      50.905  26.942  36.272  1.00  0.00    -0.237 OA
ATOM     97  O   UNL A   1      50.068  24.616  36.342  1.00  0.00    -0.237 OA
ATOM     98  O   UNL A   1      51.270  25.433  34.352  1.00  0.00    -0.744 OA
ENDBRANCH  94  95
ENDBRANCH  62  87
ENDBRANCH  36  37
ENDBRANCH  28  31
ENDBRANCH  26  27
ENDBRANCH  25  26
ENDBRANCH   1  25
TORSDOF 17
ENDMDL
MODEL 3
REMARK VINA RESULT:     -11.6      1.525      3.822
REMARK SMILES O=C(CCc1cccnc1)Nc1cccc(F)c1C(=O)NCCCNC(=O)c1ccc(-c2c3nc(c(-c4c(F)cc(S(=O)(=O)[O-])cc4F)c4ccc([nH]4)c(-c4c(F)cc(S(=O)(=O)[O-])cc4F)c4nc(c(-c5c(F)cc(S(=O)(=O)[O-])cc5F)c5ccc2[nH]5)C=C4)C=C3)cc1
REMARK SMILES IDX 22 1 21 2 19 3 20 4 18 6 12 7 13 8 14 9 16 10 15 11 17 12
REMARK SMILES IDX 11 13 1 14 2 15 3 17 4 18 5 19 6 20 10 21 7 22 9 23 8 24
REMARK SMILES IDX 23 25 24 26 25 27 26 28 27 30 28 31 29 32 93 33 30 34 92 35
REMARK SMILES IDX 31 36 32 37 33 38 86 39 34 40 91 41 85 42 87 43 35 44 90 45
REMARK SMILES IDX 84 46 83 47 36 49 70 50 49 51 69 52 50 53 53 54 68 55 88 56
REMARK SMILES IDX 51 57 52 58 67 60 89 61 54 62 37 63 38 64 47 65 39 66 40 67
REMARK SMILES IDX 46 68 48 69 41 70 42 71 43 72 44 73 45 74 71 75 72 76 81 77
REMARK SMILES IDX 73 78 74 79 80 80 82 81 75 82 76 83 77 84 78 85 79 86 55 87
REMARK SMILES IDX 56 88 65 89 57 90 58 91 64 92 66 93 59 94 60 95 61 96 62 97
REMARK SMILES IDX 63 98
REMARK H PARENT 21 5 11 16 25 29 87 48 53 59
REMARK Flexibility Score: inf
ROOT
ATOM      1  C   UNL A   1      33.979  26.342  25.059  1.00  0.00     0.118 C 
ENDROOT
BRANCH   1   2
ATOM      2  N   UNL A   1      34.002  26.235  23.609  1.00  0.00    -0.352 N 
ATOM      3  C   UNL A   1      33.020  26.257  22.658  1.00  0.00     0.256 C 
ATOM      4  O   UNL A   1      33.341  25.937  21.511  1.00  0.00    -0.269 OA
ATOM      5  H   UNL A   1      34.907  26.124  23.238  1.00  0.00     0.163 HD
BRANCH   3   6
ATOM      6  C   UNL A   1      31.645  26.756  22.867  1.00  0.00     0.099 A 
ATOM      7  C   UNL A   1      30.646  25.835  23.285  1.00  0.00     0.056 A 
ATOM      8  C   UNL A   1      29.340  26.299  23.493  1.00  0.00     0.027 A 
ATOM      9  C   UNL A   1      29.023  27.648  23.324  1.00  0.00     0.005 A 
ATOM     10  C   UNL A   1      31.315  28.105  22.741  1.00  0.00     0.138 A 
ATOM     11  C   UNL A   1      30.013  28.551  22.952  1.00  0.00     0.040 A 
ATOM     12  F   UNL A   1      32.243  29.029  22.465  1.00  0.00    -0.206 F 
BRANCH   7  13
ATOM     13  N   UNL A   1      31.001  24.487  23.573  1.00  0.00    -0.325 N 
ATOM     14  O   UNL A   1      31.023  24.448  25.890  1.00  0.00    -0.275 OA
ATOM     15  C   UNL A   1      31.264  23.928  24.803  1.00  0.00     0.224 C 
ATOM     16  H   UNL A   1      31.066  23.882  22.798  1.00  0.00     0.169 HD
BRANCH  15  17
ATOM     17  C   UNL A   1      31.938  22.567  24.742  1.00  0.00     0.105 C 
BRANCH  17  18
ATOM     18  C   UNL A   1      32.852  22.371  23.531  1.00  0.00     0.047 C 
BRANCH  18  19
ATOM     19  C   UNL A   1      34.315  22.231  23.864  1.00  0.00    -0.029 A 
ATOM     20  C   UNL A   1      35.286  22.982  23.199  1.00  0.00     0.007 A 
ATOM     21  C   UNL A   1      34.760  21.327  24.828  1.00  0.00     0.114 A 
ATOM     22  C   UNL A   1      36.627  22.844  23.552  1.00  0.00     0.020 A 
ATOM     23  N   UNL A   1      36.053  21.168  25.187  1.00  0.00    -0.264 NA
ATOM     24  C   UNL A   1      36.955  21.946  24.554  1.00  0.00     0.111 A 
ENDBRANCH  18  19
ENDBRANCH  17  18
ENDBRANCH  15  17
ENDBRANCH   7  13
ENDBRANCH   3   6
ENDBRANCH   1   2
BRANCH   1  25
ATOM     25  C   UNL A   1      33.874  27.812  25.473  1.00  0.00     0.042 C 
BRANCH  25  26
ATOM     26  C   UNL A   1      33.888  28.025  26.989  1.00  0.00     0.118 C 
BRANCH  26  27
ATOM     27  N   UNL A   1      33.666  29.417  27.347  1.00  0.00    -0.352 N 
ATOM     28  C   UNL A   1      34.485  30.292  28.019  1.00  0.00     0.251 C 
ATOM     29  H   UNL A   1      32.798  29.787  27.066  1.00  0.00     0.163 HD
ATOM     30  O   UNL A   1      34.019  31.352  28.426  1.00  0.00    -0.269 OA
BRANCH  28  31
ATOM     31  C   UNL A   1      35.912  29.970  28.259  1.00  0.00     0.039 A 
ATOM     32  C   UNL A   1      36.302  29.566  29.540  1.00  0.00     0.014 A 
ATOM     33  C   UNL A   1      36.874  30.124  27.256  1.00  0.00     0.014 A 
ATOM     34  C   UNL A   1      37.643  29.277  29.803  1.00  0.00     0.010 A 
ATOM     35  C   UNL A   1      38.204  29.780  27.505  1.00  0.00     0.010 A 
ATOM     36  C   UNL A   1      38.605  29.360  28.783  1.00  0.00    -0.014 A 
BRANCH  36  37
ATOM     37  C   UNL A   1      40.029  29.019  29.039  1.00  0.00     0.031 A 
ATOM     38  C   UNL A   1      40.962  30.041  29.633  1.00  0.00     0.074 A 
ATOM     39  C   UNL A   1      40.496  27.802  28.695  1.00  0.00     0.049 A 
ATOM     40  N   UNL A   1      42.247  29.952  29.863  1.00  0.00    -0.248 NA
ATOM     41  C   UNL A   1      40.377  31.341  30.000  1.00  0.00     0.031 C 
ATOM     42  C   UNL A   1      39.702  26.735  28.085  1.00  0.00     0.029 A 
ATOM     43  N   UNL A   1      41.752  27.258  28.807  1.00  0.00    -0.354 N 
ATOM     44  C   UNL A   1      42.627  31.182  30.386  1.00  0.00     0.074 A 
ATOM     45  C   UNL A   1      41.445  32.017  30.400  1.00  0.00     0.031 C 
ATOM     46  C   UNL A   1      40.482  25.658  27.898  1.00  0.00     0.029 A 
ATOM     47  C   UNL A   1      41.838  25.967  28.341  1.00  0.00     0.049 A 
ATOM     48  H   UNL A   1      42.519  27.747  29.183  1.00  0.00     0.167 HD
ATOM     49  C   UNL A   1      43.844  31.573  30.835  1.00  0.00     0.037 A 
ATOM     50  C   UNL A   1      42.890  25.126  28.276  1.00  0.00     0.037 A 
ATOM     51  C   UNL A   1      45.012  30.729  30.848  1.00  0.00     0.049 A 
ATOM     52  C   UNL A   1      44.231  25.582  28.781  1.00  0.00     0.074 A 
ATOM     53  C   UNL A   1      46.280  31.023  31.318  1.00  0.00     0.029 A 
ATOM     54  N   UNL A   1      45.053  29.425  30.378  1.00  0.00    -0.354 N 
ATOM     55  N   UNL A   1      44.565  26.740  29.297  1.00  0.00    -0.248 NA
ATOM     56  C   UNL A   1      45.338  24.618  28.699  1.00  0.00     0.031 C 
ATOM     57  C   UNL A   1      47.096  29.908  31.105  1.00  0.00     0.029 A 
ATOM     58  C   UNL A   1      46.326  28.905  30.540  1.00  0.00     0.049 A 
ATOM     59  H   UNL A   1      44.290  28.940  29.988  1.00  0.00     0.167 HD
ATOM     60  C   UNL A   1      45.912  26.638  29.621  1.00  0.00     0.074 A 
ATOM     61  C   UNL A   1      46.331  25.301  29.253  1.00  0.00     0.031 C 
ATOM     62  C   UNL A   1      46.728  27.569  30.175  1.00  0.00     0.037 A 
BRANCH  49  63
ATOM     63  C   UNL A   1      43.979  32.974  31.366  1.00  0.00     0.058 A 
ATOM     64  C   UNL A   1      44.335  34.032  30.517  1.00  0.00     0.135 A 
ATOM     65  C   UNL A   1      43.811  33.258  32.732  1.00  0.00     0.135 A 
ATOM     66  F   UNL A   1      44.504  33.819  29.203  1.00  0.00    -0.206 F 
ATOM     67  C   UNL A   1      44.531  35.322  31.003  1.00  0.00     0.059 A 
ATOM     68  C   UNL A   1      43.977  34.545  33.235  1.00  0.00     0.059 A 
ATOM     69  F   UNL A   1      43.451  32.285  33.584  1.00  0.00    -0.206 F 
ATOM     70  C   UNL A   1      44.350  35.568  32.365  1.00  0.00     0.060 A 
BRANCH  70  71
ATOM     71  S   UNL A   1      44.569  37.253  32.975  1.00  0.00     0.124 S 
ATOM     72  O   UNL A   1      44.874  37.980  31.749  1.00  0.00    -0.237 OA
ATOM     73  O   UNL A   1      43.268  37.534  33.576  1.00  0.00    -0.237 OA
ATOM     74  O   UNL A   1      45.671  37.127  33.925  1.00  0.00    -0.744 OA
ENDBRANCH  70  71
ENDBRANCH  49  63
BRANCH  50  75
ATOM     75  C   UNL A   1      42.699  23.753  27.741  1.00  0.00     0.058 A 
ATOM     76  C   UNL A   1      42.637  23.507  26.360  1.00  0.00     0.135 A 
ATOM     77  C   UNL A   1      42.534  22.662  28.607  1.00  0.00     0.135 A 
ATOM     78  F   UNL A   1      42.780  24.518  25.489  1.00  0.00    -0.206 F 
ATOM     79  C   UNL A   1      42.390  22.234  25.859  1.00  0.00     0.059 A 
ATOM     80  C   UNL A   1      42.308  21.375  28.130  1.00  0.00     0.059 A 
ATOM     81  F   UNL A   1      42.599  22.847  29.935  1.00  0.00    -0.206 F 
ATOM     82  C   UNL A   1      42.219  21.175  26.752  1.00  0.00     0.060 A 
BRANCH  82  83
ATOM     83  S   UNL A   1      41.875  19.534  26.083  1.00  0.00     0.124 S 
ATOM     84  O   UNL A   1      42.260  18.678  27.201  1.00  0.00    -0.237 OA
ATOM     85  O   UNL A   1      40.443  19.609  25.806  1.00  0.00    -0.237 OA
ATOM     86  O   UNL A   1      42.735  19.460  24.908  1.00  0.00    -0.744 OA
ENDBRANCH  82  83
ENDBRANCH  50  75
BRANCH  62  87
ATOM     87  C   UNL A   1      48.153  27.175  30.444  1.00  0.00     0.058 A 
ATOM     88  C   UNL A   1      48.517  26.632  31.686  1.00  0.00     0.135 A 
ATOM     89  C   UNL A   1      49.169  27.406  29.503  1.00  0.00     0.135 A 
ATOM     90  F   UNL A   1      47.585  26.396  32.621  1.00  0.00    -0.206 F 
ATOM     91  C   UNL A   1      49.843  26.346  31.992  1.00  0.00     0.059 A 
ATOM     92  C   UNL A   1      50.499  27.105  29.780  1.00  0.00     0.059 A 
ATOM     93  F   UNL A   1      48.869  27.913  28.297  1.00  0.00    -0.206 F 
ATOM     94  C   UNL A   1      50.828  26.591  31.035  1.00  0.00     0.060 A 
BRANCH  94  95
ATOM     95  S   UNL A   1      52.544  26.205  31.444  1.00  0.00     0.124 S 
ATOM     96  O   UNL A   1      52.869  27.263  32.395  1.00  0.00    -0.237 OA
ATOM     97  O   UNL A   1      52.434  24.861  32.004  1.00  0.00    -0.237 OA
ATOM     98  O   UNL A   1      53.225  26.285  30.156  1.00  0.00    -0.744 OA
ENDBRANCH  94  95
ENDBRANCH  62  87
ENDBRANCH  36  37
ENDBRANCH  28  31
ENDBRANCH  26  27
ENDBRANCH  25  26
ENDBRANCH   1  25
TORSDOF 17
ENDMDL
