MODEL 1
REMARK VINA RESULT:     -12.2      0.000      0.000
REMARK SMILES CCC[NH+]1CCN(c2cc(C(=O)NCCCNC(=O)c3ccc(-c4c5nc(c(-c6c(F)cc(S(=O)(=O)[O-])cc6F)c6ccc([nH]6)c(-c6c(F)cc(S(=O)(=O)[O-])cc6F)c6nc(c(-c7c(F)cc(S(=O)(=O)[O-])cc7F)c7ccc4[nH]7)C=C6)C=C5)cc3)c3cc(NC(=O)c4ccc(F)cc4)ccc3n2)CC1
REMARK SMILES IDX 15 1 14 2 13 3 11 4 12 5 10 7 8 8 9 9 102 10 101 11 86 12
REMARK SMILES IDX 100 13 87 14 99 15 88 16 7 17 4 18 5 19 104 20 6 22 103 23
REMARK SMILES IDX 3 24 2 25 1 26 89 27 90 28 91 30 92 31 93 32 98 33 94 34
REMARK SMILES IDX 97 35 95 36 96 37 16 38 17 39 18 40 19 42 20 43 21 44 85 45
REMARK SMILES IDX 22 46 84 47 23 48 24 49 25 50 78 51 26 52 83 53 77 54 79 55
REMARK SMILES IDX 27 56 82 57 76 58 75 59 28 61 62 62 41 63 61 64 42 65 45 66
REMARK SMILES IDX 60 67 80 68 43 69 44 70 59 72 81 73 46 74 29 75 30 76 39 77
REMARK SMILES IDX 31 78 32 79 38 80 40 81 33 82 34 83 35 84 36 85 37 86 63 87
REMARK SMILES IDX 64 88 73 89 65 90 66 91 72 92 74 93 67 94 68 95 69 96 70 97
REMARK SMILES IDX 71 98 47 99 48 100 57 101 49 102 50 103 56 104 58 105 51 106
REMARK SMILES IDX 52 107 53 108 54 109 55 110
REMARK H PARENT 13 6 4 21 89 29 17 41 79 60 45 71
REMARK Flexibility Score: inf
ROOT
ATOM      1  C   UNL A   1      38.463  24.089  26.557  1.00  0.00     0.042 C 
ENDROOT
BRANCH   1   2
ATOM      2  C   UNL A   1      37.217  23.525  25.900  1.00  0.00     0.118 C 
BRANCH   2   3
ATOM      3  N   UNL A   1      37.238  23.353  24.459  1.00  0.00    -0.352 N 
ATOM      4  C   UNL A   1      36.234  23.171  23.531  1.00  0.00     0.252 C 
ATOM      5  O   UNL A   1      36.581  23.256  22.347  1.00  0.00    -0.269 OA
ATOM      6  H   UNL A   1      38.142  23.369  24.070  1.00  0.00     0.163 HD
BRANCH   4   7
ATOM      7  C   UNL A   1      34.796  22.809  23.806  1.00  0.00     0.052 A 
ATOM      8  C   UNL A   1      33.324  20.928  24.229  1.00  0.00     0.130 A 
ATOM      9  C   UNL A   1      34.599  21.447  24.042  1.00  0.00     0.061 A 
ATOM     10  N   UNL A   1      32.243  21.724  24.265  1.00  0.00    -0.231 NA
ATOM     11  C   UNL A   1      32.391  23.031  24.031  1.00  0.00     0.074 A 
ATOM     12  C   UNL A   1      33.637  23.606  23.722  1.00  0.00     0.015 A 
ATOM     13  C   UNL A   1      31.252  23.834  24.022  1.00  0.00     0.031 A 
ATOM     14  C   UNL A   1      33.614  24.907  23.224  1.00  0.00     0.037 A 
ATOM     15  C   UNL A   1      31.278  25.158  23.567  1.00  0.00     0.028 A 
ATOM     16  C   UNL A   1      32.461  25.659  23.057  1.00  0.00     0.042 A 
BRANCH   8  17
ATOM     17  N   UNL A   1      33.152  19.571  24.370  1.00  0.00    -0.345 N 
ATOM     18  N   UNL A   1      33.681  16.832  23.460  1.00  0.00    -0.332 N 
ATOM     19  C   UNL A   1      32.975  17.845  22.646  1.00  0.00     0.284 C 
ATOM     20  C   UNL A   1      34.668  17.569  24.301  1.00  0.00     0.284 C 
ATOM     21  H   UNL A   1      34.131  16.167  22.831  1.00  0.00     0.348 HD
ATOM     22  C   UNL A   1      32.222  18.899  23.473  1.00  0.00     0.179 C 
ATOM     23  C   UNL A   1      34.102  18.756  25.131  1.00  0.00     0.179 C 
BRANCH  18  24
ATOM     24  C   UNL A   1      32.797  16.002  24.297  1.00  0.00     0.262 C 
BRANCH  24  25
ATOM     25  C   UNL A   1      33.466  15.086  25.338  1.00  0.00     0.058 C 
ATOM     26  C   UNL A   1      32.609  13.925  25.811  1.00  0.00     0.010 C 
ENDBRANCH  24  25
ENDBRANCH  18  24
ENDBRANCH   8  17
BRANCH  16  27
ATOM     27  N   UNL A   1      32.471  26.872  22.349  1.00  0.00    -0.322 N 
ATOM     28  C   UNL A   1      32.464  28.184  22.805  1.00  0.00     0.255 C 
ATOM     29  H   UNL A   1      32.485  26.776  21.370  1.00  0.00     0.170 HD
ATOM     30  O   UNL A   1      32.229  29.088  22.003  1.00  0.00    -0.269 OA
BRANCH  28  31
ATOM     31  C   UNL A   1      32.763  28.547  24.228  1.00  0.00     0.040 A 
ATOM     32  C   UNL A   1      31.727  29.084  25.000  1.00  0.00     0.017 A 
ATOM     33  C   UNL A   1      34.003  28.306  24.840  1.00  0.00     0.017 A 
ATOM     34  C   UNL A   1      31.879  29.248  26.382  1.00  0.00     0.040 A 
ATOM     35  C   UNL A   1      34.134  28.409  26.231  1.00  0.00     0.040 A 
ATOM     36  C   UNL A   1      33.065  28.863  26.991  1.00  0.00     0.123 A 
ATOM     37  F   UNL A   1      33.176  28.927  28.324  1.00  0.00    -0.207 F 
ENDBRANCH  28  31
ENDBRANCH  16  27
ENDBRANCH   4   7
ENDBRANCH   2   3
ENDBRANCH   1   2
BRANCH   1  38
ATOM     38  C   UNL A   1      39.601  23.090  26.748  1.00  0.00     0.118 C 
BRANCH  38  39
ATOM     39  N   UNL A   1      40.870  23.440  26.096  1.00  0.00    -0.352 N 
ATOM     40  C   UNL A   1      41.724  24.516  26.225  1.00  0.00     0.251 C 
ATOM     41  H   UNL A   1      41.171  22.775  25.436  1.00  0.00     0.163 HD
ATOM     42  O   UNL A   1      42.753  24.597  25.560  1.00  0.00    -0.269 OA
BRANCH  40  43
ATOM     43  C   UNL A   1      41.406  25.579  27.179  1.00  0.00     0.039 A 
ATOM     44  C   UNL A   1      40.671  25.327  28.345  1.00  0.00     0.014 A 
ATOM     45  C   UNL A   1      41.896  26.845  26.902  1.00  0.00     0.014 A 
ATOM     46  C   UNL A   1      40.542  26.339  29.299  1.00  0.00     0.010 A 
ATOM     47  C   UNL A   1      41.915  27.778  27.908  1.00  0.00     0.010 A 
ATOM     48  C   UNL A   1      41.220  27.549  29.107  1.00  0.00    -0.014 A 
BRANCH  48  49
ATOM     49  C   UNL A   1      41.232  28.680  30.060  1.00  0.00     0.031 A 
ATOM     50  C   UNL A   1      42.174  28.568  31.230  1.00  0.00     0.074 A 
ATOM     51  C   UNL A   1      40.251  29.599  30.021  1.00  0.00     0.049 A 
ATOM     52  N   UNL A   1      42.079  29.085  32.422  1.00  0.00    -0.248 NA
ATOM     53  C   UNL A   1      43.302  27.629  31.065  1.00  0.00     0.031 C 
ATOM     54  C   UNL A   1      39.253  29.742  28.959  1.00  0.00     0.029 A 
ATOM     55  N   UNL A   1      39.896  30.552  30.940  1.00  0.00    -0.354 N 
ATOM     56  C   UNL A   1      43.078  28.468  33.169  1.00  0.00     0.074 A 
ATOM     57  C   UNL A   1      43.711  27.491  32.316  1.00  0.00     0.031 C 
ATOM     58  C   UNL A   1      38.399  30.727  29.285  1.00  0.00     0.029 A 
ATOM     59  C   UNL A   1      38.754  31.241  30.602  1.00  0.00     0.049 A 
ATOM     60  H   UNL A   1      40.408  30.726  31.762  1.00  0.00     0.167 HD
ATOM     61  C   UNL A   1      43.438  28.719  34.449  1.00  0.00     0.037 A 
ATOM     62  C   UNL A   1      38.067  32.164  31.301  1.00  0.00     0.037 A 
ATOM     63  C   UNL A   1      42.838  29.772  35.222  1.00  0.00     0.049 A 
ATOM     64  C   UNL A   1      38.565  32.525  32.674  1.00  0.00     0.074 A 
ATOM     65  C   UNL A   1      43.178  30.223  36.482  1.00  0.00     0.029 A 
ATOM     66  N   UNL A   1      41.784  30.562  34.778  1.00  0.00    -0.354 N 
ATOM     67  N   UNL A   1      39.535  31.972  33.366  1.00  0.00    -0.248 NA
ATOM     68  C   UNL A   1      37.891  33.634  33.359  1.00  0.00     0.031 C 
ATOM     69  C   UNL A   1      42.318  31.276  36.808  1.00  0.00     0.029 A 
ATOM     70  C   UNL A   1      41.472  31.510  35.733  1.00  0.00     0.049 A 
ATOM     71  H   UNL A   1      41.328  30.462  33.912  1.00  0.00     0.167 HD
ATOM     72  C   UNL A   1      39.619  32.696  34.549  1.00  0.00     0.074 A 
ATOM     73  C   UNL A   1      38.596  33.720  34.481  1.00  0.00     0.031 C 
ATOM     74  C   UNL A   1      40.466  32.535  35.596  1.00  0.00     0.037 A 
BRANCH  61  75
ATOM     75  C   UNL A   1      44.534  27.883  35.054  1.00  0.00     0.058 A 
ATOM     76  C   UNL A   1      45.890  28.228  34.923  1.00  0.00     0.135 A 
ATOM     77  C   UNL A   1      44.232  26.719  35.783  1.00  0.00     0.135 A 
ATOM     78  F   UNL A   1      46.247  29.321  34.228  1.00  0.00    -0.206 F 
ATOM     79  C   UNL A   1      46.904  27.431  35.444  1.00  0.00     0.059 A 
ATOM     80  C   UNL A   1      45.229  25.927  36.348  1.00  0.00     0.059 A 
ATOM     81  F   UNL A   1      42.956  26.334  35.945  1.00  0.00    -0.206 F 
ATOM     82  C   UNL A   1      46.563  26.281  36.156  1.00  0.00     0.060 A 
BRANCH  82  83
ATOM     83  S   UNL A   1      47.893  25.265  36.833  1.00  0.00     0.124 S 
ATOM     84  O   UNL A   1      48.071  24.276  35.774  1.00  0.00    -0.237 OA
ATOM     85  O   UNL A   1      48.977  26.230  36.985  1.00  0.00    -0.237 OA
ATOM     86  O   UNL A   1      47.331  24.756  38.080  1.00  0.00    -0.744 OA
ENDBRANCH  82  83
ENDBRANCH  61  75
BRANCH  62  87
ATOM     87  C   UNL A   1      36.897  32.845  30.684  1.00  0.00     0.058 A 
ATOM     88  C   UNL A   1      35.596  32.546  31.118  1.00  0.00     0.135 A 
ATOM     89  C   UNL A   1      37.043  33.840  29.704  1.00  0.00     0.135 A 
ATOM     90  F   UNL A   1      35.403  31.606  32.056  1.00  0.00    -0.206 F 
ATOM     91  C   UNL A   1      34.482  33.195  30.595  1.00  0.00     0.059 A 
ATOM     92  C   UNL A   1      35.945  34.519  29.182  1.00  0.00     0.059 A 
ATOM     93  F   UNL A   1      38.266  34.186  29.274  1.00  0.00    -0.206 F 
ATOM     94  C   UNL A   1      34.667  34.184  29.628  1.00  0.00     0.060 A 
BRANCH  94  95
ATOM     95  S   UNL A   1      33.214  35.058  29.002  1.00  0.00     0.124 S 
ATOM     96  O   UNL A   1      32.429  35.230  30.218  1.00  0.00    -0.237 OA
ATOM     97  O   UNL A   1      33.804  36.271  28.444  1.00  0.00    -0.237 OA
ATOM     98  O   UNL A   1      32.662  34.129  28.019  1.00  0.00    -0.744 OA
ENDBRANCH  94  95
ENDBRANCH  62  87
BRANCH  74  99
ATOM     99  C   UNL A   1      40.376  33.531  36.713  1.00  0.00     0.058 A 
ATOM    100  C   UNL A   1      39.535  33.329  37.816  1.00  0.00     0.135 A 
ATOM    101  C   UNL A   1      41.234  34.643  36.726  1.00  0.00     0.135 A 
ATOM    102  F   UNL A   1      38.694  32.283  37.842  1.00  0.00    -0.206 F 
ATOM    103  C   UNL A   1      39.546  34.200  38.898  1.00  0.00     0.059 A 
ATOM    104  C   UNL A   1      41.280  35.512  37.810  1.00  0.00     0.059 A 
ATOM    105  F   UNL A   1      42.065  34.868  35.695  1.00  0.00    -0.206 F 
ATOM    106  C   UNL A   1      40.431  35.281  38.890  1.00  0.00     0.060 A 
BRANCH 106 107
ATOM    107  S   UNL A   1      40.492  36.355  40.338  1.00  0.00     0.124 S 
ATOM    108  O   UNL A   1      39.484  37.356  40.003  1.00  0.00    -0.237 OA
ATOM    109  O   UNL A   1      40.142  35.439  41.419  1.00  0.00    -0.237 OA
ATOM    110  O   UNL A   1      41.872  36.832  40.350  1.00  0.00    -0.744 OA
ENDBRANCH 106 107
ENDBRANCH  74  99
ENDBRANCH  48  49
ENDBRANCH  40  43
ENDBRANCH  38  39
ENDBRANCH   1  38
TORSDOF 18
ENDMDL
MODEL 2
REMARK VINA RESULT:     -12.1      1.098      7.933
REMARK SMILES CCC[NH+]1CCN(c2cc(C(=O)NCCCNC(=O)c3ccc(-c4c5nc(c(-c6c(F)cc(S(=O)(=O)[O-])cc6F)c6ccc([nH]6)c(-c6c(F)cc(S(=O)(=O)[O-])cc6F)c6nc(c(-c7c(F)cc(S(=O)(=O)[O-])cc7F)c7ccc4[nH]7)C=C6)C=C5)cc3)c3cc(NC(=O)c4ccc(F)cc4)ccc3n2)CC1
REMARK SMILES IDX 15 1 14 2 13 3 11 4 12 5 10 7 8 8 9 9 102 10 101 11 86 12
REMARK SMILES IDX 100 13 87 14 99 15 88 16 7 17 4 18 5 19 104 20 6 22 103 23
REMARK SMILES IDX 3 24 2 25 1 26 89 27 90 28 91 30 92 31 93 32 98 33 94 34
REMARK SMILES IDX 97 35 95 36 96 37 16 38 17 39 18 40 19 42 20 43 21 44 85 45
REMARK SMILES IDX 22 46 84 47 23 48 24 49 25 50 78 51 26 52 83 53 77 54 79 55
REMARK SMILES IDX 27 56 82 57 76 58 75 59 28 61 62 62 41 63 61 64 42 65 45 66
REMARK SMILES IDX 60 67 80 68 43 69 44 70 59 72 81 73 46 74 29 75 30 76 39 77
REMARK SMILES IDX 31 78 32 79 38 80 40 81 33 82 34 83 35 84 36 85 37 86 63 87
REMARK SMILES IDX 64 88 73 89 65 90 66 91 72 92 74 93 67 94 68 95 69 96 70 97
REMARK SMILES IDX 71 98 47 99 48 100 57 101 49 102 50 103 56 104 58 105 51 106
REMARK SMILES IDX 52 107 53 108 54 109 55 110
REMARK H PARENT 13 6 4 21 89 29 17 41 79 60 45 71
REMARK Flexibility Score: inf
ROOT
ATOM      1  C   UNL A   1      38.791  23.398  26.290  1.00  0.00     0.042 C 
ENDROOT
BRANCH   1   2
ATOM      2  C   UNL A   1      37.367  23.388  25.768  1.00  0.00     0.118 C 
BRANCH   2   3
ATOM      3  N   UNL A   1      37.180  23.357  24.330  1.00  0.00    -0.352 N 
ATOM      4  C   UNL A   1      36.074  23.114  23.542  1.00  0.00     0.252 C 
ATOM      5  O   UNL A   1      36.212  23.363  22.339  1.00  0.00    -0.269 OA
ATOM      6  H   UNL A   1      37.999  23.547  23.818  1.00  0.00     0.163 HD
BRANCH   4   7
ATOM      7  C   UNL A   1      34.761  22.515  23.979  1.00  0.00     0.052 A 
ATOM      8  C   UNL A   1      33.722  20.434  24.670  1.00  0.00     0.130 A 
ATOM      9  C   UNL A   1      34.853  21.165  24.325  1.00  0.00     0.061 A 
ATOM     10  N   UNL A   1      32.514  21.014  24.755  1.00  0.00    -0.231 NA
ATOM     11  C   UNL A   1      32.385  22.300  24.418  1.00  0.00     0.074 A 
ATOM     12  C   UNL A   1      33.467  23.070  23.952  1.00  0.00     0.015 A 
ATOM     13  C   UNL A   1      31.115  22.872  24.463  1.00  0.00     0.031 A 
ATOM     14  C   UNL A   1      33.151  24.296  23.370  1.00  0.00     0.037 A 
ATOM     15  C   UNL A   1      30.846  24.133  23.919  1.00  0.00     0.028 A 
ATOM     16  C   UNL A   1      31.863  24.801  23.263  1.00  0.00     0.042 A 
BRANCH   8  17
ATOM     17  N   UNL A   1      33.830  19.086  24.920  1.00  0.00    -0.345 N 
ATOM     18  N   UNL A   1      33.159  16.311  24.241  1.00  0.00    -0.332 N 
ATOM     19  C   UNL A   1      32.158  17.322  24.648  1.00  0.00     0.284 C 
ATOM     20  C   UNL A   1      34.238  17.043  23.516  1.00  0.00     0.284 C 
ATOM     21  H   UNL A   1      32.699  15.619  23.651  1.00  0.00     0.348 HD
ATOM     22  C   UNL A   1      32.714  18.416  25.573  1.00  0.00     0.179 C 
ATOM     23  C   UNL A   1      34.847  18.266  24.258  1.00  0.00     0.179 C 
BRANCH  18  24
ATOM     24  C   UNL A   1      33.718  15.527  25.357  1.00  0.00     0.262 C 
BRANCH  24  25
ATOM     25  C   UNL A   1      32.836  14.412  25.947  1.00  0.00     0.058 C 
ATOM     26  C   UNL A   1      31.347  14.714  25.957  1.00  0.00     0.010 C 
ENDBRANCH  24  25
ENDBRANCH  18  24
ENDBRANCH   8  17
BRANCH  16  27
ATOM     27  N   UNL A   1      31.579  25.929  22.476  1.00  0.00    -0.322 N 
ATOM     28  C   UNL A   1      31.513  27.274  22.815  1.00  0.00     0.255 C 
ATOM     29  H   UNL A   1      31.398  25.733  21.529  1.00  0.00     0.170 HD
ATOM     30  O   UNL A   1      31.008  28.062  22.015  1.00  0.00    -0.269 OA
BRANCH  28  31
ATOM     31  C   UNL A   1      32.060  27.810  24.104  1.00  0.00     0.040 A 
ATOM     32  C   UNL A   1      31.263  27.708  25.249  1.00  0.00     0.017 A 
ATOM     33  C   UNL A   1      33.354  28.340  24.230  1.00  0.00     0.017 A 
ATOM     34  C   UNL A   1      31.791  27.995  26.513  1.00  0.00     0.040 A 
ATOM     35  C   UNL A   1      33.902  28.566  25.498  1.00  0.00     0.040 A 
ATOM     36  C   UNL A   1      33.120  28.375  26.630  1.00  0.00     0.123 A 
ATOM     37  F   UNL A   1      33.653  28.555  27.845  1.00  0.00    -0.207 F 
ENDBRANCH  28  31
ENDBRANCH  16  27
ENDBRANCH   4   7
ENDBRANCH   2   3
ENDBRANCH   1   2
BRANCH   1  38
ATOM     38  C   UNL A   1      39.338  24.777  26.651  1.00  0.00     0.118 C 
BRANCH  38  39
ATOM     39  N   UNL A   1      40.441  25.262  25.811  1.00  0.00    -0.352 N 
ATOM     40  C   UNL A   1      41.434  26.198  26.017  1.00  0.00     0.251 C 
ATOM     41  H   UNL A   1      40.480  24.835  24.925  1.00  0.00     0.163 HD
ATOM     42  O   UNL A   1      42.268  26.444  25.150  1.00  0.00    -0.269 OA
BRANCH  40  43
ATOM     43  C   UNL A   1      41.504  26.906  27.296  1.00  0.00     0.039 A 
ATOM     44  C   UNL A   1      41.889  28.250  27.373  1.00  0.00     0.014 A 
ATOM     45  C   UNL A   1      41.136  26.201  28.429  1.00  0.00     0.014 A 
ATOM     46  C   UNL A   1      41.776  28.921  28.593  1.00  0.00     0.010 A 
ATOM     47  C   UNL A   1      40.865  26.899  29.579  1.00  0.00     0.010 A 
ATOM     48  C   UNL A   1      41.203  28.258  29.685  1.00  0.00    -0.014 A 
BRANCH  48  49
ATOM     49  C   UNL A   1      40.957  28.860  31.014  1.00  0.00     0.031 A 
ATOM     50  C   UNL A   1      39.808  29.827  31.116  1.00  0.00     0.074 A 
ATOM     51  C   UNL A   1      41.889  28.756  31.979  1.00  0.00     0.049 A 
ATOM     52  N   UNL A   1      39.644  30.837  31.923  1.00  0.00    -0.248 NA
ATOM     53  C   UNL A   1      38.774  29.717  30.068  1.00  0.00     0.031 C 
ATOM     54  C   UNL A   1      43.071  27.892  31.939  1.00  0.00     0.029 A 
ATOM     55  N   UNL A   1      42.016  29.438  33.161  1.00  0.00    -0.354 N 
ATOM     56  C   UNL A   1      38.544  31.528  31.426  1.00  0.00     0.074 A 
ATOM     57  C   UNL A   1      38.131  30.864  30.213  1.00  0.00     0.031 C 
ATOM     58  C   UNL A   1      43.802  28.094  33.048  1.00  0.00     0.029 A 
ATOM     59  C   UNL A   1      43.173  29.142  33.843  1.00  0.00     0.049 A 
ATOM     60  H   UNL A   1      41.346  30.079  33.489  1.00  0.00     0.167 HD
ATOM     61  C   UNL A   1      37.928  32.610  31.958  1.00  0.00     0.037 A 
ATOM     62  C   UNL A   1      43.672  29.683  34.970  1.00  0.00     0.037 A 
ATOM     63  C   UNL A   1      38.321  33.172  33.221  1.00  0.00     0.049 A 
ATOM     64  C   UNL A   1      42.898  30.799  35.619  1.00  0.00     0.074 A 
ATOM     65  C   UNL A   1      37.720  34.185  33.943  1.00  0.00     0.029 A 
ATOM     66  N   UNL A   1      39.409  32.732  33.967  1.00  0.00    -0.354 N 
ATOM     67  N   UNL A   1      41.834  31.426  35.173  1.00  0.00    -0.248 NA
ATOM     68  C   UNL A   1      43.379  31.276  36.921  1.00  0.00     0.031 C 
ATOM     69  C   UNL A   1      38.456  34.370  35.117  1.00  0.00     0.029 A 
ATOM     70  C   UNL A   1      39.488  33.442  35.148  1.00  0.00     0.049 A 
ATOM     71  H   UNL A   1      40.030  32.020  33.693  1.00  0.00     0.167 HD
ATOM     72  C   UNL A   1      41.488  32.340  36.160  1.00  0.00     0.074 A 
ATOM     73  C   UNL A   1      42.463  32.188  37.223  1.00  0.00     0.031 C 
ATOM     74  C   UNL A   1      40.459  33.222  36.193  1.00  0.00     0.037 A 
BRANCH  61  75
ATOM     75  C   UNL A   1      36.768  33.207  31.205  1.00  0.00     0.058 A 
ATOM     76  C   UNL A   1      35.439  33.017  31.618  1.00  0.00     0.135 A 
ATOM     77  C   UNL A   1      36.982  33.987  30.056  1.00  0.00     0.135 A 
ATOM     78  F   UNL A   1      35.165  32.271  32.701  1.00  0.00    -0.206 F 
ATOM     79  C   UNL A   1      34.366  33.531  30.897  1.00  0.00     0.059 A 
ATOM     80  C   UNL A   1      35.926  34.546  29.340  1.00  0.00     0.059 A 
ATOM     81  F   UNL A   1      38.229  34.207  29.608  1.00  0.00    -0.206 F 
ATOM     82  C   UNL A   1      34.620  34.296  29.758  1.00  0.00     0.060 A 
BRANCH  82  83
ATOM     83  S   UNL A   1      33.216  34.964  28.842  1.00  0.00     0.124 S 
ATOM     84  O   UNL A   1      32.286  35.280  29.923  1.00  0.00    -0.237 OA
ATOM     85  O   UNL A   1      33.806  36.112  28.160  1.00  0.00    -0.237 OA
ATOM     86  O   UNL A   1      32.818  33.859  27.974  1.00  0.00    -0.744 OA
ENDBRANCH  82  83
ENDBRANCH  61  75
BRANCH  62  87
ATOM     87  C   UNL A   1      44.912  29.129  35.576  1.00  0.00     0.058 A 
ATOM     88  C   UNL A   1      46.152  29.741  35.332  1.00  0.00     0.135 A 
ATOM     89  C   UNL A   1      44.890  28.031  36.451  1.00  0.00     0.135 A 
ATOM     90  F   UNL A   1      46.226  30.796  34.508  1.00  0.00    -0.206 F 
ATOM     91  C   UNL A   1      47.325  29.277  35.918  1.00  0.00     0.059 A 
ATOM     92  C   UNL A   1      46.048  27.562  37.067  1.00  0.00     0.059 A 
ATOM     93  F   UNL A   1      43.728  27.427  36.743  1.00  0.00    -0.206 F 
ATOM     94  C   UNL A   1      47.263  28.187  36.787  1.00  0.00     0.060 A 
BRANCH  94  95
ATOM     95  S   UNL A   1      48.788  27.634  37.584  1.00  0.00     0.124 S 
ATOM     96  O   UNL A   1      48.835  26.233  37.185  1.00  0.00    -0.237 OA
ATOM     97  O   UNL A   1      49.786  28.508  36.975  1.00  0.00    -0.237 OA
ATOM     98  O   UNL A   1      48.534  27.879  39.001  1.00  0.00    -0.744 OA
ENDBRANCH  94  95
ENDBRANCH  62  87
BRANCH  74  99
ATOM     99  C   UNL A   1      40.286  34.033  37.442  1.00  0.00     0.058 A 
ATOM    100  C   UNL A   1      40.948  35.254  37.626  1.00  0.00     0.135 A 
ATOM    101  C   UNL A   1      39.353  33.630  38.411  1.00  0.00     0.135 A 
ATOM    102  F   UNL A   1      41.853  35.675  36.728  1.00  0.00    -0.206 F 
ATOM    103  C   UNL A   1      40.691  36.051  38.734  1.00  0.00     0.059 A 
ATOM    104  C   UNL A   1      39.062  34.424  39.513  1.00  0.00     0.059 A 
ATOM    105  F   UNL A   1      38.687  32.472  38.268  1.00  0.00    -0.206 F 
ATOM    106  C   UNL A   1      39.738  35.632  39.665  1.00  0.00     0.060 A 
BRANCH 106 107
ATOM    107  S   UNL A   1      39.357  36.717  41.055  1.00  0.00     0.124 S 
ATOM    108  O   UNL A   1      38.612  37.786  40.397  1.00  0.00    -0.237 OA
ATOM    109  O   UNL A   1      38.576  35.844  41.926  1.00  0.00    -0.237 OA
ATOM    110  O   UNL A   1      40.672  37.091  41.567  1.00  0.00    -0.744 OA
ENDBRANCH 106 107
ENDBRANCH  74  99
ENDBRANCH  48  49
ENDBRANCH  40  43
ENDBRANCH  38  39
ENDBRANCH   1  38
TORSDOF 18
ENDMDL
MODEL 3
REMARK VINA RESULT:     -12.0      5.446     11.098
REMARK SMILES CCC[NH+]1CCN(c2cc(C(=O)NCCCNC(=O)c3ccc(-c4c5nc(c(-c6c(F)cc(S(=O)(=O)[O-])cc6F)c6ccc([nH]6)c(-c6c(F)cc(S(=O)(=O)[O-])cc6F)c6nc(c(-c7c(F)cc(S(=O)(=O)[O-])cc7F)c7ccc4[nH]7)C=C6)C=C5)cc3)c3cc(NC(=O)c4ccc(F)cc4)ccc3n2)CC1
REMARK SMILES IDX 15 1 14 2 13 3 11 4 12 5 10 7 8 8 9 9 102 10 101 11 86 12
REMARK SMILES IDX 100 13 87 14 99 15 88 16 7 17 4 18 5 19 104 20 6 22 103 23
REMARK SMILES IDX 3 24 2 25 1 26 89 27 90 28 91 30 92 31 93 32 98 33 94 34
REMARK SMILES IDX 97 35 95 36 96 37 16 38 17 39 18 40 19 42 20 43 21 44 85 45
REMARK SMILES IDX 22 46 84 47 23 48 24 49 25 50 78 51 26 52 83 53 77 54 79 55
REMARK SMILES IDX 27 56 82 57 76 58 75 59 28 61 62 62 41 63 61 64 42 65 45 66
REMARK SMILES IDX 60 67 80 68 43 69 44 70 59 72 81 73 46 74 29 75 30 76 39 77
REMARK SMILES IDX 31 78 32 79 38 80 40 81 33 82 34 83 35 84 36 85 37 86 63 87
REMARK SMILES IDX 64 88 73 89 65 90 66 91 72 92 74 93 67 94 68 95 69 96 70 97
REMARK SMILES IDX 71 98 47 99 48 100 57 101 49 102 50 103 56 104 58 105 51 106
REMARK SMILES IDX 52 107 53 108 54 109 55 110
REMARK H PARENT 13 6 4 21 89 29 17 41 79 60 45 71
REMARK Flexibility Score: inf
ROOT
ATOM      1  C   UNL A   1      34.962  29.739  27.969  1.00  0.00     0.042 C 
ENDROOT
BRANCH   1   2
ATOM      2  C   UNL A   1      34.093  28.831  27.119  1.00  0.00     0.118 C 
BRANCH   2   3
ATOM      3  N   UNL A   1      34.584  28.475  25.801  1.00  0.00    -0.352 N 
ATOM      4  C   UNL A   1      33.940  28.218  24.608  1.00  0.00     0.252 C 
ATOM      5  O   UNL A   1      34.672  28.138  23.615  1.00  0.00    -0.269 OA
ATOM      6  H   UNL A   1      35.564  28.404  25.747  1.00  0.00     0.163 HD
BRANCH   4   7
ATOM      7  C   UNL A   1      32.469  27.955  24.408  1.00  0.00     0.052 A 
ATOM      8  C   UNL A   1      30.416  28.972  23.610  1.00  0.00     0.130 A 
ATOM      9  C   UNL A   1      31.793  29.012  23.794  1.00  0.00     0.061 A 
ATOM     10  N   UNL A   1      29.696  27.889  23.946  1.00  0.00    -0.231 NA
ATOM     11  C   UNL A   1      30.307  26.864  24.547  1.00  0.00     0.074 A 
ATOM     12  C   UNL A   1      31.677  26.884  24.866  1.00  0.00     0.015 A 
ATOM     13  C   UNL A   1      29.536  25.770  24.934  1.00  0.00     0.031 A 
ATOM     14  C   UNL A   1      32.127  25.892  25.735  1.00  0.00     0.037 A 
ATOM     15  C   UNL A   1      30.039  24.760  25.763  1.00  0.00     0.028 A 
ATOM     16  C   UNL A   1      31.323  24.889  26.258  1.00  0.00     0.042 A 
BRANCH   8  17
ATOM     17  N   UNL A   1      29.765  30.064  23.085  1.00  0.00    -0.345 N 
ATOM     18  N   UNL A   1      27.536  31.204  21.554  1.00  0.00    -0.332 N 
ATOM     19  C   UNL A   1      28.530  30.268  20.984  1.00  0.00     0.284 C 
ATOM     20  C   UNL A   1      27.377  30.837  22.992  1.00  0.00     0.284 C 
ATOM     21  H   UNL A   1      26.665  31.108  21.033  1.00  0.00     0.348 HD
ATOM     22  C   UNL A   1      29.909  30.331  21.660  1.00  0.00     0.179 C 
ATOM     23  C   UNL A   1      28.690  30.737  23.818  1.00  0.00     0.179 C 
BRANCH  18  24
ATOM     24  C   UNL A   1      27.892  32.627  21.414  1.00  0.00     0.262 C 
BRANCH  24  25
ATOM     25  C   UNL A   1      28.005  33.456  22.706  1.00  0.00     0.058 C 
ATOM     26  C   UNL A   1      29.425  33.796  23.125  1.00  0.00     0.010 C 
ENDBRANCH  24  25
ENDBRANCH  18  24
ENDBRANCH   8  17
BRANCH  16  27
ATOM     27  N   UNL A   1      31.771  24.054  27.294  1.00  0.00    -0.322 N 
ATOM     28  C   UNL A   1      32.723  23.042  27.292  1.00  0.00     0.255 C 
ATOM     29  H   UNL A   1      31.341  24.213  28.165  1.00  0.00     0.170 HD
ATOM     30  O   UNL A   1      32.779  22.280  28.257  1.00  0.00    -0.269 OA
BRANCH  28  31
ATOM     31  C   UNL A   1      33.706  22.860  26.175  1.00  0.00     0.040 A 
ATOM     32  C   UNL A   1      33.263  22.232  25.006  1.00  0.00     0.017 A 
ATOM     33  C   UNL A   1      35.020  23.352  26.218  1.00  0.00     0.017 A 
ATOM     34  C   UNL A   1      34.063  22.218  23.857  1.00  0.00     0.040 A 
ATOM     35  C   UNL A   1      35.795  23.395  25.053  1.00  0.00     0.040 A 
ATOM     36  C   UNL A   1      35.301  22.843  23.878  1.00  0.00     0.123 A 
ATOM     37  F   UNL A   1      36.025  22.916  22.754  1.00  0.00    -0.207 F 
ENDBRANCH  28  31
ENDBRANCH  16  27
ENDBRANCH   4   7
ENDBRANCH   2   3
ENDBRANCH   1   2
BRANCH   1  38
ATOM     38  C   UNL A   1      34.661  31.229  27.839  1.00  0.00     0.118 C 
BRANCH  38  39
ATOM     39  N   UNL A   1      34.239  31.902  29.075  1.00  0.00    -0.352 N 
ATOM     40  C   UNL A   1      34.889  32.178  30.261  1.00  0.00     0.251 C 
ATOM     41  H   UNL A   1      33.307  32.218  29.054  1.00  0.00     0.163 HD
ATOM     42  O   UNL A   1      34.321  32.767  31.177  1.00  0.00    -0.269 OA
BRANCH  40  43
ATOM     43  C   UNL A   1      36.285  31.774  30.429  1.00  0.00     0.039 A 
ATOM     44  C   UNL A   1      36.679  30.893  31.444  1.00  0.00     0.014 A 
ATOM     45  C   UNL A   1      37.201  32.269  29.516  1.00  0.00     0.014 A 
ATOM     46  C   UNL A   1      37.990  30.411  31.454  1.00  0.00     0.010 A 
ATOM     47  C   UNL A   1      38.431  31.668  29.426  1.00  0.00     0.010 A 
ATOM     48  C   UNL A   1      38.851  30.752  30.405  1.00  0.00    -0.014 A 
BRANCH  48  49
ATOM     49  C   UNL A   1      40.238  30.263  30.247  1.00  0.00     0.031 A 
ATOM     50  C   UNL A   1      41.329  31.300  30.291  1.00  0.00     0.074 A 
ATOM     51  C   UNL A   1      40.462  29.013  29.807  1.00  0.00     0.049 A 
ATOM     52  N   UNL A   1      42.502  31.293  29.723  1.00  0.00    -0.248 NA
ATOM     53  C   UNL A   1      40.984  32.576  30.951  1.00  0.00     0.031 C 
ATOM     54  C   UNL A   1      39.454  27.958  29.672  1.00  0.00     0.029 A 
ATOM     55  N   UNL A   1      41.610  28.436  29.330  1.00  0.00    -0.354 N 
ATOM     56  C   UNL A   1      42.994  32.585  29.883  1.00  0.00     0.074 A 
ATOM     57  C   UNL A   1      41.963  33.361  30.530  1.00  0.00     0.031 C 
ATOM     58  C   UNL A   1      40.028  26.863  29.148  1.00  0.00     0.029 A 
ATOM     59  C   UNL A   1      41.426  27.157  28.857  1.00  0.00     0.049 A 
ATOM     60  H   UNL A   1      42.482  28.893  29.325  1.00  0.00     0.167 HD
ATOM     61  C   UNL A   1      44.210  33.064  29.532  1.00  0.00     0.037 A 
ATOM     62  C   UNL A   1      42.293  26.335  28.236  1.00  0.00     0.037 A 
ATOM     63  C   UNL A   1      45.235  32.223  28.978  1.00  0.00     0.049 A 
ATOM     64  C   UNL A   1      43.685  26.845  27.975  1.00  0.00     0.074 A 
ATOM     65  C   UNL A   1      46.548  32.535  28.687  1.00  0.00     0.029 A 
ATOM     66  N   UNL A   1      45.057  30.880  28.664  1.00  0.00    -0.354 N 
ATOM     67  N   UNL A   1      44.165  28.053  28.163  1.00  0.00    -0.248 NA
ATOM     68  C   UNL A   1      44.655  25.887  27.431  1.00  0.00     0.031 C 
ATOM     69  C   UNL A   1      47.161  31.384  28.181  1.00  0.00     0.029 A 
ATOM     70  C   UNL A   1      46.242  30.344  28.198  1.00  0.00     0.049 A 
ATOM     71  H   UNL A   1      44.212  30.384  28.760  1.00  0.00     0.167 HD
ATOM     72  C   UNL A   1      45.505  27.990  27.805  1.00  0.00     0.074 A 
ATOM     73  C   UNL A   1      45.757  26.627  27.381  1.00  0.00     0.031 C 
ATOM     74  C   UNL A   1      46.447  28.965  27.826  1.00  0.00     0.037 A 
BRANCH  61  75
ATOM     75  C   UNL A   1      44.494  34.523  29.775  1.00  0.00     0.058 A 
ATOM     76  C   UNL A   1      45.093  34.975  30.963  1.00  0.00     0.135 A 
ATOM     77  C   UNL A   1      44.171  35.489  28.806  1.00  0.00     0.135 A 
ATOM     78  F   UNL A   1      45.415  34.104  31.933  1.00  0.00    -0.206 F 
ATOM     79  C   UNL A   1      45.314  36.326  31.205  1.00  0.00     0.059 A 
ATOM     80  C   UNL A   1      44.421  36.845  29.010  1.00  0.00     0.059 A 
ATOM     81  F   UNL A   1      43.597  35.123  27.649  1.00  0.00    -0.206 F 
ATOM     82  C   UNL A   1      44.975  37.255  30.221  1.00  0.00     0.060 A 
BRANCH  82  83
ATOM     83  S   UNL A   1      45.279  39.004  30.549  1.00  0.00     0.124 S 
ATOM     84  O   UNL A   1      46.690  39.125  30.195  1.00  0.00    -0.237 OA
ATOM     85  O   UNL A   1      44.342  39.659  29.642  1.00  0.00    -0.237 OA
ATOM     86  O   UNL A   1      44.973  39.142  31.970  1.00  0.00    -0.744 OA
ENDBRANCH  82  83
ENDBRANCH  61  75
BRANCH  62  87
ATOM     87  C   UNL A   1      41.886  24.946  27.893  1.00  0.00     0.058 A 
ATOM     88  C   UNL A   1      41.151  24.693  26.725  1.00  0.00     0.135 A 
ATOM     89  C   UNL A   1      42.263  23.843  28.676  1.00  0.00     0.135 A 
ATOM     90  F   UNL A   1      40.770  25.713  25.941  1.00  0.00    -0.206 F 
ATOM     91  C   UNL A   1      40.792  23.403  26.350  1.00  0.00     0.059 A 
ATOM     92  C   UNL A   1      41.935  22.540  28.310  1.00  0.00     0.059 A 
ATOM     93  F   UNL A   1      42.992  24.025  29.788  1.00  0.00    -0.206 F 
ATOM     94  C   UNL A   1      41.192  22.330  27.148  1.00  0.00     0.060 A 
BRANCH  94  95
ATOM     95  S   UNL A   1      40.767  20.656  26.617  1.00  0.00     0.124 S 
ATOM     96  O   UNL A   1      39.474  20.871  25.978  1.00  0.00    -0.237 OA
ATOM     97  O   UNL A   1      41.874  20.328  25.725  1.00  0.00    -0.237 OA
ATOM     98  O   UNL A   1      40.736  19.904  27.868  1.00  0.00    -0.744 OA
ENDBRANCH  94  95
ENDBRANCH  62  87
BRANCH  74  99
ATOM     99  C   UNL A   1      47.848  28.579  27.457  1.00  0.00     0.058 A 
ATOM    100  C   UNL A   1      48.815  28.292  28.430  1.00  0.00     0.135 A 
ATOM    101  C   UNL A   1      48.184  28.383  26.107  1.00  0.00     0.135 A 
ATOM    102  F   UNL A   1      48.538  28.471  29.731  1.00  0.00    -0.206 F 
ATOM    103  C   UNL A   1      50.073  27.824  28.077  1.00  0.00     0.059 A 
ATOM    104  C   UNL A   1      49.428  27.891  25.733  1.00  0.00     0.059 A 
ATOM    105  F   UNL A   1      47.284  28.635  25.143  1.00  0.00    -0.206 F 
ATOM    106  C   UNL A   1      50.366  27.616  26.726  1.00  0.00     0.060 A 
BRANCH 106 107
ATOM    107  S   UNL A   1      51.976  26.929  26.289  1.00  0.00     0.124 S 
ATOM    108  O   UNL A   1      52.495  27.952  25.387  1.00  0.00    -0.237 OA
ATOM    109  O   UNL A   1      52.636  26.834  27.588  1.00  0.00    -0.237 OA
ATOM    110  O   UNL A   1      51.643  25.652  25.666  1.00  0.00    -0.744 OA
ENDBRANCH 106 107
ENDBRANCH  74  99
ENDBRANCH  48  49
ENDBRANCH  40  43
ENDBRANCH  38  39
ENDBRANCH   1  38
TORSDOF 18
ENDMDL
