MODEL 1
REMARK VINA RESULT:     -11.6      0.000      0.000
REMARK SMILES N#C/C(=C/c1cc2c(cc1Br)OCO2)C(=O)NCCCNC(=O)c1ccc(-c2c3nc(c(-c4c(F)cc(S(=O)(=O)[O-])cc4F)c4ccc([nH]4)c(-c4c(F)cc(S(=O)(=O)[O-])cc4F)c4nc(c(-c5c(F)cc(S(=O)(=O)[O-])cc5F)c5ccc2[nH]5)C=C4)C=C3)cc1
REMARK SMILES IDX 20 1 19 2 18 3 17 4 15 5 16 6 3 8 4 9 2 10 1 11 5 12 6 13
REMARK SMILES IDX 10 14 7 15 9 16 11 17 8 18 14 19 12 20 13 21 21 22 22 23
REMARK SMILES IDX 23 25 24 26 25 27 89 28 26 29 88 30 27 31 28 32 29 33 82 34
REMARK SMILES IDX 30 35 87 36 81 37 83 38 31 39 86 40 80 41 79 42 32 44 66 45
REMARK SMILES IDX 45 46 65 47 46 48 49 49 64 50 84 51 47 52 48 53 63 55 85 56
REMARK SMILES IDX 50 57 33 58 34 59 43 60 35 61 36 62 42 63 44 64 37 65 38 66
REMARK SMILES IDX 39 67 40 68 41 69 67 70 68 71 77 72 69 73 70 74 76 75 78 76
REMARK SMILES IDX 71 77 72 78 73 79 74 80 75 81 51 82 52 83 61 84 53 85 54 86
REMARK SMILES IDX 60 87 62 88 55 89 56 90 57 91 58 92 59 93
REMARK H PARENT 17 7 21 24 83 43 49 54
REMARK Flexibility Score: inf
ROOT
ATOM      1  C   UNL A   1      33.585  28.056  27.010  1.00  0.00     0.118 C 
ENDROOT
BRANCH   1   2
ATOM      2  C   UNL A   1      32.478  27.461  26.161  1.00  0.00     0.042 C 
BRANCH   2   3
ATOM      3  C   UNL A   1      32.500  25.957  26.113  1.00  0.00     0.118 C 
BRANCH   3   4
ATOM      4  N   UNL A   1      31.986  25.334  24.927  1.00  0.00    -0.351 N 
ATOM      5  C   UNL A   1      31.542  24.057  24.776  1.00  0.00     0.261 C 
ATOM      6  O   UNL A   1      31.078  23.747  23.677  1.00  0.00    -0.268 OA
ATOM      7  H   UNL A   1      31.951  25.900  24.123  1.00  0.00     0.163 HD
BRANCH   5   8
ATOM      8  C   UNL A   1      31.656  23.016  25.848  1.00  0.00     0.117 C 
ATOM      9  C   UNL A   1      32.675  22.227  26.274  1.00  0.00     0.034 C 
BRANCH   8  10
ATOM     10  C   UNL A   1      30.473  23.004  26.802  1.00  0.00     0.105 C 
ATOM     11  N   UNL A   1      29.491  22.993  27.594  1.00  0.00    -0.192 NA
ENDBRANCH   8  10
BRANCH   9  12
ATOM     12  C   UNL A   1      34.048  22.038  25.780  1.00  0.00    -0.006 A 
ATOM     13  C   UNL A   1      34.952  23.090  26.032  1.00  0.00     0.060 A 
ATOM     14  C   UNL A   1      34.523  20.845  25.179  1.00  0.00     0.029 A 
ATOM     15  C   UNL A   1      36.296  22.845  25.852  1.00  0.00     0.166 A 
ATOM     16  C   UNL A   1      35.892  20.653  24.949  1.00  0.00     0.067 A 
ATOM     17  Br  UNL A   1      33.348  19.419  24.734  1.00  0.00    -0.050 Br
ATOM     18  C   UNL A   1      36.754  21.656  25.340  1.00  0.00     0.166 A 
ATOM     19  O   UNL A   1      37.306  23.665  26.245  1.00  0.00    -0.454 OA
ATOM     20  O   UNL A   1      38.112  21.592  25.336  1.00  0.00    -0.454 OA
ATOM     21  C   UNL A   1      38.442  22.788  26.072  1.00  0.00     0.468 C 
ENDBRANCH   9  12
ENDBRANCH   5   8
ENDBRANCH   3   4
ENDBRANCH   2   3
ENDBRANCH   1   2
BRANCH   1  22
ATOM     22  N   UNL A   1      33.388  29.460  27.375  1.00  0.00    -0.352 N 
ATOM     23  C   UNL A   1      34.216  30.414  27.925  1.00  0.00     0.251 C 
ATOM     24  H   UNL A   1      32.479  29.790  27.188  1.00  0.00     0.163 HD
ATOM     25  O   UNL A   1      33.752  31.526  28.180  1.00  0.00    -0.269 OA
BRANCH  23  26
ATOM     26  C   UNL A   1      35.626  30.119  28.260  1.00  0.00     0.039 A 
ATOM     27  C   UNL A   1      35.957  29.628  29.530  1.00  0.00     0.014 A 
ATOM     28  C   UNL A   1      36.642  30.326  27.336  1.00  0.00     0.014 A 
ATOM     29  C   UNL A   1      37.280  29.270  29.820  1.00  0.00     0.010 A 
ATOM     30  C   UNL A   1      37.901  29.796  27.552  1.00  0.00     0.010 A 
ATOM     31  C   UNL A   1      38.258  29.309  28.813  1.00  0.00    -0.014 A 
BRANCH  31  32
ATOM     32  C   UNL A   1      39.682  28.952  29.044  1.00  0.00     0.031 A 
ATOM     33  C   UNL A   1      40.618  29.992  29.620  1.00  0.00     0.074 A 
ATOM     34  C   UNL A   1      40.163  27.760  28.640  1.00  0.00     0.049 A 
ATOM     35  N   UNL A   1      41.921  29.969  29.728  1.00  0.00    -0.248 NA
ATOM     36  C   UNL A   1      40.010  31.258  30.066  1.00  0.00     0.031 C 
ATOM     37  C   UNL A   1      39.382  26.694  28.010  1.00  0.00     0.029 A 
ATOM     38  N   UNL A   1      41.435  27.248  28.695  1.00  0.00    -0.354 N 
ATOM     39  C   UNL A   1      42.282  31.234  30.185  1.00  0.00     0.074 A 
ATOM     40  C   UNL A   1      41.074  32.021  30.256  1.00  0.00     0.031 C 
ATOM     41  C   UNL A   1      40.180  25.637  27.781  1.00  0.00     0.029 A 
ATOM     42  C   UNL A   1      41.537  25.966  28.208  1.00  0.00     0.049 A 
ATOM     43  H   UNL A   1      42.202  27.752  29.048  1.00  0.00     0.167 HD
ATOM     44  C   UNL A   1      43.503  31.690  30.554  1.00  0.00     0.037 A 
ATOM     45  C   UNL A   1      42.604  25.150  28.129  1.00  0.00     0.037 A 
ATOM     46  C   UNL A   1      44.680  30.865  30.579  1.00  0.00     0.049 A 
ATOM     47  C   UNL A   1      43.936  25.643  28.626  1.00  0.00     0.074 A 
ATOM     48  C   UNL A   1      45.947  31.182  31.034  1.00  0.00     0.029 A 
ATOM     49  N   UNL A   1      44.725  29.547  30.149  1.00  0.00    -0.354 N 
ATOM     50  N   UNL A   1      44.252  26.821  29.109  1.00  0.00    -0.248 NA
ATOM     51  C   UNL A   1      45.053  24.690  28.578  1.00  0.00     0.031 C 
ATOM     52  C   UNL A   1      46.766  30.061  30.854  1.00  0.00     0.029 A 
ATOM     53  C   UNL A   1      45.997  29.034  30.325  1.00  0.00     0.049 A 
ATOM     54  H   UNL A   1      43.963  29.049  29.773  1.00  0.00     0.167 HD
ATOM     55  C   UNL A   1      45.595  26.738  29.463  1.00  0.00     0.074 A 
ATOM     56  C   UNL A   1      46.028  25.395  29.138  1.00  0.00     0.031 C 
ATOM     57  C   UNL A   1      46.396  27.685  30.013  1.00  0.00     0.037 A 
BRANCH  44  58
ATOM     58  C   UNL A   1      43.610  33.131  30.975  1.00  0.00     0.058 A 
ATOM     59  C   UNL A   1      43.858  34.161  30.052  1.00  0.00     0.135 A 
ATOM     60  C   UNL A   1      43.481  33.488  32.327  1.00  0.00     0.135 A 
ATOM     61  F   UNL A   1      44.005  33.878  28.747  1.00  0.00    -0.206 F 
ATOM     62  C   UNL A   1      44.035  35.479  30.458  1.00  0.00     0.059 A 
ATOM     63  C   UNL A   1      43.618  34.808  32.752  1.00  0.00     0.059 A 
ATOM     64  F   UNL A   1      43.239  32.550  33.256  1.00  0.00    -0.206 F 
ATOM     65  C   UNL A   1      43.922  35.791  31.813  1.00  0.00     0.060 A 
BRANCH  65  66
ATOM     66  S   UNL A   1      44.185  37.500  32.330  1.00  0.00     0.124 S 
ATOM     67  O   UNL A   1      43.854  38.226  31.108  1.00  0.00    -0.237 OA
ATOM     68  O   UNL A   1      43.236  37.646  33.429  1.00  0.00    -0.237 OA
ATOM     69  O   UNL A   1      45.593  37.525  32.714  1.00  0.00    -0.744 OA
ENDBRANCH  65  66
ENDBRANCH  44  58
BRANCH  45  70
ATOM     70  C   UNL A   1      42.436  23.756  27.640  1.00  0.00     0.058 A 
ATOM     71  C   UNL A   1      42.395  23.489  26.262  1.00  0.00     0.135 A 
ATOM     72  C   UNL A   1      42.348  22.667  28.518  1.00  0.00     0.135 A 
ATOM     73  F   UNL A   1      42.475  24.499  25.382  1.00  0.00    -0.206 F 
ATOM     74  C   UNL A   1      42.258  22.194  25.772  1.00  0.00     0.059 A 
ATOM     75  C   UNL A   1      42.232  21.360  28.052  1.00  0.00     0.059 A 
ATOM     76  F   UNL A   1      42.404  22.867  29.845  1.00  0.00    -0.206 F 
ATOM     77  C   UNL A   1      42.182  21.135  26.677  1.00  0.00     0.060 A 
BRANCH  77  78
ATOM     78  S   UNL A   1      42.068  19.454  26.026  1.00  0.00     0.124 S 
ATOM     79  O   UNL A   1      40.637  19.332  25.772  1.00  0.00    -0.237 OA
ATOM     80  O   UNL A   1      42.923  19.524  24.847  1.00  0.00    -0.237 OA
ATOM     81  O   UNL A   1      42.588  18.637  27.120  1.00  0.00    -0.744 OA
ENDBRANCH  77  78
ENDBRANCH  45  70
BRANCH  57  82
ATOM     82  C   UNL A   1      47.800  27.282  30.357  1.00  0.00     0.058 A 
ATOM     83  C   UNL A   1      48.105  26.591  31.540  1.00  0.00     0.135 A 
ATOM     84  C   UNL A   1      48.850  27.554  29.464  1.00  0.00     0.135 A 
ATOM     85  F   UNL A   1      47.136  26.311  32.427  1.00  0.00    -0.206 F 
ATOM     86  C   UNL A   1      49.408  26.213  31.842  1.00  0.00     0.059 A 
ATOM     87  C   UNL A   1      50.156  27.160  29.733  1.00  0.00     0.059 A 
ATOM     88  F   UNL A   1      48.608  28.198  28.311  1.00  0.00    -0.206 F 
ATOM     89  C   UNL A   1      50.427  26.504  30.933  1.00  0.00     0.060 A 
BRANCH  89  90
ATOM     90  S   UNL A   1      52.113  25.992  31.325  1.00  0.00     0.124 S 
ATOM     91  O   UNL A   1      51.885  24.686  31.937  1.00  0.00    -0.237 OA
ATOM     92  O   UNL A   1      52.749  25.974  30.012  1.00  0.00    -0.237 OA
ATOM     93  O   UNL A   1      52.583  27.036  32.229  1.00  0.00    -0.744 OA
ENDBRANCH  89  90
ENDBRANCH  57  82
ENDBRANCH  31  32
ENDBRANCH  23  26
ENDBRANCH   1  22
TORSDOF 15
ENDMDL
MODEL 2
REMARK VINA RESULT:     -11.3      3.248      9.606
REMARK SMILES N#C/C(=C/c1cc2c(cc1Br)OCO2)C(=O)NCCCNC(=O)c1ccc(-c2c3nc(c(-c4c(F)cc(S(=O)(=O)[O-])cc4F)c4ccc([nH]4)c(-c4c(F)cc(S(=O)(=O)[O-])cc4F)c4nc(c(-c5c(F)cc(S(=O)(=O)[O-])cc5F)c5ccc2[nH]5)C=C4)C=C3)cc1
REMARK SMILES IDX 20 1 19 2 18 3 17 4 15 5 16 6 3 8 4 9 2 10 1 11 5 12 6 13
REMARK SMILES IDX 10 14 7 15 9 16 11 17 8 18 14 19 12 20 13 21 21 22 22 23
REMARK SMILES IDX 23 25 24 26 25 27 89 28 26 29 88 30 27 31 28 32 29 33 82 34
REMARK SMILES IDX 30 35 87 36 81 37 83 38 31 39 86 40 80 41 79 42 32 44 66 45
REMARK SMILES IDX 45 46 65 47 46 48 49 49 64 50 84 51 47 52 48 53 63 55 85 56
REMARK SMILES IDX 50 57 33 58 34 59 43 60 35 61 36 62 42 63 44 64 37 65 38 66
REMARK SMILES IDX 39 67 40 68 41 69 67 70 68 71 77 72 69 73 70 74 76 75 78 76
REMARK SMILES IDX 71 77 72 78 73 79 74 80 75 81 51 82 52 83 61 84 53 85 54 86
REMARK SMILES IDX 60 87 62 88 55 89 56 90 57 91 58 92 59 93
REMARK H PARENT 17 7 21 24 83 43 49 54
REMARK Flexibility Score: inf
ROOT
ATOM      1  C   UNL A   1      36.476  24.031  25.225  1.00  0.00     0.118 C 
ENDROOT
BRANCH   1   2
ATOM      2  C   UNL A   1      35.212  23.575  24.521  1.00  0.00     0.042 C 
BRANCH   2   3
ATOM      3  C   UNL A   1      34.298  24.707  24.137  1.00  0.00     0.118 C 
BRANCH   3   4
ATOM      4  N   UNL A   1      32.892  24.423  24.089  1.00  0.00    -0.351 N 
ATOM      5  C   UNL A   1      31.941  25.018  23.319  1.00  0.00     0.261 C 
ATOM      6  O   UNL A   1      30.796  24.571  23.390  1.00  0.00    -0.268 OA
ATOM      7  H   UNL A   1      32.576  23.710  24.689  1.00  0.00     0.163 HD
BRANCH   5   8
ATOM      8  C   UNL A   1      32.214  26.215  22.458  1.00  0.00     0.117 C 
ATOM      9  C   UNL A   1      32.399  27.532  22.728  1.00  0.00     0.034 C 
BRANCH   8  10
ATOM     10  C   UNL A   1      32.590  25.855  21.030  1.00  0.00     0.105 C 
ATOM     11  N   UNL A   1      32.903  25.557  19.846  1.00  0.00    -0.192 NA
ENDBRANCH   8  10
BRANCH   9  12
ATOM     12  C   UNL A   1      32.319  28.303  23.980  1.00  0.00    -0.006 A 
ATOM     13  C   UNL A   1      33.405  28.166  24.867  1.00  0.00     0.060 A 
ATOM     14  C   UNL A   1      31.290  29.230  24.281  1.00  0.00     0.029 A 
ATOM     15  C   UNL A   1      33.517  29.072  25.899  1.00  0.00     0.166 A 
ATOM     16  C   UNL A   1      31.403  30.095  25.379  1.00  0.00     0.067 A 
ATOM     17  Br  UNL A   1      29.755  29.408  23.176  1.00  0.00    -0.050 Br
ATOM     18  C   UNL A   1      32.551  30.019  26.139  1.00  0.00     0.166 A 
ATOM     19  O   UNL A   1      34.598  29.216  26.709  1.00  0.00    -0.454 OA
ATOM     20  O   UNL A   1      32.905  30.866  27.142  1.00  0.00    -0.454 OA
ATOM     21  C   UNL A   1      34.271  30.458  27.370  1.00  0.00     0.468 C 
ENDBRANCH   9  12
ENDBRANCH   5   8
ENDBRANCH   3   4
ENDBRANCH   2   3
ENDBRANCH   1   2
BRANCH   1  22
ATOM     22  N   UNL A   1      37.523  23.013  25.321  1.00  0.00    -0.352 N 
ATOM     23  C   UNL A   1      38.755  22.986  25.937  1.00  0.00     0.251 C 
ATOM     24  H   UNL A   1      37.302  22.177  24.851  1.00  0.00     0.163 HD
ATOM     25  O   UNL A   1      39.464  21.989  25.800  1.00  0.00    -0.269 OA
BRANCH  23  26
ATOM     26  C   UNL A   1      39.262  24.140  26.712  1.00  0.00     0.039 A 
ATOM     27  C   UNL A   1      40.016  25.134  26.075  1.00  0.00     0.014 A 
ATOM     28  C   UNL A   1      39.010  24.258  28.072  1.00  0.00     0.014 A 
ATOM     29  C   UNL A   1      40.425  26.268  26.790  1.00  0.00     0.010 A 
ATOM     30  C   UNL A   1      39.242  25.456  28.724  1.00  0.00     0.010 A 
ATOM     31  C   UNL A   1      40.000  26.460  28.113  1.00  0.00    -0.014 A 
BRANCH  31  32
ATOM     32  C   UNL A   1      40.397  27.631  28.938  1.00  0.00     0.031 A 
ATOM     33  C   UNL A   1      41.728  27.609  29.655  1.00  0.00     0.074 A 
ATOM     34  C   UNL A   1      39.537  28.648  29.139  1.00  0.00     0.049 A 
ATOM     35  N   UNL A   1      42.195  28.421  30.568  1.00  0.00    -0.248 NA
ATOM     36  C   UNL A   1      42.625  26.477  29.358  1.00  0.00     0.031 C 
ATOM     37  C   UNL A   1      38.197  28.760  28.561  1.00  0.00     0.029 A 
ATOM     38  N   UNL A   1      39.665  29.784  29.899  1.00  0.00    -0.354 N 
ATOM     39  C   UNL A   1      43.395  27.859  30.994  1.00  0.00     0.074 A 
ATOM     40  C   UNL A   1      43.544  26.601  30.301  1.00  0.00     0.031 C 
ATOM     41  C   UNL A   1      37.645  29.924  28.947  1.00  0.00     0.029 A 
ATOM     42  C   UNL A   1      38.574  30.618  29.832  1.00  0.00     0.049 A 
ATOM     43  H   UNL A   1      40.462  29.982  30.440  1.00  0.00     0.167 HD
ATOM     44  C   UNL A   1      44.315  28.362  31.853  1.00  0.00     0.037 A 
ATOM     45  C   UNL A   1      38.358  31.813  30.414  1.00  0.00     0.037 A 
ATOM     46  C   UNL A   1      44.205  29.661  32.455  1.00  0.00     0.049 A 
ATOM     47  C   UNL A   1      39.429  32.398  31.296  1.00  0.00     0.074 A 
ATOM     48  C   UNL A   1      45.120  30.323  33.253  1.00  0.00     0.029 A 
ATOM     49  N   UNL A   1      43.117  30.510  32.302  1.00  0.00    -0.354 N 
ATOM     50  N   UNL A   1      40.583  31.881  31.645  1.00  0.00    -0.248 NA
ATOM     51  C   UNL A   1      39.171  33.732  31.852  1.00  0.00     0.031 C 
ATOM     52  C   UNL A   1      44.572  31.562  33.605  1.00  0.00     0.029 A 
ATOM     53  C   UNL A   1      43.335  31.688  32.992  1.00  0.00     0.049 A 
ATOM     54  H   UNL A   1      42.309  30.302  31.779  1.00  0.00     0.167 HD
ATOM     55  C   UNL A   1      41.210  32.846  32.427  1.00  0.00     0.074 A 
ATOM     56  C   UNL A   1      40.304  33.975  32.499  1.00  0.00     0.031 C 
ATOM     57  C   UNL A   1      42.425  32.805  33.028  1.00  0.00     0.037 A 
BRANCH  44  58
ATOM     58  C   UNL A   1      45.515  27.508  32.166  1.00  0.00     0.058 A 
ATOM     59  C   UNL A   1      45.533  26.616  33.251  1.00  0.00     0.135 A 
ATOM     60  C   UNL A   1      46.674  27.596  31.378  1.00  0.00     0.135 A 
ATOM     61  F   UNL A   1      44.457  26.500  34.048  1.00  0.00    -0.206 F 
ATOM     62  C   UNL A   1      46.672  25.890  33.582  1.00  0.00     0.059 A 
ATOM     63  C   UNL A   1      47.815  26.852  31.669  1.00  0.00     0.059 A 
ATOM     64  F   UNL A   1      46.717  28.427  30.325  1.00  0.00    -0.206 F 
ATOM     65  C   UNL A   1      47.812  26.022  32.790  1.00  0.00     0.060 A 
BRANCH  65  66
ATOM     66  S   UNL A   1      49.294  25.099  33.248  1.00  0.00     0.124 S 
ATOM     67  O   UNL A   1      49.881  24.828  31.939  1.00  0.00    -0.237 OA
ATOM     68  O   UNL A   1      50.017  26.056  34.079  1.00  0.00    -0.237 OA
ATOM     69  O   UNL A   1      48.764  23.937  33.953  1.00  0.00    -0.744 OA
ENDBRANCH  65  66
ENDBRANCH  44  58
BRANCH  45  70
ATOM     70  C   UNL A   1      37.117  32.572  30.110  1.00  0.00     0.058 A 
ATOM     71  C   UNL A   1      35.950  32.350  30.857  1.00  0.00     0.135 A 
ATOM     72  C   UNL A   1      37.072  33.548  29.104  1.00  0.00     0.135 A 
ATOM     73  F   UNL A   1      35.943  31.426  31.830  1.00  0.00    -0.206 F 
ATOM     74  C   UNL A   1      34.777  33.057  30.610  1.00  0.00     0.059 A 
ATOM     75  C   UNL A   1      35.917  34.285  28.852  1.00  0.00     0.059 A 
ATOM     76  F   UNL A   1      38.167  33.814  28.375  1.00  0.00    -0.206 F 
ATOM     77  C   UNL A   1      34.773  34.027  29.606  1.00  0.00     0.060 A 
BRANCH  77  78
ATOM     78  S   UNL A   1      33.264  34.982  29.339  1.00  0.00     0.124 S 
ATOM     79  O   UNL A   1      32.672  34.978  30.672  1.00  0.00    -0.237 OA
ATOM     80  O   UNL A   1      33.789  36.261  28.877  1.00  0.00    -0.237 OA
ATOM     81  O   UNL A   1      32.551  34.205  28.328  1.00  0.00    -0.744 OA
ENDBRANCH  77  78
ENDBRANCH  45  70
BRANCH  57  82
ATOM     82  C   UNL A   1      42.873  34.039  33.757  1.00  0.00     0.058 A 
ATOM     83  C   UNL A   1      43.524  35.093  33.100  1.00  0.00     0.135 A 
ATOM     84  C   UNL A   1      42.604  34.182  35.128  1.00  0.00     0.135 A 
ATOM     85  F   UNL A   1      43.807  35.002  31.790  1.00  0.00    -0.206 F 
ATOM     86  C   UNL A   1      43.925  36.236  33.784  1.00  0.00     0.059 A 
ATOM     87  C   UNL A   1      42.970  35.327  35.826  1.00  0.00     0.059 A 
ATOM     88  F   UNL A   1      41.969  33.208  35.799  1.00  0.00    -0.206 F 
ATOM     89  C   UNL A   1      43.644  36.342  35.148  1.00  0.00     0.060 A 
BRANCH  89  90
ATOM     90  S   UNL A   1      44.150  37.837  36.024  1.00  0.00     0.124 S 
ATOM     91  O   UNL A   1      45.583  37.610  36.183  1.00  0.00    -0.237 OA
ATOM     92  O   UNL A   1      43.776  38.891  35.087  1.00  0.00    -0.237 OA
ATOM     93  O   UNL A   1      43.366  37.791  37.253  1.00  0.00    -0.744 OA
ENDBRANCH  89  90
ENDBRANCH  57  82
ENDBRANCH  31  32
ENDBRANCH  23  26
ENDBRANCH   1  22
TORSDOF 15
ENDMDL
MODEL 3
REMARK VINA RESULT:     -11.3      1.345      2.326
REMARK SMILES N#C/C(=C/c1cc2c(cc1Br)OCO2)C(=O)NCCCNC(=O)c1ccc(-c2c3nc(c(-c4c(F)cc(S(=O)(=O)[O-])cc4F)c4ccc([nH]4)c(-c4c(F)cc(S(=O)(=O)[O-])cc4F)c4nc(c(-c5c(F)cc(S(=O)(=O)[O-])cc5F)c5ccc2[nH]5)C=C4)C=C3)cc1
REMARK SMILES IDX 20 1 19 2 18 3 17 4 15 5 16 6 3 8 4 9 2 10 1 11 5 12 6 13
REMARK SMILES IDX 10 14 7 15 9 16 11 17 8 18 14 19 12 20 13 21 21 22 22 23
REMARK SMILES IDX 23 25 24 26 25 27 89 28 26 29 88 30 27 31 28 32 29 33 82 34
REMARK SMILES IDX 30 35 87 36 81 37 83 38 31 39 86 40 80 41 79 42 32 44 66 45
REMARK SMILES IDX 45 46 65 47 46 48 49 49 64 50 84 51 47 52 48 53 63 55 85 56
REMARK SMILES IDX 50 57 33 58 34 59 43 60 35 61 36 62 42 63 44 64 37 65 38 66
REMARK SMILES IDX 39 67 40 68 41 69 67 70 68 71 77 72 69 73 70 74 76 75 78 76
REMARK SMILES IDX 71 77 72 78 73 79 74 80 75 81 51 82 52 83 61 84 53 85 54 86
REMARK SMILES IDX 60 87 62 88 55 89 56 90 57 91 58 92 59 93
REMARK H PARENT 17 7 21 24 83 43 49 54
REMARK Flexibility Score: inf
ROOT
ATOM      1  C   UNL A   1      33.688  28.049  26.889  1.00  0.00     0.118 C 
ENDROOT
BRANCH   1   2
ATOM      2  C   UNL A   1      32.780  27.581  25.767  1.00  0.00     0.042 C 
BRANCH   2   3
ATOM      3  C   UNL A   1      32.226  26.198  25.981  1.00  0.00     0.118 C 
BRANCH   3   4
ATOM      4  N   UNL A   1      31.195  25.762  25.084  1.00  0.00    -0.351 N 
ATOM      5  C   UNL A   1      31.321  24.984  23.975  1.00  0.00     0.261 C 
ATOM      6  O   UNL A   1      30.288  24.675  23.381  1.00  0.00    -0.268 OA
ATOM      7  H   UNL A   1      30.283  26.064  25.296  1.00  0.00     0.163 HD
BRANCH   5   8
ATOM      8  C   UNL A   1      32.646  24.555  23.421  1.00  0.00     0.117 C 
ATOM      9  C   UNL A   1      33.348  23.395  23.479  1.00  0.00     0.034 C 
BRANCH   8  10
ATOM     10  C   UNL A   1      33.212  25.526  22.396  1.00  0.00     0.105 C 
ATOM     11  N   UNL A   1      33.681  26.330  21.547  1.00  0.00    -0.192 NA
ENDBRANCH   8  10
BRANCH   9  12
ATOM     12  C   UNL A   1      33.103  22.129  24.190  1.00  0.00    -0.006 A 
ATOM     13  C   UNL A   1      32.470  21.111  23.449  1.00  0.00     0.060 A 
ATOM     14  C   UNL A   1      33.554  21.852  25.505  1.00  0.00     0.029 A 
ATOM     15  C   UNL A   1      32.480  19.834  23.965  1.00  0.00     0.166 A 
ATOM     16  C   UNL A   1      33.490  20.552  26.027  1.00  0.00     0.067 A 
ATOM     17  Br  UNL A   1      34.339  23.198  26.592  1.00  0.00    -0.050 Br
ATOM     18  C   UNL A   1      32.989  19.560  25.212  1.00  0.00     0.166 A 
ATOM     19  O   UNL A   1      32.109  18.710  23.297  1.00  0.00    -0.454 OA
ATOM     20  O   UNL A   1      32.985  18.227  25.482  1.00  0.00    -0.454 OA
ATOM     21  C   UNL A   1      32.595  17.692  24.200  1.00  0.00     0.468 C 
ENDBRANCH   9  12
ENDBRANCH   5   8
ENDBRANCH   3   4
ENDBRANCH   2   3
ENDBRANCH   1   2
BRANCH   1  22
ATOM     22  N   UNL A   1      33.478  29.436  27.307  1.00  0.00    -0.352 N 
ATOM     23  C   UNL A   1      34.294  30.374  27.901  1.00  0.00     0.251 C 
ATOM     24  H   UNL A   1      32.568  29.766  27.126  1.00  0.00     0.163 HD
ATOM     25  O   UNL A   1      33.819  31.471  28.196  1.00  0.00    -0.269 OA
BRANCH  23  26
ATOM     26  C   UNL A   1      35.704  30.076  28.235  1.00  0.00     0.039 A 
ATOM     27  C   UNL A   1      36.036  29.602  29.511  1.00  0.00     0.014 A 
ATOM     28  C   UNL A   1      36.718  30.263  27.305  1.00  0.00     0.014 A 
ATOM     29  C   UNL A   1      37.359  29.242  29.801  1.00  0.00     0.010 A 
ATOM     30  C   UNL A   1      37.975  29.730  27.524  1.00  0.00     0.010 A 
ATOM     31  C   UNL A   1      38.333  29.259  28.791  1.00  0.00    -0.014 A 
BRANCH  31  32
ATOM     32  C   UNL A   1      39.756  28.898  29.023  1.00  0.00     0.031 A 
ATOM     33  C   UNL A   1      40.695  29.935  29.600  1.00  0.00     0.074 A 
ATOM     34  C   UNL A   1      40.234  27.705  28.617  1.00  0.00     0.049 A 
ATOM     35  N   UNL A   1      41.997  29.908  29.708  1.00  0.00    -0.248 NA
ATOM     36  C   UNL A   1      40.090  31.203  30.047  1.00  0.00     0.031 C 
ATOM     37  C   UNL A   1      39.450  26.642  27.986  1.00  0.00     0.029 A 
ATOM     38  N   UNL A   1      41.504  27.190  28.672  1.00  0.00    -0.354 N 
ATOM     39  C   UNL A   1      42.362  31.171  30.167  1.00  0.00     0.074 A 
ATOM     40  C   UNL A   1      41.157  31.962  30.238  1.00  0.00     0.031 C 
ATOM     41  C   UNL A   1      40.246  25.584  27.756  1.00  0.00     0.029 A 
ATOM     42  C   UNL A   1      41.603  25.908  28.185  1.00  0.00     0.049 A 
ATOM     43  H   UNL A   1      42.273  27.691  29.027  1.00  0.00     0.167 HD
ATOM     44  C   UNL A   1      43.585  31.623  30.538  1.00  0.00     0.037 A 
ATOM     45  C   UNL A   1      42.667  25.088  28.105  1.00  0.00     0.037 A 
ATOM     46  C   UNL A   1      44.759  30.796  30.561  1.00  0.00     0.049 A 
ATOM     47  C   UNL A   1      44.001  25.577  28.603  1.00  0.00     0.074 A 
ATOM     48  C   UNL A   1      46.026  31.108  31.018  1.00  0.00     0.029 A 
ATOM     49  N   UNL A   1      44.800  29.477  30.130  1.00  0.00    -0.354 N 
ATOM     50  N   UNL A   1      44.320  26.754  29.087  1.00  0.00    -0.248 NA
ATOM     51  C   UNL A   1      45.115  24.622  28.555  1.00  0.00     0.031 C 
ATOM     52  C   UNL A   1      46.842  29.985  30.837  1.00  0.00     0.029 A 
ATOM     53  C   UNL A   1      46.071  28.961  30.307  1.00  0.00     0.049 A 
ATOM     54  H   UNL A   1      44.037  28.983  29.753  1.00  0.00     0.167 HD
ATOM     55  C   UNL A   1      45.662  26.667  29.442  1.00  0.00     0.074 A 
ATOM     56  C   UNL A   1      46.092  25.323  29.115  1.00  0.00     0.031 C 
ATOM     57  C   UNL A   1      46.466  27.611  29.993  1.00  0.00     0.037 A 
BRANCH  44  58
ATOM     58  C   UNL A   1      43.695  33.064  30.960  1.00  0.00     0.058 A 
ATOM     59  C   UNL A   1      43.968  34.092  30.041  1.00  0.00     0.135 A 
ATOM     60  C   UNL A   1      43.545  33.423  32.309  1.00  0.00     0.135 A 
ATOM     61  F   UNL A   1      44.136  33.807  28.739  1.00  0.00    -0.206 F 
ATOM     62  C   UNL A   1      44.148  35.409  30.450  1.00  0.00     0.059 A 
ATOM     63  C   UNL A   1      43.685  34.741  32.737  1.00  0.00     0.059 A 
ATOM     64  F   UNL A   1      43.279  32.487  33.234  1.00  0.00    -0.206 F 
ATOM     65  C   UNL A   1      44.013  35.722  31.802  1.00  0.00     0.060 A 
BRANCH  65  66
ATOM     66  S   UNL A   1      44.281  37.429  32.324  1.00  0.00     0.124 S 
ATOM     67  O   UNL A   1      45.690  37.397  32.705  1.00  0.00    -0.237 OA
ATOM     68  O   UNL A   1      43.970  38.181  31.113  1.00  0.00    -0.237 OA
ATOM     69  O   UNL A   1      43.336  37.599  33.423  1.00  0.00    -0.744 OA
ENDBRANCH  65  66
ENDBRANCH  44  58
BRANCH  45  70
ATOM     70  C   UNL A   1      42.496  23.696  27.614  1.00  0.00     0.058 A 
ATOM     71  C   UNL A   1      42.491  23.426  26.237  1.00  0.00     0.135 A 
ATOM     72  C   UNL A   1      42.369  22.610  28.492  1.00  0.00     0.135 A 
ATOM     73  F   UNL A   1      42.608  24.432  25.356  1.00  0.00    -0.206 F 
ATOM     74  C   UNL A   1      42.351  22.132  25.745  1.00  0.00     0.059 A 
ATOM     75  C   UNL A   1      42.250  21.304  28.026  1.00  0.00     0.059 A 
ATOM     76  F   UNL A   1      42.391  22.813  29.819  1.00  0.00    -0.206 F 
ATOM     77  C   UNL A   1      42.235  21.076  26.650  1.00  0.00     0.060 A 
BRANCH  77  78
ATOM     78  S   UNL A   1      42.119  19.395  26.000  1.00  0.00     0.124 S 
ATOM     79  O   UNL A   1      40.685  19.267  25.769  1.00  0.00    -0.237 OA
ATOM     80  O   UNL A   1      42.955  19.469  24.807  1.00  0.00    -0.237 OA
ATOM     81  O   UNL A   1      42.661  18.579  27.084  1.00  0.00    -0.744 OA
ENDBRANCH  77  78
ENDBRANCH  45  70
BRANCH  57  82
ATOM     82  C   UNL A   1      47.869  27.203  30.337  1.00  0.00     0.058 A 
ATOM     83  C   UNL A   1      48.932  27.371  29.437  1.00  0.00     0.135 A 
ATOM     84  C   UNL A   1      48.158  26.676  31.607  1.00  0.00     0.135 A 
ATOM     85  F   UNL A   1      48.706  27.868  28.210  1.00  0.00    -0.206 F 
ATOM     86  C   UNL A   1      50.230  27.000  29.771  1.00  0.00     0.059 A 
ATOM     87  C   UNL A   1      49.452  26.324  31.972  1.00  0.00     0.059 A 
ATOM     88  F   UNL A   1      47.178  26.511  32.510  1.00  0.00    -0.206 F 
ATOM     89  C   UNL A   1      50.479  26.475  31.041  1.00  0.00     0.060 A 
BRANCH  89  90
ATOM     90  S   UNL A   1      52.169  26.013  31.473  1.00  0.00     0.124 S 
ATOM     91  O   UNL A   1      52.492  27.009  32.491  1.00  0.00    -0.237 OA
ATOM     92  O   UNL A   1      52.008  24.645  31.954  1.00  0.00    -0.237 OA
ATOM     93  O   UNL A   1      52.890  26.148  30.212  1.00  0.00    -0.744 OA
ENDBRANCH  89  90
ENDBRANCH  57  82
ENDBRANCH  31  32
ENDBRANCH  23  26
ENDBRANCH   1  22
TORSDOF 15
ENDMDL
