MODEL 1
REMARK VINA RESULT:     -11.4      0.000      0.000
REMARK SMILES COC(=O)C[C@H](c1ccc(C(=O)NCCCNC(=O)c2ccc(-c3c4nc(c(-c5c(F)cc(S(=O)(=O)[O-])cc5F)c5ccc([nH]5)c(-c5c(F)cc(S(=O)(=O)[O-])cc5F)c5nc(c(-c6c(F)cc(S(=O)(=O)[O-])cc6F)c6ccc3[nH]6)C=C5)C=C4)cc2)cc1)c1c(O)n[nH]c1C
REMARK SMILES IDX 14 1 13 2 11 3 12 4 10 6 7 7 8 8 87 9 9 10 86 11 6 12 5 13
REMARK SMILES IDX 3 14 4 15 2 16 1 17 88 18 89 19 93 20 91 21 92 22 94 23
REMARK SMILES IDX 90 25 15 27 16 28 17 29 18 30 19 32 20 33 21 34 85 35 22 36
REMARK SMILES IDX 84 37 23 38 24 39 25 40 78 41 26 42 83 43 77 44 79 45 27 46
REMARK SMILES IDX 82 47 76 48 75 49 28 51 62 52 41 53 61 54 42 55 45 56 60 57
REMARK SMILES IDX 80 58 43 59 44 60 59 62 81 63 46 64 29 65 30 66 39 67 31 68
REMARK SMILES IDX 32 69 38 70 40 71 33 72 34 73 35 74 36 75 37 76 63 77 64 78
REMARK SMILES IDX 73 79 65 80 66 81 72 82 74 83 67 84 68 85 69 86 70 87 71 88
REMARK SMILES IDX 47 89 48 90 57 91 49 92 50 93 56 94 58 95 51 96 52 97 53 98
REMARK SMILES IDX 54 99 55 100
REMARK H PARENT 13 5 92 24 90 26 17 31 79 50 45 61
REMARK Flexibility Score: inf
ROOT
ATOM      1  C   UNL A   1      39.310  22.220  26.317  1.00  0.00     0.118 C 
ENDROOT
BRANCH   1   2
ATOM      2  N   UNL A   1      38.601  21.091  25.742  1.00  0.00    -0.352 N 
ATOM      3  C   UNL A   1      37.361  21.021  25.164  1.00  0.00     0.251 C 
ATOM      4  O   UNL A   1      37.010  19.973  24.625  1.00  0.00    -0.269 OA
ATOM      5  H   UNL A   1      39.090  20.236  25.773  1.00  0.00     0.163 HD
BRANCH   3   6
ATOM      6  C   UNL A   1      36.452  22.190  25.131  1.00  0.00     0.039 A 
ATOM      7  C   UNL A   1      34.648  24.343  24.905  1.00  0.00    -0.040 A 
ATOM      8  C   UNL A   1      35.355  23.879  23.783  1.00  0.00     0.005 A 
ATOM      9  C   UNL A   1      34.872  23.717  26.143  1.00  0.00     0.005 A 
ATOM     10  C   UNL A   1      36.243  22.807  23.895  1.00  0.00     0.014 A 
ATOM     11  C   UNL A   1      35.748  22.636  26.250  1.00  0.00     0.014 A 
BRANCH   7  12
ATOM     12  C   UNL A   1      33.628  25.468  24.826  1.00  0.00     0.068 C 
BRANCH  12  13
ATOM     13  C   UNL A   1      33.574  26.240  23.503  1.00  0.00     0.136 C 
BRANCH  13  14
ATOM     14  C   UNL A   1      33.336  27.713  23.724  1.00  0.00     0.306 C 
ATOM     15  O   UNL A   1      32.927  28.471  22.854  1.00  0.00    -0.252 OA
BRANCH  14  16
ATOM     16  O   UNL A   1      33.601  28.069  25.009  1.00  0.00    -0.469 OA
ATOM     17  C   UNL A   1      33.114  29.363  25.373  1.00  0.00     0.282 C 
ENDBRANCH  14  16
ENDBRANCH  13  14
ENDBRANCH  12  13
BRANCH  12  18
ATOM     18  C   UNL A   1      32.284  24.891  25.213  1.00  0.00     0.044 A 
ATOM     19  C   UNL A   1      31.447  25.449  26.197  1.00  0.00     0.234 A 
ATOM     20  C   UNL A   1      31.544  23.782  24.801  1.00  0.00     0.040 A 
ATOM     21  N   UNL A   1      30.313  24.810  26.418  1.00  0.00    -0.137 NA
ATOM     22  N   UNL A   1      30.404  23.775  25.569  1.00  0.00    -0.279 N 
ATOM     23  C   UNL A   1      31.771  22.699  23.810  1.00  0.00     0.066 C 
ATOM     24  H   UNL A   1      29.715  23.074  25.501  1.00  0.00     0.190 HD
BRANCH  19  25
ATOM     25  O   UNL A   1      31.630  26.534  26.944  1.00  0.00    -0.492 OA
ATOM     26  H   UNL A   1      32.039  27.293  26.575  1.00  0.00     0.295 HD
ENDBRANCH  19  25
ENDBRANCH  12  18
ENDBRANCH   7  12
ENDBRANCH   3   6
ENDBRANCH   1   2
BRANCH   1  27
ATOM     27  C   UNL A   1      40.771  21.878  26.601  1.00  0.00     0.042 C 
BRANCH  27  28
ATOM     28  C   UNL A   1      41.594  23.068  27.083  1.00  0.00     0.118 C 
BRANCH  28  29
ATOM     29  N   UNL A   1      42.010  23.924  25.982  1.00  0.00    -0.352 N 
ATOM     30  C   UNL A   1      41.988  25.291  25.875  1.00  0.00     0.251 C 
ATOM     31  H   UNL A   1      42.360  23.450  25.194  1.00  0.00     0.163 HD
ATOM     32  O   UNL A   1      42.159  25.807  24.773  1.00  0.00    -0.269 OA
BRANCH  30  33
ATOM     33  C   UNL A   1      41.757  26.140  27.064  1.00  0.00     0.039 A 
ATOM     34  C   UNL A   1      42.589  27.243  27.274  1.00  0.00     0.014 A 
ATOM     35  C   UNL A   1      40.763  25.829  27.997  1.00  0.00     0.014 A 
ATOM     36  C   UNL A   1      42.398  28.055  28.394  1.00  0.00     0.010 A 
ATOM     37  C   UNL A   1      40.525  26.680  29.073  1.00  0.00     0.010 A 
ATOM     38  C   UNL A   1      41.348  27.795  29.289  1.00  0.00    -0.014 A 
BRANCH  38  39
ATOM     39  C   UNL A   1      41.103  28.681  30.455  1.00  0.00     0.031 A 
ATOM     40  C   UNL A   1      41.956  28.572  31.689  1.00  0.00     0.074 A 
ATOM     41  C   UNL A   1      40.078  29.554  30.415  1.00  0.00     0.049 A 
ATOM     42  N   UNL A   1      41.886  29.253  32.805  1.00  0.00    -0.248 NA
ATOM     43  C   UNL A   1      43.009  27.546  31.678  1.00  0.00     0.031 C 
ATOM     44  C   UNL A   1      39.151  29.716  29.294  1.00  0.00     0.029 A 
ATOM     45  N   UNL A   1      39.646  30.469  31.340  1.00  0.00    -0.354 N 
ATOM     46  C   UNL A   1      42.875  28.730  33.630  1.00  0.00     0.074 A 
ATOM     47  C   UNL A   1      43.492  27.639  32.907  1.00  0.00     0.031 C 
ATOM     48  C   UNL A   1      38.284  30.699  29.580  1.00  0.00     0.029 A 
ATOM     49  C   UNL A   1      38.571  31.213  30.915  1.00  0.00     0.049 A 
ATOM     50  H   UNL A   1      40.064  30.583  32.223  1.00  0.00     0.167 HD
ATOM     51  C   UNL A   1      43.249  29.137  34.868  1.00  0.00     0.037 A 
ATOM     52  C   UNL A   1      37.897  32.204  31.530  1.00  0.00     0.037 A 
ATOM     53  C   UNL A   1      42.637  30.233  35.574  1.00  0.00     0.049 A 
ATOM     54  C   UNL A   1      38.329  32.641  32.901  1.00  0.00     0.074 A 
ATOM     55  C   UNL A   1      42.981  30.767  36.804  1.00  0.00     0.029 A 
ATOM     56  N   UNL A   1      41.549  30.962  35.113  1.00  0.00    -0.354 N 
ATOM     57  N   UNL A   1      39.309  32.182  33.642  1.00  0.00    -0.248 NA
ATOM     58  C   UNL A   1      37.565  33.734  33.517  1.00  0.00     0.031 C 
ATOM     59  C   UNL A   1      42.071  31.788  37.106  1.00  0.00     0.029 A 
ATOM     60  C   UNL A   1      41.190  31.923  36.045  1.00  0.00     0.049 A 
ATOM     61  H   UNL A   1      41.097  30.816  34.251  1.00  0.00     0.167 HD
ATOM     62  C   UNL A   1      39.295  32.943  34.805  1.00  0.00     0.074 A 
ATOM     63  C   UNL A   1      38.216  33.901  34.661  1.00  0.00     0.031 C 
ATOM     64  C   UNL A   1      40.103  32.859  35.892  1.00  0.00     0.037 A 
BRANCH  51  65
ATOM     65  C   UNL A   1      44.367  28.377  35.532  1.00  0.00     0.058 A 
ATOM     66  C   UNL A   1      44.116  27.283  36.379  1.00  0.00     0.135 A 
ATOM     67  C   UNL A   1      45.704  28.756  35.337  1.00  0.00     0.135 A 
ATOM     68  F   UNL A   1      42.856  26.883  36.611  1.00  0.00    -0.206 F 
ATOM     69  C   UNL A   1      45.145  26.630  37.051  1.00  0.00     0.059 A 
ATOM     70  C   UNL A   1      46.752  28.098  35.975  1.00  0.00     0.059 A 
ATOM     71  F   UNL A   1      46.004  29.789  34.535  1.00  0.00    -0.206 F 
ATOM     72  C   UNL A   1      46.460  27.053  36.851  1.00  0.00     0.060 A 
BRANCH  72  73
ATOM     73  S   UNL A   1      47.781  26.229  37.764  1.00  0.00     0.124 S 
ATOM     74  O   UNL A   1      48.813  26.113  36.738  1.00  0.00    -0.237 OA
ATOM     75  O   UNL A   1      48.061  27.177  38.838  1.00  0.00    -0.237 OA
ATOM     76  O   UNL A   1      47.170  24.973  38.187  1.00  0.00    -0.744 OA
ENDBRANCH  72  73
ENDBRANCH  51  65
BRANCH  52  77
ATOM     77  C   UNL A   1      36.783  32.881  30.819  1.00  0.00     0.058 A 
ATOM     78  C   UNL A   1      35.450  32.628  31.173  1.00  0.00     0.135 A 
ATOM     79  C   UNL A   1      37.025  33.835  29.818  1.00  0.00     0.135 A 
ATOM     80  F   UNL A   1      35.169  31.720  32.120  1.00  0.00    -0.206 F 
ATOM     81  C   UNL A   1      34.394  33.298  30.565  1.00  0.00     0.059 A 
ATOM     82  C   UNL A   1      35.987  34.534  29.209  1.00  0.00     0.059 A 
ATOM     83  F   UNL A   1      38.284  34.124  29.454  1.00  0.00    -0.206 F 
ATOM     84  C   UNL A   1      34.674  34.257  29.589  1.00  0.00     0.060 A 
BRANCH  84  85
ATOM     85  S   UNL A   1      33.301  35.185  28.872  1.00  0.00     0.124 S 
ATOM     86  O   UNL A   1      34.000  36.262  28.181  1.00  0.00    -0.237 OA
ATOM     87  O   UNL A   1      32.668  34.184  28.019  1.00  0.00    -0.237 OA
ATOM     88  O   UNL A   1      32.521  35.585  30.039  1.00  0.00    -0.744 OA
ENDBRANCH  84  85
ENDBRANCH  52  77
BRANCH  64  89
ATOM     89  C   UNL A   1      39.854  33.839  37.005  1.00  0.00     0.058 A 
ATOM     90  C   UNL A   1      38.987  33.543  38.068  1.00  0.00     0.135 A 
ATOM     91  C   UNL A   1      40.510  35.081  37.020  1.00  0.00     0.135 A 
ATOM     92  F   UNL A   1      38.329  32.373  38.097  1.00  0.00    -0.206 F 
ATOM     93  C   UNL A   1      38.753  34.457  39.090  1.00  0.00     0.059 A 
ATOM     94  C   UNL A   1      40.312  35.999  38.046  1.00  0.00     0.059 A 
ATOM     95  F   UNL A   1      41.359  35.410  36.033  1.00  0.00    -0.206 F 
ATOM     96  C   UNL A   1      39.418  35.684  39.070  1.00  0.00     0.060 A 
BRANCH  96  97
ATOM     97  S   UNL A   1      39.117  36.857  40.408  1.00  0.00     0.124 S 
ATOM     98  O   UNL A   1      38.427  37.934  39.704  1.00  0.00    -0.237 OA
ATOM     99  O   UNL A   1      38.297  36.077  41.330  1.00  0.00    -0.237 OA
ATOM    100  O   UNL A   1      40.458  37.177  40.888  1.00  0.00    -0.744 OA
ENDBRANCH  96  97
ENDBRANCH  64  89
ENDBRANCH  38  39
ENDBRANCH  30  33
ENDBRANCH  28  29
ENDBRANCH  27  28
ENDBRANCH   1  27
TORSDOF 19
ENDMDL
MODEL 2
REMARK VINA RESULT:     -11.4      4.564     10.449
REMARK SMILES COC(=O)C[C@H](c1ccc(C(=O)NCCCNC(=O)c2ccc(-c3c4nc(c(-c5c(F)cc(S(=O)(=O)[O-])cc5F)c5ccc([nH]5)c(-c5c(F)cc(S(=O)(=O)[O-])cc5F)c5nc(c(-c6c(F)cc(S(=O)(=O)[O-])cc6F)c6ccc3[nH]6)C=C5)C=C4)cc2)cc1)c1c(O)n[nH]c1C
REMARK SMILES IDX 14 1 13 2 11 3 12 4 10 6 7 7 8 8 87 9 9 10 86 11 6 12 5 13
REMARK SMILES IDX 3 14 4 15 2 16 1 17 88 18 89 19 93 20 91 21 92 22 94 23
REMARK SMILES IDX 90 25 15 27 16 28 17 29 18 30 19 32 20 33 21 34 85 35 22 36
REMARK SMILES IDX 84 37 23 38 24 39 25 40 78 41 26 42 83 43 77 44 79 45 27 46
REMARK SMILES IDX 82 47 76 48 75 49 28 51 62 52 41 53 61 54 42 55 45 56 60 57
REMARK SMILES IDX 80 58 43 59 44 60 59 62 81 63 46 64 29 65 30 66 39 67 31 68
REMARK SMILES IDX 32 69 38 70 40 71 33 72 34 73 35 74 36 75 37 76 63 77 64 78
REMARK SMILES IDX 73 79 65 80 66 81 72 82 74 83 67 84 68 85 69 86 70 87 71 88
REMARK SMILES IDX 47 89 48 90 57 91 49 92 50 93 56 94 58 95 51 96 52 97 53 98
REMARK SMILES IDX 54 99 55 100
REMARK H PARENT 13 5 92 24 90 26 17 31 79 50 45 61
REMARK Flexibility Score: inf
ROOT
ATOM      1  C   UNL A   1      32.089  27.567  25.056  1.00  0.00     0.118 C 
ENDROOT
BRANCH   1   2
ATOM      2  N   UNL A   1      30.668  27.386  24.818  1.00  0.00    -0.352 N 
ATOM      3  C   UNL A   1      29.936  26.242  24.638  1.00  0.00     0.251 C 
ATOM      4  O   UNL A   1      28.711  26.320  24.576  1.00  0.00    -0.269 OA
ATOM      5  H   UNL A   1      30.146  28.220  24.781  1.00  0.00     0.163 HD
BRANCH   3   6
ATOM      6  C   UNL A   1      30.580  24.911  24.560  1.00  0.00     0.039 A 
ATOM      7  C   UNL A   1      31.904  22.441  24.261  1.00  0.00    -0.040 A 
ATOM      8  C   UNL A   1      31.394  23.122  23.143  1.00  0.00     0.005 A 
ATOM      9  C   UNL A   1      31.725  23.014  25.531  1.00  0.00     0.005 A 
ATOM     10  C   UNL A   1      30.746  24.349  23.291  1.00  0.00     0.014 A 
ATOM     11  C   UNL A   1      31.091  24.248  25.677  1.00  0.00     0.014 A 
BRANCH   7  12
ATOM     12  C   UNL A   1      32.668  21.131  24.148  1.00  0.00     0.068 C 
BRANCH  12  13
ATOM     13  C   UNL A   1      32.371  20.280  22.908  1.00  0.00     0.136 C 
BRANCH  13  14
ATOM     14  C   UNL A   1      32.314  18.810  23.240  1.00  0.00     0.306 C 
ATOM     15  O   UNL A   1      32.467  17.922  22.410  1.00  0.00    -0.252 OA
BRANCH  14  16
ATOM     16  O   UNL A   1      32.109  18.610  24.569  1.00  0.00    -0.469 OA
ATOM     17  C   UNL A   1      32.337  17.268  25.005  1.00  0.00     0.282 C 
ENDBRANCH  14  16
ENDBRANCH  13  14
ENDBRANCH  12  13
BRANCH  12  18
ATOM     18  C   UNL A   1      34.140  21.450  24.290  1.00  0.00     0.044 A 
ATOM     19  C   UNL A   1      35.084  20.560  24.835  1.00  0.00     0.234 A 
ATOM     20  C   UNL A   1      34.931  22.560  23.991  1.00  0.00     0.040 A 
ATOM     21  N   UNL A   1      36.326  21.005  24.896  1.00  0.00    -0.137 NA
ATOM     22  N   UNL A   1      36.205  22.244  24.396  1.00  0.00    -0.279 N 
ATOM     23  C   UNL A   1      34.653  23.899  23.409  1.00  0.00     0.066 C 
ATOM     24  H   UNL A   1      36.962  22.871  24.326  1.00  0.00     0.190 HD
BRANCH  19  25
ATOM     25  O   UNL A   1      34.910  19.327  25.300  1.00  0.00    -0.492 OA
ATOM     26  H   UNL A   1      34.423  18.702  24.800  1.00  0.00     0.295 HD
ENDBRANCH  19  25
ENDBRANCH  12  18
ENDBRANCH   7  12
ENDBRANCH   3   6
ENDBRANCH   1   2
BRANCH   1  27
ATOM     27  C   UNL A   1      32.417  27.527  26.547  1.00  0.00     0.042 C 
BRANCH  27  28
ATOM     28  C   UNL A   1      33.740  28.198  26.900  1.00  0.00     0.118 C 
BRANCH  28  29
ATOM     29  N   UNL A   1      33.562  29.595  27.268  1.00  0.00    -0.352 N 
ATOM     30  C   UNL A   1      34.385  30.428  27.981  1.00  0.00     0.251 C 
ATOM     31  H   UNL A   1      32.721  30.003  26.959  1.00  0.00     0.163 HD
ATOM     32  O   UNL A   1      33.943  31.501  28.387  1.00  0.00    -0.269 OA
BRANCH  30  33
ATOM     33  C   UNL A   1      35.785  30.047  28.265  1.00  0.00     0.039 A 
ATOM     34  C   UNL A   1      36.727  30.133  27.236  1.00  0.00     0.014 A 
ATOM     35  C   UNL A   1      36.166  29.557  29.519  1.00  0.00     0.014 A 
ATOM     36  C   UNL A   1      38.054  29.770  27.475  1.00  0.00     0.010 A 
ATOM     37  C   UNL A   1      37.502  29.266  29.778  1.00  0.00     0.010 A 
ATOM     38  C   UNL A   1      38.458  29.358  28.755  1.00  0.00    -0.014 A 
BRANCH  38  39
ATOM     39  C   UNL A   1      39.876  29.017  29.035  1.00  0.00     0.031 A 
ATOM     40  C   UNL A   1      40.784  30.016  29.698  1.00  0.00     0.074 A 
ATOM     41  C   UNL A   1      40.354  27.819  28.647  1.00  0.00     0.049 A 
ATOM     42  N   UNL A   1      42.049  29.900  30.013  1.00  0.00    -0.248 NA
ATOM     43  C   UNL A   1      40.202  31.325  30.026  1.00  0.00     0.031 C 
ATOM     44  C   UNL A   1      39.583  26.787  27.951  1.00  0.00     0.029 A 
ATOM     45  N   UNL A   1      41.601  27.266  28.785  1.00  0.00    -0.354 N 
ATOM     46  C   UNL A   1      42.416  31.122  30.564  1.00  0.00     0.074 A 
ATOM     47  C   UNL A   1      41.255  31.983  30.487  1.00  0.00     0.031 C 
ATOM     48  C   UNL A   1      40.363  25.713  27.758  1.00  0.00     0.029 A 
ATOM     49  C   UNL A   1      41.695  25.990  28.283  1.00  0.00     0.049 A 
ATOM     50  H   UNL A   1      42.357  27.738  29.202  1.00  0.00     0.167 HD
ATOM     51  C   UNL A   1      43.604  31.487  31.105  1.00  0.00     0.037 A 
ATOM     52  C   UNL A   1      42.736  25.136  28.258  1.00  0.00     0.037 A 
ATOM     53  C   UNL A   1      44.750  30.619  31.189  1.00  0.00     0.049 A 
ATOM     54  C   UNL A   1      44.045  25.559  28.864  1.00  0.00     0.074 A 
ATOM     55  C   UNL A   1      45.980  30.867  31.773  1.00  0.00     0.029 A 
ATOM     56  N   UNL A   1      44.809  29.333  30.668  1.00  0.00    -0.354 N 
ATOM     57  N   UNL A   1      44.356  26.695  29.442  1.00  0.00    -0.248 NA
ATOM     58  C   UNL A   1      45.140  24.582  28.818  1.00  0.00     0.031 C 
ATOM     59  C   UNL A   1      46.797  29.748  31.564  1.00  0.00     0.029 A 
ATOM     60  C   UNL A   1      46.061  28.784  30.892  1.00  0.00     0.049 A 
ATOM     61  H   UNL A   1      44.068  28.878  30.205  1.00  0.00     0.167 HD
ATOM     62  C   UNL A   1      45.679  26.563  29.848  1.00  0.00     0.074 A 
ATOM     63  C   UNL A   1      46.102  25.232  29.461  1.00  0.00     0.031 C 
ATOM     64  C   UNL A   1      46.471  27.462  30.486  1.00  0.00     0.037 A 
BRANCH  51  65
ATOM     65  C   UNL A   1      43.715  32.892  31.634  1.00  0.00     0.058 A 
ATOM     66  C   UNL A   1      44.161  33.953  30.827  1.00  0.00     0.135 A 
ATOM     67  C   UNL A   1      43.391  33.181  32.970  1.00  0.00     0.135 A 
ATOM     68  F   UNL A   1      44.495  33.734  29.546  1.00  0.00    -0.206 F 
ATOM     69  C   UNL A   1      44.335  35.236  31.339  1.00  0.00     0.059 A 
ATOM     70  C   UNL A   1      43.529  34.463  33.495  1.00  0.00     0.059 A 
ATOM     71  F   UNL A   1      42.955  32.209  33.785  1.00  0.00    -0.206 F 
ATOM     72  C   UNL A   1      44.027  35.478  32.679  1.00  0.00     0.060 A 
BRANCH  72  73
ATOM     73  S   UNL A   1      44.302  37.134  33.343  1.00  0.00     0.124 S 
ATOM     74  O   UNL A   1      45.519  36.934  34.124  1.00  0.00    -0.237 OA
ATOM     75  O   UNL A   1      44.450  37.939  32.135  1.00  0.00    -0.237 OA
ATOM     76  O   UNL A   1      43.093  37.393  34.120  1.00  0.00    -0.744 OA
ENDBRANCH  72  73
ENDBRANCH  51  65
BRANCH  52  77
ATOM     77  C   UNL A   1      42.553  23.777  27.686  1.00  0.00     0.058 A 
ATOM     78  C   UNL A   1      42.621  23.570  26.301  1.00  0.00     0.135 A 
ATOM     79  C   UNL A   1      42.369  22.655  28.508  1.00  0.00     0.135 A 
ATOM     80  F   UNL A   1      42.789  24.613  25.474  1.00  0.00    -0.206 F 
ATOM     81  C   UNL A   1      42.516  22.298  25.748  1.00  0.00     0.059 A 
ATOM     82  C   UNL A   1      42.283  21.370  27.981  1.00  0.00     0.059 A 
ATOM     83  F   UNL A   1      42.314  22.800  29.842  1.00  0.00    -0.206 F 
ATOM     84  C   UNL A   1      42.357  21.203  26.599  1.00  0.00     0.060 A 
BRANCH  84  85
ATOM     85  S   UNL A   1      42.314  19.548  25.876  1.00  0.00     0.124 S 
ATOM     86  O   UNL A   1      42.669  18.716  27.020  1.00  0.00    -0.237 OA
ATOM     87  O   UNL A   1      40.932  19.449  25.420  1.00  0.00    -0.237 OA
ATOM     88  O   UNL A   1      43.313  19.621  24.813  1.00  0.00    -0.744 OA
ENDBRANCH  84  85
ENDBRANCH  52  77
BRANCH  64  89
ATOM     89  C   UNL A   1      47.872  27.025  30.814  1.00  0.00     0.058 A 
ATOM     90  C   UNL A   1      48.948  27.292  29.953  1.00  0.00     0.135 A 
ATOM     91  C   UNL A   1      48.145  26.352  32.016  1.00  0.00     0.135 A 
ATOM     92  F   UNL A   1      48.739  27.926  28.788  1.00  0.00    -0.206 F 
ATOM     93  C   UNL A   1      50.241  26.879  30.256  1.00  0.00     0.059 A 
ATOM     94  C   UNL A   1      49.435  25.953  32.352  1.00  0.00     0.059 A 
ATOM     95  F   UNL A   1      47.154  26.082  32.880  1.00  0.00    -0.206 F 
ATOM     96  C   UNL A   1      50.474  26.207  31.458  1.00  0.00     0.060 A 
BRANCH  96  97
ATOM     97  S   UNL A   1      52.157  25.685  31.847  1.00  0.00     0.124 S 
ATOM     98  O   UNL A   1      52.852  25.981  30.598  1.00  0.00    -0.237 OA
ATOM     99  O   UNL A   1      52.498  26.541  32.979  1.00  0.00    -0.237 OA
ATOM    100  O   UNL A   1      52.010  24.268  32.164  1.00  0.00    -0.744 OA
ENDBRANCH  96  97
ENDBRANCH  64  89
ENDBRANCH  38  39
ENDBRANCH  30  33
ENDBRANCH  28  29
ENDBRANCH  27  28
ENDBRANCH   1  27
TORSDOF 19
ENDMDL
MODEL 3
REMARK VINA RESULT:     -11.3      5.009      6.708
REMARK SMILES COC(=O)C[C@H](c1ccc(C(=O)NCCCNC(=O)c2ccc(-c3c4nc(c(-c5c(F)cc(S(=O)(=O)[O-])cc5F)c5ccc([nH]5)c(-c5c(F)cc(S(=O)(=O)[O-])cc5F)c5nc(c(-c6c(F)cc(S(=O)(=O)[O-])cc6F)c6ccc3[nH]6)C=C5)C=C4)cc2)cc1)c1c(O)n[nH]c1C
REMARK SMILES IDX 14 1 13 2 11 3 12 4 10 6 7 7 8 8 87 9 9 10 86 11 6 12 5 13
REMARK SMILES IDX 3 14 4 15 2 16 1 17 88 18 89 19 93 20 91 21 92 22 94 23
REMARK SMILES IDX 90 25 15 27 16 28 17 29 18 30 19 32 20 33 21 34 85 35 22 36
REMARK SMILES IDX 84 37 23 38 24 39 25 40 78 41 26 42 83 43 77 44 79 45 27 46
REMARK SMILES IDX 82 47 76 48 75 49 28 51 62 52 41 53 61 54 42 55 45 56 60 57
REMARK SMILES IDX 80 58 43 59 44 60 59 62 81 63 46 64 29 65 30 66 39 67 31 68
REMARK SMILES IDX 32 69 38 70 40 71 33 72 34 73 35 74 36 75 37 76 63 77 64 78
REMARK SMILES IDX 73 79 65 80 66 81 72 82 74 83 67 84 68 85 69 86 70 87 71 88
REMARK SMILES IDX 47 89 48 90 57 91 49 92 50 93 56 94 58 95 51 96 52 97 53 98
REMARK SMILES IDX 54 99 55 100
REMARK H PARENT 13 5 92 24 90 26 17 31 79 50 45 61
REMARK Flexibility Score: inf
ROOT
ATOM      1  C   UNL A   1      33.859  22.459  25.512  1.00  0.00     0.118 C 
ENDROOT
BRANCH   1   2
ATOM      2  N   UNL A   1      32.566  21.985  25.974  1.00  0.00    -0.352 N 
ATOM      3  C   UNL A   1      31.308  22.484  25.758  1.00  0.00     0.251 C 
ATOM      4  O   UNL A   1      30.335  21.840  26.147  1.00  0.00    -0.269 OA
ATOM      5  H   UNL A   1      32.599  21.174  26.532  1.00  0.00     0.163 HD
BRANCH   3   6
ATOM      6  C   UNL A   1      31.090  23.754  25.030  1.00  0.00     0.039 A 
ATOM      7  C   UNL A   1      30.787  26.258  23.772  1.00  0.00    -0.040 A 
ATOM      8  C   UNL A   1      30.722  26.145  25.171  1.00  0.00     0.005 A 
ATOM      9  C   UNL A   1      30.992  25.092  23.016  1.00  0.00     0.005 A 
ATOM     10  C   UNL A   1      30.880  24.906  25.793  1.00  0.00     0.014 A 
ATOM     11  C   UNL A   1      31.165  23.856  23.640  1.00  0.00     0.014 A 
BRANCH   7  12
ATOM     12  C   UNL A   1      30.679  27.591  23.049  1.00  0.00     0.068 C 
BRANCH  12  13
ATOM     13  C   UNL A   1      29.441  28.436  23.369  1.00  0.00     0.136 C 
BRANCH  13  14
ATOM     14  C   UNL A   1      29.110  29.391  22.250  1.00  0.00     0.306 C 
ATOM     15  O   UNL A   1      29.895  29.688  21.358  1.00  0.00    -0.252 OA
BRANCH  14  16
ATOM     16  O   UNL A   1      27.830  29.842  22.347  1.00  0.00    -0.469 OA
ATOM     17  C   UNL A   1      27.663  30.949  23.234  1.00  0.00     0.282 C 
ENDBRANCH  14  16
ENDBRANCH  13  14
ENDBRANCH  12  13
BRANCH  12  18
ATOM     18  C   UNL A   1      31.969  28.344  23.288  1.00  0.00     0.044 A 
ATOM     19  C   UNL A   1      33.125  28.185  22.502  1.00  0.00     0.234 A 
ATOM     20  C   UNL A   1      32.387  29.290  24.226  1.00  0.00     0.040 A 
ATOM     21  N   UNL A   1      34.168  28.913  22.859  1.00  0.00    -0.137 NA
ATOM     22  N   UNL A   1      33.701  29.564  23.935  1.00  0.00    -0.279 N 
ATOM     23  C   UNL A   1      31.736  29.949  25.388  1.00  0.00     0.066 C 
ATOM     24  H   UNL A   1      34.251  30.185  24.467  1.00  0.00     0.190 HD
BRANCH  19  25
ATOM     25  O   UNL A   1      33.325  27.405  21.444  1.00  0.00    -0.492 OA
ATOM     26  H   UNL A   1      34.020  26.777  21.450  1.00  0.00     0.295 HD
ENDBRANCH  19  25
ENDBRANCH  12  18
ENDBRANCH   7  12
ENDBRANCH   3   6
ENDBRANCH   1   2
BRANCH   1  27
ATOM     27  C   UNL A   1      34.564  23.291  26.579  1.00  0.00     0.042 C 
BRANCH  27  28
ATOM     28  C   UNL A   1      35.941  23.790  26.154  1.00  0.00     0.118 C 
BRANCH  28  29
ATOM     29  N   UNL A   1      36.913  22.709  26.081  1.00  0.00    -0.352 N 
ATOM     30  C   UNL A   1      38.280  22.747  26.180  1.00  0.00     0.251 C 
ATOM     31  H   UNL A   1      36.531  21.813  25.938  1.00  0.00     0.163 HD
ATOM     32  O   UNL A   1      38.932  21.759  25.852  1.00  0.00    -0.269 OA
BRANCH  30  33
ATOM     33  C   UNL A   1      38.970  23.962  26.668  1.00  0.00     0.039 A 
ATOM     34  C   UNL A   1      39.631  24.776  25.744  1.00  0.00     0.014 A 
ATOM     35  C   UNL A   1      39.013  24.276  28.030  1.00  0.00     0.014 A 
ATOM     36  C   UNL A   1      40.297  25.923  26.180  1.00  0.00     0.010 A 
ATOM     37  C   UNL A   1      39.613  25.458  28.455  1.00  0.00     0.010 A 
ATOM     38  C   UNL A   1      40.272  26.287  27.536  1.00  0.00    -0.014 A 
BRANCH  38  39
ATOM     39  C   UNL A   1      40.934  27.531  28.004  1.00  0.00     0.031 A 
ATOM     40  C   UNL A   1      42.424  27.697  27.880  1.00  0.00     0.074 A 
ATOM     41  C   UNL A   1      40.191  28.494  28.584  1.00  0.00     0.049 A 
ATOM     42  N   UNL A   1      43.175  28.706  28.240  1.00  0.00    -0.248 NA
ATOM     43  C   UNL A   1      43.169  26.571  27.299  1.00  0.00     0.031 C 
ATOM     44  C   UNL A   1      38.745  28.425  28.805  1.00  0.00     0.029 A 
ATOM     45  N   UNL A   1      40.548  29.716  29.091  1.00  0.00    -0.354 N 
ATOM     46  C   UNL A   1      44.480  28.332  27.942  1.00  0.00     0.074 A 
ATOM     47  C   UNL A   1      44.422  26.982  27.424  1.00  0.00     0.031 C 
ATOM     48  C   UNL A   1      38.333  29.573  29.367  1.00  0.00     0.029 A 
ATOM     49  C   UNL A   1      39.486  30.441  29.577  1.00  0.00     0.049 A 
ATOM     50  H   UNL A   1      41.476  30.044  29.106  1.00  0.00     0.167 HD
ATOM     51  C   UNL A   1      45.620  29.055  28.067  1.00  0.00     0.037 A 
ATOM     52  C   UNL A   1      39.446  31.671  30.124  1.00  0.00     0.037 A 
ATOM     53  C   UNL A   1      45.666  30.403  28.571  1.00  0.00     0.049 A 
ATOM     54  C   UNL A   1      40.720  32.458  30.251  1.00  0.00     0.074 A 
ATOM     55  C   UNL A   1      46.758  31.248  28.680  1.00  0.00     0.029 A 
ATOM     56  N   UNL A   1      44.570  31.104  29.057  1.00  0.00    -0.354 N 
ATOM     57  N   UNL A   1      41.938  32.116  29.902  1.00  0.00    -0.248 NA
ATOM     58  C   UNL A   1      40.613  33.797  30.843  1.00  0.00     0.031 C 
ATOM     59  C   UNL A   1      46.329  32.442  29.273  1.00  0.00     0.029 A 
ATOM     60  C   UNL A   1      44.962  32.360  29.492  1.00  0.00     0.049 A 
ATOM     61  H   UNL A   1      43.649  30.759  29.089  1.00  0.00     0.167 HD
ATOM     62  C   UNL A   1      42.742  33.207  30.213  1.00  0.00     0.074 A 
ATOM     63  C   UNL A   1      41.867  34.223  30.765  1.00  0.00     0.031 C 
ATOM     64  C   UNL A   1      44.081  33.355  30.053  1.00  0.00     0.037 A 
BRANCH  51  65
ATOM     65  C   UNL A   1      46.906  28.387  27.658  1.00  0.00     0.058 A 
ATOM     66  C   UNL A   1      47.363  28.415  26.329  1.00  0.00     0.135 A 
ATOM     67  C   UNL A   1      47.682  27.693  28.600  1.00  0.00     0.135 A 
ATOM     68  F   UNL A   1      46.656  29.053  25.384  1.00  0.00    -0.206 F 
ATOM     69  C   UNL A   1      48.512  27.733  25.939  1.00  0.00     0.059 A 
ATOM     70  C   UNL A   1      48.851  27.029  28.238  1.00  0.00     0.059 A 
ATOM     71  F   UNL A   1      47.298  27.637  29.884  1.00  0.00    -0.206 F 
ATOM     72  C   UNL A   1      49.243  27.032  26.899  1.00  0.00     0.060 A 
BRANCH  72  73
ATOM     73  S   UNL A   1      50.705  26.113  26.373  1.00  0.00     0.124 S 
ATOM     74  O   UNL A   1      50.545  26.121  24.922  1.00  0.00    -0.237 OA
ATOM     75  O   UNL A   1      51.796  26.929  26.894  1.00  0.00    -0.237 OA
ATOM     76  O   UNL A   1      50.538  24.813  27.015  1.00  0.00    -0.744 OA
ENDBRANCH  72  73
ENDBRANCH  51  65
BRANCH  52  77
ATOM     77  C   UNL A   1      38.139  32.247  30.533  1.00  0.00     0.058 A 
ATOM     78  C   UNL A   1      37.682  32.117  31.852  1.00  0.00     0.135 A 
ATOM     79  C   UNL A   1      37.352  32.987  29.637  1.00  0.00     0.135 A 
ATOM     80  F   UNL A   1      38.398  31.413  32.742  1.00  0.00    -0.206 F 
ATOM     81  C   UNL A   1      36.493  32.702  32.273  1.00  0.00     0.059 A 
ATOM     82  C   UNL A   1      36.169  33.599  30.039  1.00  0.00     0.059 A 
ATOM     83  F   UNL A   1      37.754  33.154  28.367  1.00  0.00    -0.206 F 
ATOM     84  C   UNL A   1      35.748  33.450  31.360  1.00  0.00     0.060 A 
BRANCH  84  85
ATOM     85  S   UNL A   1      34.253  34.280  31.941  1.00  0.00     0.124 S 
ATOM     86  O   UNL A   1      33.601  34.630  30.685  1.00  0.00    -0.237 OA
ATOM     87  O   UNL A   1      33.607  33.233  32.726  1.00  0.00    -0.237 OA
ATOM     88  O   UNL A   1      34.773  35.403  32.717  1.00  0.00    -0.744 OA
ENDBRANCH  84  85
ENDBRANCH  52  77
BRANCH  64  89
ATOM     89  C   UNL A   1      44.677  34.671  30.472  1.00  0.00     0.058 A 
ATOM     90  C   UNL A   1      45.199  34.867  31.760  1.00  0.00     0.135 A 
ATOM     91  C   UNL A   1      44.748  35.741  29.565  1.00  0.00     0.135 A 
ATOM     92  F   UNL A   1      45.149  33.878  32.667  1.00  0.00    -0.206 F 
ATOM     93  C   UNL A   1      45.741  36.088  32.146  1.00  0.00     0.059 A 
ATOM     94  C   UNL A   1      45.310  36.962  29.921  1.00  0.00     0.059 A 
ATOM     95  F   UNL A   1      44.273  35.603  28.317  1.00  0.00    -0.206 F 
ATOM     96  C   UNL A   1      45.790  37.132  31.219  1.00  0.00     0.060 A 
BRANCH  96  97
ATOM     97  S   UNL A   1      46.507  38.708  31.727  1.00  0.00     0.124 S 
ATOM     98  O   UNL A   1      46.741  39.352  30.438  1.00  0.00    -0.237 OA
ATOM     99  O   UNL A   1      45.444  39.290  32.541  1.00  0.00    -0.237 OA
ATOM    100  O   UNL A   1      47.706  38.316  32.461  1.00  0.00    -0.744 OA
ENDBRANCH  96  97
ENDBRANCH  64  89
ENDBRANCH  38  39
ENDBRANCH  30  33
ENDBRANCH  28  29
ENDBRANCH  27  28
ENDBRANCH   1  27
TORSDOF 19
ENDMDL
