MODEL 1
REMARK VINA RESULT:     -12.8      0.000      0.000
REMARK SMILES CNC(=O)c1cc(S(=O)(=O)N2CCC(C(=O)NCCCNC(=O)c3ccc(-c4c5nc(c(-c6c(F)cc(S(=O)(=O)[O-])cc6F)c6ccc([nH]6)c(-c6c(F)cc(S(=O)(=O)[O-])cc6F)c6nc(c(-c7c(F)cc(S(=O)(=O)[O-])cc7F)c7ccc4[nH]7)C=C6)C=C5)cc3)CC2)ccc1OC
REMARK SMILES IDX 19 1 18 2 17 3 15 4 16 5 14 7 11 8 12 9 91 10 13 11 90 12
REMARK SMILES IDX 8 13 9 14 10 15 7 16 5 17 6 18 94 19 93 20 92 21 3 22 1 23
REMARK SMILES IDX 2 24 4 26 95 27 96 28 20 29 21 30 22 31 23 33 24 34 25 35
REMARK SMILES IDX 89 36 26 37 88 38 27 39 28 40 29 41 82 42 30 43 87 44 81 45
REMARK SMILES IDX 83 46 31 47 86 48 80 49 79 50 32 52 66 53 45 54 65 55 46 56
REMARK SMILES IDX 49 57 64 58 84 59 47 60 48 61 63 63 85 64 50 65 33 66 34 67
REMARK SMILES IDX 43 68 35 69 36 70 42 71 44 72 37 73 38 74 39 75 40 76 41 77
REMARK SMILES IDX 67 78 68 79 77 80 69 81 70 82 76 83 78 84 71 85 72 86 73 87
REMARK SMILES IDX 74 88 75 89 51 90 52 91 61 92 53 93 54 94 60 95 62 96 55 97
REMARK SMILES IDX 56 98 57 99 58 100 59 101
REMARK H PARENT 17 6 2 25 21 32 83 51 49 62
REMARK Flexibility Score: inf
ROOT
ATOM      1  C   UNL A   1      34.827  30.300  27.270  1.00  0.00     0.042 C 
ENDROOT
BRANCH   1   2
ATOM      2  C   UNL A   1      33.392  30.726  27.004  1.00  0.00     0.117 C 
BRANCH   2   3
ATOM      3  N   UNL A   1      32.423  29.852  27.649  1.00  0.00    -0.356 N 
ATOM      4  C   UNL A   1      31.865  28.679  27.252  1.00  0.00     0.223 C 
ATOM      5  O   UNL A   1      31.053  28.138  28.006  1.00  0.00    -0.275 OA
ATOM      6  H   UNL A   1      32.118  30.167  28.530  1.00  0.00     0.163 HD
BRANCH   4   7
ATOM      7  C   UNL A   1      32.230  28.023  25.933  1.00  0.00     0.081 C 
ATOM      8  N   UNL A   1      32.639  25.772  24.191  1.00  0.00    -0.198 NA
ATOM      9  C   UNL A   1      33.813  26.490  24.732  1.00  0.00     0.103 C 
ATOM     10  C   UNL A   1      31.376  26.531  24.056  1.00  0.00     0.103 C 
ATOM     11  C   UNL A   1      33.469  27.141  26.057  1.00  0.00     0.030 C 
ATOM     12  C   UNL A   1      31.028  27.319  25.306  1.00  0.00     0.030 C 
BRANCH   8  13
ATOM     13  S   UNL A   1      32.951  24.608  22.981  1.00  0.00     0.243 S 
ATOM     14  O   UNL A   1      33.705  25.268  21.937  1.00  0.00    -0.207 OA
ATOM     15  O   UNL A   1      31.717  23.907  22.700  1.00  0.00    -0.207 OA
BRANCH  13  16
ATOM     16  C   UNL A   1      34.056  23.395  23.686  1.00  0.00     0.083 A 
ATOM     17  C   UNL A   1      34.329  21.585  25.276  1.00  0.00     0.083 A 
ATOM     18  C   UNL A   1      33.538  22.595  24.710  1.00  0.00     0.039 A 
ATOM     19  C   UNL A   1      35.607  21.328  24.764  1.00  0.00     0.131 A 
ATOM     20  C   UNL A   1      36.136  22.163  23.783  1.00  0.00     0.048 A 
ATOM     21  C   UNL A   1      35.367  23.197  23.250  1.00  0.00     0.025 A 
BRANCH  17  22
ATOM     22  C   UNL A   1      33.742  20.826  26.396  1.00  0.00     0.254 C 
ATOM     23  C   UNL A   1      33.166  18.822  24.951  1.00  0.00     0.143 C 
ATOM     24  N   UNL A   1      33.214  19.579  26.181  1.00  0.00    -0.355 N 
ATOM     25  H   UNL A   1      32.817  19.143  26.969  1.00  0.00     0.163 HD
ATOM     26  O   UNL A   1      33.749  21.317  27.521  1.00  0.00    -0.269 OA
ENDBRANCH  17  22
BRANCH  19  27
ATOM     27  O   UNL A   1      36.433  20.319  25.178  1.00  0.00    -0.496 OA
ATOM     28  C   UNL A   1      37.814  20.670  25.074  1.00  0.00     0.278 C 
ENDBRANCH  19  27
ENDBRANCH  13  16
ENDBRANCH   8  13
ENDBRANCH   4   7
ENDBRANCH   2   3
ENDBRANCH   1   2
BRANCH   1  29
ATOM     29  C   UNL A   1      35.607  31.288  28.121  1.00  0.00     0.118 C 
BRANCH  29  30
ATOM     30  N   UNL A   1      35.468  31.023  29.546  1.00  0.00    -0.352 N 
ATOM     31  C   UNL A   1      36.323  30.390  30.415  1.00  0.00     0.251 C 
ATOM     32  H   UNL A   1      34.632  31.349  29.951  1.00  0.00     0.163 HD
ATOM     33  O   UNL A   1      35.923  30.080  31.533  1.00  0.00    -0.269 OA
BRANCH  31  34
ATOM     34  C   UNL A   1      37.707  30.070  30.004  1.00  0.00     0.039 A 
ATOM     35  C   UNL A   1      38.644  29.730  30.983  1.00  0.00     0.014 A 
ATOM     36  C   UNL A   1      38.089  30.128  28.661  1.00  0.00     0.014 A 
ATOM     37  C   UNL A   1      39.944  29.387  30.608  1.00  0.00     0.010 A 
ATOM     38  C   UNL A   1      39.354  29.697  28.280  1.00  0.00     0.010 A 
ATOM     39  C   UNL A   1      40.300  29.336  29.250  1.00  0.00    -0.014 A 
BRANCH  39  40
ATOM     40  C   UNL A   1      41.662  28.930  28.820  1.00  0.00     0.031 A 
ATOM     41  C   UNL A   1      42.770  29.946  28.781  1.00  0.00     0.074 A 
ATOM     42  C   UNL A   1      41.882  27.669  28.401  1.00  0.00     0.049 A 
ATOM     43  N   UNL A   1      44.003  29.809  28.365  1.00  0.00    -0.248 NA
ATOM     44  C   UNL A   1      42.441  31.305  29.240  1.00  0.00     0.031 C 
ATOM     45  C   UNL A   1      40.877  26.606  28.347  1.00  0.00     0.029 A 
ATOM     46  N   UNL A   1      43.025  27.069  27.939  1.00  0.00    -0.354 N 
ATOM     47  C   UNL A   1      44.587  31.065  28.490  1.00  0.00     0.074 A 
ATOM     48  C   UNL A   1      43.557  31.962  28.969  1.00  0.00     0.031 C 
ATOM     49  C   UNL A   1      41.456  25.475  27.912  1.00  0.00     0.029 A 
ATOM     50  C   UNL A   1      42.862  25.742  27.624  1.00  0.00     0.049 A 
ATOM     51  H   UNL A   1      43.882  27.544  27.843  1.00  0.00     0.167 HD
ATOM     52  C   UNL A   1      45.869  31.433  28.255  1.00  0.00     0.037 A 
ATOM     53  C   UNL A   1      43.746  24.840  27.158  1.00  0.00     0.037 A 
ATOM     54  C   UNL A   1      46.897  30.529  27.811  1.00  0.00     0.049 A 
ATOM     55  C   UNL A   1      45.168  25.264  26.919  1.00  0.00     0.074 A 
ATOM     56  C   UNL A   1      48.239  30.787  27.596  1.00  0.00     0.029 A 
ATOM     57  N   UNL A   1      46.695  29.187  27.521  1.00  0.00    -0.354 N 
ATOM     58  N   UNL A   1      45.715  26.445  27.087  1.00  0.00    -0.248 NA
ATOM     59  C   UNL A   1      46.094  24.233  26.432  1.00  0.00     0.031 C 
ATOM     60  C   UNL A   1      48.843  29.606  27.147  1.00  0.00     0.029 A 
ATOM     61  C   UNL A   1      47.885  28.606  27.116  1.00  0.00     0.049 A 
ATOM     62  H   UNL A   1      45.833  28.717  27.591  1.00  0.00     0.167 HD
ATOM     63  C   UNL A   1      47.054  26.294  26.747  1.00  0.00     0.074 A 
ATOM     64  C   UNL A   1      47.236  24.905  26.372  1.00  0.00     0.031 C 
ATOM     65  C   UNL A   1      48.045  27.221  26.748  1.00  0.00     0.037 A 
BRANCH  52  66
ATOM     66  C   UNL A   1      46.218  32.878  28.479  1.00  0.00     0.058 A 
ATOM     67  C   UNL A   1      46.165  33.818  27.436  1.00  0.00     0.135 A 
ATOM     68  C   UNL A   1      46.633  33.327  29.743  1.00  0.00     0.135 A 
ATOM     69  F   UNL A   1      45.791  33.439  26.204  1.00  0.00    -0.206 F 
ATOM     70  C   UNL A   1      46.559  35.139  27.625  1.00  0.00     0.059 A 
ATOM     71  C   UNL A   1      47.005  34.651  29.961  1.00  0.00     0.059 A 
ATOM     72  F   UNL A   1      46.701  32.472  30.776  1.00  0.00    -0.206 F 
ATOM     73  C   UNL A   1      46.989  35.543  28.890  1.00  0.00     0.060 A 
BRANCH  73  74
ATOM     74  S   UNL A   1      47.538  37.248  29.115  1.00  0.00     0.124 S 
ATOM     75  O   UNL A   1      46.402  37.990  28.577  1.00  0.00    -0.237 OA
ATOM     76  O   UNL A   1      47.722  37.333  30.560  1.00  0.00    -0.237 OA
ATOM     77  O   UNL A   1      48.763  37.314  28.326  1.00  0.00    -0.744 OA
ENDBRANCH  73  74
ENDBRANCH  52  66
BRANCH  53  78
ATOM     78  C   UNL A   1      43.318  23.434  26.941  1.00  0.00     0.058 A 
ATOM     79  C   UNL A   1      43.162  22.931  25.642  1.00  0.00     0.135 A 
ATOM     80  C   UNL A   1      43.103  22.559  28.015  1.00  0.00     0.135 A 
ATOM     81  F   UNL A   1      43.353  23.734  24.584  1.00  0.00    -0.206 F 
ATOM     82  C   UNL A   1      42.802  21.607  25.412  1.00  0.00     0.059 A 
ATOM     83  C   UNL A   1      42.761  21.225  27.811  1.00  0.00     0.059 A 
ATOM     84  F   UNL A   1      43.258  22.990  29.276  1.00  0.00    -0.206 F 
ATOM     85  C   UNL A   1      42.609  20.760  26.505  1.00  0.00     0.060 A 
BRANCH  85  86
ATOM     86  S   UNL A   1      42.213  19.025  26.194  1.00  0.00     0.124 S 
ATOM     87  O   UNL A   1      40.804  19.108  25.826  1.00  0.00    -0.237 OA
ATOM     88  O   UNL A   1      43.136  18.688  25.115  1.00  0.00    -0.237 OA
ATOM     89  O   UNL A   1      42.496  18.383  27.474  1.00  0.00    -0.744 OA
ENDBRANCH  85  86
ENDBRANCH  53  78
BRANCH  65  90
ATOM     90  C   UNL A   1      49.417  26.755  26.353  1.00  0.00     0.058 A 
ATOM     91  C   UNL A   1      50.267  26.115  27.267  1.00  0.00     0.135 A 
ATOM     92  C   UNL A   1      49.870  26.917  25.035  1.00  0.00     0.135 A 
ATOM     93  F   UNL A   1      49.882  25.943  28.542  1.00  0.00    -0.206 F 
ATOM     94  C   UNL A   1      51.532  25.671  26.894  1.00  0.00     0.059 A 
ATOM     95  C   UNL A   1      51.121  26.461  24.633  1.00  0.00     0.059 A 
ATOM     96  F   UNL A   1      49.090  27.515  24.120  1.00  0.00    -0.206 F 
ATOM     97  C   UNL A   1      51.951  25.850  25.574  1.00  0.00     0.060 A 
BRANCH  97  98
ATOM     98  S   UNL A   1      53.581  25.245  25.091  1.00  0.00     0.124 S 
ATOM     99  O   UNL A   1      53.613  25.593  23.673  1.00  0.00    -0.237 OA
ATOM    100  O   UNL A   1      54.472  26.016  25.953  1.00  0.00    -0.237 OA
ATOM    101  O   UNL A   1      53.514  23.817  25.387  1.00  0.00    -0.744 OA
ENDBRANCH  97  98
ENDBRANCH  65  90
ENDBRANCH  39  40
ENDBRANCH  31  34
ENDBRANCH  29  30
ENDBRANCH   1  29
TORSDOF 17
ENDMDL
MODEL 2
REMARK VINA RESULT:     -12.4      6.218     11.984
REMARK SMILES CNC(=O)c1cc(S(=O)(=O)N2CCC(C(=O)NCCCNC(=O)c3ccc(-c4c5nc(c(-c6c(F)cc(S(=O)(=O)[O-])cc6F)c6ccc([nH]6)c(-c6c(F)cc(S(=O)(=O)[O-])cc6F)c6nc(c(-c7c(F)cc(S(=O)(=O)[O-])cc7F)c7ccc4[nH]7)C=C6)C=C5)cc3)CC2)ccc1OC
REMARK SMILES IDX 19 1 18 2 17 3 15 4 16 5 14 7 11 8 12 9 91 10 13 11 90 12
REMARK SMILES IDX 8 13 9 14 10 15 7 16 5 17 6 18 94 19 93 20 92 21 3 22 1 23
REMARK SMILES IDX 2 24 4 26 95 27 96 28 20 29 21 30 22 31 23 33 24 34 25 35
REMARK SMILES IDX 89 36 26 37 88 38 27 39 28 40 29 41 82 42 30 43 87 44 81 45
REMARK SMILES IDX 83 46 31 47 86 48 80 49 79 50 32 52 66 53 45 54 65 55 46 56
REMARK SMILES IDX 49 57 64 58 84 59 47 60 48 61 63 63 85 64 50 65 33 66 34 67
REMARK SMILES IDX 43 68 35 69 36 70 42 71 44 72 37 73 38 74 39 75 40 76 41 77
REMARK SMILES IDX 67 78 68 79 77 80 69 81 70 82 76 83 78 84 71 85 72 86 73 87
REMARK SMILES IDX 74 88 75 89 51 90 52 91 61 92 53 93 54 94 60 95 62 96 55 97
REMARK SMILES IDX 56 98 57 99 58 100 59 101
REMARK H PARENT 17 6 2 25 21 32 83 51 49 62
REMARK Flexibility Score: inf
ROOT
ATOM      1  C   UNL A   1      39.497  22.074  26.258  1.00  0.00     0.042 C 
ENDROOT
BRANCH   1   2
ATOM      2  C   UNL A   1      38.113  22.439  25.742  1.00  0.00     0.117 C 
BRANCH   2   3
ATOM      3  N   UNL A   1      37.313  21.266  25.419  1.00  0.00    -0.356 N 
ATOM      4  C   UNL A   1      35.991  21.128  25.140  1.00  0.00     0.223 C 
ATOM      5  O   UNL A   1      35.564  19.997  24.898  1.00  0.00    -0.275 OA
ATOM      6  H   UNL A   1      37.820  20.423  25.401  1.00  0.00     0.163 HD
BRANCH   4   7
ATOM      7  C   UNL A   1      35.051  22.319  25.097  1.00  0.00     0.081 C 
ATOM      8  N   UNL A   1      32.485  23.598  25.322  1.00  0.00    -0.198 NA
ATOM      9  C   UNL A   1      33.066  23.373  23.981  1.00  0.00     0.103 C 
ATOM     10  C   UNL A   1      33.423  23.722  26.461  1.00  0.00     0.103 C 
ATOM     11  C   UNL A   1      33.998  22.178  24.003  1.00  0.00     0.030 C 
ATOM     12  C   UNL A   1      34.474  22.627  26.477  1.00  0.00     0.030 C 
BRANCH   8  13
ATOM     13  S   UNL A   1      31.084  24.572  25.391  1.00  0.00     0.243 S 
ATOM     14  O   UNL A   1      30.411  24.265  26.635  1.00  0.00    -0.207 OA
ATOM     15  O   UNL A   1      30.406  24.479  24.117  1.00  0.00    -0.207 OA
BRANCH  13  16
ATOM     16  C   UNL A   1      31.626  26.268  25.538  1.00  0.00     0.083 A 
ATOM     17  C   UNL A   1      32.353  28.269  24.378  1.00  0.00     0.083 A 
ATOM     18  C   UNL A   1      31.970  26.921  24.349  1.00  0.00     0.039 A 
ATOM     19  C   UNL A   1      32.319  28.980  25.585  1.00  0.00     0.131 A 
ATOM     20  C   UNL A   1      32.029  28.310  26.771  1.00  0.00     0.048 A 
ATOM     21  C   UNL A   1      31.691  26.957  26.750  1.00  0.00     0.025 A 
BRANCH  17  22
ATOM     22  C   UNL A   1      32.766  28.873  23.098  1.00  0.00     0.254 C 
ATOM     23  C   UNL A   1      30.389  29.414  22.398  1.00  0.00     0.143 C 
ATOM     24  N   UNL A   1      31.824  29.363  22.232  1.00  0.00    -0.355 N 
ATOM     25  H   UNL A   1      32.170  29.728  21.386  1.00  0.00     0.163 HD
ATOM     26  O   UNL A   1      33.962  28.948  22.829  1.00  0.00    -0.269 OA
ENDBRANCH  17  22
BRANCH  19  27
ATOM     27  O   UNL A   1      32.589  30.315  25.720  1.00  0.00    -0.496 OA
ATOM     28  C   UNL A   1      32.803  30.690  27.082  1.00  0.00     0.278 C 
ENDBRANCH  19  27
ENDBRANCH  13  16
ENDBRANCH   8  13
ENDBRANCH   4   7
ENDBRANCH   2   3
ENDBRANCH   1   2
BRANCH   1  29
ATOM     29  C   UNL A   1      40.224  23.232  26.918  1.00  0.00     0.118 C 
BRANCH  29  30
ATOM     30  N   UNL A   1      41.304  23.753  26.092  1.00  0.00    -0.352 N 
ATOM     31  C   UNL A   1      41.891  24.994  26.083  1.00  0.00     0.251 C 
ATOM     32  H   UNL A   1      41.671  23.115  25.438  1.00  0.00     0.163 HD
ATOM     33  O   UNL A   1      42.641  25.298  25.160  1.00  0.00    -0.269 OA
BRANCH  31  34
ATOM     34  C   UNL A   1      41.610  25.962  27.165  1.00  0.00     0.039 A 
ATOM     35  C   UNL A   1      40.611  25.667  28.096  1.00  0.00     0.014 A 
ATOM     36  C   UNL A   1      42.310  27.168  27.249  1.00  0.00     0.014 A 
ATOM     37  C   UNL A   1      40.360  26.552  29.147  1.00  0.00     0.010 A 
ATOM     38  C   UNL A   1      42.126  28.003  28.346  1.00  0.00     0.010 A 
ATOM     39  C   UNL A   1      41.139  27.711  29.298  1.00  0.00    -0.014 A 
BRANCH  39  40
ATOM     40  C   UNL A   1      40.925  28.647  30.431  1.00  0.00     0.031 A 
ATOM     41  C   UNL A   1      41.782  28.542  31.663  1.00  0.00     0.074 A 
ATOM     42  C   UNL A   1      39.921  29.542  30.377  1.00  0.00     0.049 A 
ATOM     43  N   UNL A   1      41.703  29.211  32.784  1.00  0.00    -0.248 NA
ATOM     44  C   UNL A   1      42.847  27.526  31.646  1.00  0.00     0.031 C 
ATOM     45  C   UNL A   1      38.992  29.709  29.257  1.00  0.00     0.029 A 
ATOM     46  N   UNL A   1      39.511  30.481  31.290  1.00  0.00    -0.354 N 
ATOM     47  C   UNL A   1      42.689  28.684  33.610  1.00  0.00     0.074 A 
ATOM     48  C   UNL A   1      43.316  27.602  32.881  1.00  0.00     0.031 C 
ATOM     49  C   UNL A   1      38.145  30.713  29.534  1.00  0.00     0.029 A 
ATOM     50  C   UNL A   1      38.447  31.236  30.863  1.00  0.00     0.049 A 
ATOM     51  H   UNL A   1      39.939  30.601  32.168  1.00  0.00     0.167 HD
ATOM     52  C   UNL A   1      43.059  29.081  34.852  1.00  0.00     0.037 A 
ATOM     53  C   UNL A   1      37.789  32.242  31.472  1.00  0.00     0.037 A 
ATOM     54  C   UNL A   1      42.455  30.179  35.558  1.00  0.00     0.049 A 
ATOM     55  C   UNL A   1      38.226  32.678  32.843  1.00  0.00     0.074 A 
ATOM     56  C   UNL A   1      42.791  30.698  36.796  1.00  0.00     0.029 A 
ATOM     57  N   UNL A   1      41.391  30.933  35.084  1.00  0.00    -0.354 N 
ATOM     58  N   UNL A   1      39.191  32.199  33.591  1.00  0.00    -0.248 NA
ATOM     59  C   UNL A   1      37.487  33.792  33.449  1.00  0.00     0.031 C 
ATOM     60  C   UNL A   1      41.910  31.748  37.083  1.00  0.00     0.029 A 
ATOM     61  C   UNL A   1      41.049  31.905  36.008  1.00  0.00     0.049 A 
ATOM     62  H   UNL A   1      40.944  30.796  34.217  1.00  0.00     0.167 HD
ATOM     63  C   UNL A   1      39.190  32.968  34.749  1.00  0.00     0.074 A 
ATOM     64  C   UNL A   1      38.133  33.949  34.597  1.00  0.00     0.031 C 
ATOM     65  C   UNL A   1      39.994  32.873  35.837  1.00  0.00     0.037 A 
BRANCH  52  66
ATOM     66  C   UNL A   1      44.172  28.314  35.512  1.00  0.00     0.058 A 
ATOM     67  C   UNL A   1      45.520  28.650  35.305  1.00  0.00     0.135 A 
ATOM     68  C   UNL A   1      43.892  27.217  36.342  1.00  0.00     0.135 A 
ATOM     69  F   UNL A   1      45.845  29.680  34.506  1.00  0.00    -0.206 F 
ATOM     70  C   UNL A   1      46.552  27.897  35.855  1.00  0.00     0.059 A 
ATOM     71  C   UNL A   1      44.908  26.466  36.925  1.00  0.00     0.059 A 
ATOM     72  F   UNL A   1      42.621  26.853  36.576  1.00  0.00    -0.206 F 
ATOM     73  C   UNL A   1      46.235  26.798  36.655  1.00  0.00     0.060 A 
BRANCH  73  74
ATOM     74  S   UNL A   1      47.580  25.801  37.330  1.00  0.00     0.124 S 
ATOM     75  O   UNL A   1      48.120  25.188  36.121  1.00  0.00    -0.237 OA
ATOM     76  O   UNL A   1      48.430  26.805  37.964  1.00  0.00    -0.237 OA
ATOM     77  O   UNL A   1      46.899  24.893  38.247  1.00  0.00    -0.744 OA
ENDBRANCH  73  74
ENDBRANCH  52  66
BRANCH  53  78
ATOM     78  C   UNL A   1      36.686  32.936  30.761  1.00  0.00     0.058 A 
ATOM     79  C   UNL A   1      35.350  32.702  31.121  1.00  0.00     0.135 A 
ATOM     80  C   UNL A   1      36.939  33.872  29.749  1.00  0.00     0.135 A 
ATOM     81  F   UNL A   1      35.060  31.811  32.081  1.00  0.00    -0.206 F 
ATOM     82  C   UNL A   1      34.301  33.370  30.498  1.00  0.00     0.059 A 
ATOM     83  C   UNL A   1      35.908  34.568  29.125  1.00  0.00     0.059 A 
ATOM     84  F   UNL A   1      38.201  34.143  29.383  1.00  0.00    -0.206 F 
ATOM     85  C   UNL A   1      34.591  34.306  29.504  1.00  0.00     0.060 A 
BRANCH  85  86
ATOM     86  S   UNL A   1      33.226  35.220  28.754  1.00  0.00     0.124 S 
ATOM     87  O   UNL A   1      32.599  34.190  27.933  1.00  0.00    -0.237 OA
ATOM     88  O   UNL A   1      32.468  35.655  29.923  1.00  0.00    -0.237 OA
ATOM     89  O   UNL A   1      33.901  36.288  28.022  1.00  0.00    -0.744 OA
ENDBRANCH  85  86
ENDBRANCH  53  78
BRANCH  65  90
ATOM     90  C   UNL A   1      39.775  33.871  36.938  1.00  0.00     0.058 A 
ATOM     91  C   UNL A   1      38.953  33.585  38.037  1.00  0.00     0.135 A 
ATOM     92  C   UNL A   1      40.428  35.113  36.910  1.00  0.00     0.135 A 
ATOM     93  F   UNL A   1      38.300  32.413  38.107  1.00  0.00    -0.206 F 
ATOM     94  C   UNL A   1      38.765  34.506  39.063  1.00  0.00     0.059 A 
ATOM     95  C   UNL A   1      40.274  36.040  37.935  1.00  0.00     0.059 A 
ATOM     96  F   UNL A   1      41.234  35.431  35.884  1.00  0.00    -0.206 F 
ATOM     97  C   UNL A   1      39.429  35.733  39.002  1.00  0.00     0.060 A 
BRANCH  97  98
ATOM     98  S   UNL A   1      39.204  36.911  40.351  1.00  0.00     0.124 S 
ATOM     99  O   UNL A   1      38.513  38.003  39.673  1.00  0.00    -0.237 OA
ATOM    100  O   UNL A   1      38.403  36.149  41.305  1.00  0.00    -0.237 OA
ATOM    101  O   UNL A   1      40.570  37.200  40.780  1.00  0.00    -0.744 OA
ENDBRANCH  97  98
ENDBRANCH  65  90
ENDBRANCH  39  40
ENDBRANCH  31  34
ENDBRANCH  29  30
ENDBRANCH   1  29
TORSDOF 17
ENDMDL
MODEL 3
REMARK VINA RESULT:     -12.4      0.514      8.082
REMARK SMILES CNC(=O)c1cc(S(=O)(=O)N2CCC(C(=O)NCCCNC(=O)c3ccc(-c4c5nc(c(-c6c(F)cc(S(=O)(=O)[O-])cc6F)c6ccc([nH]6)c(-c6c(F)cc(S(=O)(=O)[O-])cc6F)c6nc(c(-c7c(F)cc(S(=O)(=O)[O-])cc7F)c7ccc4[nH]7)C=C6)C=C5)cc3)CC2)ccc1OC
REMARK SMILES IDX 19 1 18 2 17 3 15 4 16 5 14 7 11 8 12 9 91 10 13 11 90 12
REMARK SMILES IDX 8 13 9 14 10 15 7 16 5 17 6 18 94 19 93 20 92 21 3 22 1 23
REMARK SMILES IDX 2 24 4 26 95 27 96 28 20 29 21 30 22 31 23 33 24 34 25 35
REMARK SMILES IDX 89 36 26 37 88 38 27 39 28 40 29 41 82 42 30 43 87 44 81 45
REMARK SMILES IDX 83 46 31 47 86 48 80 49 79 50 32 52 66 53 45 54 65 55 46 56
REMARK SMILES IDX 49 57 64 58 84 59 47 60 48 61 63 63 85 64 50 65 33 66 34 67
REMARK SMILES IDX 43 68 35 69 36 70 42 71 44 72 37 73 38 74 39 75 40 76 41 77
REMARK SMILES IDX 67 78 68 79 77 80 69 81 70 82 76 83 78 84 71 85 72 86 73 87
REMARK SMILES IDX 74 88 75 89 51 90 52 91 61 92 53 93 54 94 60 95 62 96 55 97
REMARK SMILES IDX 56 98 57 99 58 100 59 101
REMARK H PARENT 17 6 2 25 21 32 83 51 49 62
REMARK Flexibility Score: inf
ROOT
ATOM      1  C   UNL A   1      34.970  30.174  27.441  1.00  0.00     0.042 C 
ENDROOT
BRANCH   1   2
ATOM      2  C   UNL A   1      33.581  30.658  27.057  1.00  0.00     0.117 C 
BRANCH   2   3
ATOM      3  N   UNL A   1      32.526  29.842  27.643  1.00  0.00    -0.356 N 
ATOM      4  C   UNL A   1      31.906  28.719  27.199  1.00  0.00     0.223 C 
ATOM      5  O   UNL A   1      31.027  28.223  27.908  1.00  0.00    -0.275 OA
ATOM      6  H   UNL A   1      32.206  30.163  28.517  1.00  0.00     0.163 HD
BRANCH   4   7
ATOM      7  C   UNL A   1      32.281  28.062  25.884  1.00  0.00     0.081 C 
ATOM      8  N   UNL A   1      32.854  25.810  24.189  1.00  0.00    -0.198 NA
ATOM      9  C   UNL A   1      33.966  26.665  24.654  1.00  0.00     0.103 C 
ATOM     10  C   UNL A   1      31.512  26.427  24.092  1.00  0.00     0.103 C 
ATOM     11  C   UNL A   1      33.612  27.320  25.975  1.00  0.00     0.030 C 
ATOM     12  C   UNL A   1      31.136  27.214  25.334  1.00  0.00     0.030 C 
BRANCH   8  13
ATOM     13  S   UNL A   1      33.235  24.646  22.999  1.00  0.00     0.243 S 
ATOM     14  O   UNL A   1      34.022  25.314  21.984  1.00  0.00    -0.207 OA
ATOM     15  O   UNL A   1      32.026  23.924  22.669  1.00  0.00    -0.207 OA
BRANCH  13  16
ATOM     16  C   UNL A   1      34.330  23.455  23.756  1.00  0.00     0.083 A 
ATOM     17  C   UNL A   1      34.598  21.743  25.452  1.00  0.00     0.083 A 
ATOM     18  C   UNL A   1      33.818  22.734  24.840  1.00  0.00     0.039 A 
ATOM     19  C   UNL A   1      35.859  21.425  24.931  1.00  0.00     0.131 A 
ATOM     20  C   UNL A   1      36.384  22.184  23.887  1.00  0.00     0.048 A 
ATOM     21  C   UNL A   1      35.626  23.200  23.307  1.00  0.00     0.025 A 
BRANCH  17  22
ATOM     22  C   UNL A   1      34.020  21.070  26.630  1.00  0.00     0.254 C 
ATOM     23  C   UNL A   1      32.882  19.272  25.249  1.00  0.00     0.143 C 
ATOM     24  N   UNL A   1      33.234  19.959  26.472  1.00  0.00    -0.355 N 
ATOM     25  H   UNL A   1      32.862  19.578  27.299  1.00  0.00     0.163 HD
ATOM     26  O   UNL A   1      34.267  21.507  27.751  1.00  0.00    -0.269 OA
ENDBRANCH  17  22
BRANCH  19  27
ATOM     27  O   UNL A   1      36.672  20.425  25.390  1.00  0.00    -0.496 OA
ATOM     28  C   UNL A   1      36.520  19.215  24.644  1.00  0.00     0.278 C 
ENDBRANCH  19  27
ENDBRANCH  13  16
ENDBRANCH   8  13
ENDBRANCH   4   7
ENDBRANCH   2   3
ENDBRANCH   1   2
BRANCH   1  29
ATOM     29  C   UNL A   1      35.738  31.157  28.309  1.00  0.00     0.118 C 
BRANCH  29  30
ATOM     30  N   UNL A   1      35.653  30.830  29.726  1.00  0.00    -0.352 N 
ATOM     31  C   UNL A   1      36.507  30.105  30.519  1.00  0.00     0.251 C 
ATOM     32  H   UNL A   1      34.859  31.186  30.187  1.00  0.00     0.163 HD
ATOM     33  O   UNL A   1      36.143  29.764  31.640  1.00  0.00    -0.269 OA
BRANCH  31  34
ATOM     34  C   UNL A   1      37.846  29.722  30.022  1.00  0.00     0.039 A 
ATOM     35  C   UNL A   1      38.071  29.681  28.643  1.00  0.00     0.014 A 
ATOM     36  C   UNL A   1      38.871  29.382  30.908  1.00  0.00     0.014 A 
ATOM     37  C   UNL A   1      39.341  29.360  28.158  1.00  0.00     0.010 A 
ATOM     38  C   UNL A   1      40.156  29.155  30.428  1.00  0.00     0.010 A 
ATOM     39  C   UNL A   1      40.402  29.127  29.048  1.00  0.00    -0.014 A 
BRANCH  39  40
ATOM     40  C   UNL A   1      41.772  28.829  28.561  1.00  0.00     0.031 A 
ATOM     41  C   UNL A   1      42.123  27.437  28.111  1.00  0.00     0.074 A 
ATOM     42  C   UNL A   1      42.714  29.791  28.587  1.00  0.00     0.049 A 
ATOM     43  N   UNL A   1      43.278  26.959  27.726  1.00  0.00    -0.248 NA
ATOM     44  C   UNL A   1      41.038  26.442  28.128  1.00  0.00     0.031 C 
ATOM     45  C   UNL A   1      42.509  31.167  29.046  1.00  0.00     0.029 A 
ATOM     46  N   UNL A   1      44.035  29.757  28.221  1.00  0.00    -0.354 N 
ATOM     47  C   UNL A   1      43.064  25.608  27.477  1.00  0.00     0.074 A 
ATOM     48  C   UNL A   1      41.683  25.331  27.810  1.00  0.00     0.031 C 
ATOM     49  C   UNL A   1      43.653  31.854  28.900  1.00  0.00     0.029 A 
ATOM     50  C   UNL A   1      44.680  30.960  28.373  1.00  0.00     0.049 A 
ATOM     51  H   UNL A   1      44.479  28.947  27.881  1.00  0.00     0.167 HD
ATOM     52  C   UNL A   1      43.931  24.686  26.992  1.00  0.00     0.037 A 
ATOM     53  C   UNL A   1      45.955  31.307  28.112  1.00  0.00     0.037 A 
ATOM     54  C   UNL A   1      45.294  24.975  26.632  1.00  0.00     0.049 A 
ATOM     55  C   UNL A   1      46.896  30.274  27.559  1.00  0.00     0.074 A 
ATOM     56  C   UNL A   1      46.238  24.128  26.080  1.00  0.00     0.029 A 
ATOM     57  N   UNL A   1      45.904  26.211  26.783  1.00  0.00    -0.354 N 
ATOM     58  N   UNL A   1      46.666  29.011  27.286  1.00  0.00    -0.248 NA
ATOM     59  C   UNL A   1      48.268  30.713  27.273  1.00  0.00     0.031 C 
ATOM     60  C   UNL A   1      47.430  24.846  25.924  1.00  0.00     0.029 A 
ATOM     61  C   UNL A   1      47.217  26.149  26.347  1.00  0.00     0.049 A 
ATOM     62  H   UNL A   1      45.469  27.016  27.147  1.00  0.00     0.167 HD
ATOM     63  C   UNL A   1      47.858  28.510  26.776  1.00  0.00     0.074 A 
ATOM     64  C   UNL A   1      48.804  29.609  26.771  1.00  0.00     0.031 C 
ATOM     65  C   UNL A   1      48.142  27.255  26.349  1.00  0.00     0.037 A 
BRANCH  52  66
ATOM     66  C   UNL A   1      43.415  23.284  26.826  1.00  0.00     0.058 A 
ATOM     67  C   UNL A   1      43.186  22.448  27.932  1.00  0.00     0.135 A 
ATOM     68  C   UNL A   1      43.170  22.757  25.548  1.00  0.00     0.135 A 
ATOM     69  F   UNL A   1      43.421  22.895  29.176  1.00  0.00    -0.206 F 
ATOM     70  C   UNL A   1      42.780  21.127  27.776  1.00  0.00     0.059 A 
ATOM     71  C   UNL A   1      42.737  21.447  25.369  1.00  0.00     0.059 A 
ATOM     72  F   UNL A   1      43.370  23.512  24.456  1.00  0.00    -0.206 F 
ATOM     73  C   UNL A   1      42.569  20.632  26.488  1.00  0.00     0.060 A 
BRANCH  73  74
ATOM     74  S   UNL A   1      42.084  18.904  26.293  1.00  0.00     0.124 S 
ATOM     75  O   UNL A   1      42.225  18.408  27.659  1.00  0.00    -0.237 OA
ATOM     76  O   UNL A   1      40.715  19.014  25.799  1.00  0.00    -0.237 OA
ATOM     77  O   UNL A   1      43.053  18.388  25.333  1.00  0.00    -0.744 OA
ENDBRANCH  73  74
ENDBRANCH  52  66
BRANCH  53  78
ATOM     78  C   UNL A   1      46.394  32.710  28.323  1.00  0.00     0.058 A 
ATOM     79  C   UNL A   1      46.273  33.655  27.294  1.00  0.00     0.135 A 
ATOM     80  C   UNL A   1      46.895  33.144  29.559  1.00  0.00     0.135 A 
ATOM     81  F   UNL A   1      45.803  33.283  26.094  1.00  0.00    -0.206 F 
ATOM     82  C   UNL A   1      46.639  34.984  27.480  1.00  0.00     0.059 A 
ATOM     83  C   UNL A   1      47.249  34.472  29.776  1.00  0.00     0.059 A 
ATOM     84  F   UNL A   1      47.012  32.280  30.579  1.00  0.00    -0.206 F 
ATOM     85  C   UNL A   1      47.121  35.384  28.728  1.00  0.00     0.060 A 
BRANCH  85  86
ATOM     86  S   UNL A   1      47.524  37.127  28.979  1.00  0.00     0.124 S 
ATOM     87  O   UNL A   1      48.505  37.356  27.924  1.00  0.00    -0.237 OA
ATOM     88  O   UNL A   1      46.227  37.771  28.799  1.00  0.00    -0.237 OA
ATOM     89  O   UNL A   1      48.045  37.155  30.343  1.00  0.00    -0.744 OA
ENDBRANCH  85  86
ENDBRANCH  53  78
BRANCH  65  90
ATOM     90  C   UNL A   1      49.526  27.010  25.817  1.00  0.00     0.058 A 
ATOM     91  C   UNL A   1      50.564  26.562  26.647  1.00  0.00     0.135 A 
ATOM     92  C   UNL A   1      49.804  27.189  24.453  1.00  0.00     0.135 A 
ATOM     93  F   UNL A   1      50.349  26.382  27.961  1.00  0.00    -0.206 F 
ATOM     94  C   UNL A   1      51.840  26.322  26.148  1.00  0.00     0.059 A 
ATOM     95  C   UNL A   1      51.066  26.933  23.928  1.00  0.00     0.059 A 
ATOM     96  F   UNL A   1      48.842  27.608  23.615  1.00  0.00    -0.206 F 
ATOM     97  C   UNL A   1      52.082  26.512  24.786  1.00  0.00     0.060 A 
BRANCH  97  98
ATOM     98  S   UNL A   1      53.732  26.169  24.141  1.00  0.00     0.124 S 
ATOM     99  O   UNL A   1      53.994  24.844  24.695  1.00  0.00    -0.237 OA
ATOM    100  O   UNL A   1      53.524  26.223  22.697  1.00  0.00    -0.237 OA
ATOM    101  O   UNL A   1      54.542  27.253  24.691  1.00  0.00    -0.744 OA
ENDBRANCH  97  98
ENDBRANCH  65  90
ENDBRANCH  39  40
ENDBRANCH  31  34
ENDBRANCH  29  30
ENDBRANCH   1  29
TORSDOF 17
ENDMDL
