MODEL 1
REMARK VINA RESULT:     -11.7      0.000      0.000
REMARK SMILES Cc1cc(C(=O)N2CCC[C@@H]2C)sc1/C=C/C(=O)NCCCNC(=O)c1ccc(-c2c3nc(c(-c4c(F)cc(S(=O)(=O)[O-])cc4F)c4ccc([nH]4)c(-c4c(F)cc(S(=O)(=O)[O-])cc4F)c4nc(c(-c5c(F)cc(S(=O)(=O)[O-])cc5F)c5ccc2[nH]5)C=C4)C=C3)cc1
REMARK SMILES IDX 21 1 20 2 19 3 17 4 18 5 16 7 15 8 14 9 1 10 2 11 3 12 4 13
REMARK SMILES IDX 13 14 5 15 6 16 7 17 8 18 11 19 9 20 10 21 12 22 22 23 23 24
REMARK SMILES IDX 24 25 25 27 26 28 27 29 91 30 28 31 90 32 29 33 30 34 31 35
REMARK SMILES IDX 84 36 32 37 89 38 83 39 85 40 33 41 88 42 82 43 81 44 34 46
REMARK SMILES IDX 68 47 47 48 67 49 48 50 51 51 66 52 86 53 49 54 50 55 65 57
REMARK SMILES IDX 87 58 52 59 35 60 36 61 45 62 37 63 38 64 44 65 46 66 39 67
REMARK SMILES IDX 40 68 41 69 42 70 43 71 69 72 70 73 79 74 71 75 72 76 78 77
REMARK SMILES IDX 80 78 73 79 74 80 75 81 76 82 77 83 53 84 54 85 63 86 55 87
REMARK SMILES IDX 56 88 62 89 64 90 57 91 58 92 59 93 60 94 61 95
REMARK H PARENT 19 6 23 26 85 45 51 56
REMARK Flexibility Score: inf
ROOT
ATOM      1  C   UNL A   1      40.402  22.177  27.627  1.00  0.00     0.042 C 
ENDROOT
BRANCH   1   2
ATOM      2  C   UNL A   1      39.396  22.348  26.492  1.00  0.00     0.118 C 
BRANCH   2   3
ATOM      3  N   UNL A   1      39.208  21.112  25.751  1.00  0.00    -0.352 N 
ATOM      4  C   UNL A   1      38.086  20.586  25.192  1.00  0.00     0.244 C 
ATOM      5  O   UNL A   1      38.164  19.582  24.488  1.00  0.00    -0.270 OA
ATOM      6  H   UNL A   1      40.021  20.570  25.638  1.00  0.00     0.163 HD
BRANCH   4   7
ATOM      7  C   UNL A   1      36.786  21.271  25.338  1.00  0.00     0.072 C 
ATOM      8  C   UNL A   1      35.611  20.719  24.999  1.00  0.00     0.025 C 
BRANCH   8   9
ATOM      9  C   UNL A   1      34.368  21.407  25.144  1.00  0.00     0.031 A 
ATOM     10  C   UNL A   1      32.766  19.766  23.972  1.00  0.00     0.046 C 
ATOM     11  C   UNL A   1      33.112  21.046  24.668  1.00  0.00    -0.032 A 
ATOM     12  C   UNL A   1      32.131  22.055  24.964  1.00  0.00     0.029 A 
ATOM     13  C   UNL A   1      32.629  23.124  25.685  1.00  0.00     0.093 A 
ATOM     14  S   UNL A   1      34.283  22.892  26.002  1.00  0.00    -0.130 S 
BRANCH  13  15
ATOM     15  C   UNL A   1      31.842  24.187  26.305  1.00  0.00     0.264 C 
ATOM     16  O   UNL A   1      31.366  24.032  27.434  1.00  0.00    -0.268 OA
BRANCH  15  17
ATOM     17  N   UNL A   1      31.691  25.421  25.682  1.00  0.00    -0.335 N 
ATOM     18  C   UNL A   1      30.980  25.493  24.423  1.00  0.00     0.120 C 
ATOM     19  C   UNL A   1      32.176  26.750  26.072  1.00  0.00     0.082 C 
ATOM     20  C   UNL A   1      30.355  26.874  24.477  1.00  0.00     0.024 C 
ATOM     21  C   UNL A   1      31.453  27.718  25.116  1.00  0.00     0.026 C 
ATOM     22  C   UNL A   1      33.691  26.858  25.918  1.00  0.00     0.031 C 
ENDBRANCH  15  17
ENDBRANCH  13  15
ENDBRANCH   8   9
ENDBRANCH   4   7
ENDBRANCH   2   3
ENDBRANCH   1   2
BRANCH   1  23
ATOM     23  C   UNL A   1      41.540  23.192  27.587  1.00  0.00     0.118 C 
BRANCH  23  24
ATOM     24  N   UNL A   1      41.508  24.000  26.376  1.00  0.00    -0.352 N 
ATOM     25  C   UNL A   1      41.181  25.322  26.202  1.00  0.00     0.251 C 
ATOM     26  H   UNL A   1      41.760  23.523  25.553  1.00  0.00     0.163 HD
ATOM     27  O   UNL A   1      40.998  25.745  25.064  1.00  0.00    -0.269 OA
BRANCH  25  28
ATOM     28  C   UNL A   1      41.039  26.229  27.362  1.00  0.00     0.039 A 
ATOM     29  C   UNL A   1      41.985  27.244  27.539  1.00  0.00     0.014 A 
ATOM     30  C   UNL A   1      40.021  26.056  28.304  1.00  0.00     0.014 A 
ATOM     31  C   UNL A   1      41.883  28.111  28.630  1.00  0.00     0.010 A 
ATOM     32  C   UNL A   1      39.881  26.962  29.355  1.00  0.00     0.010 A 
ATOM     33  C   UNL A   1      40.815  27.993  29.533  1.00  0.00    -0.014 A 
BRANCH  33  34
ATOM     34  C   UNL A   1      40.663  28.936  30.671  1.00  0.00     0.031 A 
ATOM     35  C   UNL A   1      41.517  28.785  31.901  1.00  0.00     0.074 A 
ATOM     36  C   UNL A   1      39.713  29.890  30.621  1.00  0.00     0.049 A 
ATOM     37  N   UNL A   1      41.479  29.461  33.021  1.00  0.00    -0.248 NA
ATOM     38  C   UNL A   1      42.530  27.718  31.879  1.00  0.00     0.031 C 
ATOM     39  C   UNL A   1      38.792  30.108  29.503  1.00  0.00     0.029 A 
ATOM     40  N   UNL A   1      39.355  30.849  31.535  1.00  0.00    -0.354 N 
ATOM     41  C   UNL A   1      42.448  28.894  33.840  1.00  0.00     0.074 A 
ATOM     42  C   UNL A   1      43.025  27.787  33.106  1.00  0.00     0.031 C 
ATOM     43  C   UNL A   1      37.986  31.143  29.790  1.00  0.00     0.029 A 
ATOM     44  C   UNL A   1      38.310  31.641  31.124  1.00  0.00     0.049 A 
ATOM     45  H   UNL A   1      39.805  30.959  32.404  1.00  0.00     0.167 HD
ATOM     46  C   UNL A   1      42.835  29.271  35.083  1.00  0.00     0.037 A 
ATOM     47  C   UNL A   1      37.677  32.650  31.753  1.00  0.00     0.037 A 
ATOM     48  C   UNL A   1      42.275  30.389  35.797  1.00  0.00     0.049 A 
ATOM     49  C   UNL A   1      38.135  33.063  33.124  1.00  0.00     0.074 A 
ATOM     50  C   UNL A   1      42.635  30.886  37.039  1.00  0.00     0.029 A 
ATOM     51  N   UNL A   1      41.241  31.187  35.334  1.00  0.00    -0.354 N 
ATOM     52  N   UNL A   1      39.088  32.546  33.863  1.00  0.00    -0.248 NA
ATOM     53  C   UNL A   1      37.439  34.198  33.745  1.00  0.00     0.031 C 
ATOM     54  C   UNL A   1      41.795  31.963  37.340  1.00  0.00     0.029 A 
ATOM     55  C   UNL A   1      40.939  32.164  36.268  1.00  0.00     0.049 A 
ATOM     56  H   UNL A   1      40.786  31.075  34.468  1.00  0.00     0.167 HD
ATOM     57  C   UNL A   1      39.120  33.308  35.026  1.00  0.00     0.074 A 
ATOM     58  C   UNL A   1      38.101  34.328  34.887  1.00  0.00     0.031 C 
ATOM     59  C   UNL A   1      39.924  33.175  36.111  1.00  0.00     0.037 A 
BRANCH  46  60
ATOM     60  C   UNL A   1      43.923  28.470  35.746  1.00  0.00     0.058 A 
ATOM     61  C   UNL A   1      43.627  27.390  36.593  1.00  0.00     0.135 A 
ATOM     62  C   UNL A   1      45.275  28.764  35.509  1.00  0.00     0.135 A 
ATOM     63  F   UNL A   1      42.351  27.074  36.865  1.00  0.00    -0.206 F 
ATOM     64  C   UNL A   1      44.631  26.651  37.209  1.00  0.00     0.059 A 
ATOM     65  C   UNL A   1      46.297  28.021  36.093  1.00  0.00     0.059 A 
ATOM     66  F   UNL A   1      45.615  29.785  34.706  1.00  0.00    -0.206 F 
ATOM     67  C   UNL A   1      45.965  26.976  36.955  1.00  0.00     0.060 A 
BRANCH  67  68
ATOM     68  S   UNL A   1      47.258  26.011  37.764  1.00  0.00     0.124 S 
ATOM     69  O   UNL A   1      48.464  26.639  37.233  1.00  0.00    -0.237 OA
ATOM     70  O   UNL A   1      46.991  26.251  39.179  1.00  0.00    -0.237 OA
ATOM     71  O   UNL A   1      47.005  24.650  37.303  1.00  0.00    -0.744 OA
ENDBRANCH  67  68
ENDBRANCH  46  60
BRANCH  47  72
ATOM     72  C   UNL A   1      36.558  33.356  31.075  1.00  0.00     0.058 A 
ATOM     73  C   UNL A   1      36.798  34.208  29.988  1.00  0.00     0.135 A 
ATOM     74  C   UNL A   1      35.227  33.169  31.482  1.00  0.00     0.135 A 
ATOM     75  F   UNL A   1      38.054  34.420  29.566  1.00  0.00    -0.206 F 
ATOM     76  C   UNL A   1      35.759  34.861  29.332  1.00  0.00     0.059 A 
ATOM     77  C   UNL A   1      34.170  33.795  30.827  1.00  0.00     0.059 A 
ATOM     78  F   UNL A   1      34.945  32.350  32.505  1.00  0.00    -0.206 F 
ATOM     79  C   UNL A   1      34.448  34.645  29.758  1.00  0.00     0.060 A 
BRANCH  79  80
ATOM     80  S   UNL A   1      33.101  35.448  28.861  1.00  0.00     0.124 S 
ATOM     81  O   UNL A   1      32.295  35.977  29.955  1.00  0.00    -0.237 OA
ATOM     82  O   UNL A   1      33.813  36.436  28.057  1.00  0.00    -0.237 OA
ATOM     83  O   UNL A   1      32.502  34.352  28.105  1.00  0.00    -0.744 OA
ENDBRANCH  79  80
ENDBRANCH  47  72
BRANCH  59  84
ATOM     84  C   UNL A   1      39.753  34.173  37.221  1.00  0.00     0.058 A 
ATOM     85  C   UNL A   1      38.967  33.892  38.349  1.00  0.00     0.135 A 
ATOM     86  C   UNL A   1      40.420  35.408  37.176  1.00  0.00     0.135 A 
ATOM     87  F   UNL A   1      38.302  32.729  38.437  1.00  0.00    -0.206 F 
ATOM     88  C   UNL A   1      38.830  34.810  39.386  1.00  0.00     0.059 A 
ATOM     89  C   UNL A   1      40.318  36.330  38.211  1.00  0.00     0.059 A 
ATOM     90  F   UNL A   1      41.192  35.721  36.124  1.00  0.00    -0.206 F 
ATOM     91  C   UNL A   1      39.511  36.027  39.307  1.00  0.00     0.060 A 
BRANCH  91  92
ATOM     92  S   UNL A   1      39.351  37.198  40.672  1.00  0.00     0.124 S 
ATOM     93  O   UNL A   1      40.717  37.696  40.793  1.00  0.00    -0.237 OA
ATOM     94  O   UNL A   1      38.372  38.150  40.157  1.00  0.00    -0.237 OA
ATOM     95  O   UNL A   1      38.884  36.367  41.779  1.00  0.00    -0.744 OA
ENDBRANCH  91  92
ENDBRANCH  59  84
ENDBRANCH  33  34
ENDBRANCH  25  28
ENDBRANCH  23  24
ENDBRANCH   1  23
TORSDOF 16
ENDMDL
MODEL 2
REMARK VINA RESULT:     -11.6      2.370      9.218
REMARK SMILES Cc1cc(C(=O)N2CCC[C@@H]2C)sc1/C=C/C(=O)NCCCNC(=O)c1ccc(-c2c3nc(c(-c4c(F)cc(S(=O)(=O)[O-])cc4F)c4ccc([nH]4)c(-c4c(F)cc(S(=O)(=O)[O-])cc4F)c4nc(c(-c5c(F)cc(S(=O)(=O)[O-])cc5F)c5ccc2[nH]5)C=C4)C=C3)cc1
REMARK SMILES IDX 21 1 20 2 19 3 17 4 18 5 16 7 15 8 14 9 1 10 2 11 3 12 4 13
REMARK SMILES IDX 13 14 5 15 6 16 7 17 8 18 11 19 9 20 10 21 12 22 22 23 23 24
REMARK SMILES IDX 24 25 25 27 26 28 27 29 91 30 28 31 90 32 29 33 30 34 31 35
REMARK SMILES IDX 84 36 32 37 89 38 83 39 85 40 33 41 88 42 82 43 81 44 34 46
REMARK SMILES IDX 68 47 47 48 67 49 48 50 51 51 66 52 86 53 49 54 50 55 65 57
REMARK SMILES IDX 87 58 52 59 35 60 36 61 45 62 37 63 38 64 44 65 46 66 39 67
REMARK SMILES IDX 40 68 41 69 42 70 43 71 69 72 70 73 79 74 71 75 72 76 78 77
REMARK SMILES IDX 80 78 73 79 74 80 75 81 76 82 77 83 53 84 54 85 63 86 55 87
REMARK SMILES IDX 56 88 62 89 64 90 57 91 58 92 59 93 60 94 61 95
REMARK H PARENT 19 6 23 26 85 45 51 56
REMARK Flexibility Score: inf
ROOT
ATOM      1  C   UNL A   1      31.453  32.641  26.725  1.00  0.00     0.042 C 
ENDROOT
BRANCH   1   2
ATOM      2  C   UNL A   1      31.536  31.246  26.111  1.00  0.00     0.118 C 
BRANCH   2   3
ATOM      3  N   UNL A   1      30.629  31.102  24.985  1.00  0.00    -0.352 N 
ATOM      4  C   UNL A   1      30.386  30.030  24.186  1.00  0.00     0.244 C 
ATOM      5  O   UNL A   1      29.476  30.073  23.361  1.00  0.00    -0.270 OA
ATOM      6  H   UNL A   1      30.110  31.909  24.766  1.00  0.00     0.163 HD
BRANCH   4   7
ATOM      7  C   UNL A   1      31.139  28.774  24.371  1.00  0.00     0.072 C 
ATOM      8  C   UNL A   1      32.275  28.482  23.718  1.00  0.00     0.025 C 
BRANCH   8   9
ATOM      9  C   UNL A   1      32.979  27.256  23.911  1.00  0.00     0.031 A 
ATOM     10  C   UNL A   1      33.804  27.545  26.334  1.00  0.00     0.046 C 
ATOM     11  C   UNL A   1      33.700  26.830  25.022  1.00  0.00    -0.032 A 
ATOM     12  C   UNL A   1      34.326  25.558  24.784  1.00  0.00     0.029 A 
ATOM     13  C   UNL A   1      34.044  25.021  23.541  1.00  0.00     0.093 A 
ATOM     14  S   UNL A   1      33.016  26.063  22.677  1.00  0.00    -0.130 S 
BRANCH  13  15
ATOM     15  C   UNL A   1      34.360  23.666  23.096  1.00  0.00     0.264 C 
ATOM     16  O   UNL A   1      33.946  23.256  22.007  1.00  0.00    -0.268 OA
BRANCH  15  17
ATOM     17  N   UNL A   1      35.204  22.848  23.839  1.00  0.00    -0.335 N 
ATOM     18  C   UNL A   1      36.588  22.713  23.438  1.00  0.00     0.120 C 
ATOM     19  C   UNL A   1      34.929  22.015  25.015  1.00  0.00     0.082 C 
ATOM     20  C   UNL A   1      37.294  22.485  24.761  1.00  0.00     0.024 C 
ATOM     21  C   UNL A   1      36.321  21.580  25.511  1.00  0.00     0.026 C 
ATOM     22  C   UNL A   1      34.073  20.804  24.654  1.00  0.00     0.031 C 
ENDBRANCH  15  17
ENDBRANCH  13  15
ENDBRANCH   8   9
ENDBRANCH   4   7
ENDBRANCH   2   3
ENDBRANCH   1   2
BRANCH   1  23
ATOM     23  C   UNL A   1      32.699  33.031  27.516  1.00  0.00     0.118 C 
BRANCH  23  24
ATOM     24  N   UNL A   1      32.726  34.454  27.825  1.00  0.00    -0.352 N 
ATOM     25  C   UNL A   1      33.440  35.140  28.775  1.00  0.00     0.251 C 
ATOM     26  H   UNL A   1      32.139  35.010  27.265  1.00  0.00     0.163 HD
ATOM     27  O   UNL A   1      33.143  36.306  29.017  1.00  0.00    -0.269 OA
BRANCH  25  28
ATOM     28  C   UNL A   1      34.550  34.491  29.508  1.00  0.00     0.039 A 
ATOM     29  C   UNL A   1      34.279  33.892  30.743  1.00  0.00     0.014 A 
ATOM     30  C   UNL A   1      35.859  34.515  29.021  1.00  0.00     0.014 A 
ATOM     31  C   UNL A   1      35.308  33.279  31.463  1.00  0.00     0.010 A 
ATOM     32  C   UNL A   1      36.873  33.846  29.707  1.00  0.00     0.010 A 
ATOM     33  C   UNL A   1      36.609  33.229  30.938  1.00  0.00    -0.014 A 
BRANCH  33  34
ATOM     34  C   UNL A   1      37.705  32.540  31.666  1.00  0.00     0.031 A 
ATOM     35  C   UNL A   1      38.180  33.063  32.995  1.00  0.00     0.074 A 
ATOM     36  C   UNL A   1      38.312  31.478  31.101  1.00  0.00     0.049 A 
ATOM     37  N   UNL A   1      39.170  32.644  33.742  1.00  0.00    -0.248 NA
ATOM     38  C   UNL A   1      37.467  34.228  33.543  1.00  0.00     0.031 C 
ATOM     39  C   UNL A   1      37.972  30.904  29.797  1.00  0.00     0.029 A 
ATOM     40  N   UNL A   1      39.350  30.697  31.545  1.00  0.00    -0.354 N 
ATOM     41  C   UNL A   1      39.208  33.498  34.837  1.00  0.00     0.074 A 
ATOM     42  C   UNL A   1      38.172  34.489  34.634  1.00  0.00     0.031 C 
ATOM     43  C   UNL A   1      38.775  29.855  29.554  1.00  0.00     0.029 A 
ATOM     44  C   UNL A   1      39.707  29.702  30.667  1.00  0.00     0.049 A 
ATOM     45  H   UNL A   1      39.797  30.837  32.412  1.00  0.00     0.167 HD
ATOM     46  C   UNL A   1      40.017  33.450  35.923  1.00  0.00     0.037 A 
ATOM     47  C   UNL A   1      40.681  28.775  30.745  1.00  0.00     0.037 A 
ATOM     48  C   UNL A   1      41.028  32.447  36.131  1.00  0.00     0.049 A 
ATOM     49  C   UNL A   1      41.557  28.731  31.966  1.00  0.00     0.074 A 
ATOM     50  C   UNL A   1      41.865  32.280  37.222  1.00  0.00     0.029 A 
ATOM     51  N   UNL A   1      41.337  31.436  35.234  1.00  0.00    -0.354 N 
ATOM     52  N   UNL A   1      41.545  29.516  33.016  1.00  0.00    -0.248 NA
ATOM     53  C   UNL A   1      42.573  27.671  32.018  1.00  0.00     0.031 C 
ATOM     54  C   UNL A   1      42.703  31.188  36.968  1.00  0.00     0.029 A 
ATOM     55  C   UNL A   1      42.360  30.650  35.738  1.00  0.00     0.049 A 
ATOM     56  H   UNL A   1      40.895  31.298  34.365  1.00  0.00     0.167 HD
ATOM     57  C   UNL A   1      42.535  29.032  33.864  1.00  0.00     0.074 A 
ATOM     58  C   UNL A   1      43.118  27.878  33.210  1.00  0.00     0.031 C 
ATOM     59  C   UNL A   1      42.925  29.501  35.075  1.00  0.00     0.037 A 
BRANCH  46  60
ATOM     60  C   UNL A   1      39.837  34.514  36.972  1.00  0.00     0.058 A 
ATOM     61  C   UNL A   1      38.960  34.338  38.053  1.00  0.00     0.135 A 
ATOM     62  C   UNL A   1      40.569  35.710  36.913  1.00  0.00     0.135 A 
ATOM     63  F   UNL A   1      38.224  33.219  38.152  1.00  0.00    -0.206 F 
ATOM     64  C   UNL A   1      38.789  35.323  39.021  1.00  0.00     0.059 A 
ATOM     65  C   UNL A   1      40.436  36.698  37.884  1.00  0.00     0.059 A 
ATOM     66  F   UNL A   1      41.424  35.931  35.900  1.00  0.00    -0.206 F 
ATOM     67  C   UNL A   1      39.530  36.502  38.926  1.00  0.00     0.060 A 
BRANCH  67  68
ATOM     68  S   UNL A   1      39.297  37.772  40.187  1.00  0.00     0.124 S 
ATOM     69  O   UNL A   1      40.606  38.418  40.194  1.00  0.00    -0.237 OA
ATOM     70  O   UNL A   1      38.203  38.566  39.636  1.00  0.00    -0.237 OA
ATOM     71  O   UNL A   1      38.970  37.005  41.385  1.00  0.00    -0.744 OA
ENDBRANCH  67  68
ENDBRANCH  46  60
BRANCH  47  72
ATOM     72  C   UNL A   1      40.859  27.796  29.640  1.00  0.00     0.058 A 
ATOM     73  C   UNL A   1      41.941  27.900  28.755  1.00  0.00     0.135 A 
ATOM     74  C   UNL A   1      39.969  26.725  29.466  1.00  0.00     0.135 A 
ATOM     75  F   UNL A   1      42.816  28.909  28.880  1.00  0.00    -0.206 F 
ATOM     76  C   UNL A   1      42.132  26.981  27.728  1.00  0.00     0.059 A 
ATOM     77  C   UNL A   1      40.151  25.782  28.459  1.00  0.00     0.059 A 
ATOM     78  F   UNL A   1      38.928  26.573  30.298  1.00  0.00    -0.206 F 
ATOM     79  C   UNL A   1      41.232  25.924  27.590  1.00  0.00     0.060 A 
BRANCH  79  80
ATOM     80  S   UNL A   1      41.521  24.702  26.292  1.00  0.00     0.124 S 
ATOM     81  O   UNL A   1      42.790  24.120  26.715  1.00  0.00    -0.237 OA
ATOM     82  O   UNL A   1      40.351  23.839  26.413  1.00  0.00    -0.237 OA
ATOM     83  O   UNL A   1      41.570  25.510  25.076  1.00  0.00    -0.744 OA
ENDBRANCH  79  80
ENDBRANCH  47  72
BRANCH  59  84
ATOM     84  C   UNL A   1      44.016  28.750  35.786  1.00  0.00     0.058 A 
ATOM     85  C   UNL A   1      43.730  27.686  36.655  1.00  0.00     0.135 A 
ATOM     86  C   UNL A   1      45.364  29.069  35.557  1.00  0.00     0.135 A 
ATOM     87  F   UNL A   1      42.457  27.346  36.913  1.00  0.00    -0.206 F 
ATOM     88  C   UNL A   1      44.744  26.977  37.292  1.00  0.00     0.059 A 
ATOM     89  C   UNL A   1      46.394  28.359  36.165  1.00  0.00     0.059 A 
ATOM     90  F   UNL A   1      45.690  30.071  34.727  1.00  0.00    -0.206 F 
ATOM     91  C   UNL A   1      46.074  27.322  37.040  1.00  0.00     0.060 A 
BRANCH  91  92
ATOM     92  S   UNL A   1      47.382  26.375  37.848  1.00  0.00     0.124 S 
ATOM     93  O   UNL A   1      47.145  26.688  39.253  1.00  0.00    -0.237 OA
ATOM     94  O   UNL A   1      47.077  25.007  37.442  1.00  0.00    -0.237 OA
ATOM     95  O   UNL A   1      48.605  26.932  37.276  1.00  0.00    -0.744 OA
ENDBRANCH  91  92
ENDBRANCH  59  84
ENDBRANCH  33  34
ENDBRANCH  25  28
ENDBRANCH  23  24
ENDBRANCH   1  23
TORSDOF 16
ENDMDL
MODEL 3
REMARK VINA RESULT:     -11.5      6.363     11.171
REMARK SMILES Cc1cc(C(=O)N2CCC[C@@H]2C)sc1/C=C/C(=O)NCCCNC(=O)c1ccc(-c2c3nc(c(-c4c(F)cc(S(=O)(=O)[O-])cc4F)c4ccc([nH]4)c(-c4c(F)cc(S(=O)(=O)[O-])cc4F)c4nc(c(-c5c(F)cc(S(=O)(=O)[O-])cc5F)c5ccc2[nH]5)C=C4)C=C3)cc1
REMARK SMILES IDX 21 1 20 2 19 3 17 4 18 5 16 7 15 8 14 9 1 10 2 11 3 12 4 13
REMARK SMILES IDX 13 14 5 15 6 16 7 17 8 18 11 19 9 20 10 21 12 22 22 23 23 24
REMARK SMILES IDX 24 25 25 27 26 28 27 29 91 30 28 31 90 32 29 33 30 34 31 35
REMARK SMILES IDX 84 36 32 37 89 38 83 39 85 40 33 41 88 42 82 43 81 44 34 46
REMARK SMILES IDX 68 47 47 48 67 49 48 50 51 51 66 52 86 53 49 54 50 55 65 57
REMARK SMILES IDX 87 58 52 59 35 60 36 61 45 62 37 63 38 64 44 65 46 66 39 67
REMARK SMILES IDX 40 68 41 69 42 70 43 71 69 72 70 73 79 74 71 75 72 76 78 77
REMARK SMILES IDX 80 78 73 79 74 80 75 81 76 82 77 83 53 84 54 85 63 86 55 87
REMARK SMILES IDX 56 88 62 89 64 90 57 91 58 92 59 93 60 94 61 95
REMARK H PARENT 19 6 23 26 85 45 51 56
REMARK Flexibility Score: inf
ROOT
ATOM      1  C   UNL A   1      38.204  19.341  25.054  1.00  0.00     0.042 C 
ENDROOT
BRANCH   1   2
ATOM      2  C   UNL A   1      36.953  20.214  24.993  1.00  0.00     0.118 C 
BRANCH   2   3
ATOM      3  N   UNL A   1      35.741  19.413  25.000  1.00  0.00    -0.352 N 
ATOM      4  C   UNL A   1      34.439  19.789  24.895  1.00  0.00     0.244 C 
ATOM      5  O   UNL A   1      33.560  18.938  24.790  1.00  0.00    -0.270 OA
ATOM      6  H   UNL A   1      35.886  18.444  25.098  1.00  0.00     0.163 HD
BRANCH   4   7
ATOM      7  C   UNL A   1      34.080  21.218  24.799  1.00  0.00     0.072 C 
ATOM      8  C   UNL A   1      33.800  21.989  25.862  1.00  0.00     0.025 C 
BRANCH   8   9
ATOM      9  C   UNL A   1      33.448  23.368  25.740  1.00  0.00     0.031 A 
ATOM     10  C   UNL A   1      35.765  24.428  25.361  1.00  0.00     0.046 C 
ATOM     11  C   UNL A   1      34.282  24.467  25.569  1.00  0.00    -0.032 A 
ATOM     12  C   UNL A   1      33.534  25.696  25.569  1.00  0.00     0.029 A 
ATOM     13  C   UNL A   1      32.169  25.518  25.692  1.00  0.00     0.093 A 
ATOM     14  S   UNL A   1      31.805  23.861  25.799  1.00  0.00    -0.130 S 
BRANCH  13  15
ATOM     15  C   UNL A   1      31.147  26.547  25.518  1.00  0.00     0.264 C 
ATOM     16  O   UNL A   1      30.007  26.238  25.158  1.00  0.00    -0.268 OA
BRANCH  15  17
ATOM     17  N   UNL A   1      31.407  27.875  25.839  1.00  0.00    -0.335 N 
ATOM     18  C   UNL A   1      31.401  28.278  27.230  1.00  0.00     0.120 C 
ATOM     19  C   UNL A   1      31.674  29.029  24.973  1.00  0.00     0.082 C 
ATOM     20  C   UNL A   1      32.418  29.403  27.250  1.00  0.00     0.024 C 
ATOM     21  C   UNL A   1      32.140  30.134  25.941  1.00  0.00     0.026 C 
ATOM     22  C   UNL A   1      30.421  29.458  24.215  1.00  0.00     0.031 C 
ENDBRANCH  15  17
ENDBRANCH  13  15
ENDBRANCH   8   9
ENDBRANCH   4   7
ENDBRANCH   2   3
ENDBRANCH   1   2
BRANCH   1  23
ATOM     23  C   UNL A   1      39.382  20.017  25.749  1.00  0.00     0.118 C 
BRANCH  23  24
ATOM     24  N   UNL A   1      40.462  19.081  26.027  1.00  0.00    -0.352 N 
ATOM     25  C   UNL A   1      41.800  19.309  26.230  1.00  0.00     0.251 C 
ATOM     26  H   UNL A   1      40.189  18.137  26.076  1.00  0.00     0.163 HD
ATOM     27  O   UNL A   1      42.574  18.355  26.222  1.00  0.00    -0.269 OA
BRANCH  25  28
ATOM     28  C   UNL A   1      42.315  20.679  26.449  1.00  0.00     0.039 A 
ATOM     29  C   UNL A   1      42.385  21.168  27.757  1.00  0.00     0.014 A 
ATOM     30  C   UNL A   1      42.672  21.503  25.378  1.00  0.00     0.014 A 
ATOM     31  C   UNL A   1      42.858  22.461  27.995  1.00  0.00     0.010 A 
ATOM     32  C   UNL A   1      43.206  22.769  25.620  1.00  0.00     0.010 A 
ATOM     33  C   UNL A   1      43.296  23.263  26.929  1.00  0.00    -0.014 A 
BRANCH  33  34
ATOM     34  C   UNL A   1      43.848  24.622  27.166  1.00  0.00     0.031 A 
ATOM     35  C   UNL A   1      42.941  25.745  27.592  1.00  0.00     0.074 A 
ATOM     36  C   UNL A   1      45.155  24.858  26.939  1.00  0.00     0.049 A 
ATOM     37  N   UNL A   1      43.222  27.010  27.774  1.00  0.00    -0.248 NA
ATOM     38  C   UNL A   1      41.527  25.407  27.817  1.00  0.00     0.031 C 
ATOM     39  C   UNL A   1      46.127  23.862  26.481  1.00  0.00     0.029 A 
ATOM     40  N   UNL A   1      45.891  26.011  27.052  1.00  0.00    -0.354 N 
ATOM     41  C   UNL A   1      42.022  27.621  28.119  1.00  0.00     0.074 A 
ATOM     42  C   UNL A   1      41.000  26.596  28.075  1.00  0.00     0.031 C 
ATOM     43  C   UNL A   1      47.332  24.443  26.367  1.00  0.00     0.029 A 
ATOM     44  C   UNL A   1      47.213  25.857  26.711  1.00  0.00     0.049 A 
ATOM     45  H   UNL A   1      45.508  26.868  27.350  1.00  0.00     0.167 HD
ATOM     46  C   UNL A   1      41.795  28.912  28.461  1.00  0.00     0.037 A 
ATOM     47  C   UNL A   1      48.217  26.754  26.671  1.00  0.00     0.037 A 
ATOM     48  C   UNL A   1      42.819  29.920  28.529  1.00  0.00     0.049 A 
ATOM     49  C   UNL A   1      47.945  28.178  27.070  1.00  0.00     0.074 A 
ATOM     50  C   UNL A   1      42.701  31.245  28.916  1.00  0.00     0.029 A 
ATOM     51  N   UNL A   1      44.153  29.718  28.207  1.00  0.00    -0.354 N 
ATOM     52  N   UNL A   1      46.813  28.726  27.443  1.00  0.00    -0.248 NA
ATOM     53  C   UNL A   1      49.086  29.103  27.052  1.00  0.00     0.031 C 
ATOM     54  C   UNL A   1      43.957  31.851  28.795  1.00  0.00     0.029 A 
ATOM     55  C   UNL A   1      44.866  30.893  28.373  1.00  0.00     0.049 A 
ATOM     56  H   UNL A   1      44.537  28.863  27.904  1.00  0.00     0.167 HD
ATOM     57  C   UNL A   1      47.110  30.055  27.725  1.00  0.00     0.074 A 
ATOM     58  C   UNL A   1      48.530  30.224  27.492  1.00  0.00     0.031 C 
ATOM     59  C   UNL A   1      46.281  31.044  28.141  1.00  0.00     0.037 A 
BRANCH  46  60
ATOM     60  C   UNL A   1      40.380  29.304  28.794  1.00  0.00     0.058 A 
ATOM     61  C   UNL A   1      39.411  29.476  27.793  1.00  0.00     0.135 A 
ATOM     62  C   UNL A   1      39.981  29.482  30.128  1.00  0.00     0.135 A 
ATOM     63  F   UNL A   1      39.741  29.333  26.500  1.00  0.00    -0.206 F 
ATOM     64  C   UNL A   1      38.105  29.843  28.100  1.00  0.00     0.059 A 
ATOM     65  C   UNL A   1      38.673  29.822  30.461  1.00  0.00     0.059 A 
ATOM     66  F   UNL A   1      40.867  29.328  31.126  1.00  0.00    -0.206 F 
ATOM     67  C   UNL A   1      37.746  30.016  29.438  1.00  0.00     0.060 A 
BRANCH  67  68
ATOM     68  S   UNL A   1      36.047  30.495  29.821  1.00  0.00     0.124 S 
ATOM     69  O   UNL A   1      35.299  29.721  28.835  1.00  0.00    -0.237 OA
ATOM     70  O   UNL A   1      35.904  30.061  31.207  1.00  0.00    -0.237 OA
ATOM     71  O   UNL A   1      36.047  31.940  29.616  1.00  0.00    -0.744 OA
ENDBRANCH  67  68
ENDBRANCH  46  60
BRANCH  47  72
ATOM     72  C   UNL A   1      49.579  26.321  26.261  1.00  0.00     0.058 A 
ATOM     73  C   UNL A   1      50.078  26.629  24.987  1.00  0.00     0.135 A 
ATOM     74  C   UNL A   1      50.416  25.619  27.142  1.00  0.00     0.135 A 
ATOM     75  F   UNL A   1      49.312  27.295  24.109  1.00  0.00    -0.206 F 
ATOM     76  C   UNL A   1      51.357  26.247  24.594  1.00  0.00     0.059 A 
ATOM     77  C   UNL A   1      51.707  25.246  26.779  1.00  0.00     0.059 A 
ATOM     78  F   UNL A   1      49.991  25.317  28.378  1.00  0.00    -0.206 F 
ATOM     79  C   UNL A   1      52.165  25.558  25.500  1.00  0.00     0.060 A 
BRANCH  79  80
ATOM     80  S   UNL A   1      53.846  25.121  25.003  1.00  0.00     0.124 S 
ATOM     81  O   UNL A   1      53.939  25.755  23.694  1.00  0.00    -0.237 OA
ATOM     82  O   UNL A   1      54.647  25.723  26.064  1.00  0.00    -0.237 OA
ATOM     83  O   UNL A   1      53.824  23.661  24.999  1.00  0.00    -0.744 OA
ENDBRANCH  79  80
ENDBRANCH  47  72
BRANCH  59  84
ATOM     84  C   UNL A   1      46.892  32.392  28.398  1.00  0.00     0.058 A 
ATOM     85  C   UNL A   1      47.436  32.727  29.648  1.00  0.00     0.135 A 
ATOM     86  C   UNL A   1      46.976  33.343  27.368  1.00  0.00     0.135 A 
ATOM     87  F   UNL A   1      47.374  31.857  30.668  1.00  0.00    -0.206 F 
ATOM     88  C   UNL A   1      48.023  33.968  29.875  1.00  0.00     0.059 A 
ATOM     89  C   UNL A   1      47.580  34.580  27.565  1.00  0.00     0.059 A 
ATOM     90  F   UNL A   1      46.480  33.067  26.152  1.00  0.00    -0.206 F 
ATOM     91  C   UNL A   1      48.090  34.888  28.825  1.00  0.00     0.060 A 
BRANCH  91  92
ATOM     92  S   UNL A   1      48.882  36.484  29.122  1.00  0.00     0.124 S 
ATOM     93  O   UNL A   1      49.300  36.350  30.513  1.00  0.00    -0.237 OA
ATOM     94  O   UNL A   1      49.957  36.490  28.135  1.00  0.00    -0.237 OA
ATOM     95  O   UNL A   1      47.810  37.444  28.876  1.00  0.00    -0.744 OA
ENDBRANCH  91  92
ENDBRANCH  59  84
ENDBRANCH  33  34
ENDBRANCH  25  28
ENDBRANCH  23  24
ENDBRANCH   1  23
TORSDOF 16
ENDMDL
