MODEL 1
REMARK VINA RESULT:     -13.5      0.000      0.000
REMARK SMILES CS(=O)(=O)c1ccc(/C=C(/C(=O)NCCCNC(=O)c2ccc(-c3c4nc(c(-c5c(F)cc(S(=O)(=O)[O-])cc5F)c5ccc([nH]5)c(-c5c(F)cc(S(=O)(=O)[O-])cc5F)c5nc(c(-c6c(F)cc(S(=O)(=O)[O-])cc6F)c6ccc3[nH]6)C=C5)C=C4)cc2)c2ccc(-c3ccc(S(C)(=O)=O)cc3)cc2)cc1
REMARK SMILES IDX 15 1 14 2 13 3 11 4 12 5 10 7 9 8 8 9 5 10 6 11 103 12 7 13
REMARK SMILES IDX 102 14 2 15 1 16 3 17 4 18 86 19 87 20 101 21 88 22 100 23
REMARK SMILES IDX 89 24 90 25 91 26 99 27 92 28 98 29 93 30 94 31 95 32 96 33
REMARK SMILES IDX 97 34 16 35 17 36 18 37 19 39 20 40 21 41 85 42 22 43 84 44
REMARK SMILES IDX 23 45 24 46 25 47 78 48 26 49 83 50 77 51 79 52 27 53 82 54
REMARK SMILES IDX 76 55 75 56 28 58 62 59 41 60 61 61 42 62 45 63 60 64 80 65
REMARK SMILES IDX 43 66 44 67 59 69 81 70 46 71 29 72 30 73 39 74 31 75 32 76
REMARK SMILES IDX 38 77 40 78 33 79 34 80 35 81 36 82 37 83 63 84 64 85 73 86
REMARK SMILES IDX 65 87 66 88 72 89 74 90 67 91 68 92 69 93 70 94 71 95 47 96
REMARK SMILES IDX 48 97 57 98 49 99 50 100 56 101 58 102 51 103 52 104 53 105
REMARK SMILES IDX 54 106 55 107
REMARK H PARENT 13 6 17 38 79 57 45 68
REMARK Flexibility Score: inf
ROOT
ATOM      1  C   UNL A   1      41.062  21.610  27.215  1.00  0.00     0.042 C 
ENDROOT
BRANCH   1   2
ATOM      2  C   UNL A   1      40.031  21.911  26.125  1.00  0.00     0.118 C 
BRANCH   2   3
ATOM      3  N   UNL A   1      39.393  23.194  26.352  1.00  0.00    -0.352 N 
ATOM      4  C   UNL A   1      38.138  23.678  26.165  1.00  0.00     0.251 C 
ATOM      5  O   UNL A   1      37.965  24.858  26.486  1.00  0.00    -0.269 OA
ATOM      6  H   UNL A   1      40.008  23.865  26.728  1.00  0.00     0.163 HD
BRANCH   4   7
ATOM      7  C   UNL A   1      36.974  22.842  25.681  1.00  0.00     0.047 C 
ATOM      8  C   UNL A   1      37.070  21.503  25.506  1.00  0.00     0.022 C 
BRANCH   8   9
ATOM      9  C   UNL A   1      36.032  20.520  25.116  1.00  0.00    -0.025 A 
ATOM     10  C   UNL A   1      34.172  18.511  24.488  1.00  0.00     0.067 A 
ATOM     11  C   UNL A   1      33.736  19.818  24.703  1.00  0.00     0.021 A 
ATOM     12  C   UNL A   1      35.532  18.205  24.515  1.00  0.00     0.021 A 
ATOM     13  C   UNL A   1      34.669  20.819  24.995  1.00  0.00     0.009 A 
ATOM     14  C   UNL A   1      36.454  19.210  24.832  1.00  0.00     0.009 A 
BRANCH  10  15
ATOM     15  S   UNL A   1      32.981  17.237  24.147  1.00  0.00     0.175 S 
ATOM     16  C   UNL A   1      33.713  15.789  24.866  1.00  0.00     0.163 C 
ATOM     17  O   UNL A   1      32.934  17.039  22.714  1.00  0.00    -0.224 OA
ATOM     18  O   UNL A   1      31.779  17.552  24.900  1.00  0.00    -0.224 OA
ENDBRANCH  10  15
ENDBRANCH   8   9
BRANCH   7  19
ATOM     19  C   UNL A   1      35.778  23.580  25.202  1.00  0.00    -0.013 A 
ATOM     20  C   UNL A   1      34.928  24.155  26.156  1.00  0.00     0.009 A 
ATOM     21  C   UNL A   1      35.523  23.815  23.846  1.00  0.00     0.009 A 
ATOM     22  C   UNL A   1      33.890  25.002  25.772  1.00  0.00     0.009 A 
ATOM     23  C   UNL A   1      34.490  24.686  23.465  1.00  0.00     0.009 A 
ATOM     24  C   UNL A   1      33.679  25.321  24.423  1.00  0.00    -0.018 A 
BRANCH  24  25
ATOM     25  C   UNL A   1      32.681  26.341  24.050  1.00  0.00    -0.018 A 
ATOM     26  C   UNL A   1      32.924  27.205  22.963  1.00  0.00     0.010 A 
ATOM     27  C   UNL A   1      31.464  26.478  24.738  1.00  0.00     0.010 A 
ATOM     28  C   UNL A   1      31.999  28.176  22.580  1.00  0.00     0.021 A 
ATOM     29  C   UNL A   1      30.528  27.449  24.364  1.00  0.00     0.021 A 
ATOM     30  C   UNL A   1      30.808  28.300  23.294  1.00  0.00     0.067 A 
BRANCH  30  31
ATOM     31  S   UNL A   1      29.640  29.543  22.804  1.00  0.00     0.175 S 
ATOM     32  C   UNL A   1      28.081  28.699  22.866  1.00  0.00     0.163 C 
ATOM     33  O   UNL A   1      29.647  30.567  23.831  1.00  0.00    -0.224 OA
ATOM     34  O   UNL A   1      29.903  29.879  21.417  1.00  0.00    -0.224 OA
ENDBRANCH  30  31
ENDBRANCH  24  25
ENDBRANCH   7  19
ENDBRANCH   4   7
ENDBRANCH   2   3
ENDBRANCH   1   2
BRANCH   1  35
ATOM     35  C   UNL A   1      41.981  22.791  27.541  1.00  0.00     0.118 C 
BRANCH  35  36
ATOM     36  N   UNL A   1      42.289  23.589  26.364  1.00  0.00    -0.352 N 
ATOM     37  C   UNL A   1      42.205  24.945  26.173  1.00  0.00     0.251 C 
ATOM     38  H   UNL A   1      42.608  23.077  25.586  1.00  0.00     0.163 HD
ATOM     39  O   UNL A   1      42.304  25.395  25.034  1.00  0.00    -0.269 OA
BRANCH  37  40
ATOM     40  C   UNL A   1      41.989  25.864  27.312  1.00  0.00     0.039 A 
ATOM     41  C   UNL A   1      42.937  26.862  27.560  1.00  0.00     0.014 A 
ATOM     42  C   UNL A   1      40.894  25.716  28.169  1.00  0.00     0.014 A 
ATOM     43  C   UNL A   1      42.762  27.739  28.634  1.00  0.00     0.010 A 
ATOM     44  C   UNL A   1      40.691  26.627  29.206  1.00  0.00     0.010 A 
ATOM     45  C   UNL A   1      41.625  27.646  29.451  1.00  0.00    -0.014 A 
BRANCH  45  46
ATOM     46  C   UNL A   1      41.395  28.603  30.564  1.00  0.00     0.031 A 
ATOM     47  C   UNL A   1      42.231  28.531  31.813  1.00  0.00     0.074 A 
ATOM     48  C   UNL A   1      40.390  29.497  30.475  1.00  0.00     0.049 A 
ATOM     49  N   UNL A   1      42.126  29.223  32.919  1.00  0.00    -0.248 NA
ATOM     50  C   UNL A   1      43.312  27.534  31.830  1.00  0.00     0.031 C 
ATOM     51  C   UNL A   1      39.483  29.638  29.334  1.00  0.00     0.029 A 
ATOM     52  N   UNL A   1      39.954  30.447  31.365  1.00  0.00    -0.354 N 
ATOM     53  C   UNL A   1      43.112  28.734  33.768  1.00  0.00     0.074 A 
ATOM     54  C   UNL A   1      43.779  27.659  33.065  1.00  0.00     0.031 C 
ATOM     55  C   UNL A   1      38.608  30.624  29.588  1.00  0.00     0.029 A 
ATOM     56  C   UNL A   1      38.870  31.164  30.919  1.00  0.00     0.049 A 
ATOM     57  H   UNL A   1      40.379  30.600  32.240  1.00  0.00     0.167 HD
ATOM     58  C   UNL A   1      43.442  29.154  35.014  1.00  0.00     0.037 A 
ATOM     59  C   UNL A   1      38.159  32.139  31.517  1.00  0.00     0.037 A 
ATOM     60  C   UNL A   1      42.795  30.244  35.699  1.00  0.00     0.049 A 
ATOM     61  C   UNL A   1      38.554  32.599  32.893  1.00  0.00     0.074 A 
ATOM     62  C   UNL A   1      43.095  30.781  36.938  1.00  0.00     0.029 A 
ATOM     63  N   UNL A   1      41.721  30.965  35.200  1.00  0.00    -0.354 N 
ATOM     64  N   UNL A   1      39.522  32.158  33.662  1.00  0.00    -0.248 NA
ATOM     65  C   UNL A   1      37.766  33.690  33.482  1.00  0.00     0.031 C 
ATOM     66  C   UNL A   1      42.181  31.807  37.204  1.00  0.00     0.029 A 
ATOM     67  C   UNL A   1      41.337  31.935  36.112  1.00  0.00     0.049 A 
ATOM     68  H   UNL A   1      41.294  30.812  34.327  1.00  0.00     0.167 HD
ATOM     69  C   UNL A   1      39.474  32.934  34.815  1.00  0.00     0.074 A 
ATOM     70  C   UNL A   1      38.388  33.877  34.638  1.00  0.00     0.031 C 
ATOM     71  C   UNL A   1      40.258  32.871  35.919  1.00  0.00     0.037 A 
BRANCH  58  72
ATOM     72  C   UNL A   1      44.558  28.432  35.717  1.00  0.00     0.058 A 
ATOM     73  C   UNL A   1      44.321  27.273  36.474  1.00  0.00     0.135 A 
ATOM     74  C   UNL A   1      45.883  28.885  35.611  1.00  0.00     0.135 A 
ATOM     75  F   UNL A   1      43.072  26.805  36.620  1.00  0.00    -0.206 F 
ATOM     76  C   UNL A   1      45.353  26.608  37.129  1.00  0.00     0.059 A 
ATOM     77  C   UNL A   1      46.934  28.222  36.237  1.00  0.00     0.059 A 
ATOM     78  F   UNL A   1      46.166  29.986  34.898  1.00  0.00    -0.206 F 
ATOM     79  C   UNL A   1      46.657  27.094  37.008  1.00  0.00     0.060 A 
BRANCH  79  80
ATOM     80  S   UNL A   1      47.985  26.225  37.869  1.00  0.00     0.124 S 
ATOM     81  O   UNL A   1      49.166  26.791  37.224  1.00  0.00    -0.237 OA
ATOM     82  O   UNL A   1      47.772  26.620  39.258  1.00  0.00    -0.237 OA
ATOM     83  O   UNL A   1      47.719  24.821  37.573  1.00  0.00    -0.744 OA
ENDBRANCH  79  80
ENDBRANCH  58  72
BRANCH  59  84
ATOM     84  C   UNL A   1      37.015  32.765  30.804  1.00  0.00     0.058 A 
ATOM     85  C   UNL A   1      35.697  32.375  31.081  1.00  0.00     0.135 A 
ATOM     86  C   UNL A   1      37.214  33.776  29.851  1.00  0.00     0.135 A 
ATOM     87  F   UNL A   1      35.459  31.408  31.980  1.00  0.00    -0.206 F 
ATOM     88  C   UNL A   1      34.615  32.955  30.430  1.00  0.00     0.059 A 
ATOM     89  C   UNL A   1      36.146  34.386  29.203  1.00  0.00     0.059 A 
ATOM     90  F   UNL A   1      38.456  34.194  29.565  1.00  0.00    -0.206 F 
ATOM     91  C   UNL A   1      34.849  33.963  29.493  1.00  0.00     0.060 A 
BRANCH  91  92
ATOM     92  S   UNL A   1      33.434  34.752  28.695  1.00  0.00     0.124 S 
ATOM     93  O   UNL A   1      33.045  33.738  27.721  1.00  0.00    -0.237 OA
ATOM     94  O   UNL A   1      32.518  34.948  29.814  1.00  0.00    -0.237 OA
ATOM     95  O   UNL A   1      34.004  35.976  28.142  1.00  0.00    -0.744 OA
ENDBRANCH  91  92
ENDBRANCH  59  84
BRANCH  71  96
ATOM     96  C   UNL A   1      39.992  33.868  37.010  1.00  0.00     0.058 A 
ATOM     97  C   UNL A   1      40.555  35.153  36.986  1.00  0.00     0.135 A 
ATOM     98  C   UNL A   1      39.128  33.548  38.069  1.00  0.00     0.135 A 
ATOM     99  F   UNL A   1      41.394  35.504  35.998  1.00  0.00    -0.206 F 
ATOM    100  C   UNL A   1      40.284  36.083  37.984  1.00  0.00     0.059 A 
ATOM    101  C   UNL A   1      38.825  34.470  39.067  1.00  0.00     0.059 A 
ATOM    102  F   UNL A   1      38.558  32.334  38.134  1.00  0.00    -0.206 F 
ATOM    103  C   UNL A   1      39.417  35.732  39.021  1.00  0.00     0.060 A 
BRANCH 103 104
ATOM    104  S   UNL A   1      39.043  36.957  40.293  1.00  0.00     0.124 S 
ATOM    105  O   UNL A   1      38.092  36.231  41.128  1.00  0.00    -0.237 OA
ATOM    106  O   UNL A   1      40.352  37.202  40.890  1.00  0.00    -0.237 OA
ATOM    107  O   UNL A   1      38.488  38.074  39.535  1.00  0.00    -0.744 OA
ENDBRANCH 103 104
ENDBRANCH  71  96
ENDBRANCH  45  46
ENDBRANCH  37  40
ENDBRANCH  35  36
ENDBRANCH   1  35
TORSDOF 18
ENDMDL
MODEL 2
REMARK VINA RESULT:     -13.2      4.936      9.960
REMARK SMILES CS(=O)(=O)c1ccc(/C=C(/C(=O)NCCCNC(=O)c2ccc(-c3c4nc(c(-c5c(F)cc(S(=O)(=O)[O-])cc5F)c5ccc([nH]5)c(-c5c(F)cc(S(=O)(=O)[O-])cc5F)c5nc(c(-c6c(F)cc(S(=O)(=O)[O-])cc6F)c6ccc3[nH]6)C=C5)C=C4)cc2)c2ccc(-c3ccc(S(C)(=O)=O)cc3)cc2)cc1
REMARK SMILES IDX 15 1 14 2 13 3 11 4 12 5 10 7 9 8 8 9 5 10 6 11 103 12 7 13
REMARK SMILES IDX 102 14 2 15 1 16 3 17 4 18 86 19 87 20 101 21 88 22 100 23
REMARK SMILES IDX 89 24 90 25 91 26 99 27 92 28 98 29 93 30 94 31 95 32 96 33
REMARK SMILES IDX 97 34 16 35 17 36 18 37 19 39 20 40 21 41 85 42 22 43 84 44
REMARK SMILES IDX 23 45 24 46 25 47 78 48 26 49 83 50 77 51 79 52 27 53 82 54
REMARK SMILES IDX 76 55 75 56 28 58 62 59 41 60 61 61 42 62 45 63 60 64 80 65
REMARK SMILES IDX 43 66 44 67 59 69 81 70 46 71 29 72 30 73 39 74 31 75 32 76
REMARK SMILES IDX 38 77 40 78 33 79 34 80 35 81 36 82 37 83 63 84 64 85 73 86
REMARK SMILES IDX 65 87 66 88 72 89 74 90 67 91 68 92 69 93 70 94 71 95 47 96
REMARK SMILES IDX 48 97 57 98 49 99 50 100 56 101 58 102 51 103 52 104 53 105
REMARK SMILES IDX 54 106 55 107
REMARK H PARENT 13 6 17 38 79 57 45 68
REMARK Flexibility Score: inf
ROOT
ATOM      1  C   UNL A   1      41.810  21.160  26.364  1.00  0.00     0.042 C 
ENDROOT
BRANCH   1   2
ATOM      2  C   UNL A   1      42.620  22.455  26.279  1.00  0.00     0.118 C 
BRANCH   2   3
ATOM      3  N   UNL A   1      43.428  22.485  25.073  1.00  0.00    -0.352 N 
ATOM      4  C   UNL A   1      44.281  23.387  24.523  1.00  0.00     0.251 C 
ATOM      5  O   UNL A   1      44.800  23.052  23.455  1.00  0.00    -0.269 OA
ATOM      6  H   UNL A   1      43.340  21.666  24.534  1.00  0.00     0.163 HD
BRANCH   4   7
ATOM      7  C   UNL A   1      44.667  24.694  25.180  1.00  0.00     0.047 C 
ATOM      8  C   UNL A   1      43.845  25.769  25.188  1.00  0.00     0.022 C 
BRANCH   8   9
ATOM      9  C   UNL A   1      44.018  27.091  25.836  1.00  0.00    -0.025 A 
ATOM     10  C   UNL A   1      44.144  29.579  27.134  1.00  0.00     0.067 A 
ATOM     11  C   UNL A   1      45.268  28.754  27.104  1.00  0.00     0.021 A 
ATOM     12  C   UNL A   1      42.976  29.209  26.467  1.00  0.00     0.021 A 
ATOM     13  C   UNL A   1      45.206  27.525  26.438  1.00  0.00     0.009 A 
ATOM     14  C   UNL A   1      42.918  27.967  25.825  1.00  0.00     0.009 A 
BRANCH  10  15
ATOM     15  S   UNL A   1      44.217  31.126  28.006  1.00  0.00     0.175 S 
ATOM     16  C   UNL A   1      44.255  32.329  26.703  1.00  0.00     0.163 C 
ATOM     17  O   UNL A   1      45.485  31.190  28.700  1.00  0.00    -0.224 OA
ATOM     18  O   UNL A   1      42.962  31.281  28.722  1.00  0.00    -0.224 OA
ENDBRANCH  10  15
ENDBRANCH   8   9
BRANCH   7  19
ATOM     19  C   UNL A   1      46.075  24.819  25.637  1.00  0.00    -0.013 A 
ATOM     20  C   UNL A   1      47.017  25.342  24.740  1.00  0.00     0.009 A 
ATOM     21  C   UNL A   1      46.477  24.540  26.947  1.00  0.00     0.009 A 
ATOM     22  C   UNL A   1      48.312  25.646  25.160  1.00  0.00     0.009 A 
ATOM     23  C   UNL A   1      47.775  24.867  27.370  1.00  0.00     0.009 A 
ATOM     24  C   UNL A   1      48.702  25.458  26.494  1.00  0.00    -0.018 A 
BRANCH  24  25
ATOM     25  C   UNL A   1      50.021  25.932  26.953  1.00  0.00    -0.018 A 
ATOM     26  C   UNL A   1      50.111  27.037  27.824  1.00  0.00     0.010 A 
ATOM     27  C   UNL A   1      51.215  25.304  26.563  1.00  0.00     0.010 A 
ATOM     28  C   UNL A   1      51.341  27.508  28.282  1.00  0.00     0.021 A 
ATOM     29  C   UNL A   1      52.456  25.768  27.016  1.00  0.00     0.021 A 
ATOM     30  C   UNL A   1      52.511  26.876  27.863  1.00  0.00     0.067 A 
BRANCH  30  31
ATOM     31  S   UNL A   1      54.072  27.486  28.445  1.00  0.00     0.175 S 
ATOM     32  C   UNL A   1      54.379  26.523  29.903  1.00  0.00     0.163 C 
ATOM     33  O   UNL A   1      55.067  27.138  27.450  1.00  0.00    -0.224 OA
ATOM     34  O   UNL A   1      53.885  28.864  28.860  1.00  0.00    -0.224 OA
ENDBRANCH  30  31
ENDBRANCH  24  25
ENDBRANCH   7  19
ENDBRANCH   4   7
ENDBRANCH   2   3
ENDBRANCH   1   2
BRANCH   1  35
ATOM     35  C   UNL A   1      40.458  21.319  27.064  1.00  0.00     0.118 C 
BRANCH  35  36
ATOM     36  N   UNL A   1      39.404  21.712  26.142  1.00  0.00    -0.352 N 
ATOM     37  C   UNL A   1      38.736  22.906  26.023  1.00  0.00     0.251 C 
ATOM     38  H   UNL A   1      39.127  21.015  25.505  1.00  0.00     0.163 HD
ATOM     39  O   UNL A   1      37.728  22.959  25.322  1.00  0.00    -0.269 OA
BRANCH  37  40
ATOM     40  C   UNL A   1      39.209  24.117  26.729  1.00  0.00     0.039 A 
ATOM     41  C   UNL A   1      38.791  24.333  28.046  1.00  0.00     0.014 A 
ATOM     42  C   UNL A   1      40.011  25.066  26.089  1.00  0.00     0.014 A 
ATOM     43  C   UNL A   1      39.216  25.472  28.736  1.00  0.00     0.010 A 
ATOM     44  C   UNL A   1      40.480  26.174  26.795  1.00  0.00     0.010 A 
ATOM     45  C   UNL A   1      40.085  26.390  28.125  1.00  0.00    -0.014 A 
BRANCH  45  46
ATOM     46  C   UNL A   1      40.590  27.579  28.859  1.00  0.00     0.031 A 
ATOM     47  C   UNL A   1      41.969  27.570  29.461  1.00  0.00     0.074 A 
ATOM     48  C   UNL A   1      39.783  28.643  29.037  1.00  0.00     0.049 A 
ATOM     49  N   UNL A   1      42.552  28.477  30.203  1.00  0.00    -0.248 NA
ATOM     50  C   UNL A   1      42.793  26.376  29.216  1.00  0.00     0.031 C 
ATOM     51  C   UNL A   1      38.410  28.754  28.538  1.00  0.00     0.029 A 
ATOM     52  N   UNL A   1      39.993  29.827  29.698  1.00  0.00    -0.354 N 
ATOM     53  C   UNL A   1      43.799  27.957  30.530  1.00  0.00     0.074 A 
ATOM     54  C   UNL A   1      43.873  26.638  29.937  1.00  0.00     0.031 C 
ATOM     55  C   UNL A   1      37.907  29.946  28.899  1.00  0.00     0.029 A 
ATOM     56  C   UNL A   1      38.906  30.669  29.681  1.00  0.00     0.049 A 
ATOM     57  H   UNL A   1      40.842  30.053  30.142  1.00  0.00     0.167 HD
ATOM     58  C   UNL A   1      44.798  28.533  31.242  1.00  0.00     0.037 A 
ATOM     59  C   UNL A   1      38.730  31.881  30.239  1.00  0.00     0.037 A 
ATOM     60  C   UNL A   1      44.732  29.858  31.804  1.00  0.00     0.049 A 
ATOM     61  C   UNL A   1      39.857  32.507  31.014  1.00  0.00     0.074 A 
ATOM     62  C   UNL A   1      45.711  30.550  32.494  1.00  0.00     0.029 A 
ATOM     63  N   UNL A   1      43.624  30.690  31.739  1.00  0.00    -0.354 N 
ATOM     64  N   UNL A   1      41.049  32.020  31.269  1.00  0.00    -0.248 NA
ATOM     65  C   UNL A   1      39.620  33.845  31.570  1.00  0.00     0.031 C 
ATOM     66  C   UNL A   1      45.185  31.791  32.873  1.00  0.00     0.029 A 
ATOM     67  C   UNL A   1      43.892  31.886  32.386  1.00  0.00     0.049 A 
ATOM     68  H   UNL A   1      42.774  30.466  31.297  1.00  0.00     0.167 HD
ATOM     69  C   UNL A   1      41.712  33.003  31.996  1.00  0.00     0.074 A 
ATOM     70  C   UNL A   1      40.792  34.115  32.130  1.00  0.00     0.031 C 
ATOM     71  C   UNL A   1      42.968  32.986  32.505  1.00  0.00     0.037 A 
BRANCH  58  72
ATOM     72  C   UNL A   1      46.053  27.731  31.452  1.00  0.00     0.058 A 
ATOM     73  C   UNL A   1      47.116  27.777  30.535  1.00  0.00     0.135 A 
ATOM     74  C   UNL A   1      46.207  26.929  32.594  1.00  0.00     0.135 A 
ATOM     75  F   UNL A   1      47.015  28.517  29.420  1.00  0.00    -0.206 F 
ATOM     76  C   UNL A   1      48.275  27.030  30.727  1.00  0.00     0.059 A 
ATOM     77  C   UNL A   1      47.368  26.193  32.818  1.00  0.00     0.059 A 
ATOM     78  F   UNL A   1      45.224  26.850  33.503  1.00  0.00    -0.206 F 
ATOM     79  C   UNL A   1      48.389  26.237  31.870  1.00  0.00     0.060 A 
BRANCH  79  80
ATOM     80  S   UNL A   1      49.894  25.269  32.102  1.00  0.00     0.124 S 
ATOM     81  O   UNL A   1      50.221  24.908  30.726  1.00  0.00    -0.237 OA
ATOM     82  O   UNL A   1      50.792  26.229  32.735  1.00  0.00    -0.237 OA
ATOM     83  O   UNL A   1      49.460  24.166  32.954  1.00  0.00    -0.744 OA
ENDBRANCH  79  80
ENDBRANCH  58  72
BRANCH  59  84
ATOM     84  C   UNL A   1      37.438  32.595  30.064  1.00  0.00     0.058 A 
ATOM     85  C   UNL A   1      36.350  32.328  30.907  1.00  0.00     0.135 A 
ATOM     86  C   UNL A   1      37.273  33.572  29.070  1.00  0.00     0.135 A 
ATOM     87  F   UNL A   1      36.459  31.398  31.868  1.00  0.00    -0.206 F 
ATOM     88  C   UNL A   1      35.137  32.993  30.763  1.00  0.00     0.059 A 
ATOM     89  C   UNL A   1      36.077  34.265  28.920  1.00  0.00     0.059 A 
ATOM     90  F   UNL A   1      38.291  33.875  28.250  1.00  0.00    -0.206 F 
ATOM     91  C   UNL A   1      35.011  33.963  29.767  1.00  0.00     0.060 A 
BRANCH  91  92
ATOM     92  S   UNL A   1      33.451  34.862  29.625  1.00  0.00     0.124 S 
ATOM     93  O   UNL A   1      32.700  34.002  28.717  1.00  0.00    -0.237 OA
ATOM     94  O   UNL A   1      32.986  34.894  31.008  1.00  0.00    -0.237 OA
ATOM     95  O   UNL A   1      33.860  36.153  29.081  1.00  0.00    -0.744 OA
ENDBRANCH  91  92
ENDBRANCH  59  84
BRANCH  71  96
ATOM     96  C   UNL A   1      43.435  34.217  33.228  1.00  0.00     0.058 A 
ATOM     97  C   UNL A   1      43.272  34.362  34.614  1.00  0.00     0.135 A 
ATOM     98  C   UNL A   1      44.096  35.241  32.532  1.00  0.00     0.135 A 
ATOM     99  F   UNL A   1      42.640  33.413  35.322  1.00  0.00    -0.206 F 
ATOM    100  C   UNL A   1      43.732  35.490  35.284  1.00  0.00     0.059 A 
ATOM    101  C   UNL A   1      44.584  36.369  33.186  1.00  0.00     0.059 A 
ATOM    102  F   UNL A   1      44.285  35.147  31.206  1.00  0.00    -0.206 F 
ATOM    103  C   UNL A   1      44.387  36.489  34.561  1.00  0.00     0.060 A 
BRANCH 103 104
ATOM    104  S   UNL A   1      45.013  37.933  35.446  1.00  0.00     0.124 S 
ATOM    105  O   UNL A   1      45.166  37.405  36.797  1.00  0.00    -0.237 OA
ATOM    106  O   UNL A   1      46.254  38.224  34.735  1.00  0.00    -0.237 OA
ATOM    107  O   UNL A   1      43.953  38.921  35.274  1.00  0.00    -0.744 OA
ENDBRANCH 103 104
ENDBRANCH  71  96
ENDBRANCH  45  46
ENDBRANCH  37  40
ENDBRANCH  35  36
ENDBRANCH   1  35
TORSDOF 18
ENDMDL
MODEL 3
REMARK VINA RESULT:     -13.2      4.636     11.354
REMARK SMILES CS(=O)(=O)c1ccc(/C=C(/C(=O)NCCCNC(=O)c2ccc(-c3c4nc(c(-c5c(F)cc(S(=O)(=O)[O-])cc5F)c5ccc([nH]5)c(-c5c(F)cc(S(=O)(=O)[O-])cc5F)c5nc(c(-c6c(F)cc(S(=O)(=O)[O-])cc6F)c6ccc3[nH]6)C=C5)C=C4)cc2)c2ccc(-c3ccc(S(C)(=O)=O)cc3)cc2)cc1
REMARK SMILES IDX 15 1 14 2 13 3 11 4 12 5 10 7 9 8 8 9 5 10 6 11 103 12 7 13
REMARK SMILES IDX 102 14 2 15 1 16 3 17 4 18 86 19 87 20 101 21 88 22 100 23
REMARK SMILES IDX 89 24 90 25 91 26 99 27 92 28 98 29 93 30 94 31 95 32 96 33
REMARK SMILES IDX 97 34 16 35 17 36 18 37 19 39 20 40 21 41 85 42 22 43 84 44
REMARK SMILES IDX 23 45 24 46 25 47 78 48 26 49 83 50 77 51 79 52 27 53 82 54
REMARK SMILES IDX 76 55 75 56 28 58 62 59 41 60 61 61 42 62 45 63 60 64 80 65
REMARK SMILES IDX 43 66 44 67 59 69 81 70 46 71 29 72 30 73 39 74 31 75 32 76
REMARK SMILES IDX 38 77 40 78 33 79 34 80 35 81 36 82 37 83 63 84 64 85 73 86
REMARK SMILES IDX 65 87 66 88 72 89 74 90 67 91 68 92 69 93 70 94 71 95 47 96
REMARK SMILES IDX 48 97 57 98 49 99 50 100 56 101 58 102 51 103 52 104 53 105
REMARK SMILES IDX 54 106 55 107
REMARK H PARENT 13 6 17 38 79 57 45 68
REMARK Flexibility Score: inf
ROOT
ATOM      1  C   UNL A   1      42.351  22.303  26.004  1.00  0.00     0.042 C 
ENDROOT
BRANCH   1   2
ATOM      2  C   UNL A   1      43.115  23.613  26.207  1.00  0.00     0.118 C 
BRANCH   2   3
ATOM      3  N   UNL A   1      43.608  23.723  27.567  1.00  0.00    -0.352 N 
ATOM      4  C   UNL A   1      44.684  24.319  28.143  1.00  0.00     0.251 C 
ATOM      5  O   UNL A   1      44.775  24.194  29.367  1.00  0.00    -0.269 OA
ATOM      6  H   UNL A   1      43.033  23.263  28.220  1.00  0.00     0.163 HD
BRANCH   4   7
ATOM      7  C   UNL A   1      45.685  25.165  27.387  1.00  0.00     0.047 C 
ATOM      8  C   UNL A   1      46.819  24.644  26.862  1.00  0.00     0.022 C 
BRANCH   8   9
ATOM      9  C   UNL A   1      47.867  25.291  26.038  1.00  0.00    -0.025 A 
ATOM     10  C   UNL A   1      49.699  26.622  24.375  1.00  0.00     0.067 A 
ATOM     11  C   UNL A   1      50.028  26.367  25.706  1.00  0.00     0.021 A 
ATOM     12  C   UNL A   1      48.495  26.162  23.843  1.00  0.00     0.021 A 
ATOM     13  C   UNL A   1      49.121  25.685  26.524  1.00  0.00     0.009 A 
ATOM     14  C   UNL A   1      47.584  25.503  24.678  1.00  0.00     0.009 A 
BRANCH  10  15
ATOM     15  S   UNL A   1      50.841  27.514  23.347  1.00  0.00     0.175 S 
ATOM     16  C   UNL A   1      49.979  27.655  21.803  1.00  0.00     0.163 C 
ATOM     17  O   UNL A   1      51.999  26.673  23.128  1.00  0.00    -0.224 OA
ATOM     18  O   UNL A   1      50.979  28.848  23.906  1.00  0.00    -0.224 OA
ENDBRANCH  10  15
ENDBRANCH   8   9
BRANCH   7  19
ATOM     19  C   UNL A   1      45.480  26.635  27.426  1.00  0.00    -0.013 A 
ATOM     20  C   UNL A   1      44.357  27.163  26.775  1.00  0.00     0.009 A 
ATOM     21  C   UNL A   1      46.293  27.497  28.169  1.00  0.00     0.009 A 
ATOM     22  C   UNL A   1      44.013  28.507  26.919  1.00  0.00     0.009 A 
ATOM     23  C   UNL A   1      45.932  28.844  28.328  1.00  0.00     0.009 A 
ATOM     24  C   UNL A   1      44.767  29.363  27.735  1.00  0.00    -0.018 A 
BRANCH  24  25
ATOM     25  C   UNL A   1      44.299  30.736  28.001  1.00  0.00    -0.018 A 
ATOM     26  C   UNL A   1      43.468  30.998  29.109  1.00  0.00     0.010 A 
ATOM     27  C   UNL A   1      44.668  31.819  27.186  1.00  0.00     0.010 A 
ATOM     28  C   UNL A   1      43.013  32.285  29.392  1.00  0.00     0.021 A 
ATOM     29  C   UNL A   1      44.216  33.116  27.459  1.00  0.00     0.021 A 
ATOM     30  C   UNL A   1      43.381  33.337  28.555  1.00  0.00     0.067 A 
BRANCH  30  31
ATOM     31  S   UNL A   1      42.791  34.970  28.919  1.00  0.00     0.175 S 
ATOM     32  C   UNL A   1      44.272  35.883  29.267  1.00  0.00     0.163 C 
ATOM     33  O   UNL A   1      42.205  35.497  27.701  1.00  0.00    -0.224 OA
ATOM     34  O   UNL A   1      42.019  34.902  30.146  1.00  0.00    -0.224 OA
ENDBRANCH  30  31
ENDBRANCH  24  25
ENDBRANCH   7  19
ENDBRANCH   4   7
ENDBRANCH   2   3
ENDBRANCH   1   2
BRANCH   1  35
ATOM     35  C   UNL A   1      41.046  22.217  26.799  1.00  0.00     0.118 C 
BRANCH  35  36
ATOM     36  N   UNL A   1      39.893  22.618  26.008  1.00  0.00    -0.352 N 
ATOM     37  C   UNL A   1      39.081  23.719  26.128  1.00  0.00     0.251 C 
ATOM     38  H   UNL A   1      39.659  22.007  25.273  1.00  0.00     0.163 HD
ATOM     39  O   UNL A   1      38.029  23.758  25.495  1.00  0.00    -0.269 OA
BRANCH  37  40
ATOM     40  C   UNL A   1      39.452  24.847  27.012  1.00  0.00     0.039 A 
ATOM     41  C   UNL A   1      38.939  24.879  28.312  1.00  0.00     0.014 A 
ATOM     42  C   UNL A   1      40.252  25.897  26.552  1.00  0.00     0.014 A 
ATOM     43  C   UNL A   1      39.268  25.935  29.166  1.00  0.00     0.010 A 
ATOM     44  C   UNL A   1      40.624  26.923  27.423  1.00  0.00     0.010 A 
ATOM     45  C   UNL A   1      40.133  26.954  28.737  1.00  0.00    -0.014 A 
BRANCH  45  46
ATOM     46  C   UNL A   1      40.536  28.057  29.648  1.00  0.00     0.031 A 
ATOM     47  C   UNL A   1      39.648  29.258  29.824  1.00  0.00     0.074 A 
ATOM     48  C   UNL A   1      41.732  28.004  30.268  1.00  0.00     0.049 A 
ATOM     49  N   UNL A   1      39.866  30.353  30.508  1.00  0.00    -0.248 NA
ATOM     50  C   UNL A   1      38.356  29.238  29.121  1.00  0.00     0.031 C 
ATOM     51  C   UNL A   1      42.700  26.912  30.144  1.00  0.00     0.029 A 
ATOM     52  N   UNL A   1      42.344  28.895  31.113  1.00  0.00    -0.354 N 
ATOM     53  C   UNL A   1      38.750  31.157  30.304  1.00  0.00     0.074 A 
ATOM     54  C   UNL A   1      37.876  30.441  29.399  1.00  0.00     0.031 C 
ATOM     55  C   UNL A   1      43.777  27.193  30.896  1.00  0.00     0.029 A 
ATOM     56  C   UNL A   1      43.591  28.495  31.529  1.00  0.00     0.049 A 
ATOM     57  H   UNL A   1      41.928  29.742  31.395  1.00  0.00     0.167 HD
ATOM     58  C   UNL A   1      38.472  32.373  30.834  1.00  0.00     0.037 A 
ATOM     59  C   UNL A   1      44.488  29.110  32.322  1.00  0.00     0.037 A 
ATOM     60  C   UNL A   1      39.332  33.069  31.757  1.00  0.00     0.049 A 
ATOM     61  C   UNL A   1      44.152  30.452  32.911  1.00  0.00     0.074 A 
ATOM     62  C   UNL A   1      39.114  34.277  32.393  1.00  0.00     0.029 A 
ATOM     63  N   UNL A   1      40.574  32.615  32.178  1.00  0.00    -0.354 N 
ATOM     64  N   UNL A   1      43.069  31.175  32.746  1.00  0.00    -0.248 NA
ATOM     65  C   UNL A   1      45.153  31.060  33.798  1.00  0.00     0.031 C 
ATOM     66  C   UNL A   1      40.237  34.571  33.175  1.00  0.00     0.029 A 
ATOM     67  C   UNL A   1      41.139  33.525  33.056  1.00  0.00     0.049 A 
ATOM     68  H   UNL A   1      40.992  31.770  31.895  1.00  0.00     0.167 HD
ATOM     69  C   UNL A   1      43.250  32.312  33.526  1.00  0.00     0.074 A 
ATOM     70  C   UNL A   1      44.540  32.175  34.171  1.00  0.00     0.031 C 
ATOM     71  C   UNL A   1      42.422  33.371  33.695  1.00  0.00     0.037 A 
BRANCH  58  72
ATOM     72  C   UNL A   1      37.181  33.028  30.430  1.00  0.00     0.058 A 
ATOM     73  C   UNL A   1      37.074  33.771  29.242  1.00  0.00     0.135 A 
ATOM     74  C   UNL A   1      36.030  32.892  31.222  1.00  0.00     0.135 A 
ATOM     75  F   UNL A   1      38.147  33.944  28.455  1.00  0.00    -0.206 F 
ATOM     76  C   UNL A   1      35.881  34.382  28.871  1.00  0.00     0.059 A 
ATOM     77  C   UNL A   1      34.819  33.474  30.858  1.00  0.00     0.059 A 
ATOM     78  F   UNL A   1      36.076  32.191  32.366  1.00  0.00    -0.206 F 
ATOM     79  C   UNL A   1      34.759  34.231  29.689  1.00  0.00     0.060 A 
BRANCH  79  80
ATOM     80  S   UNL A   1      33.219  35.035  29.199  1.00  0.00     0.124 S 
ATOM     81  O   UNL A   1      33.707  36.324  28.715  1.00  0.00    -0.237 OA
ATOM     82  O   UNL A   1      32.702  34.130  28.177  1.00  0.00    -0.237 OA
ATOM     83  O   UNL A   1      32.451  35.081  30.439  1.00  0.00    -0.744 OA
ENDBRANCH  79  80
ENDBRANCH  58  72
BRANCH  59  84
ATOM     84  C   UNL A   1      45.784  28.448  32.626  1.00  0.00     0.058 A 
ATOM     85  C   UNL A   1      46.958  28.829  31.960  1.00  0.00     0.135 A 
ATOM     86  C   UNL A   1      45.879  27.442  33.599  1.00  0.00     0.135 A 
ATOM     87  F   UNL A   1      46.914  29.783  31.017  1.00  0.00    -0.206 F 
ATOM     88  C   UNL A   1      48.179  28.227  32.237  1.00  0.00     0.059 A 
ATOM     89  C   UNL A   1      47.093  26.839  33.909  1.00  0.00     0.059 A 
ATOM     90  F   UNL A   1      44.786  27.055  34.275  1.00  0.00    -0.206 F 
ATOM     91  C   UNL A   1      48.238  27.234  33.217  1.00  0.00     0.060 A 
BRANCH  91  92
ATOM     92  S   UNL A   1      49.839  26.497  33.611  1.00  0.00     0.124 S 
ATOM     93  O   UNL A   1      49.567  25.880  34.904  1.00  0.00    -0.237 OA
ATOM     94  O   UNL A   1      50.040  25.580  32.494  1.00  0.00    -0.237 OA
ATOM     95  O   UNL A   1      50.737  27.647  33.635  1.00  0.00    -0.744 OA
ENDBRANCH  91  92
ENDBRANCH  59  84
BRANCH  71  96
ATOM     96  C   UNL A   1      42.870  34.455  34.634  1.00  0.00     0.058 A 
ATOM     97  C   UNL A   1      43.668  35.523  34.198  1.00  0.00     0.135 A 
ATOM     98  C   UNL A   1      42.457  34.447  35.976  1.00  0.00     0.135 A 
ATOM     99  F   UNL A   1      44.094  35.572  32.926  1.00  0.00    -0.206 F 
ATOM    100  C   UNL A   1      44.055  36.539  35.064  1.00  0.00     0.059 A 
ATOM    101  C   UNL A   1      42.814  35.464  36.855  1.00  0.00     0.059 A 
ATOM    102  F   UNL A   1      41.685  33.451  36.441  1.00  0.00    -0.206 F 
ATOM    103  C   UNL A   1      43.624  36.501  36.392  1.00  0.00     0.060 A 
BRANCH 103 104
ATOM    104  S   UNL A   1      44.104  37.843  37.500  1.00  0.00     0.124 S 
ATOM    105  O   UNL A   1      44.163  38.975  36.581  1.00  0.00    -0.237 OA
ATOM    106  O   UNL A   1      43.006  37.864  38.462  1.00  0.00    -0.237 OA
ATOM    107  O   UNL A   1      45.387  37.399  38.034  1.00  0.00    -0.744 OA
ENDBRANCH 103 104
ENDBRANCH  71  96
ENDBRANCH  45  46
ENDBRANCH  37  40
ENDBRANCH  35  36
ENDBRANCH   1  35
TORSDOF 18
ENDMDL
