MODEL 1
REMARK VINA RESULT:     -10.7      0.000      0.000
REMARK SMILES COCCC(=O)N1Cc2ccccc2C[C@H]1C(=O)NCCCNC(=O)c1ccc(-c2c3nc(c(-c4c(F)cc(S(=O)(=O)[O-])cc4F)c4ccc([nH]4)c(-c4c(F)cc(S(=O)(=O)[O-])cc4F)c4nc(c(-c5c(F)cc(S(=O)(=O)[O-])cc5F)c5ccc2[nH]5)C=C4)C=C3)cc1
REMARK SMILES IDX 20 1 19 2 17 3 18 4 16 6 7 7 8 8 9 9 15 10 10 11 14 12 11 13
REMARK SMILES IDX 13 14 12 15 5 16 6 17 4 18 3 19 2 20 1 21 21 22 22 23 23 24
REMARK SMILES IDX 24 25 25 27 26 28 27 29 91 30 28 31 90 32 29 33 30 34 31 35
REMARK SMILES IDX 84 36 32 37 89 38 83 39 85 40 33 41 88 42 82 43 81 44 34 46
REMARK SMILES IDX 68 47 47 48 67 49 48 50 51 51 66 52 86 53 49 54 50 55 65 57
REMARK SMILES IDX 87 58 52 59 35 60 36 61 45 62 37 63 38 64 44 65 46 66 39 67
REMARK SMILES IDX 40 68 41 69 42 70 43 71 69 72 70 73 79 74 71 75 72 76 78 77
REMARK SMILES IDX 80 78 73 79 74 80 75 81 76 82 77 83 53 84 54 85 63 86 55 87
REMARK SMILES IDX 56 88 62 89 64 90 57 91 58 92 59 93 60 94 61 95
REMARK H PARENT 19 5 23 26 85 45 51 56
REMARK Flexibility Score: inf
ROOT
ATOM      1  C   UNL A   1      32.214  26.174  26.519  1.00  0.00     0.117 C 
ENDROOT
BRANCH   1   2
ATOM      2  N   UNL A   1      32.446  26.229  25.090  1.00  0.00    -0.354 N 
ATOM      3  C   UNL A   1      33.128  25.372  24.283  1.00  0.00     0.243 C 
ATOM      4  O   UNL A   1      32.920  25.464  23.070  1.00  0.00    -0.273 OA
ATOM      5  H   UNL A   1      32.050  27.006  24.633  1.00  0.00     0.163 HD
BRANCH   3   6
ATOM      6  C   UNL A   1      33.926  24.197  24.866  1.00  0.00     0.179 C 
ATOM      7  N   UNL A   1      33.717  22.832  24.302  1.00  0.00    -0.326 N 
ATOM      8  C   UNL A   1      34.901  22.014  24.003  1.00  0.00     0.156 C 
ATOM      9  C   UNL A   1      36.121  22.327  24.829  1.00  0.00    -0.025 A 
ATOM     10  C   UNL A   1      35.387  24.703  24.843  1.00  0.00     0.071 C 
ATOM     11  C   UNL A   1      37.074  21.340  25.106  1.00  0.00     0.006 A 
ATOM     12  C   UNL A   1      36.372  23.645  25.229  1.00  0.00    -0.040 A 
ATOM     13  C   UNL A   1      38.254  21.665  25.778  1.00  0.00     0.000 A 
ATOM     14  C   UNL A   1      37.562  23.973  25.887  1.00  0.00     0.004 A 
ATOM     15  C   UNL A   1      38.499  22.981  26.167  1.00  0.00     0.000 A 
BRANCH   7  16
ATOM     16  C   UNL A   1      32.516  22.132  24.468  1.00  0.00     0.225 C 
ATOM     17  O   UNL A   1      31.574  22.592  25.119  1.00  0.00    -0.275 OA
BRANCH  16  18
ATOM     18  C   UNL A   1      32.409  20.708  23.957  1.00  0.00     0.128 C 
BRANCH  18  19
ATOM     19  C   UNL A   1      32.481  19.659  25.048  1.00  0.00     0.169 C 
BRANCH  19  20
ATOM     20  O   UNL A   1      32.164  18.380  24.512  1.00  0.00    -0.384 OA
ATOM     21  C   UNL A   1      32.383  18.300  23.112  1.00  0.00     0.194 C 
ENDBRANCH  19  20
ENDBRANCH  18  19
ENDBRANCH  16  18
ENDBRANCH   7  16
ENDBRANCH   3   6
ENDBRANCH   1   2
BRANCH   1  22
ATOM     22  C   UNL A   1      32.264  27.536  27.188  1.00  0.00     0.042 C 
BRANCH  22  23
ATOM     23  C   UNL A   1      33.571  28.274  26.945  1.00  0.00     0.118 C 
BRANCH  23  24
ATOM     24  N   UNL A   1      33.465  29.693  27.274  1.00  0.00    -0.352 N 
ATOM     25  C   UNL A   1      34.327  30.487  27.984  1.00  0.00     0.251 C 
ATOM     26  H   UNL A   1      32.657  30.142  26.938  1.00  0.00     0.163 HD
ATOM     27  O   UNL A   1      33.944  31.570  28.424  1.00  0.00    -0.269 OA
BRANCH  25  28
ATOM     28  C   UNL A   1      35.706  30.025  28.218  1.00  0.00     0.039 A 
ATOM     29  C   UNL A   1      36.643  30.090  27.185  1.00  0.00     0.014 A 
ATOM     30  C   UNL A   1      36.068  29.538  29.475  1.00  0.00     0.014 A 
ATOM     31  C   UNL A   1      37.966  29.726  27.439  1.00  0.00     0.010 A 
ATOM     32  C   UNL A   1      37.400  29.279  29.753  1.00  0.00     0.010 A 
ATOM     33  C   UNL A   1      38.361  29.355  28.735  1.00  0.00    -0.014 A 
BRANCH  33  34
ATOM     34  C   UNL A   1      39.765  29.007  29.062  1.00  0.00     0.031 A 
ATOM     35  C   UNL A   1      40.668  30.054  29.654  1.00  0.00     0.074 A 
ATOM     36  C   UNL A   1      40.249  27.793  28.733  1.00  0.00     0.049 A 
ATOM     37  N   UNL A   1      41.953  30.005  29.882  1.00  0.00    -0.248 NA
ATOM     38  C   UNL A   1      40.046  31.345  29.998  1.00  0.00     0.031 C 
ATOM     39  C   UNL A   1      39.480  26.715  28.108  1.00  0.00     0.029 A 
ATOM     40  N   UNL A   1      41.510  27.271  28.860  1.00  0.00    -0.354 N 
ATOM     41  C   UNL A   1      42.298  31.261  30.368  1.00  0.00     0.074 A 
ATOM     42  C   UNL A   1      41.099  32.069  30.342  1.00  0.00     0.031 C 
ATOM     43  C   UNL A   1      40.281  25.654  27.924  1.00  0.00     0.029 A 
ATOM     44  C   UNL A   1      41.629  25.992  28.369  1.00  0.00     0.049 A 
ATOM     45  H   UNL A   1      42.261  27.764  29.263  1.00  0.00     0.167 HD
ATOM     46  C   UNL A   1      43.499  31.695  30.818  1.00  0.00     0.037 A 
ATOM     47  C   UNL A   1      42.707  25.190  28.274  1.00  0.00     0.037 A 
ATOM     48  C   UNL A   1      44.678  30.870  30.861  1.00  0.00     0.049 A 
ATOM     49  C   UNL A   1      44.033  25.688  28.780  1.00  0.00     0.074 A 
ATOM     50  C   UNL A   1      45.931  31.186  31.355  1.00  0.00     0.029 A 
ATOM     51  N   UNL A   1      44.750  29.567  30.389  1.00  0.00    -0.354 N 
ATOM     52  N   UNL A   1      44.332  26.858  29.295  1.00  0.00    -0.248 NA
ATOM     53  C   UNL A   1      45.167  24.759  28.701  1.00  0.00     0.031 C 
ATOM     54  C   UNL A   1      46.774  30.093  31.131  1.00  0.00     0.029 A 
ATOM     55  C   UNL A   1      46.032  29.072  30.558  1.00  0.00     0.049 A 
ATOM     56  H   UNL A   1      44.000  29.068  29.991  1.00  0.00     0.167 HD
ATOM     57  C   UNL A   1      45.679  26.794  29.631  1.00  0.00     0.074 A 
ATOM     58  C   UNL A   1      46.136  25.467  29.265  1.00  0.00     0.031 C 
ATOM     59  C   UNL A   1      46.466  27.745  30.195  1.00  0.00     0.037 A 
BRANCH  46  60
ATOM     60  C   UNL A   1      43.593  33.121  31.290  1.00  0.00     0.058 A 
ATOM     61  C   UNL A   1      44.070  34.149  30.459  1.00  0.00     0.135 A 
ATOM     62  C   UNL A   1      43.196  33.469  32.591  1.00  0.00     0.135 A 
ATOM     63  F   UNL A   1      44.478  33.874  29.209  1.00  0.00    -0.206 F 
ATOM     64  C   UNL A   1      44.192  35.458  30.913  1.00  0.00     0.059 A 
ATOM     65  C   UNL A   1      43.276  34.779  33.056  1.00  0.00     0.059 A 
ATOM     66  F   UNL A   1      42.732  32.530  33.431  1.00  0.00    -0.206 F 
ATOM     67  C   UNL A   1      43.795  35.762  32.216  1.00  0.00     0.060 A 
BRANCH  67  68
ATOM     68  S   UNL A   1      43.975  37.462  32.795  1.00  0.00     0.124 S 
ATOM     69  O   UNL A   1      42.937  37.531  33.818  1.00  0.00    -0.237 OA
ATOM     70  O   UNL A   1      45.350  37.481  33.284  1.00  0.00    -0.237 OA
ATOM     71  O   UNL A   1      43.729  38.257  31.596  1.00  0.00    -0.744 OA
ENDBRANCH  67  68
ENDBRANCH  46  60
BRANCH  47  72
ATOM     72  C   UNL A   1      42.562  23.825  27.700  1.00  0.00     0.058 A 
ATOM     73  C   UNL A   1      42.609  23.618  26.314  1.00  0.00     0.135 A 
ATOM     74  C   UNL A   1      42.418  22.697  28.524  1.00  0.00     0.135 A 
ATOM     75  F   UNL A   1      42.740  24.664  25.485  1.00  0.00    -0.206 F 
ATOM     76  C   UNL A   1      42.516  22.344  25.763  1.00  0.00     0.059 A 
ATOM     77  C   UNL A   1      42.348  21.411  27.998  1.00  0.00     0.059 A 
ATOM     78  F   UNL A   1      42.385  22.839  29.858  1.00  0.00    -0.206 F 
ATOM     79  C   UNL A   1      42.393  21.245  26.615  1.00  0.00     0.060 A 
BRANCH  79  80
ATOM     80  S   UNL A   1      42.346  19.592  25.891  1.00  0.00     0.124 S 
ATOM     81  O   UNL A   1      42.710  18.760  27.031  1.00  0.00    -0.237 OA
ATOM     82  O   UNL A   1      40.959  19.494  25.445  1.00  0.00    -0.237 OA
ATOM     83  O   UNL A   1      43.335  19.664  24.820  1.00  0.00    -0.744 OA
ENDBRANCH  79  80
ENDBRANCH  47  72
BRANCH  59  84
ATOM     84  C   UNL A   1      47.893  27.376  30.498  1.00  0.00     0.058 A 
ATOM     85  C   UNL A   1      48.243  26.634  31.635  1.00  0.00     0.135 A 
ATOM     86  C   UNL A   1      48.915  27.717  29.597  1.00  0.00     0.135 A 
ATOM     87  F   UNL A   1      47.306  26.288  32.533  1.00  0.00    -0.206 F 
ATOM     88  C   UNL A   1      49.561  26.258  31.879  1.00  0.00     0.059 A 
ATOM     89  C   UNL A   1      50.234  27.325  29.803  1.00  0.00     0.059 A 
ATOM     90  F   UNL A   1      48.633  28.419  28.486  1.00  0.00    -0.206 F 
ATOM     91  C   UNL A   1      50.548  26.604  30.953  1.00  0.00     0.060 A 
BRANCH  91  92
ATOM     92  S   UNL A   1      52.246  26.072  31.261  1.00  0.00     0.124 S 
ATOM     93  O   UNL A   1      52.039  24.751  31.844  1.00  0.00    -0.237 OA
ATOM     94  O   UNL A   1      52.824  26.092  29.921  1.00  0.00    -0.237 OA
ATOM     95  O   UNL A   1      52.760  27.088  32.174  1.00  0.00    -0.744 OA
ENDBRANCH  91  92
ENDBRANCH  59  84
ENDBRANCH  33  34
ENDBRANCH  25  28
ENDBRANCH  23  24
ENDBRANCH  22  23
ENDBRANCH   1  22
TORSDOF 17
ENDMDL
MODEL 2
REMARK VINA RESULT:     -10.6      1.453      2.915
REMARK SMILES COCCC(=O)N1Cc2ccccc2C[C@H]1C(=O)NCCCNC(=O)c1ccc(-c2c3nc(c(-c4c(F)cc(S(=O)(=O)[O-])cc4F)c4ccc([nH]4)c(-c4c(F)cc(S(=O)(=O)[O-])cc4F)c4nc(c(-c5c(F)cc(S(=O)(=O)[O-])cc5F)c5ccc2[nH]5)C=C4)C=C3)cc1
REMARK SMILES IDX 20 1 19 2 17 3 18 4 16 6 7 7 8 8 9 9 15 10 10 11 14 12 11 13
REMARK SMILES IDX 13 14 12 15 5 16 6 17 4 18 3 19 2 20 1 21 21 22 22 23 23 24
REMARK SMILES IDX 24 25 25 27 26 28 27 29 91 30 28 31 90 32 29 33 30 34 31 35
REMARK SMILES IDX 84 36 32 37 89 38 83 39 85 40 33 41 88 42 82 43 81 44 34 46
REMARK SMILES IDX 68 47 47 48 67 49 48 50 51 51 66 52 86 53 49 54 50 55 65 57
REMARK SMILES IDX 87 58 52 59 35 60 36 61 45 62 37 63 38 64 44 65 46 66 39 67
REMARK SMILES IDX 40 68 41 69 42 70 43 71 69 72 70 73 79 74 71 75 72 76 78 77
REMARK SMILES IDX 80 78 73 79 74 80 75 81 76 82 77 83 53 84 54 85 63 86 55 87
REMARK SMILES IDX 56 88 62 89 64 90 57 91 58 92 59 93 60 94 61 95
REMARK H PARENT 19 5 23 26 85 45 51 56
REMARK Flexibility Score: inf
ROOT
ATOM      1  C   UNL A   1      33.399  28.484  24.506  1.00  0.00     0.117 C 
ENDROOT
BRANCH   1   2
ATOM      2  N   UNL A   1      33.748  27.878  23.237  1.00  0.00    -0.354 N 
ATOM      3  C   UNL A   1      33.621  26.588  22.822  1.00  0.00     0.243 C 
ATOM      4  O   UNL A   1      33.693  26.384  21.607  1.00  0.00    -0.273 OA
ATOM      5  H   UNL A   1      34.137  28.492  22.574  1.00  0.00     0.163 HD
BRANCH   3   6
ATOM      6  C   UNL A   1      33.171  25.483  23.789  1.00  0.00     0.179 C 
ATOM      7  N   UNL A   1      31.714  25.191  23.923  1.00  0.00    -0.326 N 
ATOM      8  C   UNL A   1      31.283  23.786  23.908  1.00  0.00     0.156 C 
ATOM      9  C   UNL A   1      32.314  22.794  24.380  1.00  0.00    -0.025 A 
ATOM     10  C   UNL A   1      34.052  24.275  23.397  1.00  0.00     0.071 C 
ATOM     11  C   UNL A   1      31.930  21.586  24.975  1.00  0.00     0.006 A 
ATOM     12  C   UNL A   1      33.669  23.021  24.117  1.00  0.00    -0.040 A 
ATOM     13  C   UNL A   1      32.888  20.627  25.308  1.00  0.00     0.000 A 
ATOM     14  C   UNL A   1      34.626  22.052  24.435  1.00  0.00     0.004 A 
ATOM     15  C   UNL A   1      34.234  20.858  25.037  1.00  0.00     0.000 A 
BRANCH   7  16
ATOM     16  C   UNL A   1      30.821  26.098  24.505  1.00  0.00     0.225 C 
ATOM     17  O   UNL A   1      30.862  26.380  25.706  1.00  0.00    -0.275 OA
BRANCH  16  18
ATOM     18  C   UNL A   1      29.679  26.652  23.675  1.00  0.00     0.128 C 
BRANCH  18  19
ATOM     19  C   UNL A   1      30.113  27.668  22.638  1.00  0.00     0.169 C 
BRANCH  19  20
ATOM     20  O   UNL A   1      29.383  28.877  22.808  1.00  0.00    -0.384 OA
ATOM     21  C   UNL A   1      30.033  29.797  23.672  1.00  0.00     0.194 C 
ENDBRANCH  19  20
ENDBRANCH  18  19
ENDBRANCH  16  18
ENDBRANCH   7  16
ENDBRANCH   3   6
ENDBRANCH   1   2
BRANCH   1  22
ATOM     22  C   UNL A   1      34.281  28.023  25.653  1.00  0.00     0.042 C 
BRANCH  22  23
ATOM     23  C   UNL A   1      33.669  28.289  27.020  1.00  0.00     0.118 C 
BRANCH  23  24
ATOM     24  N   UNL A   1      33.608  29.716  27.322  1.00  0.00    -0.352 N 
ATOM     25  C   UNL A   1      34.505  30.501  28.000  1.00  0.00     0.251 C 
ATOM     26  H   UNL A   1      32.808  30.181  26.990  1.00  0.00     0.163 HD
ATOM     27  O   UNL A   1      34.160  31.602  28.424  1.00  0.00    -0.269 OA
BRANCH  25  28
ATOM     28  C   UNL A   1      35.874  30.005  28.218  1.00  0.00     0.039 A 
ATOM     29  C   UNL A   1      36.819  30.103  27.195  1.00  0.00     0.014 A 
ATOM     30  C   UNL A   1      36.221  29.453  29.453  1.00  0.00     0.014 A 
ATOM     31  C   UNL A   1      38.134  29.706  27.438  1.00  0.00     0.010 A 
ATOM     32  C   UNL A   1      37.547  29.159  29.726  1.00  0.00     0.010 A 
ATOM     33  C   UNL A   1      38.516  29.267  28.717  1.00  0.00    -0.014 A 
BRANCH  33  34
ATOM     34  C   UNL A   1      39.911  28.881  29.034  1.00  0.00     0.031 A 
ATOM     35  C   UNL A   1      40.849  29.905  29.612  1.00  0.00     0.074 A 
ATOM     36  C   UNL A   1      40.357  27.651  28.711  1.00  0.00     0.049 A 
ATOM     37  N   UNL A   1      42.135  29.821  29.828  1.00  0.00    -0.248 NA
ATOM     38  C   UNL A   1      40.269  31.216  29.952  1.00  0.00     0.031 C 
ATOM     39  C   UNL A   1      39.552  26.591  28.100  1.00  0.00     0.029 A 
ATOM     40  N   UNL A   1      41.604  27.093  28.830  1.00  0.00    -0.354 N 
ATOM     41  C   UNL A   1      42.520  31.070  30.302  1.00  0.00     0.074 A 
ATOM     42  C   UNL A   1      41.345  31.912  30.281  1.00  0.00     0.031 C 
ATOM     43  C   UNL A   1      40.320  25.506  27.917  1.00  0.00     0.029 A 
ATOM     44  C   UNL A   1      41.681  25.808  28.348  1.00  0.00     0.049 A 
ATOM     45  H   UNL A   1      42.371  27.567  29.223  1.00  0.00     0.167 HD
ATOM     46  C   UNL A   1      43.737  31.471  30.739  1.00  0.00     0.037 A 
ATOM     47  C   UNL A   1      42.734  24.974  28.250  1.00  0.00     0.037 A 
ATOM     48  C   UNL A   1      44.892  30.612  30.778  1.00  0.00     0.049 A 
ATOM     49  C   UNL A   1      44.078  25.437  28.740  1.00  0.00     0.074 A 
ATOM     50  C   UNL A   1      46.158  30.896  31.259  1.00  0.00     0.029 A 
ATOM     51  N   UNL A   1      44.922  29.305  30.314  1.00  0.00    -0.354 N 
ATOM     52  N   UNL A   1      44.416  26.602  29.244  1.00  0.00    -0.248 NA
ATOM     53  C   UNL A   1      45.184  24.475  28.659  1.00  0.00     0.031 C 
ATOM     54  C   UNL A   1      46.967  29.777  31.036  1.00  0.00     0.029 A 
ATOM     55  C   UNL A   1      46.191  28.775  30.476  1.00  0.00     0.049 A 
ATOM     56  H   UNL A   1      44.154  28.825  29.927  1.00  0.00     0.167 HD
ATOM     57  C   UNL A   1      45.764  26.500  29.569  1.00  0.00     0.074 A 
ATOM     58  C   UNL A   1      46.178  25.159  29.209  1.00  0.00     0.031 C 
ATOM     59  C   UNL A   1      46.582  27.432  30.119  1.00  0.00     0.037 A 
BRANCH  46  60
ATOM     60  C   UNL A   1      43.876  32.897  31.200  1.00  0.00     0.058 A 
ATOM     61  C   UNL A   1      43.563  33.288  32.513  1.00  0.00     0.135 A 
ATOM     62  C   UNL A   1      44.333  33.890  30.318  1.00  0.00     0.135 A 
ATOM     63  F   UNL A   1      43.106  32.386  33.397  1.00  0.00    -0.206 F 
ATOM     64  C   UNL A   1      43.654  34.615  32.921  1.00  0.00     0.059 A 
ATOM     65  C   UNL A   1      44.466  35.218  30.715  1.00  0.00     0.059 A 
ATOM     66  F   UNL A   1      44.648  33.577  29.051  1.00  0.00    -0.206 F 
ATOM     67  C   UNL A   1      44.104  35.573  32.013  1.00  0.00     0.060 A 
BRANCH  67  68
ATOM     68  S   UNL A   1      44.202  37.292  32.554  1.00  0.00     0.124 S 
ATOM     69  O   UNL A   1      43.836  38.002  31.333  1.00  0.00    -0.237 OA
ATOM     70  O   UNL A   1      43.218  37.336  33.631  1.00  0.00    -0.237 OA
ATOM     71  O   UNL A   1      45.592  37.439  32.972  1.00  0.00    -0.744 OA
ENDBRANCH  67  68
ENDBRANCH  46  60
BRANCH  47  72
ATOM     72  C   UNL A   1      42.544  23.610  27.686  1.00  0.00     0.058 A 
ATOM     73  C   UNL A   1      42.662  23.376  26.308  1.00  0.00     0.135 A 
ATOM     74  C   UNL A   1      42.287  22.506  28.516  1.00  0.00     0.135 A 
ATOM     75  F   UNL A   1      42.902  24.399  25.474  1.00  0.00    -0.206 F 
ATOM     76  C   UNL A   1      42.527  22.101  25.771  1.00  0.00     0.059 A 
ATOM     77  C   UNL A   1      42.174  21.218  28.005  1.00  0.00     0.059 A 
ATOM     78  F   UNL A   1      42.183  22.674  29.844  1.00  0.00    -0.206 F 
ATOM     79  C   UNL A   1      42.291  21.026  26.629  1.00  0.00     0.060 A 
BRANCH  79  80
ATOM     80  S   UNL A   1      42.191  19.365  25.926  1.00  0.00     0.124 S 
ATOM     81  O   UNL A   1      40.755  19.219  25.717  1.00  0.00    -0.237 OA
ATOM     82  O   UNL A   1      43.002  19.497  24.719  1.00  0.00    -0.237 OA
ATOM     83  O   UNL A   1      42.767  18.523  26.969  1.00  0.00    -0.744 OA
ENDBRANCH  79  80
ENDBRANCH  47  72
BRANCH  59  84
ATOM     84  C   UNL A   1      48.000  27.025  30.413  1.00  0.00     0.058 A 
ATOM     85  C   UNL A   1      49.048  27.276  29.514  1.00  0.00     0.135 A 
ATOM     86  C   UNL A   1      48.322  26.433  31.646  1.00  0.00     0.135 A 
ATOM     87  F   UNL A   1      48.794  27.834  28.319  1.00  0.00    -0.206 F 
ATOM     88  C   UNL A   1      50.363  26.938  29.819  1.00  0.00     0.059 A 
ATOM     89  C   UNL A   1      49.633  26.116  31.985  1.00  0.00     0.059 A 
ATOM     90  F   UNL A   1      47.359  26.179  32.547  1.00  0.00    -0.206 F 
ATOM     91  C   UNL A   1      50.645  26.363  31.060  1.00  0.00     0.060 A 
BRANCH  91  92
ATOM     92  S   UNL A   1      52.362  25.970  31.460  1.00  0.00     0.124 S 
ATOM     93  O   UNL A   1      52.232  24.636  32.036  1.00  0.00    -0.237 OA
ATOM     94  O   UNL A   1      53.008  26.037  30.153  1.00  0.00    -0.237 OA
ATOM     95  O   UNL A   1      52.743  27.024  32.395  1.00  0.00    -0.744 OA
ENDBRANCH  91  92
ENDBRANCH  59  84
ENDBRANCH  33  34
ENDBRANCH  25  28
ENDBRANCH  23  24
ENDBRANCH  22  23
ENDBRANCH   1  22
TORSDOF 17
ENDMDL
MODEL 3
REMARK VINA RESULT:     -10.6      2.569      3.307
REMARK SMILES COCCC(=O)N1Cc2ccccc2C[C@H]1C(=O)NCCCNC(=O)c1ccc(-c2c3nc(c(-c4c(F)cc(S(=O)(=O)[O-])cc4F)c4ccc([nH]4)c(-c4c(F)cc(S(=O)(=O)[O-])cc4F)c4nc(c(-c5c(F)cc(S(=O)(=O)[O-])cc5F)c5ccc2[nH]5)C=C4)C=C3)cc1
REMARK SMILES IDX 20 1 19 2 17 3 18 4 16 6 7 7 8 8 9 9 15 10 10 11 14 12 11 13
REMARK SMILES IDX 13 14 12 15 5 16 6 17 4 18 3 19 2 20 1 21 21 22 22 23 23 24
REMARK SMILES IDX 24 25 25 27 26 28 27 29 91 30 28 31 90 32 29 33 30 34 31 35
REMARK SMILES IDX 84 36 32 37 89 38 83 39 85 40 33 41 88 42 82 43 81 44 34 46
REMARK SMILES IDX 68 47 47 48 67 49 48 50 51 51 66 52 86 53 49 54 50 55 65 57
REMARK SMILES IDX 87 58 52 59 35 60 36 61 45 62 37 63 38 64 44 65 46 66 39 67
REMARK SMILES IDX 40 68 41 69 42 70 43 71 69 72 70 73 79 74 71 75 72 76 78 77
REMARK SMILES IDX 80 78 73 79 74 80 75 81 76 82 77 83 53 84 54 85 63 86 55 87
REMARK SMILES IDX 56 88 62 89 64 90 57 91 58 92 59 93 60 94 61 95
REMARK H PARENT 19 5 23 26 85 45 51 56
REMARK Flexibility Score: inf
ROOT
ATOM      1  C   UNL A   1      32.220  27.166  24.989  1.00  0.00     0.117 C 
ENDROOT
BRANCH   1   2
ATOM      2  N   UNL A   1      32.820  27.002  23.680  1.00  0.00    -0.354 N 
ATOM      3  C   UNL A   1      33.387  25.903  23.112  1.00  0.00     0.243 C 
ATOM      4  O   UNL A   1      33.539  25.926  21.887  1.00  0.00    -0.273 OA
ATOM      5  H   UNL A   1      32.816  27.808  23.115  1.00  0.00     0.163 HD
BRANCH   3   6
ATOM      6  C   UNL A   1      33.602  24.613  23.917  1.00  0.00     0.179 C 
ATOM      7  N   UNL A   1      32.700  23.451  23.671  1.00  0.00    -0.326 N 
ATOM      8  C   UNL A   1      33.305  22.120  23.527  1.00  0.00     0.156 C 
ATOM      9  C   UNL A   1      34.624  21.936  24.233  1.00  0.00    -0.025 A 
ATOM     10  C   UNL A   1      35.111  24.325  23.745  1.00  0.00     0.071 C 
ATOM     11  C   UNL A   1      35.023  20.676  24.694  1.00  0.00     0.006 A 
ATOM     12  C   UNL A   1      35.518  23.008  24.327  1.00  0.00    -0.040 A 
ATOM     13  C   UNL A   1      36.292  20.494  25.247  1.00  0.00     0.000 A 
ATOM     14  C   UNL A   1      36.795  22.822  24.866  1.00  0.00     0.004 A 
ATOM     15  C   UNL A   1      37.178  21.566  25.331  1.00  0.00     0.000 A 
BRANCH   7  16
ATOM     16  C   UNL A   1      31.344  23.472  24.018  1.00  0.00     0.225 C 
ATOM     17  O   UNL A   1      30.492  24.006  23.303  1.00  0.00    -0.275 OA
BRANCH  16  18
ATOM     18  C   UNL A   1      30.917  22.949  25.376  1.00  0.00     0.128 C 
BRANCH  18  19
ATOM     19  C   UNL A   1      30.808  24.024  26.439  1.00  0.00     0.169 C 
BRANCH  19  20
ATOM     20  O   UNL A   1      31.544  23.640  27.594  1.00  0.00    -0.384 OA
ATOM     21  C   UNL A   1      32.651  22.805  27.290  1.00  0.00     0.194 C 
ENDBRANCH  19  20
ENDBRANCH  18  19
ENDBRANCH  16  18
ENDBRANCH   7  16
ENDBRANCH   3   6
ENDBRANCH   1   2
BRANCH   1  22
ATOM     22  C   UNL A   1      33.225  27.534  26.066  1.00  0.00     0.042 C 
BRANCH  22  23
ATOM     23  C   UNL A   1      34.180  28.638  25.640  1.00  0.00     0.118 C 
BRANCH  23  24
ATOM     24  N   UNL A   1      33.822  29.925  26.229  1.00  0.00    -0.352 N 
ATOM     25  C   UNL A   1      34.313  30.533  27.355  1.00  0.00     0.251 C 
ATOM     26  H   UNL A   1      33.128  30.429  25.747  1.00  0.00     0.163 HD
ATOM     27  O   UNL A   1      33.695  31.462  27.872  1.00  0.00    -0.269 OA
BRANCH  25  28
ATOM     28  C   UNL A   1      35.579  30.055  27.937  1.00  0.00     0.039 A 
ATOM     29  C   UNL A   1      36.759  30.140  27.196  1.00  0.00     0.014 A 
ATOM     30  C   UNL A   1      35.591  29.533  29.232  1.00  0.00     0.014 A 
ATOM     31  C   UNL A   1      37.966  29.761  27.786  1.00  0.00     0.010 A 
ATOM     32  C   UNL A   1      36.799  29.258  29.850  1.00  0.00     0.010 A 
ATOM     33  C   UNL A   1      37.999  29.353  29.129  1.00  0.00    -0.014 A 
BRANCH  33  34
ATOM     34  C   UNL A   1      39.264  28.987  29.811  1.00  0.00     0.031 A 
ATOM     35  C   UNL A   1      39.737  29.805  30.981  1.00  0.00     0.074 A 
ATOM     36  C   UNL A   1      40.028  27.994  29.318  1.00  0.00     0.049 A 
ATOM     37  N   UNL A   1      40.871  29.748  31.626  1.00  0.00    -0.248 NA
ATOM     38  C   UNL A   1      38.826  30.858  31.463  1.00  0.00     0.031 C 
ATOM     39  C   UNL A   1      39.695  27.164  28.157  1.00  0.00     0.029 A 
ATOM     40  N   UNL A   1      41.254  27.527  29.718  1.00  0.00    -0.354 N 
ATOM     41  C   UNL A   1      40.822  30.769  32.568  1.00  0.00     0.074 A 
ATOM     42  C   UNL A   1      39.573  31.470  32.367  1.00  0.00     0.031 C 
ATOM     43  C   UNL A   1      40.683  26.280  27.951  1.00  0.00     0.029 A 
ATOM     44  C   UNL A   1      41.741  26.510  28.931  1.00  0.00     0.049 A 
ATOM     45  H   UNL A   1      41.740  27.886  30.495  1.00  0.00     0.167 HD
ATOM     46  C   UNL A   1      41.724  31.079  33.528  1.00  0.00     0.037 A 
ATOM     47  C   UNL A   1      42.914  25.851  28.983  1.00  0.00     0.037 A 
ATOM     48  C   UNL A   1      42.952  30.355  33.732  1.00  0.00     0.049 A 
ATOM     49  C   UNL A   1      43.904  26.209  30.058  1.00  0.00     0.074 A 
ATOM     50  C   UNL A   1      43.908  30.544  34.713  1.00  0.00     0.029 A 
ATOM     51  N   UNL A   1      43.393  29.308  32.936  1.00  0.00    -0.354 N 
ATOM     52  N   UNL A   1      43.817  27.137  30.982  1.00  0.00    -0.248 NA
ATOM     53  C   UNL A   1      45.146  25.428  30.105  1.00  0.00     0.031 C 
ATOM     54  C   UNL A   1      44.954  29.645  34.478  1.00  0.00     0.029 A 
ATOM     55  C   UNL A   1      44.620  28.854  33.390  1.00  0.00     0.049 A 
ATOM     56  H   UNL A   1      42.906  28.941  32.163  1.00  0.00     0.167 HD
ATOM     57  C   UNL A   1      44.978  27.030  31.739  1.00  0.00     0.074 A 
ATOM     58  C   UNL A   1      45.748  25.943  31.168  1.00  0.00     0.031 C 
ATOM     59  C   UNL A   1      45.368  27.763  32.813  1.00  0.00     0.037 A 
BRANCH  46  60
ATOM     60  C   UNL A   1      41.416  32.252  34.421  1.00  0.00     0.058 A 
ATOM     61  C   UNL A   1      40.627  32.119  35.576  1.00  0.00     0.135 A 
ATOM     62  C   UNL A   1      41.919  33.528  34.121  1.00  0.00     0.135 A 
ATOM     63  F   UNL A   1      40.105  30.926  35.906  1.00  0.00    -0.206 F 
ATOM     64  C   UNL A   1      40.311  33.214  36.374  1.00  0.00     0.059 A 
ATOM     65  C   UNL A   1      41.646  34.631  34.925  1.00  0.00     0.059 A 
ATOM     66  F   UNL A   1      42.679  33.717  33.030  1.00  0.00    -0.206 F 
ATOM     67  C   UNL A   1      40.823  34.467  36.038  1.00  0.00     0.060 A 
BRANCH  67  68
ATOM     68  S   UNL A   1      40.392  35.879  37.075  1.00  0.00     0.124 S 
ATOM     69  O   UNL A   1      39.766  36.772  36.105  1.00  0.00    -0.237 OA
ATOM     70  O   UNL A   1      39.493  35.282  38.057  1.00  0.00    -0.237 OA
ATOM     71  O   UNL A   1      41.680  36.325  37.597  1.00  0.00    -0.744 OA
ENDBRANCH  67  68
ENDBRANCH  46  60
BRANCH  47  72
ATOM     72  C   UNL A   1      43.196  24.769  28.001  1.00  0.00     0.058 A 
ATOM     73  C   UNL A   1      43.843  25.048  26.788  1.00  0.00     0.135 A 
ATOM     74  C   UNL A   1      42.866  23.431  28.273  1.00  0.00     0.135 A 
ATOM     75  F   UNL A   1      44.174  26.311  26.481  1.00  0.00    -0.206 F 
ATOM     76  C   UNL A   1      44.150  24.042  25.878  1.00  0.00     0.059 A 
ATOM     77  C   UNL A   1      43.186  22.405  27.390  1.00  0.00     0.059 A 
ATOM     78  F   UNL A   1      42.262  23.110  29.427  1.00  0.00    -0.206 F 
ATOM     79  C   UNL A   1      43.824  22.722  26.192  1.00  0.00     0.060 A 
BRANCH  79  80
ATOM     80  S   UNL A   1      44.293  21.418  25.034  1.00  0.00     0.124 S 
ATOM     81  O   UNL A   1      43.284  20.402  25.309  1.00  0.00    -0.237 OA
ATOM     82  O   UNL A   1      44.181  22.098  23.747  1.00  0.00    -0.237 OA
ATOM     83  O   UNL A   1      45.655  21.082  25.439  1.00  0.00    -0.744 OA
ENDBRANCH  79  80
ENDBRANCH  47  72
BRANCH  59  84
ATOM     84  C   UNL A   1      46.666  27.387  33.476  1.00  0.00     0.058 A 
ATOM     85  C   UNL A   1      47.883  27.986  33.120  1.00  0.00     0.135 A 
ATOM     86  C   UNL A   1      46.675  26.460  34.531  1.00  0.00     0.135 A 
ATOM     87  F   UNL A   1      47.932  28.874  32.113  1.00  0.00    -0.206 F 
ATOM     88  C   UNL A   1      49.068  27.665  33.774  1.00  0.00     0.059 A 
ATOM     89  C   UNL A   1      47.841  26.148  35.221  1.00  0.00     0.059 A 
ATOM     90  F   UNL A   1      45.535  25.865  34.920  1.00  0.00    -0.206 F 
ATOM     91  C   UNL A   1      49.036  26.748  34.828  1.00  0.00     0.060 A 
BRANCH  91  92
ATOM     92  S   UNL A   1      50.574  26.374  35.696  1.00  0.00     0.124 S 
ATOM     93  O   UNL A   1      50.079  25.947  37.000  1.00  0.00    -0.237 OA
ATOM     94  O   UNL A   1      51.154  25.327  34.862  1.00  0.00    -0.237 OA
ATOM     95  O   UNL A   1      51.290  27.646  35.682  1.00  0.00    -0.744 OA
ENDBRANCH  91  92
ENDBRANCH  59  84
ENDBRANCH  33  34
ENDBRANCH  25  28
ENDBRANCH  23  24
ENDBRANCH  22  23
ENDBRANCH   1  22
TORSDOF 17
ENDMDL
