MODEL 1
REMARK VINA RESULT:     -12.5      0.000      0.000
REMARK SMILES Cc1[nH]c2c(C(=O)N3CC[C@H](O)C[C@@H]3C(=O)NCCCNC(=O)c3ccc(-c4c5nc(c(-c6c(F)cc(S(=O)(=O)[O-])cc6F)c6ccc([nH]6)c(-c6c(F)cc(S(=O)(=O)[O-])cc6F)c6nc(c(-c7c(F)cc(S(=O)(=O)[O-])cc7F)c7ccc4[nH]7)C=C6)C=C5)cc3)cccc2c1C
REMARK SMILES IDX 19 1 18 2 17 3 15 4 16 5 14 7 8 8 9 9 10 10 13 11 11 12 6 13
REMARK SMILES IDX 7 14 5 15 1 16 2 17 3 18 94 19 4 20 93 22 95 23 92 24 90 25
REMARK SMILES IDX 91 26 12 27 20 29 21 30 22 31 23 33 24 34 25 35 89 36 26 37
REMARK SMILES IDX 88 38 27 39 28 40 29 41 82 42 30 43 87 44 81 45 83 46 31 47
REMARK SMILES IDX 86 48 80 49 79 50 32 52 66 53 45 54 65 55 46 56 49 57 64 58
REMARK SMILES IDX 84 59 47 60 48 61 63 63 85 64 50 65 33 66 34 67 43 68 35 69
REMARK SMILES IDX 36 70 42 71 44 72 37 73 38 74 39 75 40 76 41 77 67 78 68 79
REMARK SMILES IDX 77 80 69 81 70 82 76 83 78 84 71 85 72 86 73 87 74 88 75 89
REMARK SMILES IDX 51 90 52 91 61 92 53 93 54 94 60 95 62 96 55 97 56 98 57 99
REMARK SMILES IDX 58 100 59 101
REMARK H PARENT 17 6 3 21 12 28 21 32 83 51 49 62
REMARK Flexibility Score: inf
ROOT
ATOM      1  C   UNL A   1      34.556  29.943  27.238  1.00  0.00     0.042 C 
ENDROOT
BRANCH   1   2
ATOM      2  C   UNL A   1      34.046  28.825  26.346  1.00  0.00     0.117 C 
BRANCH   2   3
ATOM      3  N   UNL A   1      34.216  29.097  24.929  1.00  0.00    -0.354 N 
ATOM      4  C   UNL A   1      33.709  28.486  23.824  1.00  0.00     0.242 C 
ATOM      5  O   UNL A   1      34.295  28.743  22.762  1.00  0.00    -0.273 OA
ATOM      6  H   UNL A   1      34.803  29.862  24.733  1.00  0.00     0.163 HD
BRANCH   4   7
ATOM      7  C   UNL A   1      32.542  27.457  23.819  1.00  0.00     0.177 C 
ATOM      8  N   UNL A   1      31.919  27.114  22.535  1.00  0.00    -0.326 N 
ATOM      9  C   UNL A   1      30.617  27.677  22.176  1.00  0.00     0.123 C 
ATOM     10  C   UNL A   1      29.896  28.582  23.198  1.00  0.00     0.053 C 
ATOM     11  C   UNL A   1      31.523  27.687  24.927  1.00  0.00     0.067 C 
ATOM     12  C   UNL A   1      30.546  28.781  24.566  1.00  0.00     0.118 C 
BRANCH   8  13
ATOM     13  C   UNL A   1      32.230  25.854  22.009  1.00  0.00     0.256 C 
ATOM     14  O   UNL A   1      32.581  25.687  20.844  1.00  0.00    -0.269 OA
BRANCH  13  15
ATOM     15  C   UNL A   1      32.091  24.668  22.883  1.00  0.00     0.064 A 
ATOM     16  C   UNL A   1      36.710  22.815  23.284  1.00  0.00     0.064 C 
ATOM     17  C   UNL A   1      35.254  22.981  23.526  1.00  0.00     0.016 A 
ATOM     18  N   UNL A   1      34.524  23.974  22.925  1.00  0.00    -0.358 N 
ATOM     19  C   UNL A   1      34.394  22.265  24.340  1.00  0.00    -0.023 A 
ATOM     20  C   UNL A   1      33.195  23.885  23.261  1.00  0.00     0.059 A 
ATOM     21  H   UNL A   1      34.903  24.661  22.328  1.00  0.00     0.166 HD
ATOM     22  C   UNL A   1      33.094  22.852  24.195  1.00  0.00     0.003 A 
ATOM     23  C   UNL A   1      34.751  21.120  25.219  1.00  0.00     0.047 C 
ATOM     24  C   UNL A   1      31.842  22.605  24.795  1.00  0.00     0.010 A 
ATOM     25  C   UNL A   1      30.865  24.419  23.517  1.00  0.00     0.016 A 
ATOM     26  C   UNL A   1      30.740  23.398  24.458  1.00  0.00     0.002 A 
ENDBRANCH  13  15
ENDBRANCH   8  13
BRANCH  12  27
ATOM     27  O   UNL A   1      31.205  30.042  24.603  1.00  0.00    -0.393 OA
ATOM     28  H   UNL A   1      30.551  30.751  24.513  1.00  0.00     0.210 HD
ENDBRANCH  12  27
ENDBRANCH   4   7
ENDBRANCH   2   3
ENDBRANCH   1   2
BRANCH   1  29
ATOM     29  C   UNL A   1      35.520  29.460  28.307  1.00  0.00     0.118 C 
BRANCH  29  30
ATOM     30  N   UNL A   1      35.501  30.290  29.506  1.00  0.00    -0.352 N 
ATOM     31  C   UNL A   1      36.506  30.678  30.359  1.00  0.00     0.251 C 
ATOM     32  H   UNL A   1      34.612  30.635  29.746  1.00  0.00     0.163 HD
ATOM     33  O   UNL A   1      36.218  31.257  31.404  1.00  0.00    -0.269 OA
BRANCH  31  34
ATOM     34  C   UNL A   1      37.916  30.366  30.048  1.00  0.00     0.039 A 
ATOM     35  C   UNL A   1      38.720  29.770  31.024  1.00  0.00     0.014 A 
ATOM     36  C   UNL A   1      38.443  30.648  28.791  1.00  0.00     0.014 A 
ATOM     37  C   UNL A   1      40.019  29.374  30.701  1.00  0.00     0.010 A 
ATOM     38  C   UNL A   1      39.677  30.130  28.430  1.00  0.00     0.010 A 
ATOM     39  C   UNL A   1      40.491  29.505  29.385  1.00  0.00    -0.014 A 
BRANCH  39  40
ATOM     40  C   UNL A   1      41.843  29.051  28.973  1.00  0.00     0.031 A 
ATOM     41  C   UNL A   1      42.967  30.053  28.918  1.00  0.00     0.074 A 
ATOM     42  C   UNL A   1      42.034  27.785  28.551  1.00  0.00     0.049 A 
ATOM     43  N   UNL A   1      44.164  29.929  28.407  1.00  0.00    -0.248 NA
ATOM     44  C   UNL A   1      42.685  31.395  29.458  1.00  0.00     0.031 C 
ATOM     45  C   UNL A   1      41.008  26.739  28.498  1.00  0.00     0.029 A 
ATOM     46  N   UNL A   1      43.159  27.166  28.067  1.00  0.00    -0.354 N 
ATOM     47  C   UNL A   1      44.751  31.185  28.517  1.00  0.00     0.074 A 
ATOM     48  C   UNL A   1      43.760  32.070  29.084  1.00  0.00     0.031 C 
ATOM     49  C   UNL A   1      41.560  25.604  28.040  1.00  0.00     0.029 A 
ATOM     50  C   UNL A   1      42.962  25.849  27.724  1.00  0.00     0.049 A 
ATOM     51  H   UNL A   1      44.026  27.622  27.975  1.00  0.00     0.167 HD
ATOM     52  C   UNL A   1      46.013  31.560  28.204  1.00  0.00     0.037 A 
ATOM     53  C   UNL A   1      43.818  24.946  27.208  1.00  0.00     0.037 A 
ATOM     54  C   UNL A   1      47.014  30.649  27.718  1.00  0.00     0.049 A 
ATOM     55  C   UNL A   1      45.237  25.365  26.936  1.00  0.00     0.074 A 
ATOM     56  C   UNL A   1      48.346  30.900  27.442  1.00  0.00     0.029 A 
ATOM     57  N   UNL A   1      46.795  29.304  27.459  1.00  0.00    -0.354 N 
ATOM     58  N   UNL A   1      45.788  26.547  27.083  1.00  0.00    -0.248 NA
ATOM     59  C   UNL A   1      46.152  24.331  26.435  1.00  0.00     0.031 C 
ATOM     60  C   UNL A   1      48.928  29.707  26.997  1.00  0.00     0.029 A 
ATOM     61  C   UNL A   1      47.966  28.709  27.029  1.00  0.00     0.049 A 
ATOM     62  H   UNL A   1      45.931  28.842  27.564  1.00  0.00     0.167 HD
ATOM     63  C   UNL A   1      47.122  26.392  26.722  1.00  0.00     0.074 A 
ATOM     64  C   UNL A   1      47.294  25.000  26.356  1.00  0.00     0.031 C 
ATOM     65  C   UNL A   1      48.114  27.315  26.694  1.00  0.00     0.037 A 
BRANCH  52  66
ATOM     66  C   UNL A   1      46.380  33.005  28.403  1.00  0.00     0.058 A 
ATOM     67  C   UNL A   1      46.240  33.950  27.375  1.00  0.00     0.135 A 
ATOM     68  C   UNL A   1      46.878  33.452  29.638  1.00  0.00     0.135 A 
ATOM     69  F   UNL A   1      45.786  33.575  26.168  1.00  0.00    -0.206 F 
ATOM     70  C   UNL A   1      46.619  35.277  27.548  1.00  0.00     0.059 A 
ATOM     71  C   UNL A   1      47.235  34.783  29.843  1.00  0.00     0.059 A 
ATOM     72  F   UNL A   1      47.034  32.592  30.657  1.00  0.00    -0.206 F 
ATOM     73  C   UNL A   1      47.120  35.683  28.784  1.00  0.00     0.060 A 
BRANCH  73  74
ATOM     74  S   UNL A   1      47.615  37.406  28.991  1.00  0.00     0.124 S 
ATOM     75  O   UNL A   1      46.526  38.103  28.315  1.00  0.00    -0.237 OA
ATOM     76  O   UNL A   1      47.654  37.550  30.443  1.00  0.00    -0.237 OA
ATOM     77  O   UNL A   1      48.912  37.469  28.323  1.00  0.00    -0.744 OA
ENDBRANCH  73  74
ENDBRANCH  52  66
BRANCH  53  78
ATOM     78  C   UNL A   1      43.368  23.550  26.956  1.00  0.00     0.058 A 
ATOM     79  C   UNL A   1      43.106  23.107  25.651  1.00  0.00     0.135 A 
ATOM     80  C   UNL A   1      43.210  22.629  28.002  1.00  0.00     0.135 A 
ATOM     81  F   UNL A   1      43.239  23.952  24.617  1.00  0.00    -0.206 F 
ATOM     82  C   UNL A   1      42.686  21.806  25.392  1.00  0.00     0.059 A 
ATOM     83  C   UNL A   1      42.813  21.316  27.766  1.00  0.00     0.059 A 
ATOM     84  F   UNL A   1      43.469  22.996  29.267  1.00  0.00    -0.206 F 
ATOM     85  C   UNL A   1      42.544  20.917  26.457  1.00  0.00     0.060 A 
BRANCH  85  86
ATOM     86  S   UNL A   1      42.046  19.216  26.106  1.00  0.00     0.124 S 
ATOM     87  O   UNL A   1      42.834  18.921  24.914  1.00  0.00    -0.237 OA
ATOM     88  O   UNL A   1      42.447  18.520  27.325  1.00  0.00    -0.237 OA
ATOM     89  O   UNL A   1      40.606  19.325  25.900  1.00  0.00    -0.744 OA
ENDBRANCH  85  86
ENDBRANCH  53  78
BRANCH  65  90
ATOM     90  C   UNL A   1      49.484  26.844  26.302  1.00  0.00     0.058 A 
ATOM     91  C   UNL A   1      50.309  26.152  27.200  1.00  0.00     0.135 A 
ATOM     92  C   UNL A   1      49.943  27.025  24.987  1.00  0.00     0.135 A 
ATOM     93  F   UNL A   1      49.915  25.959  28.469  1.00  0.00    -0.206 F 
ATOM     94  C   UNL A   1      51.552  25.666  26.812  1.00  0.00     0.059 A 
ATOM     95  C   UNL A   1      51.172  26.528  24.571  1.00  0.00     0.059 A 
ATOM     96  F   UNL A   1      49.183  27.673  24.089  1.00  0.00    -0.206 F 
ATOM     97  C   UNL A   1      51.973  25.856  25.494  1.00  0.00     0.060 A 
BRANCH  97  98
ATOM     98  S   UNL A   1      53.567  25.177  24.988  1.00  0.00     0.124 S 
ATOM     99  O   UNL A   1      54.495  26.025  25.728  1.00  0.00    -0.237 OA
ATOM    100  O   UNL A   1      53.476  23.792  25.439  1.00  0.00    -0.237 OA
ATOM    101  O   UNL A   1      53.569  25.358  23.539  1.00  0.00    -0.744 OA
ENDBRANCH  97  98
ENDBRANCH  65  90
ENDBRANCH  39  40
ENDBRANCH  31  34
ENDBRANCH  29  30
ENDBRANCH   1  29
TORSDOF 16
ENDMDL
MODEL 2
REMARK VINA RESULT:     -12.5      0.579      8.115
REMARK SMILES Cc1[nH]c2c(C(=O)N3CC[C@H](O)C[C@@H]3C(=O)NCCCNC(=O)c3ccc(-c4c5nc(c(-c6c(F)cc(S(=O)(=O)[O-])cc6F)c6ccc([nH]6)c(-c6c(F)cc(S(=O)(=O)[O-])cc6F)c6nc(c(-c7c(F)cc(S(=O)(=O)[O-])cc7F)c7ccc4[nH]7)C=C6)C=C5)cc3)cccc2c1C
REMARK SMILES IDX 19 1 18 2 17 3 15 4 16 5 14 7 8 8 9 9 10 10 13 11 11 12 6 13
REMARK SMILES IDX 7 14 5 15 1 16 2 17 3 18 94 19 4 20 93 22 95 23 92 24 90 25
REMARK SMILES IDX 91 26 12 27 20 29 21 30 22 31 23 33 24 34 25 35 89 36 26 37
REMARK SMILES IDX 88 38 27 39 28 40 29 41 82 42 30 43 87 44 81 45 83 46 31 47
REMARK SMILES IDX 86 48 80 49 79 50 32 52 66 53 45 54 65 55 46 56 49 57 64 58
REMARK SMILES IDX 84 59 47 60 48 61 63 63 85 64 50 65 33 66 34 67 43 68 35 69
REMARK SMILES IDX 36 70 42 71 44 72 37 73 38 74 39 75 40 76 41 77 67 78 68 79
REMARK SMILES IDX 77 80 69 81 70 82 76 83 78 84 71 85 72 86 73 87 74 88 75 89
REMARK SMILES IDX 51 90 52 91 61 92 53 93 54 94 60 95 62 96 55 97 56 98 57 99
REMARK SMILES IDX 58 100 59 101
REMARK H PARENT 17 6 3 21 12 28 21 32 83 51 49 62
REMARK Flexibility Score: inf
ROOT
ATOM      1  C   UNL A   1      34.175  29.953  27.350  1.00  0.00     0.042 C 
ENDROOT
BRANCH   1   2
ATOM      2  C   UNL A   1      33.908  28.801  26.396  1.00  0.00     0.117 C 
BRANCH   2   3
ATOM      3  N   UNL A   1      34.089  29.157  24.999  1.00  0.00    -0.354 N 
ATOM      4  C   UNL A   1      33.686  28.548  23.851  1.00  0.00     0.242 C 
ATOM      5  O   UNL A   1      34.273  28.916  22.823  1.00  0.00    -0.273 OA
ATOM      6  H   UNL A   1      34.596  29.989  24.857  1.00  0.00     0.163 HD
BRANCH   4   7
ATOM      7  C   UNL A   1      32.638  27.401  23.761  1.00  0.00     0.177 C 
ATOM      8  N   UNL A   1      32.184  26.974  22.433  1.00  0.00    -0.326 N 
ATOM      9  C   UNL A   1      30.873  27.390  21.934  1.00  0.00     0.123 C 
ATOM     10  C   UNL A   1      29.964  28.229  22.858  1.00  0.00     0.053 C 
ATOM     11  C   UNL A   1      31.497  27.539  24.759  1.00  0.00     0.067 C 
ATOM     12  C   UNL A   1      30.452  28.517  24.276  1.00  0.00     0.118 C 
BRANCH   8  13
ATOM     13  C   UNL A   1      32.675  25.745  21.972  1.00  0.00     0.256 C 
ATOM     14  O   UNL A   1      33.291  25.628  20.916  1.00  0.00    -0.269 OA
BRANCH  13  15
ATOM     15  C   UNL A   1      32.406  24.531  22.772  1.00  0.00     0.064 A 
ATOM     16  C   UNL A   1      36.903  22.561  23.679  1.00  0.00     0.064 C 
ATOM     17  C   UNL A   1      35.431  22.750  23.742  1.00  0.00     0.016 A 
ATOM     18  N   UNL A   1      34.802  23.781  23.094  1.00  0.00    -0.358 N 
ATOM     19  C   UNL A   1      34.462  22.023  24.410  1.00  0.00    -0.023 A 
ATOM     20  C   UNL A   1      33.439  23.709  23.255  1.00  0.00     0.059 A 
ATOM     21  H   UNL A   1      35.265  24.481  22.578  1.00  0.00     0.166 HD
ATOM     22  C   UNL A   1      33.202  22.644  24.126  1.00  0.00     0.003 A 
ATOM     23  C   UNL A   1      34.685  20.837  25.281  1.00  0.00     0.047 C 
ATOM     24  C   UNL A   1      31.879  22.402  24.552  1.00  0.00     0.010 A 
ATOM     25  C   UNL A   1      31.105  24.285  23.236  1.00  0.00     0.016 A 
ATOM     26  C   UNL A   1      30.844  23.232  24.111  1.00  0.00     0.002 A 
ENDBRANCH  13  15
ENDBRANCH   8  13
BRANCH  12  27
ATOM     27  O   UNL A   1      30.969  29.842  24.343  1.00  0.00    -0.393 OA
ATOM     28  H   UNL A   1      30.291  30.469  24.050  1.00  0.00     0.210 HD
ENDBRANCH  12  27
ENDBRANCH   4   7
ENDBRANCH   2   3
ENDBRANCH   1   2
BRANCH   1  29
ATOM     29  C   UNL A   1      35.563  29.910  27.962  1.00  0.00     0.118 C 
BRANCH  29  30
ATOM     30  N   UNL A   1      35.540  29.894  29.421  1.00  0.00    -0.352 N 
ATOM     31  C   UNL A   1      36.539  29.703  30.344  1.00  0.00     0.251 C 
ATOM     32  H   UNL A   1      34.651  30.049  29.813  1.00  0.00     0.163 HD
ATOM     33  O   UNL A   1      36.246  29.575  31.530  1.00  0.00    -0.269 OA
BRANCH  31  34
ATOM     34  C   UNL A   1      37.949  29.609  29.914  1.00  0.00     0.039 A 
ATOM     35  C   UNL A   1      38.920  29.190  30.829  1.00  0.00     0.014 A 
ATOM     36  C   UNL A   1      38.315  29.919  28.607  1.00  0.00     0.014 A 
ATOM     37  C   UNL A   1      40.235  28.995  30.400  1.00  0.00     0.010 A 
ATOM     38  C   UNL A   1      39.581  29.591  28.150  1.00  0.00     0.010 A 
ATOM     39  C   UNL A   1      40.564  29.144  29.043  1.00  0.00    -0.014 A 
BRANCH  39  40
ATOM     40  C   UNL A   1      41.932  28.897  28.522  1.00  0.00     0.031 A 
ATOM     41  C   UNL A   1      42.291  27.518  28.031  1.00  0.00     0.074 A 
ATOM     42  C   UNL A   1      42.869  29.864  28.589  1.00  0.00     0.049 A 
ATOM     43  N   UNL A   1      43.463  27.027  27.722  1.00  0.00    -0.248 NA
ATOM     44  C   UNL A   1      41.191  26.542  27.932  1.00  0.00     0.031 C 
ATOM     45  C   UNL A   1      42.659  31.220  29.103  1.00  0.00     0.029 A 
ATOM     46  N   UNL A   1      44.195  29.847  28.238  1.00  0.00    -0.354 N 
ATOM     47  C   UNL A   1      43.245  25.681  27.446  1.00  0.00     0.074 A 
ATOM     48  C   UNL A   1      41.844  25.419  27.685  1.00  0.00     0.031 C 
ATOM     49  C   UNL A   1      43.805  31.912  29.003  1.00  0.00     0.029 A 
ATOM     50  C   UNL A   1      44.842  31.040  28.463  1.00  0.00     0.049 A 
ATOM     51  H   UNL A   1      44.642  29.057  27.860  1.00  0.00     0.167 HD
ATOM     52  C   UNL A   1      44.126  24.755  27.002  1.00  0.00     0.037 A 
ATOM     53  C   UNL A   1      46.128  31.385  28.261  1.00  0.00     0.037 A 
ATOM     54  C   UNL A   1      45.498  25.049  26.689  1.00  0.00     0.049 A 
ATOM     55  C   UNL A   1      47.074  30.359  27.697  1.00  0.00     0.074 A 
ATOM     56  C   UNL A   1      46.460  24.210  26.159  1.00  0.00     0.029 A 
ATOM     57  N   UNL A   1      46.094  26.291  26.857  1.00  0.00    -0.354 N 
ATOM     58  N   UNL A   1      46.843  29.101  27.404  1.00  0.00    -0.248 NA
ATOM     59  C   UNL A   1      48.450  30.797  27.431  1.00  0.00     0.031 C 
ATOM     60  C   UNL A   1      47.646  24.941  26.024  1.00  0.00     0.029 A 
ATOM     61  C   UNL A   1      47.411  26.243  26.438  1.00  0.00     0.049 A 
ATOM     62  H   UNL A   1      45.645  27.088  27.222  1.00  0.00     0.167 HD
ATOM     63  C   UNL A   1      48.036  28.606  26.891  1.00  0.00     0.074 A 
ATOM     64  C   UNL A   1      48.984  29.702  26.907  1.00  0.00     0.031 C 
ATOM     65  C   UNL A   1      48.323  27.358  26.445  1.00  0.00     0.037 A 
BRANCH  52  66
ATOM     66  C   UNL A   1      43.621  23.351  26.808  1.00  0.00     0.058 A 
ATOM     67  C   UNL A   1      43.321  22.518  27.897  1.00  0.00     0.135 A 
ATOM     68  C   UNL A   1      43.434  22.831  25.517  1.00  0.00     0.135 A 
ATOM     69  F   UNL A   1      43.498  22.957  29.154  1.00  0.00    -0.206 F 
ATOM     70  C   UNL A   1      42.894  21.206  27.716  1.00  0.00     0.059 A 
ATOM     71  C   UNL A   1      42.979  21.531  25.312  1.00  0.00     0.059 A 
ATOM     72  F   UNL A   1      43.707  23.582  24.438  1.00  0.00    -0.206 F 
ATOM     73  C   UNL A   1      42.731  20.720  26.419  1.00  0.00     0.060 A 
BRANCH  73  74
ATOM     74  S   UNL A   1      42.185  19.014  26.199  1.00  0.00     0.124 S 
ATOM     75  O   UNL A   1      42.427  18.460  27.528  1.00  0.00    -0.237 OA
ATOM     76  O   UNL A   1      40.783  19.178  25.828  1.00  0.00    -0.237 OA
ATOM     77  O   UNL A   1      43.056  18.513  25.141  1.00  0.00    -0.744 OA
ENDBRANCH  73  74
ENDBRANCH  52  66
BRANCH  53  78
ATOM     78  C   UNL A   1      46.584  32.771  28.552  1.00  0.00     0.058 A 
ATOM     79  C   UNL A   1      46.526  33.766  27.565  1.00  0.00     0.135 A 
ATOM     80  C   UNL A   1      47.063  33.136  29.819  1.00  0.00     0.135 A 
ATOM     81  F   UNL A   1      46.078  33.465  26.336  1.00  0.00    -0.206 F 
ATOM     82  C   UNL A   1      46.944  35.069  27.815  1.00  0.00     0.059 A 
ATOM     83  C   UNL A   1      47.465  34.439  30.101  1.00  0.00     0.059 A 
ATOM     84  F   UNL A   1      47.118  32.227  30.806  1.00  0.00    -0.206 F 
ATOM     85  C   UNL A   1      47.412  35.395  29.088  1.00  0.00     0.060 A 
BRANCH  85  86
ATOM     86  S   UNL A   1      47.905  37.102  29.419  1.00  0.00     0.124 S 
ATOM     87  O   UNL A   1      47.169  37.825  28.388  1.00  0.00    -0.237 OA
ATOM     88  O   UNL A   1      47.442  37.296  30.790  1.00  0.00    -0.237 OA
ATOM     89  O   UNL A   1      49.355  37.069  29.254  1.00  0.00    -0.744 OA
ENDBRANCH  85  86
ENDBRANCH  53  78
BRANCH  65  90
ATOM     90  C   UNL A   1      49.700  27.121  25.896  1.00  0.00     0.058 A 
ATOM     91  C   UNL A   1      50.758  26.705  26.717  1.00  0.00     0.135 A 
ATOM     92  C   UNL A   1      49.941  27.242  24.518  1.00  0.00     0.135 A 
ATOM     93  F   UNL A   1      50.577  26.581  28.042  1.00  0.00    -0.206 F 
ATOM     94  C   UNL A   1      52.016  26.430  26.192  1.00  0.00     0.059 A 
ATOM     95  C   UNL A   1      51.183  26.949  23.968  1.00  0.00     0.059 A 
ATOM     96  F   UNL A   1      48.955  27.626  23.691  1.00  0.00    -0.206 F 
ATOM     97  C   UNL A   1      52.217  26.551  24.815  1.00  0.00     0.060 A 
BRANCH  97  98
ATOM     98  S   UNL A   1      53.839  26.142  24.138  1.00  0.00     0.124 S 
ATOM     99  O   UNL A   1      54.626  27.302  24.541  1.00  0.00    -0.237 OA
ATOM    100  O   UNL A   1      54.158  24.892  24.821  1.00  0.00    -0.237 OA
ATOM    101  O   UNL A   1      53.588  26.020  22.705  1.00  0.00    -0.744 OA
ENDBRANCH  97  98
ENDBRANCH  65  90
ENDBRANCH  39  40
ENDBRANCH  31  34
ENDBRANCH  29  30
ENDBRANCH   1  29
TORSDOF 16
ENDMDL
MODEL 3
REMARK VINA RESULT:     -12.4      4.766     10.354
REMARK SMILES Cc1[nH]c2c(C(=O)N3CC[C@H](O)C[C@@H]3C(=O)NCCCNC(=O)c3ccc(-c4c5nc(c(-c6c(F)cc(S(=O)(=O)[O-])cc6F)c6ccc([nH]6)c(-c6c(F)cc(S(=O)(=O)[O-])cc6F)c6nc(c(-c7c(F)cc(S(=O)(=O)[O-])cc7F)c7ccc4[nH]7)C=C6)C=C5)cc3)cccc2c1C
REMARK SMILES IDX 19 1 18 2 17 3 15 4 16 5 14 7 8 8 9 9 10 10 13 11 11 12 6 13
REMARK SMILES IDX 7 14 5 15 1 16 2 17 3 18 94 19 4 20 93 22 95 23 92 24 90 25
REMARK SMILES IDX 91 26 12 27 20 29 21 30 22 31 23 33 24 34 25 35 89 36 26 37
REMARK SMILES IDX 88 38 27 39 28 40 29 41 82 42 30 43 87 44 81 45 83 46 31 47
REMARK SMILES IDX 86 48 80 49 79 50 32 52 66 53 45 54 65 55 46 56 49 57 64 58
REMARK SMILES IDX 84 59 47 60 48 61 63 63 85 64 50 65 33 66 34 67 43 68 35 69
REMARK SMILES IDX 36 70 42 71 44 72 37 73 38 74 39 75 40 76 41 77 67 78 68 79
REMARK SMILES IDX 77 80 69 81 70 82 76 83 78 84 71 85 72 86 73 87 74 88 75 89
REMARK SMILES IDX 51 90 52 91 61 92 53 93 54 94 60 95 62 96 55 97 56 98 57 99
REMARK SMILES IDX 58 100 59 101
REMARK H PARENT 17 6 3 21 12 28 21 32 83 51 49 62
REMARK Flexibility Score: inf
ROOT
ATOM      1  C   UNL A   1      35.635  22.838  24.812  1.00  0.00     0.042 C 
ENDROOT
BRANCH   1   2
ATOM      2  C   UNL A   1      35.128  23.378  23.486  1.00  0.00     0.117 C 
BRANCH   2   3
ATOM      3  N   UNL A   1      34.022  22.612  22.938  1.00  0.00    -0.354 N 
ATOM      4  C   UNL A   1      32.674  22.744  23.077  1.00  0.00     0.242 C 
ATOM      5  O   UNL A   1      32.010  21.748  22.757  1.00  0.00    -0.273 OA
ATOM      6  H   UNL A   1      34.296  21.861  22.363  1.00  0.00     0.163 HD
BRANCH   4   7
ATOM      7  C   UNL A   1      31.948  23.986  23.670  1.00  0.00     0.177 C 
ATOM      8  N   UNL A   1      32.759  25.026  24.314  1.00  0.00    -0.326 N 
ATOM      9  C   UNL A   1      32.812  25.118  25.774  1.00  0.00     0.123 C 
ATOM     10  C   UNL A   1      31.953  24.143  26.607  1.00  0.00     0.053 C 
ATOM     11  C   UNL A   1      30.696  23.638  24.461  1.00  0.00     0.067 C 
ATOM     12  C   UNL A   1      31.032  23.180  25.861  1.00  0.00     0.118 C 
BRANCH   8  13
ATOM     13  C   UNL A   1      32.925  26.219  23.599  1.00  0.00     0.256 C 
ATOM     14  O   UNL A   1      33.879  26.419  22.851  1.00  0.00    -0.269 OA
BRANCH  13  15
ATOM     15  C   UNL A   1      31.930  27.298  23.781  1.00  0.00     0.064 A 
ATOM     16  C   UNL A   1      33.904  30.298  27.249  1.00  0.00     0.064 C 
ATOM     17  C   UNL A   1      32.961  29.805  26.213  1.00  0.00     0.016 A 
ATOM     18  N   UNL A   1      33.180  28.639  25.525  1.00  0.00    -0.358 N 
ATOM     19  C   UNL A   1      31.782  30.355  25.739  1.00  0.00    -0.023 A 
ATOM     20  C   UNL A   1      32.142  28.369  24.666  1.00  0.00     0.059 A 
ATOM     21  H   UNL A   1      33.977  28.070  25.633  1.00  0.00     0.166 HD
ATOM     22  C   UNL A   1      31.275  29.461  24.740  1.00  0.00     0.003 A 
ATOM     23  C   UNL A   1      31.169  31.641  26.165  1.00  0.00     0.047 C 
ATOM     24  C   UNL A   1      30.161  29.497  23.876  1.00  0.00     0.010 A 
ATOM     25  C   UNL A   1      30.831  27.375  22.914  1.00  0.00     0.016 A 
ATOM     26  C   UNL A   1      29.955  28.458  22.963  1.00  0.00     0.002 A 
ENDBRANCH  13  15
ENDBRANCH   8  13
BRANCH  12  27
ATOM     27  O   UNL A   1      31.630  21.889  25.811  1.00  0.00    -0.393 OA
ATOM     28  H   UNL A   1      32.426  21.923  25.259  1.00  0.00     0.210 HD
ENDBRANCH  12  27
ENDBRANCH   4   7
ENDBRANCH   2   3
ENDBRANCH   1   2
BRANCH   1  29
ATOM     29  C   UNL A   1      36.822  23.612  25.356  1.00  0.00     0.118 C 
BRANCH  29  30
ATOM     30  N   UNL A   1      38.011  22.783  25.526  1.00  0.00    -0.352 N 
ATOM     31  C   UNL A   1      39.222  23.042  26.119  1.00  0.00     0.251 C 
ATOM     32  H   UNL A   1      37.930  21.878  25.150  1.00  0.00     0.163 HD
ATOM     33  O   UNL A   1      40.137  22.230  25.998  1.00  0.00    -0.269 OA
BRANCH  31  34
ATOM     34  C   UNL A   1      39.441  24.301  26.860  1.00  0.00     0.039 A 
ATOM     35  C   UNL A   1      38.899  24.449  28.140  1.00  0.00     0.014 A 
ATOM     36  C   UNL A   1      40.191  25.331  26.301  1.00  0.00     0.014 A 
ATOM     37  C   UNL A   1      39.194  25.591  28.887  1.00  0.00     0.010 A 
ATOM     38  C   UNL A   1      40.599  26.394  27.091  1.00  0.00     0.010 A 
ATOM     39  C   UNL A   1      40.089  26.550  28.388  1.00  0.00    -0.014 A 
BRANCH  39  40
ATOM     40  C   UNL A   1      40.481  27.755  29.161  1.00  0.00     0.031 A 
ATOM     41  C   UNL A   1      41.789  27.753  29.909  1.00  0.00     0.074 A 
ATOM     42  C   UNL A   1      39.629  28.793  29.277  1.00  0.00     0.049 A 
ATOM     43  N   UNL A   1      42.238  28.603  30.796  1.00  0.00    -0.248 NA
ATOM     44  C   UNL A   1      42.685  26.607  29.674  1.00  0.00     0.031 C 
ATOM     45  C   UNL A   1      38.306  28.885  28.651  1.00  0.00     0.029 A 
ATOM     46  N   UNL A   1      39.740  29.965  29.981  1.00  0.00    -0.354 N 
ATOM     47  C   UNL A   1      43.436  28.067  31.256  1.00  0.00     0.074 A 
ATOM     48  C   UNL A   1      43.612  26.792  30.600  1.00  0.00     0.031 C 
ATOM     49  C   UNL A   1      37.747  30.063  28.973  1.00  0.00     0.029 A 
ATOM     50  C   UNL A   1      38.646  30.788  29.863  1.00  0.00     0.049 A 
ATOM     51  H   UNL A   1      40.531  30.196  30.520  1.00  0.00     0.167 HD
ATOM     52  C   UNL A   1      44.326  28.604  32.123  1.00  0.00     0.037 A 
ATOM     53  C   UNL A   1      38.396  31.991  30.417  1.00  0.00     0.037 A 
ATOM     54  C   UNL A   1      44.179  29.910  32.704  1.00  0.00     0.049 A 
ATOM     55  C   UNL A   1      39.432  32.602  31.320  1.00  0.00     0.074 A 
ATOM     56  C   UNL A   1      45.054  30.589  33.533  1.00  0.00     0.029 A 
ATOM     57  N   UNL A   1      43.091  30.746  32.496  1.00  0.00    -0.354 N 
ATOM     58  N   UNL A   1      40.578  32.101  31.714  1.00  0.00    -0.248 NA
ATOM     59  C   UNL A   1      39.147  33.942  31.849  1.00  0.00     0.031 C 
ATOM     60  C   UNL A   1      44.485  31.830  33.841  1.00  0.00     0.029 A 
ATOM     61  C   UNL A   1      43.272  31.936  33.177  1.00  0.00     0.049 A 
ATOM     62  H   UNL A   1      42.305  30.524  31.945  1.00  0.00     0.167 HD
ATOM     63  C   UNL A   1      41.165  33.075  32.513  1.00  0.00     0.074 A 
ATOM     64  C   UNL A   1      40.250  34.198  32.539  1.00  0.00     0.031 C 
ATOM     65  C   UNL A   1      42.353  33.045  33.166  1.00  0.00     0.037 A 
BRANCH  52  66
ATOM     66  C   UNL A   1      45.542  27.788  32.468  1.00  0.00     0.058 A 
ATOM     67  C   UNL A   1      46.734  27.894  31.734  1.00  0.00     0.135 A 
ATOM     68  C   UNL A   1      45.517  26.888  33.546  1.00  0.00     0.135 A 
ATOM     69  F   UNL A   1      46.809  28.725  30.681  1.00  0.00    -0.206 F 
ATOM     70  C   UNL A   1      47.844  27.109  32.028  1.00  0.00     0.059 A 
ATOM     71  C   UNL A   1      46.625  26.114  33.878  1.00  0.00     0.059 A 
ATOM     72  F   UNL A   1      44.403  26.744  34.281  1.00  0.00    -0.206 F 
ATOM     73  C   UNL A   1      47.778  26.218  33.099  1.00  0.00     0.060 A 
BRANCH  73  74
ATOM     74  S   UNL A   1      49.223  25.199  33.464  1.00  0.00     0.124 S 
ATOM     75  O   UNL A   1      48.604  24.032  34.084  1.00  0.00    -0.237 OA
ATOM     76  O   UNL A   1      49.798  24.983  32.140  1.00  0.00    -0.237 OA
ATOM     77  O   UNL A   1      50.013  26.040  34.358  1.00  0.00    -0.744 OA
ENDBRANCH  73  74
ENDBRANCH  52  66
BRANCH  53  78
ATOM     78  C   UNL A   1      37.133  32.711  30.099  1.00  0.00     0.058 A 
ATOM     79  C   UNL A   1      35.961  32.457  30.826  1.00  0.00     0.135 A 
ATOM     80  C   UNL A   1      37.074  33.678  29.084  1.00  0.00     0.135 A 
ATOM     81  F   UNL A   1      35.967  31.539  31.805  1.00  0.00    -0.206 F 
ATOM     82  C   UNL A   1      34.770  33.119  30.548  1.00  0.00     0.059 A 
ATOM     83  C   UNL A   1      35.901  34.371  28.801  1.00  0.00     0.059 A 
ATOM     84  F   UNL A   1      38.174  33.975  28.372  1.00  0.00    -0.206 F 
ATOM     85  C   UNL A   1      34.751  34.077  29.533  1.00  0.00     0.060 A 
BRANCH  85  86
ATOM     86  S   UNL A   1      33.212  34.968  29.212  1.00  0.00     0.124 S 
ATOM     87  O   UNL A   1      32.595  34.130  28.191  1.00  0.00    -0.237 OA
ATOM     88  O   UNL A   1      32.570  34.955  30.523  1.00  0.00    -0.237 OA
ATOM     89  O   UNL A   1      33.672  36.278  28.761  1.00  0.00    -0.744 OA
ENDBRANCH  85  86
ENDBRANCH  53  78
BRANCH  65  90
ATOM     90  C   UNL A   1      42.755  34.277  33.924  1.00  0.00     0.058 A 
ATOM     91  C   UNL A   1      42.486  34.418  35.293  1.00  0.00     0.135 A 
ATOM     92  C   UNL A   1      43.484  35.293  33.285  1.00  0.00     0.135 A 
ATOM     93  F   UNL A   1      41.788  33.475  35.945  1.00  0.00    -0.206 F 
ATOM     94  C   UNL A   1      42.914  35.535  36.002  1.00  0.00     0.059 A 
ATOM     95  C   UNL A   1      43.941  36.407  33.979  1.00  0.00     0.059 A 
ATOM     96  F   UNL A   1      43.775  35.197  31.977  1.00  0.00    -0.206 F 
ATOM     97  C   UNL A   1      43.645  36.522  35.337  1.00  0.00     0.060 A 
BRANCH  97  98
ATOM     98  S   UNL A   1      44.238  37.942  36.279  1.00  0.00     0.124 S 
ATOM     99  O   UNL A   1      45.642  37.598  36.475  1.00  0.00    -0.237 OA
ATOM    100  O   UNL A   1      43.979  39.053  35.369  1.00  0.00    -0.237 OA
ATOM    101  O   UNL A   1      43.412  37.921  37.483  1.00  0.00    -0.744 OA
ENDBRANCH  97  98
ENDBRANCH  65  90
ENDBRANCH  39  40
ENDBRANCH  31  34
ENDBRANCH  29  30
ENDBRANCH   1  29
TORSDOF 16
ENDMDL
