MODEL 1
REMARK VINA RESULT:     -13.8      0.000      0.000
REMARK SMILES O=C(NCCCNC(=O)c1ccc(N2C(=O)C[C@H](c3c[nH]c4ccccc34)C2=O)cc1O)c1ccc(-c2c3nc(c(-c4c(F)cc(S(=O)(=O)[O-])cc4F)c4ccc([nH]4)c(-c4c(F)cc(S(=O)(=O)[O-])cc4F)c4nc(c(-c5c(F)cc(S(=O)(=O)[O-])cc5F)c5ccc2[nH]5)C=C4)C=C3)cc1
REMARK SMILES IDX 4 1 3 2 1 3 2 4 33 6 34 7 98 8 35 9 97 10 36 11 37 12 38 13
REMARK SMILES IDX 91 14 39 15 96 16 90 17 92 18 40 19 95 20 89 21 88 22 41 24
REMARK SMILES IDX 75 25 54 26 74 27 55 28 58 29 73 30 93 31 56 32 57 33 72 35
REMARK SMILES IDX 94 36 59 37 42 38 43 39 52 40 44 41 45 42 51 43 53 44 46 45
REMARK SMILES IDX 47 46 48 47 49 48 50 49 76 50 77 51 86 52 78 53 79 54 85 55
REMARK SMILES IDX 87 56 80 57 81 58 82 59 83 60 84 61 60 62 61 63 70 64 62 65
REMARK SMILES IDX 63 66 69 67 71 68 64 69 65 70 66 71 67 72 68 73 5 74 6 75
REMARK SMILES IDX 7 76 8 77 9 79 10 80 11 81 31 82 12 83 30 84 13 85 32 86
REMARK SMILES IDX 14 88 15 89 28 90 16 91 17 92 18 93 29 94 19 95 20 96 27 97
REMARK SMILES IDX 21 98 22 99 26 100 23 102 25 103 24 104
REMARK H PARENT 3 5 92 23 58 34 7 78 32 87 21 101
REMARK Flexibility Score: inf
ROOT
ATOM      1  C   UNL A   1      40.750  23.103  27.371  1.00  0.00     0.118 C 
ENDROOT
BRANCH   1   2
ATOM      2  N   UNL A   1      41.286  23.879  26.260  1.00  0.00    -0.352 N 
ATOM      3  O   UNL A   1      41.729  25.692  25.005  1.00  0.00    -0.269 OA
ATOM      4  C   UNL A   1      41.418  25.238  26.104  1.00  0.00     0.251 C 
ATOM      5  H   UNL A   1      41.605  23.342  25.499  1.00  0.00     0.163 HD
BRANCH   4   6
ATOM      6  C   UNL A   1      41.164  26.153  27.237  1.00  0.00     0.039 A 
ATOM      7  C   UNL A   1      41.944  27.294  27.424  1.00  0.00     0.014 A 
ATOM      8  C   UNL A   1      40.115  25.877  28.120  1.00  0.00     0.014 A 
ATOM      9  C   UNL A   1      41.798  28.051  28.580  1.00  0.00     0.010 A 
ATOM     10  C   UNL A   1      39.898  26.704  29.227  1.00  0.00     0.010 A 
ATOM     11  C   UNL A   1      40.763  27.777  29.489  1.00  0.00    -0.014 A 
BRANCH  11  12
ATOM     12  C   UNL A   1      40.585  28.665  30.667  1.00  0.00     0.031 A 
ATOM     13  C   UNL A   1      41.493  28.570  31.863  1.00  0.00     0.074 A 
ATOM     14  C   UNL A   1      39.616  29.602  30.624  1.00  0.00     0.049 A 
ATOM     15  N   UNL A   1      41.499  29.300  32.950  1.00  0.00    -0.248 NA
ATOM     16  C   UNL A   1      42.522  27.519  31.844  1.00  0.00     0.031 C 
ATOM     17  C   UNL A   1      38.665  29.779  29.523  1.00  0.00     0.029 A 
ATOM     18  N   UNL A   1      39.287  30.597  31.508  1.00  0.00    -0.354 N 
ATOM     19  C   UNL A   1      42.511  28.784  33.752  1.00  0.00     0.074 A 
ATOM     20  C   UNL A   1      43.083  27.664  33.036  1.00  0.00     0.031 C 
ATOM     21  C   UNL A   1      37.904  30.857  29.767  1.00  0.00     0.029 A 
ATOM     22  C   UNL A   1      38.266  31.406  31.067  1.00  0.00     0.049 A 
ATOM     23  H   UNL A   1      39.737  30.721  32.375  1.00  0.00     0.167 HD
ATOM     24  C   UNL A   1      42.927  29.212  34.969  1.00  0.00     0.037 A 
ATOM     25  C   UNL A   1      37.677  32.468  31.647  1.00  0.00     0.037 A 
ATOM     26  C   UNL A   1      42.366  30.343  35.665  1.00  0.00     0.049 A 
ATOM     27  C   UNL A   1      38.155  32.918  32.996  1.00  0.00     0.074 A 
ATOM     28  C   UNL A   1      42.738  30.874  36.888  1.00  0.00     0.029 A 
ATOM     29  N   UNL A   1      41.312  31.117  35.200  1.00  0.00    -0.354 N 
ATOM     30  N   UNL A   1      39.126  32.429  33.729  1.00  0.00    -0.248 NA
ATOM     31  C   UNL A   1      37.454  34.058  33.599  1.00  0.00     0.031 C 
ATOM     32  C   UNL A   1      41.887  31.947  37.178  1.00  0.00     0.029 A 
ATOM     33  C   UNL A   1      41.010  32.111  36.119  1.00  0.00     0.049 A 
ATOM     34  H   UNL A   1      40.847  30.982  34.343  1.00  0.00     0.167 HD
ATOM     35  C   UNL A   1      39.161  33.209  34.877  1.00  0.00     0.074 A 
ATOM     36  C   UNL A   1      38.127  34.213  34.731  1.00  0.00     0.031 C 
ATOM     37  C   UNL A   1      39.974  33.100  35.957  1.00  0.00     0.037 A 
BRANCH  24  38
ATOM     38  C   UNL A   1      44.034  28.443  35.638  1.00  0.00     0.058 A 
ATOM     39  C   UNL A   1      45.387  28.748  35.416  1.00  0.00     0.135 A 
ATOM     40  C   UNL A   1      43.738  27.408  36.541  1.00  0.00     0.135 A 
ATOM     41  F   UNL A   1      45.728  29.719  34.553  1.00  0.00    -0.206 F 
ATOM     42  C   UNL A   1      46.406  28.035  36.040  1.00  0.00     0.059 A 
ATOM     43  C   UNL A   1      44.742  26.696  37.193  1.00  0.00     0.059 A 
ATOM     44  F   UNL A   1      42.462  27.076  36.793  1.00  0.00    -0.206 F 
ATOM     45  C   UNL A   1      46.074  27.006  36.923  1.00  0.00     0.060 A 
BRANCH  45  46
ATOM     46  S   UNL A   1      47.407  26.080  37.715  1.00  0.00     0.124 S 
ATOM     47  O   UNL A   1      46.979  24.703  37.483  1.00  0.00    -0.237 OA
ATOM     48  O   UNL A   1      48.581  26.513  36.964  1.00  0.00    -0.237 OA
ATOM     49  O   UNL A   1      47.355  26.527  39.104  1.00  0.00    -0.744 OA
ENDBRANCH  45  46
ENDBRANCH  24  38
BRANCH  25  50
ATOM     50  C   UNL A   1      36.573  33.171  30.944  1.00  0.00     0.058 A 
ATOM     51  C   UNL A   1      35.240  33.008  31.346  1.00  0.00     0.135 A 
ATOM     52  C   UNL A   1      36.834  34.049  29.879  1.00  0.00     0.135 A 
ATOM     53  F   UNL A   1      34.943  32.178  32.358  1.00  0.00    -0.206 F 
ATOM     54  C   UNL A   1      34.202  33.684  30.715  1.00  0.00     0.059 A 
ATOM     55  C   UNL A   1      35.816  34.755  29.249  1.00  0.00     0.059 A 
ATOM     56  F   UNL A   1      38.095  34.252  29.468  1.00  0.00    -0.206 F 
ATOM     57  C   UNL A   1      34.501  34.558  29.669  1.00  0.00     0.060 A 
BRANCH  57  58
ATOM     58  S   UNL A   1      33.155  35.478  28.891  1.00  0.00     0.124 S 
ATOM     59  O   UNL A   1      32.491  34.431  28.125  1.00  0.00    -0.237 OA
ATOM     60  O   UNL A   1      32.422  35.988  30.046  1.00  0.00    -0.237 OA
ATOM     61  O   UNL A   1      33.854  36.492  28.106  1.00  0.00    -0.744 OA
ENDBRANCH  57  58
ENDBRANCH  25  50
BRANCH  37  62
ATOM     62  C   UNL A   1      39.786  34.110  37.053  1.00  0.00     0.058 A 
ATOM     63  C   UNL A   1      40.388  35.376  36.994  1.00  0.00     0.135 A 
ATOM     64  C   UNL A   1      38.977  33.816  38.161  1.00  0.00     0.135 A 
ATOM     65  F   UNL A   1      41.179  35.702  35.960  1.00  0.00    -0.206 F 
ATOM     66  C   UNL A   1      40.215  36.308  38.013  1.00  0.00     0.059 A 
ATOM     67  C   UNL A   1      38.771  34.741  39.179  1.00  0.00     0.059 A 
ATOM     68  F   UNL A   1      38.373  32.620  38.260  1.00  0.00    -0.206 F 
ATOM     69  C   UNL A   1      39.407  35.980  39.103  1.00  0.00     0.060 A 
BRANCH  69  70
ATOM     70  S   UNL A   1      39.173  37.203  40.410  1.00  0.00     0.124 S 
ATOM     71  O   UNL A   1      38.616  36.384  41.481  1.00  0.00    -0.237 OA
ATOM     72  O   UNL A   1      40.530  37.694  40.627  1.00  0.00    -0.237 OA
ATOM     73  O   UNL A   1      38.254  38.167  39.811  1.00  0.00    -0.744 OA
ENDBRANCH  69  70
ENDBRANCH  37  62
ENDBRANCH  11  12
ENDBRANCH   4   6
ENDBRANCH   1   2
BRANCH   1  74
ATOM     74  C   UNL A   1      40.042  21.834  26.918  1.00  0.00     0.042 C 
BRANCH  74  75
ATOM     75  C   UNL A   1      38.915  22.083  25.927  1.00  0.00     0.118 C 
BRANCH  75  76
ATOM     76  N   UNL A   1      38.251  20.850  25.531  1.00  0.00    -0.352 N 
ATOM     77  C   UNL A   1      36.971  20.675  25.073  1.00  0.00     0.255 C 
ATOM     78  H   UNL A   1      38.794  20.033  25.603  1.00  0.00     0.163 HD
ATOM     79  O   UNL A   1      36.520  19.547  24.890  1.00  0.00    -0.269 OA
BRANCH  77  80
ATOM     80  C   UNL A   1      36.107  21.847  24.857  1.00  0.00     0.081 A 
ATOM     81  C   UNL A   1      36.293  22.591  23.692  1.00  0.00     0.020 A 
ATOM     82  C   UNL A   1      35.134  22.235  25.780  1.00  0.00     0.130 A 
ATOM     83  C   UNL A   1      35.475  23.696  23.431  1.00  0.00     0.028 A 
ATOM     84  C   UNL A   1      34.331  23.346  25.522  1.00  0.00     0.073 A 
ATOM     85  C   UNL A   1      34.485  24.096  24.343  1.00  0.00     0.055 A 
BRANCH  82  86
ATOM     86  O   UNL A   1      34.947  21.521  26.932  1.00  0.00    -0.507 OA
ATOM     87  H   UNL A   1      34.197  20.969  27.026  1.00  0.00     0.293 HD
ENDBRANCH  82  86
BRANCH  85  88
ATOM     88  N   UNL A   1      33.679  25.245  24.102  1.00  0.00    -0.250 N 
ATOM     89  C   UNL A   1      33.666  26.354  24.916  1.00  0.00     0.234 C 
ATOM     90  C   UNL A   1      32.847  25.406  23.012  1.00  0.00     0.241 C 
ATOM     91  O   UNL A   1      34.267  26.546  25.967  1.00  0.00    -0.274 OA
ATOM     92  C   UNL A   1      32.880  27.437  24.254  1.00  0.00     0.119 C 
ATOM     93  C   UNL A   1      32.138  26.735  23.134  1.00  0.00     0.121 C 
ATOM     94  O   UNL A   1      32.647  24.621  22.092  1.00  0.00    -0.273 OA
BRANCH  93  95
ATOM     95  C   UNL A   1      30.666  26.647  23.417  1.00  0.00    -0.010 A 
ATOM     96  C   UNL A   1      29.949  25.628  24.016  1.00  0.00     0.088 A 
ATOM     97  C   UNL A   1      29.723  27.689  23.122  1.00  0.00     0.003 A 
ATOM     98  N   UNL A   1      28.632  26.007  24.089  1.00  0.00    -0.361 N 
ATOM     99  C   UNL A   1      28.472  27.271  23.572  1.00  0.00     0.046 A 
ATOM    100  C   UNL A   1      29.834  28.962  22.526  1.00  0.00     0.010 A 
ATOM    101  H   UNL A   1      27.907  25.454  24.460  1.00  0.00     0.166 HD
ATOM    102  C   UNL A   1      27.326  28.068  23.465  1.00  0.00     0.026 A 
ATOM    103  C   UNL A   1      28.701  29.773  22.411  1.00  0.00     0.001 A 
ATOM    104  C   UNL A   1      27.466  29.331  22.878  1.00  0.00     0.002 A 
ENDBRANCH  93  95
ENDBRANCH  85  88
ENDBRANCH  77  80
ENDBRANCH  75  76
ENDBRANCH  74  75
ENDBRANCH   1  74
TORSDOF 16
ENDMDL
MODEL 2
REMARK VINA RESULT:     -13.7      6.484     12.213
REMARK SMILES O=C(NCCCNC(=O)c1ccc(N2C(=O)C[C@H](c3c[nH]c4ccccc34)C2=O)cc1O)c1ccc(-c2c3nc(c(-c4c(F)cc(S(=O)(=O)[O-])cc4F)c4ccc([nH]4)c(-c4c(F)cc(S(=O)(=O)[O-])cc4F)c4nc(c(-c5c(F)cc(S(=O)(=O)[O-])cc5F)c5ccc2[nH]5)C=C4)C=C3)cc1
REMARK SMILES IDX 4 1 3 2 1 3 2 4 33 6 34 7 98 8 35 9 97 10 36 11 37 12 38 13
REMARK SMILES IDX 91 14 39 15 96 16 90 17 92 18 40 19 95 20 89 21 88 22 41 24
REMARK SMILES IDX 75 25 54 26 74 27 55 28 58 29 73 30 93 31 56 32 57 33 72 35
REMARK SMILES IDX 94 36 59 37 42 38 43 39 52 40 44 41 45 42 51 43 53 44 46 45
REMARK SMILES IDX 47 46 48 47 49 48 50 49 76 50 77 51 86 52 78 53 79 54 85 55
REMARK SMILES IDX 87 56 80 57 81 58 82 59 83 60 84 61 60 62 61 63 70 64 62 65
REMARK SMILES IDX 63 66 69 67 71 68 64 69 65 70 66 71 67 72 68 73 5 74 6 75
REMARK SMILES IDX 7 76 8 77 9 79 10 80 11 81 31 82 12 83 30 84 13 85 32 86
REMARK SMILES IDX 14 88 15 89 28 90 16 91 17 92 18 93 29 94 19 95 20 96 27 97
REMARK SMILES IDX 21 98 22 99 26 100 23 102 25 103 24 104
REMARK H PARENT 3 5 92 23 58 34 7 78 32 87 21 101
REMARK Flexibility Score: inf
ROOT
ATOM      1  C   UNL A   1      35.304  29.383  27.812  1.00  0.00     0.118 C 
ENDROOT
BRANCH   1   2
ATOM      2  N   UNL A   1      35.313  30.012  29.126  1.00  0.00    -0.352 N 
ATOM      3  O   UNL A   1      36.095  30.598  31.153  1.00  0.00    -0.269 OA
ATOM      4  C   UNL A   1      36.344  30.207  30.015  1.00  0.00     0.251 C 
ATOM      5  H   UNL A   1      34.440  30.353  29.426  1.00  0.00     0.163 HD
BRANCH   4   6
ATOM      6  C   UNL A   1      37.741  29.925  29.619  1.00  0.00     0.039 A 
ATOM      7  C   UNL A   1      38.156  30.085  28.297  1.00  0.00     0.014 A 
ATOM      8  C   UNL A   1      38.659  29.511  30.590  1.00  0.00     0.014 A 
ATOM      9  C   UNL A   1      39.422  29.661  27.913  1.00  0.00     0.010 A 
ATOM     10  C   UNL A   1      39.969  29.189  30.218  1.00  0.00     0.010 A 
ATOM     11  C   UNL A   1      40.351  29.223  28.870  1.00  0.00    -0.014 A 
BRANCH  11  12
ATOM     12  C   UNL A   1      41.724  28.865  28.429  1.00  0.00     0.031 A 
ATOM     13  C   UNL A   1      42.841  29.873  28.454  1.00  0.00     0.074 A 
ATOM     14  C   UNL A   1      41.966  27.594  28.051  1.00  0.00     0.049 A 
ATOM     15  N   UNL A   1      44.103  29.708  28.145  1.00  0.00    -0.248 NA
ATOM     16  C   UNL A   1      42.502  31.243  28.870  1.00  0.00     0.031 C 
ATOM     17  C   UNL A   1      40.958  26.532  27.972  1.00  0.00     0.029 A 
ATOM     18  N   UNL A   1      43.132  26.969  27.689  1.00  0.00    -0.354 N 
ATOM     19  C   UNL A   1      44.702  30.953  28.306  1.00  0.00     0.074 A 
ATOM     20  C   UNL A   1      43.661  31.869  28.718  1.00  0.00     0.031 C 
ATOM     21  C   UNL A   1      41.558  25.377  27.652  1.00  0.00     0.029 A 
ATOM     22  C   UNL A   1      42.978  25.626  27.436  1.00  0.00     0.049 A 
ATOM     23  H   UNL A   1      43.996  27.435  27.618  1.00  0.00     0.167 HD
ATOM     24  C   UNL A   1      46.003  31.294  28.133  1.00  0.00     0.037 A 
ATOM     25  C   UNL A   1      43.877  24.696  27.063  1.00  0.00     0.037 A 
ATOM     26  C   UNL A   1      47.038  30.370  27.744  1.00  0.00     0.049 A 
ATOM     27  C   UNL A   1      45.308  25.102  26.875  1.00  0.00     0.074 A 
ATOM     28  C   UNL A   1      48.390  30.612  27.571  1.00  0.00     0.029 A 
ATOM     29  N   UNL A   1      46.836  29.025  27.466  1.00  0.00    -0.354 N 
ATOM     30  N   UNL A   1      45.858  26.280  27.051  1.00  0.00    -0.248 NA
ATOM     31  C   UNL A   1      46.239  24.058  26.432  1.00  0.00     0.031 C 
ATOM     32  C   UNL A   1      48.999  29.422  27.155  1.00  0.00     0.029 A 
ATOM     33  C   UNL A   1      48.036  28.429  27.107  1.00  0.00     0.049 A 
ATOM     34  H   UNL A   1      45.969  28.561  27.516  1.00  0.00     0.167 HD
ATOM     35  C   UNL A   1      47.204  26.116  26.750  1.00  0.00     0.074 A 
ATOM     36  C   UNL A   1      47.387  24.722  26.401  1.00  0.00     0.031 C 
ATOM     37  C   UNL A   1      48.198  27.040  26.759  1.00  0.00     0.037 A 
BRANCH  24  38
ATOM     38  C   UNL A   1      46.380  32.736  28.345  1.00  0.00     0.058 A 
ATOM     39  C   UNL A   1      46.321  33.678  27.306  1.00  0.00     0.135 A 
ATOM     40  C   UNL A   1      46.775  33.189  29.615  1.00  0.00     0.135 A 
ATOM     41  F   UNL A   1      45.964  33.297  26.068  1.00  0.00    -0.206 F 
ATOM     42  C   UNL A   1      46.669  35.010  27.510  1.00  0.00     0.059 A 
ATOM     43  C   UNL A   1      47.106  34.522  29.847  1.00  0.00     0.059 A 
ATOM     44  F   UNL A   1      46.846  32.332  30.646  1.00  0.00    -0.206 F 
ATOM     45  C   UNL A   1      47.065  35.422  28.783  1.00  0.00     0.060 A 
BRANCH  45  46
ATOM     46  S   UNL A   1      47.527  37.150  29.030  1.00  0.00     0.124 S 
ATOM     47  O   UNL A   1      46.478  37.839  28.282  1.00  0.00    -0.237 OA
ATOM     48  O   UNL A   1      47.462  37.288  30.482  1.00  0.00    -0.237 OA
ATOM     49  O   UNL A   1      48.865  37.232  28.454  1.00  0.00    -0.744 OA
ENDBRANCH  45  46
ENDBRANCH  24  38
BRANCH  25  50
ATOM     50  C   UNL A   1      43.436  23.294  26.847  1.00  0.00     0.058 A 
ATOM     51  C   UNL A   1      43.332  22.760  25.556  1.00  0.00     0.135 A 
ATOM     52  C   UNL A   1      43.148  22.449  27.932  1.00  0.00     0.135 A 
ATOM     53  F   UNL A   1      43.595  23.530  24.489  1.00  0.00    -0.206 F 
ATOM     54  C   UNL A   1      42.950  21.440  25.343  1.00  0.00     0.059 A 
ATOM     55  C   UNL A   1      42.789  21.119  27.746  1.00  0.00     0.059 A 
ATOM     56  F   UNL A   1      43.251  22.908  29.189  1.00  0.00    -0.206 F 
ATOM     57  C   UNL A   1      42.684  20.626  26.445  1.00  0.00     0.060 A 
BRANCH  57  58
ATOM     58  S   UNL A   1      42.245  18.896  26.166  1.00  0.00     0.124 S 
ATOM     59  O   UNL A   1      40.849  19.011  25.762  1.00  0.00    -0.237 OA
ATOM     60  O   UNL A   1      43.184  18.506  25.118  1.00  0.00    -0.237 OA
ATOM     61  O   UNL A   1      42.480  18.278  27.467  1.00  0.00    -0.744 OA
ENDBRANCH  57  58
ENDBRANCH  25  50
BRANCH  37  62
ATOM     62  C   UNL A   1      49.575  26.558  26.399  1.00  0.00     0.058 A 
ATOM     63  C   UNL A   1      50.404  25.935  27.344  1.00  0.00     0.135 A 
ATOM     64  C   UNL A   1      50.059  26.700  25.089  1.00  0.00     0.135 A 
ATOM     65  F   UNL A   1      49.990  25.784  28.612  1.00  0.00    -0.206 F 
ATOM     66  C   UNL A   1      51.680  25.494  27.009  1.00  0.00     0.059 A 
ATOM     67  C   UNL A   1      51.322  26.245  24.726  1.00  0.00     0.059 A 
ATOM     68  F   UNL A   1      49.300  27.282  24.147  1.00  0.00    -0.206 F 
ATOM     69  C   UNL A   1      52.131  25.655  25.697  1.00  0.00     0.060 A 
BRANCH  69  70
ATOM     70  S   UNL A   1      53.781  25.063  25.267  1.00  0.00     0.124 S 
ATOM     71  O   UNL A   1      53.596  23.617  25.320  1.00  0.00    -0.237 OA
ATOM     72  O   UNL A   1      53.982  25.629  23.937  1.00  0.00    -0.237 OA
ATOM     73  O   UNL A   1      54.627  25.628  26.315  1.00  0.00    -0.744 OA
ENDBRANCH  69  70
ENDBRANCH  37  62
ENDBRANCH  11  12
ENDBRANCH   4   6
ENDBRANCH   1   2
BRANCH   1  74
ATOM     74  C   UNL A   1      34.201  29.918  26.909  1.00  0.00     0.042 C 
BRANCH  74  75
ATOM     75  C   UNL A   1      32.852  29.253  27.133  1.00  0.00     0.118 C 
BRANCH  75  76
ATOM     76  N   UNL A   1      31.953  29.445  26.006  1.00  0.00    -0.352 N 
ATOM     77  C   UNL A   1      31.564  28.538  25.055  1.00  0.00     0.255 C 
ATOM     78  H   UNL A   1      31.573  30.349  25.914  1.00  0.00     0.163 HD
ATOM     79  O   UNL A   1      30.885  28.889  24.094  1.00  0.00    -0.269 OA
BRANCH  77  80
ATOM     80  C   UNL A   1      32.017  27.140  25.153  1.00  0.00     0.081 A 
ATOM     81  C   UNL A   1      33.390  26.898  25.167  1.00  0.00     0.020 A 
ATOM     82  C   UNL A   1      31.122  26.071  25.215  1.00  0.00     0.130 A 
ATOM     83  C   UNL A   1      33.866  25.588  25.288  1.00  0.00     0.028 A 
ATOM     84  C   UNL A   1      31.602  24.765  25.321  1.00  0.00     0.073 A 
ATOM     85  C   UNL A   1      32.982  24.499  25.362  1.00  0.00     0.055 A 
BRANCH  82  86
ATOM     86  O   UNL A   1      29.772  26.293  25.192  1.00  0.00    -0.507 OA
ATOM     87  H   UNL A   1      29.318  26.335  24.374  1.00  0.00     0.293 HD
ENDBRANCH  82  86
BRANCH  85  88
ATOM     88  N   UNL A   1      33.462  23.160  25.442  1.00  0.00    -0.250 N 
ATOM     89  C   UNL A   1      33.311  22.360  26.551  1.00  0.00     0.234 C 
ATOM     90  C   UNL A   1      34.097  22.491  24.416  1.00  0.00     0.241 C 
ATOM     91  O   UNL A   1      32.811  22.632  27.636  1.00  0.00    -0.274 OA
ATOM     92  C   UNL A   1      33.736  20.970  26.212  1.00  0.00     0.119 C 
ATOM     93  C   UNL A   1      34.484  21.113  24.901  1.00  0.00     0.121 C 
ATOM     94  O   UNL A   1      34.366  22.908  23.295  1.00  0.00    -0.273 OA
BRANCH  93  95
ATOM     95  C   UNL A   1      35.959  20.892  25.080  1.00  0.00    -0.010 A 
ATOM     96  C   UNL A   1      36.716  19.772  24.793  1.00  0.00     0.088 A 
ATOM     97  C   UNL A   1      36.871  21.885  25.573  1.00  0.00     0.003 A 
ATOM     98  N   UNL A   1      38.028  20.045  25.094  1.00  0.00    -0.361 N 
ATOM     99  C   UNL A   1      38.152  21.337  25.549  1.00  0.00     0.046 A 
ATOM    100  C   UNL A   1      36.715  23.213  26.022  1.00  0.00     0.010 A 
ATOM    101  H   UNL A   1      38.772  19.409  24.996  1.00  0.00     0.166 HD
ATOM    102  C   UNL A   1      39.288  22.054  25.942  1.00  0.00     0.026 A 
ATOM    103  C   UNL A   1      37.839  23.946  26.417  1.00  0.00     0.001 A 
ATOM    104  C   UNL A   1      39.106  23.373  26.374  1.00  0.00     0.002 A 
ENDBRANCH  93  95
ENDBRANCH  85  88
ENDBRANCH  77  80
ENDBRANCH  75  76
ENDBRANCH  74  75
ENDBRANCH   1  74
TORSDOF 16
ENDMDL
MODEL 3
REMARK VINA RESULT:     -13.7      1.519      2.617
REMARK SMILES O=C(NCCCNC(=O)c1ccc(N2C(=O)C[C@H](c3c[nH]c4ccccc34)C2=O)cc1O)c1ccc(-c2c3nc(c(-c4c(F)cc(S(=O)(=O)[O-])cc4F)c4ccc([nH]4)c(-c4c(F)cc(S(=O)(=O)[O-])cc4F)c4nc(c(-c5c(F)cc(S(=O)(=O)[O-])cc5F)c5ccc2[nH]5)C=C4)C=C3)cc1
REMARK SMILES IDX 4 1 3 2 1 3 2 4 33 6 34 7 98 8 35 9 97 10 36 11 37 12 38 13
REMARK SMILES IDX 91 14 39 15 96 16 90 17 92 18 40 19 95 20 89 21 88 22 41 24
REMARK SMILES IDX 75 25 54 26 74 27 55 28 58 29 73 30 93 31 56 32 57 33 72 35
REMARK SMILES IDX 94 36 59 37 42 38 43 39 52 40 44 41 45 42 51 43 53 44 46 45
REMARK SMILES IDX 47 46 48 47 49 48 50 49 76 50 77 51 86 52 78 53 79 54 85 55
REMARK SMILES IDX 87 56 80 57 81 58 82 59 83 60 84 61 60 62 61 63 70 64 62 65
REMARK SMILES IDX 63 66 69 67 71 68 64 69 65 70 66 71 67 72 68 73 5 74 6 75
REMARK SMILES IDX 7 76 8 77 9 79 10 80 11 81 31 82 12 83 30 84 13 85 32 86
REMARK SMILES IDX 14 88 15 89 28 90 16 91 17 92 18 93 29 94 19 95 20 96 27 97
REMARK SMILES IDX 21 98 22 99 26 100 23 102 25 103 24 104
REMARK H PARENT 3 5 92 23 58 34 7 78 32 87 21 101
REMARK Flexibility Score: inf
ROOT
ATOM      1  C   UNL A   1      38.646  24.052  26.370  1.00  0.00     0.118 C 
ENDROOT
BRANCH   1   2
ATOM      2  N   UNL A   1      40.070  24.018  26.061  1.00  0.00    -0.352 N 
ATOM      3  O   UNL A   1      42.203  24.729  25.968  1.00  0.00    -0.269 OA
ATOM      4  C   UNL A   1      41.098  24.818  26.500  1.00  0.00     0.251 C 
ATOM      5  H   UNL A   1      40.340  23.305  25.437  1.00  0.00     0.163 HD
BRANCH   4   6
ATOM      6  C   UNL A   1      40.876  25.799  27.585  1.00  0.00     0.039 A 
ATOM      7  C   UNL A   1      41.665  26.944  27.687  1.00  0.00     0.014 A 
ATOM      8  C   UNL A   1      39.847  25.580  28.507  1.00  0.00     0.014 A 
ATOM      9  C   UNL A   1      41.551  27.766  28.801  1.00  0.00     0.010 A 
ATOM     10  C   UNL A   1      39.661  26.472  29.569  1.00  0.00     0.010 A 
ATOM     11  C   UNL A   1      40.537  27.552  29.748  1.00  0.00    -0.014 A 
BRANCH  11  12
ATOM     12  C   UNL A   1      40.392  28.507  30.876  1.00  0.00     0.031 A 
ATOM     13  C   UNL A   1      41.304  28.451  32.072  1.00  0.00     0.074 A 
ATOM     14  C   UNL A   1      39.451  29.468  30.788  1.00  0.00     0.049 A 
ATOM     15  N   UNL A   1      41.338  29.238  33.118  1.00  0.00    -0.248 NA
ATOM     16  C   UNL A   1      42.302  27.370  32.105  1.00  0.00     0.031 C 
ATOM     17  C   UNL A   1      38.498  29.613  29.683  1.00  0.00     0.029 A 
ATOM     18  N   UNL A   1      39.155  30.519  31.618  1.00  0.00    -0.354 N 
ATOM     19  C   UNL A   1      42.339  28.737  33.942  1.00  0.00     0.074 A 
ATOM     20  C   UNL A   1      42.874  27.564  33.286  1.00  0.00     0.031 C 
ATOM     21  C   UNL A   1      37.770  30.724  29.871  1.00  0.00     0.029 A 
ATOM     22  C   UNL A   1      38.155  31.332  31.138  1.00  0.00     0.049 A 
ATOM     23  H   UNL A   1      39.614  30.676  32.474  1.00  0.00     0.167 HD
ATOM     24  C   UNL A   1      42.775  29.218  35.132  1.00  0.00     0.037 A 
ATOM     25  C   UNL A   1      37.601  32.441  31.662  1.00  0.00     0.037 A 
ATOM     26  C   UNL A   1      42.251  30.401  35.768  1.00  0.00     0.049 A 
ATOM     27  C   UNL A   1      38.100  32.950  32.982  1.00  0.00     0.074 A 
ATOM     28  C   UNL A   1      42.646  30.987  36.959  1.00  0.00     0.029 A 
ATOM     29  N   UNL A   1      41.217  31.179  35.266  1.00  0.00    -0.354 N 
ATOM     30  N   UNL A   1      39.061  32.472  33.736  1.00  0.00    -0.248 NA
ATOM     31  C   UNL A   1      37.436  34.140  33.525  1.00  0.00     0.031 C 
ATOM     32  C   UNL A   1      41.828  32.098  37.194  1.00  0.00     0.029 A 
ATOM     33  C   UNL A   1      40.950  32.229  36.131  1.00  0.00     0.049 A 
ATOM     34  H   UNL A   1      40.743  31.011  34.420  1.00  0.00     0.167 HD
ATOM     35  C   UNL A   1      39.125  33.312  34.840  1.00  0.00     0.074 A 
ATOM     36  C   UNL A   1      38.120  34.337  34.645  1.00  0.00     0.031 C 
ATOM     37  C   UNL A   1      39.942  33.238  35.921  1.00  0.00     0.037 A 
BRANCH  24  38
ATOM     38  C   UNL A   1      43.864  28.455  35.837  1.00  0.00     0.058 A 
ATOM     39  C   UNL A   1      45.222  28.755  35.647  1.00  0.00     0.135 A 
ATOM     40  C   UNL A   1      43.543  27.428  36.742  1.00  0.00     0.135 A 
ATOM     41  F   UNL A   1      45.586  29.718  34.784  1.00  0.00    -0.206 F 
ATOM     42  C   UNL A   1      46.224  28.048  36.304  1.00  0.00     0.059 A 
ATOM     43  C   UNL A   1      44.529  26.722  37.427  1.00  0.00     0.059 A 
ATOM     44  F   UNL A   1      42.261  27.100  36.964  1.00  0.00    -0.206 F 
ATOM     45  C   UNL A   1      45.868  27.028  37.188  1.00  0.00     0.060 A 
BRANCH  45  46
ATOM     46  S   UNL A   1      47.178  26.108  38.024  1.00  0.00     0.124 S 
ATOM     47  O   UNL A   1      47.634  27.085  39.009  1.00  0.00    -0.237 OA
ATOM     48  O   UNL A   1      46.461  24.957  38.561  1.00  0.00    -0.237 OA
ATOM     49  O   UNL A   1      48.123  25.811  36.952  1.00  0.00    -0.744 OA
ENDBRANCH  45  46
ENDBRANCH  24  38
BRANCH  25  50
ATOM     50  C   UNL A   1      36.514  33.137  30.926  1.00  0.00     0.058 A 
ATOM     51  C   UNL A   1      35.182  33.051  31.355  1.00  0.00     0.135 A 
ATOM     52  C   UNL A   1      36.791  33.932  29.802  1.00  0.00     0.135 A 
ATOM     53  F   UNL A   1      34.868  32.301  32.422  1.00  0.00    -0.206 F 
ATOM     54  C   UNL A   1      34.160  33.721  30.692  1.00  0.00     0.059 A 
ATOM     55  C   UNL A   1      35.791  34.632  29.139  1.00  0.00     0.059 A 
ATOM     56  F   UNL A   1      38.053  34.061  29.364  1.00  0.00    -0.206 F 
ATOM     57  C   UNL A   1      34.475  34.514  29.587  1.00  0.00     0.060 A 
BRANCH  57  58
ATOM     58  S   UNL A   1      33.153  35.430  28.765  1.00  0.00     0.124 S 
ATOM     59  O   UNL A   1      33.912  36.404  27.990  1.00  0.00    -0.237 OA
ATOM     60  O   UNL A   1      32.484  34.383  27.998  1.00  0.00    -0.237 OA
ATOM     61  O   UNL A   1      32.380  35.970  29.879  1.00  0.00    -0.744 OA
ENDBRANCH  57  58
ENDBRANCH  25  50
BRANCH  37  62
ATOM     62  C   UNL A   1      39.790  34.312  36.961  1.00  0.00     0.058 A 
ATOM     63  C   UNL A   1      38.964  34.135  38.081  1.00  0.00     0.135 A 
ATOM     64  C   UNL A   1      40.497  35.518  36.847  1.00  0.00     0.135 A 
ATOM     65  F   UNL A   1      38.259  33.003  38.231  1.00  0.00    -0.206 F 
ATOM     66  C   UNL A   1      38.822  35.133  39.040  1.00  0.00     0.059 A 
ATOM     67  C   UNL A   1      40.389  36.520  37.806  1.00  0.00     0.059 A 
ATOM     68  F   UNL A   1      41.307  35.731  35.797  1.00  0.00    -0.206 F 
ATOM     69  C   UNL A   1      39.537  36.323  38.893  1.00  0.00     0.060 A 
BRANCH  69  70
ATOM     70  S   UNL A   1      39.361  37.604  40.152  1.00  0.00     0.124 S 
ATOM     71  O   UNL A   1      38.226  38.365  39.641  1.00  0.00    -0.237 OA
ATOM     72  O   UNL A   1      39.109  36.825  41.361  1.00  0.00    -0.237 OA
ATOM     73  O   UNL A   1      40.648  38.292  40.116  1.00  0.00    -0.744 OA
ENDBRANCH  69  70
ENDBRANCH  37  62
ENDBRANCH  11  12
ENDBRANCH   4   6
ENDBRANCH   1   2
BRANCH   1  74
ATOM     74  C   UNL A   1      37.961  22.712  26.147  1.00  0.00     0.042 C 
BRANCH  74  75
ATOM     75  C   UNL A   1      37.409  22.534  24.741  1.00  0.00     0.118 C 
BRANCH  75  76
ATOM     76  N   UNL A   1      36.398  21.489  24.678  1.00  0.00    -0.352 N 
ATOM     77  C   UNL A   1      35.036  21.617  24.597  1.00  0.00     0.255 C 
ATOM     78  H   UNL A   1      36.739  20.566  24.697  1.00  0.00     0.163 HD
ATOM     79  O   UNL A   1      34.308  20.631  24.670  1.00  0.00    -0.269 OA
BRANCH  77  80
ATOM     80  C   UNL A   1      34.435  22.957  24.485  1.00  0.00     0.081 A 
ATOM     81  C   UNL A   1      34.044  23.393  23.219  1.00  0.00     0.020 A 
ATOM     82  C   UNL A   1      34.265  23.792  25.589  1.00  0.00     0.130 A 
ATOM     83  C   UNL A   1      33.442  24.647  23.068  1.00  0.00     0.028 A 
ATOM     84  C   UNL A   1      33.678  25.047  25.432  1.00  0.00     0.073 A 
ATOM     85  C   UNL A   1      33.254  25.497  24.169  1.00  0.00     0.055 A 
BRANCH  82  86
ATOM     86  O   UNL A   1      34.654  23.381  26.836  1.00  0.00    -0.507 OA
ATOM     87  H   UNL A   1      34.207  23.700  27.595  1.00  0.00     0.293 HD
ENDBRANCH  82  86
BRANCH  85  88
ATOM     88  N   UNL A   1      32.680  26.792  24.014  1.00  0.00    -0.250 N 
ATOM     89  C   UNL A   1      33.057  27.682  23.035  1.00  0.00     0.234 C 
ATOM     90  C   UNL A   1      31.658  27.296  24.792  1.00  0.00     0.241 C 
ATOM     91  O   UNL A   1      33.934  27.571  22.187  1.00  0.00    -0.274 OA
ATOM     92  C   UNL A   1      32.112  28.838  23.035  1.00  0.00     0.119 C 
ATOM     93  C   UNL A   1      31.356  28.707  24.343  1.00  0.00     0.121 C 
ATOM     94  O   UNL A   1      31.084  26.753  25.729  1.00  0.00    -0.273 OA
BRANCH  93  95
ATOM     95  C   UNL A   1      31.746  29.782  25.317  1.00  0.00    -0.010 A 
ATOM     96  C   UNL A   1      31.055  30.922  25.684  1.00  0.00     0.088 A 
ATOM     97  C   UNL A   1      32.956  29.773  26.089  1.00  0.00     0.003 A 
ATOM     98  N   UNL A   1      31.791  31.591  26.630  1.00  0.00    -0.361 N 
ATOM     99  C   UNL A   1      32.945  30.897  26.912  1.00  0.00     0.046 A 
ATOM    100  C   UNL A   1      34.053  28.890  26.170  1.00  0.00     0.010 A 
ATOM    101  H   UNL A   1      31.530  32.443  27.047  1.00  0.00     0.166 HD
ATOM    102  C   UNL A   1      33.972  31.178  27.820  1.00  0.00     0.026 A 
ATOM    103  C   UNL A   1      35.087  29.154  27.072  1.00  0.00     0.001 A 
ATOM    104  C   UNL A   1      35.044  30.281  27.887  1.00  0.00     0.002 A 
ENDBRANCH  93  95
ENDBRANCH  85  88
ENDBRANCH  77  80
ENDBRANCH  75  76
ENDBRANCH  74  75
ENDBRANCH   1  74
TORSDOF 16
ENDMDL
