MODEL 1
REMARK VINA RESULT:     -11.2      0.000      0.000
REMARK SMILES Cn1cc(CCC(=O)N2CCCC2)cc1C(=O)NCCCNC(=O)c1ccc(-c2c3nc(c(-c4c(F)cc(S(=O)(=O)[O-])cc4F)c4ccc([nH]4)c(-c4c(F)cc(S(=O)(=O)[O-])cc4F)c4nc(c(-c5c(F)cc(S(=O)(=O)[O-])cc5F)c5ccc2[nH]5)C=C4)C=C3)cc1
REMARK SMILES IDX 20 1 19 2 18 3 16 4 17 5 15 7 1 8 2 9 3 10 4 11 14 12 5 13
REMARK SMILES IDX 6 14 7 15 8 16 9 17 10 18 13 19 11 20 12 21 21 22 22 23
REMARK SMILES IDX 23 24 24 26 25 27 26 28 90 29 27 30 89 31 28 32 29 33 30 34
REMARK SMILES IDX 83 35 31 36 88 37 82 38 84 39 32 40 87 41 81 42 80 43 33 45
REMARK SMILES IDX 67 46 46 47 66 48 47 49 50 50 65 51 85 52 48 53 49 54 64 56
REMARK SMILES IDX 86 57 51 58 34 59 35 60 44 61 36 62 37 63 43 64 45 65 38 66
REMARK SMILES IDX 39 67 40 68 41 69 42 70 68 71 69 72 78 73 70 74 71 75 77 76
REMARK SMILES IDX 79 77 72 78 73 79 74 80 75 81 76 82 52 83 53 84 62 85 54 86
REMARK SMILES IDX 55 87 61 88 63 89 56 90 57 91 58 92 59 93 60 94
REMARK H PARENT 18 6 22 25 84 44 50 55
REMARK Flexibility Score: inf
ROOT
ATOM      1  C   UNL A   1      32.078  27.988  26.957  1.00  0.00     0.042 C 
ENDROOT
BRANCH   1   2
ATOM      2  C   UNL A   1      32.003  26.619  26.297  1.00  0.00     0.118 C 
BRANCH   2   3
ATOM      3  N   UNL A   1      31.013  25.730  26.865  1.00  0.00    -0.351 N 
ATOM      4  C   UNL A   1      30.624  24.465  26.495  1.00  0.00     0.267 C 
ATOM      5  O   UNL A   1      29.687  23.978  27.125  1.00  0.00    -0.268 OA
ATOM      6  H   UNL A   1      30.539  26.093  27.648  1.00  0.00     0.163 HD
BRANCH   4   7
ATOM      7  C   UNL A   1      31.227  23.782  25.363  1.00  0.00     0.107 A 
ATOM      8  C   UNL A   1      30.301  25.018  23.338  1.00  0.00     0.150 C 
ATOM      9  N   UNL A   1      31.110  24.024  24.007  1.00  0.00    -0.346 N 
ATOM     10  C   UNL A   1      31.864  23.118  23.299  1.00  0.00     0.089 A 
ATOM     11  C   UNL A   1      32.449  22.242  24.183  1.00  0.00    -0.029 A 
ATOM     12  C   UNL A   1      32.139  22.734  25.479  1.00  0.00     0.037 A 
BRANCH  11  13
ATOM     13  C   UNL A   1      33.207  21.004  23.834  1.00  0.00     0.047 C 
BRANCH  13  14
ATOM     14  C   UNL A   1      33.783  20.283  25.050  1.00  0.00     0.105 C 
BRANCH  14  15
ATOM     15  C   UNL A   1      35.287  20.045  25.014  1.00  0.00     0.222 C 
ATOM     16  O   UNL A   1      35.723  18.955  24.634  1.00  0.00    -0.275 OA
ATOM     17  N   UNL A   1      36.126  21.091  25.329  1.00  0.00    -0.343 N 
ATOM     18  C   UNL A   1      35.804  22.299  26.062  1.00  0.00     0.119 C 
ATOM     19  C   UNL A   1      37.546  21.056  25.008  1.00  0.00     0.119 C 
ATOM     20  C   UNL A   1      36.956  23.243  25.788  1.00  0.00     0.023 C 
ATOM     21  C   UNL A   1      38.138  22.290  25.684  1.00  0.00     0.023 C 
ENDBRANCH  14  15
ENDBRANCH  13  14
ENDBRANCH  11  13
ENDBRANCH   4   7
ENDBRANCH   2   3
ENDBRANCH   1   2
BRANCH   1  22
ATOM     22  C   UNL A   1      33.481  28.545  27.168  1.00  0.00     0.118 C 
BRANCH  22  23
ATOM     23  N   UNL A   1      33.508  29.928  27.625  1.00  0.00    -0.352 N 
ATOM     24  C   UNL A   1      34.502  30.670  28.224  1.00  0.00     0.251 C 
ATOM     25  H   UNL A   1      32.666  30.420  27.480  1.00  0.00     0.163 HD
ATOM     26  O   UNL A   1      34.237  31.799  28.629  1.00  0.00    -0.269 OA
BRANCH  24  27
ATOM     27  C   UNL A   1      35.863  30.118  28.420  1.00  0.00     0.039 A 
ATOM     28  C   UNL A   1      36.755  30.115  27.343  1.00  0.00     0.014 A 
ATOM     29  C   UNL A   1      36.271  29.598  29.648  1.00  0.00     0.014 A 
ATOM     30  C   UNL A   1      38.074  29.682  27.526  1.00  0.00     0.010 A 
ATOM     31  C   UNL A   1      37.609  29.274  29.859  1.00  0.00     0.010 A 
ATOM     32  C   UNL A   1      38.529  29.311  28.801  1.00  0.00    -0.014 A 
BRANCH  32  33
ATOM     33  C   UNL A   1      39.954  28.962  29.055  1.00  0.00     0.031 A 
ATOM     34  C   UNL A   1      40.903  29.996  29.606  1.00  0.00     0.074 A 
ATOM     35  C   UNL A   1      40.416  27.742  28.712  1.00  0.00     0.049 A 
ATOM     36  N   UNL A   1      42.193  29.913  29.801  1.00  0.00    -0.248 NA
ATOM     37  C   UNL A   1      40.331  31.309  29.950  1.00  0.00     0.031 C 
ATOM     38  C   UNL A   1      39.616  26.669  28.117  1.00  0.00     0.029 A 
ATOM     39  N   UNL A   1      41.675  27.199  28.802  1.00  0.00    -0.354 N 
ATOM     40  C   UNL A   1      42.589  31.162  30.266  1.00  0.00     0.074 A 
ATOM     41  C   UNL A   1      41.412  32.003  30.268  1.00  0.00     0.031 C 
ATOM     42  C   UNL A   1      40.394  25.592  27.920  1.00  0.00     0.029 A 
ATOM     43  C   UNL A   1      41.757  25.908  28.332  1.00  0.00     0.049 A 
ATOM     44  H   UNL A   1      42.447  27.688  29.170  1.00  0.00     0.167 HD
ATOM     45  C   UNL A   1      43.814  31.566  30.680  1.00  0.00     0.037 A 
ATOM     46  C   UNL A   1      42.813  25.075  28.232  1.00  0.00     0.037 A 
ATOM     47  C   UNL A   1      44.975  30.714  30.709  1.00  0.00     0.049 A 
ATOM     48  C   UNL A   1      44.163  25.542  28.706  1.00  0.00     0.074 A 
ATOM     49  C   UNL A   1      46.244  31.006  31.177  1.00  0.00     0.029 A 
ATOM     50  N   UNL A   1      45.009  29.404  30.251  1.00  0.00    -0.354 N 
ATOM     51  N   UNL A   1      44.502  26.706  29.208  1.00  0.00    -0.248 NA
ATOM     52  C   UNL A   1      45.271  24.583  28.608  1.00  0.00     0.031 C 
ATOM     53  C   UNL A   1      47.059  29.892  30.954  1.00  0.00     0.029 A 
ATOM     54  C   UNL A   1      46.284  28.884  30.404  1.00  0.00     0.049 A 
ATOM     55  H   UNL A   1      44.241  28.917  29.875  1.00  0.00     0.167 HD
ATOM     56  C   UNL A   1      45.855  26.609  29.511  1.00  0.00     0.074 A 
ATOM     57  C   UNL A   1      46.269  25.269  29.148  1.00  0.00     0.031 C 
ATOM     58  C   UNL A   1      46.680  27.544  30.044  1.00  0.00     0.037 A 
BRANCH  45  59
ATOM     59  C   UNL A   1      43.965  32.992  31.139  1.00  0.00     0.058 A 
ATOM     60  C   UNL A   1      44.503  33.986  30.305  1.00  0.00     0.135 A 
ATOM     61  C   UNL A   1      43.529  33.380  32.417  1.00  0.00     0.135 A 
ATOM     62  F   UNL A   1      44.948  33.672  29.079  1.00  0.00    -0.206 F 
ATOM     63  C   UNL A   1      44.631  35.304  30.731  1.00  0.00     0.059 A 
ATOM     64  C   UNL A   1      43.620  34.699  32.853  1.00  0.00     0.059 A 
ATOM     65  F   UNL A   1      43.007  32.472  33.258  1.00  0.00    -0.206 F 
ATOM     66  C   UNL A   1      44.185  35.651  32.007  1.00  0.00     0.060 A 
BRANCH  66  67
ATOM     67  S   UNL A   1      44.354  37.367  32.539  1.00  0.00     0.124 S 
ATOM     68  O   UNL A   1      43.753  38.081  31.417  1.00  0.00    -0.237 OA
ATOM     69  O   UNL A   1      43.589  37.384  33.782  1.00  0.00    -0.237 OA
ATOM     70  O   UNL A   1      45.796  37.537  32.691  1.00  0.00    -0.744 OA
ENDBRANCH  66  67
ENDBRANCH  45  59
BRANCH  46  71
ATOM     71  C   UNL A   1      42.628  23.705  27.681  1.00  0.00     0.058 A 
ATOM     72  C   UNL A   1      42.725  23.462  26.303  1.00  0.00     0.135 A 
ATOM     73  C   UNL A   1      42.370  22.609  28.520  1.00  0.00     0.135 A 
ATOM     74  F   UNL A   1      42.961  24.477  25.458  1.00  0.00    -0.206 F 
ATOM     75  C   UNL A   1      42.562  22.186  25.773  1.00  0.00     0.059 A 
ATOM     76  C   UNL A   1      42.232  21.318  28.017  1.00  0.00     0.059 A 
ATOM     77  F   UNL A   1      42.285  22.783  29.848  1.00  0.00    -0.206 F 
ATOM     78  C   UNL A   1      42.320  21.119  26.640  1.00  0.00     0.060 A 
BRANCH  78  79
ATOM     79  S   UNL A   1      42.171  19.457  25.947  1.00  0.00     0.124 S 
ATOM     80  O   UNL A   1      40.739  19.376  25.683  1.00  0.00    -0.237 OA
ATOM     81  O   UNL A   1      43.035  19.538  24.773  1.00  0.00    -0.237 OA
ATOM     82  O   UNL A   1      42.666  18.601  27.022  1.00  0.00    -0.744 OA
ENDBRANCH  78  79
ENDBRANCH  46  71
BRANCH  58  83
ATOM     83  C   UNL A   1      48.108  27.146  30.303  1.00  0.00     0.058 A 
ATOM     84  C   UNL A   1      49.147  27.498  29.429  1.00  0.00     0.135 A 
ATOM     85  C   UNL A   1      48.446  26.450  31.477  1.00  0.00     0.135 A 
ATOM     86  F   UNL A   1      48.878  28.159  28.291  1.00  0.00    -0.206 F 
ATOM     87  C   UNL A   1      50.468  27.155  29.695  1.00  0.00     0.059 A 
ATOM     88  C   UNL A   1      49.764  26.123  31.778  1.00  0.00     0.059 A 
ATOM     89  F   UNL A   1      47.493  26.098  32.353  1.00  0.00    -0.206 F 
ATOM     90  C   UNL A   1      50.767  26.470  30.875  1.00  0.00     0.060 A 
BRANCH  90  91
ATOM     91  S   UNL A   1      52.491  26.062  31.225  1.00  0.00     0.124 S 
ATOM     92  O   UNL A   1      52.351  24.817  31.973  1.00  0.00    -0.237 OA
ATOM     93  O   UNL A   1      53.058  25.936  29.886  1.00  0.00    -0.237 OA
ATOM     94  O   UNL A   1      52.963  27.208  31.995  1.00  0.00    -0.744 OA
ENDBRANCH  90  91
ENDBRANCH  58  83
ENDBRANCH  32  33
ENDBRANCH  24  27
ENDBRANCH  22  23
ENDBRANCH   1  22
TORSDOF 16
ENDMDL
MODEL 2
REMARK VINA RESULT:     -11.1      4.745      7.163
REMARK SMILES Cn1cc(CCC(=O)N2CCCC2)cc1C(=O)NCCCNC(=O)c1ccc(-c2c3nc(c(-c4c(F)cc(S(=O)(=O)[O-])cc4F)c4ccc([nH]4)c(-c4c(F)cc(S(=O)(=O)[O-])cc4F)c4nc(c(-c5c(F)cc(S(=O)(=O)[O-])cc5F)c5ccc2[nH]5)C=C4)C=C3)cc1
REMARK SMILES IDX 20 1 19 2 18 3 16 4 17 5 15 7 1 8 2 9 3 10 4 11 14 12 5 13
REMARK SMILES IDX 6 14 7 15 8 16 9 17 10 18 13 19 11 20 12 21 21 22 22 23
REMARK SMILES IDX 23 24 24 26 25 27 26 28 90 29 27 30 89 31 28 32 29 33 30 34
REMARK SMILES IDX 83 35 31 36 88 37 82 38 84 39 32 40 87 41 81 42 80 43 33 45
REMARK SMILES IDX 67 46 46 47 66 48 47 49 50 50 65 51 85 52 48 53 49 54 64 56
REMARK SMILES IDX 86 57 51 58 34 59 35 60 44 61 36 62 37 63 43 64 45 65 38 66
REMARK SMILES IDX 39 67 40 68 41 69 42 70 68 71 69 72 78 73 70 74 71 75 77 76
REMARK SMILES IDX 79 77 72 78 73 79 74 80 75 81 76 82 52 83 53 84 62 85 54 86
REMARK SMILES IDX 55 87 61 88 63 89 56 90 57 91 58 92 59 93 60 94
REMARK H PARENT 18 6 22 25 84 44 50 55
REMARK Flexibility Score: inf
ROOT
ATOM      1  C   UNL A   1      35.241  33.174  28.097  1.00  0.00     0.042 C 
ENDROOT
BRANCH   1   2
ATOM      2  C   UNL A   1      35.271  34.565  28.713  1.00  0.00     0.118 C 
BRANCH   2   3
ATOM      3  N   UNL A   1      33.998  35.254  28.705  1.00  0.00    -0.351 N 
ATOM      4  C   UNL A   1      33.252  35.774  29.735  1.00  0.00     0.267 C 
ATOM      5  O   UNL A   1      32.156  36.240  29.431  1.00  0.00    -0.268 OA
ATOM      6  H   UNL A   1      33.601  35.369  27.812  1.00  0.00     0.163 HD
BRANCH   4   7
ATOM      7  C   UNL A   1      33.696  35.692  31.116  1.00  0.00     0.107 A 
ATOM      8  C   UNL A   1      33.549  38.094  31.951  1.00  0.00     0.150 C 
ATOM      9  N   UNL A   1      33.807  36.678  32.079  1.00  0.00    -0.346 N 
ATOM     10  C   UNL A   1      34.276  36.139  33.255  1.00  0.00     0.089 A 
ATOM     11  C   UNL A   1      34.520  34.799  33.061  1.00  0.00    -0.029 A 
ATOM     12  C   UNL A   1      34.045  34.504  31.755  1.00  0.00     0.037 A 
BRANCH  11  13
ATOM     13  C   UNL A   1      35.194  33.873  34.019  1.00  0.00     0.047 C 
BRANCH  13  14
ATOM     14  C   UNL A   1      35.743  32.612  33.357  1.00  0.00     0.105 C 
BRANCH  14  15
ATOM     15  C   UNL A   1      37.175  32.251  33.732  1.00  0.00     0.222 C 
ATOM     16  O   UNL A   1      37.400  31.679  34.803  1.00  0.00    -0.275 OA
ATOM     17  N   UNL A   1      38.176  32.498  32.819  1.00  0.00    -0.343 N 
ATOM     18  C   UNL A   1      38.143  33.402  31.688  1.00  0.00     0.119 C 
ATOM     19  C   UNL A   1      39.496  31.896  32.949  1.00  0.00     0.119 C 
ATOM     20  C   UNL A   1      39.326  33.003  30.831  1.00  0.00     0.023 C 
ATOM     21  C   UNL A   1      40.347  32.565  31.872  1.00  0.00     0.023 C 
ENDBRANCH  14  15
ENDBRANCH  13  14
ENDBRANCH  11  13
ENDBRANCH   4   7
ENDBRANCH   2   3
ENDBRANCH   1   2
BRANCH   1  22
ATOM     22  C   UNL A   1      36.290  32.197  28.617  1.00  0.00     0.118 C 
BRANCH  22  23
ATOM     23  N   UNL A   1      35.867  31.442  29.790  1.00  0.00    -0.352 N 
ATOM     24  C   UNL A   1      36.423  30.349  30.417  1.00  0.00     0.251 C 
ATOM     25  H   UNL A   1      35.039  31.772  30.208  1.00  0.00     0.163 HD
ATOM     26  O   UNL A   1      35.804  29.813  31.334  1.00  0.00    -0.269 OA
BRANCH  24  27
ATOM     27  C   UNL A   1      37.725  29.790  29.982  1.00  0.00     0.039 A 
ATOM     28  C   UNL A   1      38.062  29.834  28.625  1.00  0.00     0.014 A 
ATOM     29  C   UNL A   1      38.615  29.217  30.889  1.00  0.00     0.014 A 
ATOM     30  C   UNL A   1      39.322  29.395  28.201  1.00  0.00     0.010 A 
ATOM     31  C   UNL A   1      39.906  28.885  30.487  1.00  0.00     0.010 A 
ATOM     32  C   UNL A   1      40.278  28.969  29.137  1.00  0.00    -0.014 A 
BRANCH  32  33
ATOM     33  C   UNL A   1      41.665  28.610  28.735  1.00  0.00     0.031 A 
ATOM     34  C   UNL A   1      42.734  29.672  28.663  1.00  0.00     0.074 A 
ATOM     35  C   UNL A   1      41.947  27.348  28.352  1.00  0.00     0.049 A 
ATOM     36  N   UNL A   1      43.968  29.576  28.242  1.00  0.00    -0.248 NA
ATOM     37  C   UNL A   1      42.353  31.030  29.087  1.00  0.00     0.031 C 
ATOM     38  C   UNL A   1      40.990  26.239  28.320  1.00  0.00     0.029 A 
ATOM     39  N   UNL A   1      43.117  26.783  27.904  1.00  0.00    -0.354 N 
ATOM     40  C   UNL A   1      44.501  30.857  28.328  1.00  0.00     0.074 A 
ATOM     41  C   UNL A   1      43.439  31.724  28.786  1.00  0.00     0.031 C 
ATOM     42  C   UNL A   1      41.616  25.126  27.903  1.00  0.00     0.029 A 
ATOM     43  C   UNL A   1      43.005  25.447  27.595  1.00  0.00     0.049 A 
ATOM     44  H   UNL A   1      43.957  27.289  27.814  1.00  0.00     0.167 HD
ATOM     45  C   UNL A   1      45.767  31.269  28.076  1.00  0.00     0.037 A 
ATOM     46  C   UNL A   1      43.914  24.579  27.107  1.00  0.00     0.037 A 
ATOM     47  C   UNL A   1      46.830  30.393  27.655  1.00  0.00     0.049 A 
ATOM     48  C   UNL A   1      45.316  25.058  26.842  1.00  0.00     0.074 A 
ATOM     49  C   UNL A   1      48.162  30.700  27.442  1.00  0.00     0.029 A 
ATOM     50  N   UNL A   1      46.682  29.041  27.380  1.00  0.00    -0.354 N 
ATOM     51  N   UNL A   1      45.819  26.260  26.997  1.00  0.00    -0.248 NA
ATOM     52  C   UNL A   1      46.276  24.063  26.346  1.00  0.00     0.031 C 
ATOM     53  C   UNL A   1      48.809  29.546  26.989  1.00  0.00     0.029 A 
ATOM     54  C   UNL A   1      47.893  28.505  26.978  1.00  0.00     0.049 A 
ATOM     55  H   UNL A   1      45.840  28.537  27.462  1.00  0.00     0.167 HD
ATOM     56  C   UNL A   1      47.160  26.159  26.644  1.00  0.00     0.074 A 
ATOM     57  C   UNL A   1      47.392  24.776  26.279  1.00  0.00     0.031 C 
ATOM     58  C   UNL A   1      48.112  27.124  26.624  1.00  0.00     0.037 A 
BRANCH  45  59
ATOM     59  C   UNL A   1      46.076  32.732  28.253  1.00  0.00     0.058 A 
ATOM     60  C   UNL A   1      45.938  33.650  27.199  1.00  0.00     0.135 A 
ATOM     61  C   UNL A   1      46.477  33.230  29.503  1.00  0.00     0.135 A 
ATOM     62  F   UNL A   1      45.572  33.230  25.979  1.00  0.00    -0.206 F 
ATOM     63  C   UNL A   1      46.217  35.002  27.370  1.00  0.00     0.059 A 
ATOM     64  C   UNL A   1      46.731  34.584  29.705  1.00  0.00     0.059 A 
ATOM     65  F   UNL A   1      46.626  32.399  30.547  1.00  0.00    -0.206 F 
ATOM     66  C   UNL A   1      46.611  35.461  28.628  1.00  0.00     0.060 A 
BRANCH  66  67
ATOM     67  S   UNL A   1      46.961  37.220  28.832  1.00  0.00     0.124 S 
ATOM     68  O   UNL A   1      46.233  37.794  27.705  1.00  0.00    -0.237 OA
ATOM     69  O   UNL A   1      46.404  37.496  30.152  1.00  0.00    -0.237 OA
ATOM     70  O   UNL A   1      48.416  37.290  28.740  1.00  0.00    -0.744 OA
ENDBRANCH  66  67
ENDBRANCH  45  59
BRANCH  46  71
ATOM     71  C   UNL A   1      43.530  23.162  26.860  1.00  0.00     0.058 A 
ATOM     72  C   UNL A   1      43.357  22.679  25.554  1.00  0.00     0.135 A 
ATOM     73  C   UNL A   1      43.348  22.260  27.919  1.00  0.00     0.135 A 
ATOM     74  F   UNL A   1      43.511  23.504  24.508  1.00  0.00    -0.206 F 
ATOM     75  C   UNL A   1      43.005  21.355  25.307  1.00  0.00     0.059 A 
ATOM     76  C   UNL A   1      43.025  20.924  27.696  1.00  0.00     0.059 A 
ATOM     77  F   UNL A   1      43.519  22.666  29.187  1.00  0.00    -0.206 F 
ATOM     78  C   UNL A   1      42.847  20.484  26.386  1.00  0.00     0.060 A 
BRANCH  78  79
ATOM     79  S   UNL A   1      42.450  18.754  26.050  1.00  0.00     0.124 S 
ATOM     80  O   UNL A   1      41.056  18.847  25.633  1.00  0.00    -0.237 OA
ATOM     81  O   UNL A   1      43.410  18.419  25.002  1.00  0.00    -0.237 OA
ATOM     82  O   UNL A   1      42.684  18.101  27.335  1.00  0.00    -0.744 OA
ENDBRANCH  78  79
ENDBRANCH  46  71
BRANCH  58  83
ATOM     83  C   UNL A   1      49.506  26.717  26.231  1.00  0.00     0.058 A 
ATOM     84  C   UNL A   1      50.410  26.173  27.157  1.00  0.00     0.135 A 
ATOM     85  C   UNL A   1      49.923  26.821  24.892  1.00  0.00     0.135 A 
ATOM     86  F   UNL A   1      50.064  26.057  28.449  1.00  0.00    -0.206 F 
ATOM     87  C   UNL A   1      51.685  25.769  26.776  1.00  0.00     0.059 A 
ATOM     88  C   UNL A   1      51.183  26.394  24.484  1.00  0.00     0.059 A 
ATOM     89  F   UNL A   1      49.095  27.324  23.964  1.00  0.00    -0.206 F 
ATOM     90  C   UNL A   1      52.060  25.880  25.436  1.00  0.00     0.060 A 
BRANCH  90  91
ATOM     91  S   UNL A   1      53.706  25.318  24.950  1.00  0.00     0.124 S 
ATOM     92  O   UNL A   1      53.500  23.880  24.824  1.00  0.00    -0.237 OA
ATOM     93  O   UNL A   1      53.924  26.040  23.700  1.00  0.00    -0.237 OA
ATOM     94  O   UNL A   1      54.551  25.736  26.064  1.00  0.00    -0.744 OA
ENDBRANCH  90  91
ENDBRANCH  58  83
ENDBRANCH  32  33
ENDBRANCH  24  27
ENDBRANCH  22  23
ENDBRANCH   1  22
TORSDOF 16
ENDMDL
MODEL 3
REMARK VINA RESULT:     -11.0      5.188     10.992
REMARK SMILES Cn1cc(CCC(=O)N2CCCC2)cc1C(=O)NCCCNC(=O)c1ccc(-c2c3nc(c(-c4c(F)cc(S(=O)(=O)[O-])cc4F)c4ccc([nH]4)c(-c4c(F)cc(S(=O)(=O)[O-])cc4F)c4nc(c(-c5c(F)cc(S(=O)(=O)[O-])cc5F)c5ccc2[nH]5)C=C4)C=C3)cc1
REMARK SMILES IDX 20 1 19 2 18 3 16 4 17 5 15 7 1 8 2 9 3 10 4 11 14 12 5 13
REMARK SMILES IDX 6 14 7 15 8 16 9 17 10 18 13 19 11 20 12 21 21 22 22 23
REMARK SMILES IDX 23 24 24 26 25 27 26 28 90 29 27 30 89 31 28 32 29 33 30 34
REMARK SMILES IDX 83 35 31 36 88 37 82 38 84 39 32 40 87 41 81 42 80 43 33 45
REMARK SMILES IDX 67 46 46 47 66 48 47 49 50 50 65 51 85 52 48 53 49 54 64 56
REMARK SMILES IDX 86 57 51 58 34 59 35 60 44 61 36 62 37 63 43 64 45 65 38 66
REMARK SMILES IDX 39 67 40 68 41 69 42 70 68 71 69 72 78 73 70 74 71 75 77 76
REMARK SMILES IDX 79 77 72 78 73 79 74 80 75 81 76 82 52 83 53 84 62 85 54 86
REMARK SMILES IDX 55 87 61 88 63 89 56 90 57 91 58 92 59 93 60 94
REMARK H PARENT 18 6 22 25 84 44 50 55
REMARK Flexibility Score: inf
ROOT
ATOM      1  C   UNL A   1      37.471  23.438  25.253  1.00  0.00     0.042 C 
ENDROOT
BRANCH   1   2
ATOM      2  C   UNL A   1      36.059  23.985  25.110  1.00  0.00     0.118 C 
BRANCH   2   3
ATOM      3  N   UNL A   1      35.112  23.468  26.074  1.00  0.00    -0.351 N 
ATOM      4  C   UNL A   1      33.776  23.734  26.252  1.00  0.00     0.267 C 
ATOM      5  O   UNL A   1      33.239  23.198  27.220  1.00  0.00    -0.268 OA
ATOM      6  H   UNL A   1      35.489  22.816  26.709  1.00  0.00     0.163 HD
BRANCH   4   7
ATOM      7  C   UNL A   1      33.064  24.669  25.398  1.00  0.00     0.107 A 
ATOM      8  C   UNL A   1      32.620  23.341  23.271  1.00  0.00     0.150 C 
ATOM      9  N   UNL A   1      32.547  24.503  24.127  1.00  0.00    -0.346 N 
ATOM     10  C   UNL A   1      31.950  25.668  23.704  1.00  0.00     0.089 A 
ATOM     11  C   UNL A   1      32.110  26.626  24.678  1.00  0.00    -0.029 A 
ATOM     12  C   UNL A   1      32.705  25.960  25.782  1.00  0.00     0.037 A 
BRANCH  11  13
ATOM     13  C   UNL A   1      31.768  28.075  24.561  1.00  0.00     0.047 C 
BRANCH  13  14
ATOM     14  C   UNL A   1      30.290  28.326  24.273  1.00  0.00     0.105 C 
BRANCH  14  15
ATOM     15  C   UNL A   1      29.975  28.814  22.864  1.00  0.00     0.222 C 
ATOM     16  O   UNL A   1      30.273  28.112  21.894  1.00  0.00    -0.275 OA
ATOM     17  N   UNL A   1      29.284  29.996  22.717  1.00  0.00    -0.343 N 
ATOM     18  C   UNL A   1      29.127  31.061  23.688  1.00  0.00     0.119 C 
ATOM     19  C   UNL A   1      28.660  30.366  21.455  1.00  0.00     0.119 C 
ATOM     20  C   UNL A   1      27.991  31.910  23.160  1.00  0.00     0.023 C 
ATOM     21  C   UNL A   1      28.178  31.801  21.653  1.00  0.00     0.023 C 
ENDBRANCH  14  15
ENDBRANCH  13  14
ENDBRANCH  11  13
ENDBRANCH   4   7
ENDBRANCH   2   3
ENDBRANCH   1   2
BRANCH   1  22
ATOM     22  C   UNL A   1      38.306  24.047  26.374  1.00  0.00     0.118 C 
BRANCH  22  23
ATOM     23  N   UNL A   1      39.744  23.908  26.185  1.00  0.00    -0.352 N 
ATOM     24  C   UNL A   1      40.801  24.656  26.657  1.00  0.00     0.251 C 
ATOM     25  H   UNL A   1      40.008  23.146  25.619  1.00  0.00     0.163 HD
ATOM     26  O   UNL A   1      41.933  24.403  26.254  1.00  0.00    -0.269 OA
BRANCH  24  27
ATOM     27  C   UNL A   1      40.589  25.775  27.606  1.00  0.00     0.039 A 
ATOM     28  C   UNL A   1      39.575  25.670  28.564  1.00  0.00     0.014 A 
ATOM     29  C   UNL A   1      41.371  26.929  27.561  1.00  0.00     0.014 A 
ATOM     30  C   UNL A   1      39.415  26.672  29.527  1.00  0.00     0.010 A 
ATOM     31  C   UNL A   1      41.286  27.870  28.584  1.00  0.00     0.010 A 
ATOM     32  C   UNL A   1      40.306  27.756  29.581  1.00  0.00    -0.014 A 
BRANCH  32  33
ATOM     33  C   UNL A   1      40.238  28.775  30.664  1.00  0.00     0.031 A 
ATOM     34  C   UNL A   1      41.117  28.648  31.883  1.00  0.00     0.074 A 
ATOM     35  C   UNL A   1      39.328  29.768  30.593  1.00  0.00     0.049 A 
ATOM     36  N   UNL A   1      41.133  29.375  32.970  1.00  0.00    -0.248 NA
ATOM     37  C   UNL A   1      42.080  27.534  31.896  1.00  0.00     0.031 C 
ATOM     38  C   UNL A   1      38.379  29.971  29.496  1.00  0.00     0.029 A 
ATOM     39  N   UNL A   1      39.042  30.789  31.466  1.00  0.00    -0.354 N 
ATOM     40  C   UNL A   1      42.086  28.796  33.801  1.00  0.00     0.074 A 
ATOM     41  C   UNL A   1      42.584  27.624  33.117  1.00  0.00     0.031 C 
ATOM     42  C   UNL A   1      37.636  31.061  29.748  1.00  0.00     0.029 A 
ATOM     43  C   UNL A   1      38.021  31.610  31.044  1.00  0.00     0.049 A 
ATOM     44  H   UNL A   1      39.522  30.921  32.316  1.00  0.00     0.167 HD
ATOM     45  C   UNL A   1      42.526  29.217  35.011  1.00  0.00     0.037 A 
ATOM     46  C   UNL A   1      37.451  32.679  31.636  1.00  0.00     0.037 A 
ATOM     47  C   UNL A   1      42.051  30.406  35.671  1.00  0.00     0.049 A 
ATOM     48  C   UNL A   1      37.962  33.134  32.976  1.00  0.00     0.074 A 
ATOM     49  C   UNL A   1      42.484  30.957  36.864  1.00  0.00     0.029 A 
ATOM     50  N   UNL A   1      41.037  31.226  35.196  1.00  0.00    -0.354 N 
ATOM     51  N   UNL A   1      38.913  32.612  33.715  1.00  0.00    -0.248 NA
ATOM     52  C   UNL A   1      37.331  34.325  33.560  1.00  0.00     0.031 C 
ATOM     53  C   UNL A   1      41.696  32.080  37.137  1.00  0.00     0.029 A 
ATOM     54  C   UNL A   1      40.814  32.265  36.084  1.00  0.00     0.049 A 
ATOM     55  H   UNL A   1      40.550  31.090  34.351  1.00  0.00     0.167 HD
ATOM     56  C   UNL A   1      39.012  33.428  34.837  1.00  0.00     0.074 A 
ATOM     57  C   UNL A   1      38.033  34.483  34.673  1.00  0.00     0.031 C 
ATOM     58  C   UNL A   1      39.840  33.314  35.905  1.00  0.00     0.037 A 
BRANCH  45  59
ATOM     59  C   UNL A   1      43.578  28.390  35.701  1.00  0.00     0.058 A 
ATOM     60  C   UNL A   1      44.949  28.634  35.518  1.00  0.00     0.135 A 
ATOM     61  C   UNL A   1      43.211  27.365  36.589  1.00  0.00     0.135 A 
ATOM     62  F   UNL A   1      45.359  29.592  34.672  1.00  0.00    -0.206 F 
ATOM     63  C   UNL A   1      45.917  27.873  36.166  1.00  0.00     0.059 A 
ATOM     64  C   UNL A   1      44.162  26.611  37.271  1.00  0.00     0.059 A 
ATOM     65  F   UNL A   1      41.915  27.087  36.802  1.00  0.00    -0.206 F 
ATOM     66  C   UNL A   1      45.514  26.865  37.042  1.00  0.00     0.060 A 
BRANCH  66  67
ATOM     67  S   UNL A   1      46.784  25.893  37.878  1.00  0.00     0.124 S 
ATOM     68  O   UNL A   1      46.527  24.558  37.347  1.00  0.00    -0.237 OA
ATOM     69  O   UNL A   1      48.015  26.529  37.419  1.00  0.00    -0.237 OA
ATOM     70  O   UNL A   1      46.477  26.076  39.293  1.00  0.00    -0.744 OA
ENDBRANCH  66  67
ENDBRANCH  45  59
BRANCH  46  71
ATOM     71  C   UNL A   1      36.347  33.406  30.951  1.00  0.00     0.058 A 
ATOM     72  C   UNL A   1      35.028  33.323  31.422  1.00  0.00     0.135 A 
ATOM     73  C   UNL A   1      36.590  34.213  29.829  1.00  0.00     0.135 A 
ATOM     74  F   UNL A   1      34.743  32.559  32.487  1.00  0.00    -0.206 F 
ATOM     75  C   UNL A   1      33.987  34.003  30.798  1.00  0.00     0.059 A 
ATOM     76  C   UNL A   1      35.570  34.925  29.204  1.00  0.00     0.059 A 
ATOM     77  F   UNL A   1      37.837  34.341  29.348  1.00  0.00    -0.206 F 
ATOM     78  C   UNL A   1      34.269  34.806  29.691  1.00  0.00     0.060 A 
BRANCH  78  79
ATOM     79  S   UNL A   1      32.920  35.731  28.927  1.00  0.00     0.124 S 
ATOM     80  O   UNL A   1      32.337  34.727  28.044  1.00  0.00    -0.237 OA
ATOM     81  O   UNL A   1      32.115  36.110  30.084  1.00  0.00    -0.237 OA
ATOM     82  O   UNL A   1      33.606  36.836  28.262  1.00  0.00    -0.744 OA
ENDBRANCH  78  79
ENDBRANCH  46  71
BRANCH  58  83
ATOM     83  C   UNL A   1      39.755  34.375  36.968  1.00  0.00     0.058 A 
ATOM     84  C   UNL A   1      38.979  34.204  38.125  1.00  0.00     0.135 A 
ATOM     85  C   UNL A   1      40.507  35.556  36.851  1.00  0.00     0.135 A 
ATOM     86  F   UNL A   1      38.238  33.096  38.285  1.00  0.00    -0.206 F 
ATOM     87  C   UNL A   1      38.934  35.177  39.119  1.00  0.00     0.059 A 
ATOM     88  C   UNL A   1      40.500  36.529  37.847  1.00  0.00     0.059 A 
ATOM     89  F   UNL A   1      41.274  35.765  35.770  1.00  0.00    -0.206 F 
ATOM     90  C   UNL A   1      39.701  36.334  38.971  1.00  0.00     0.060 A 
BRANCH  90  91
ATOM     91  S   UNL A   1      39.659  37.572  40.285  1.00  0.00     0.124 S 
ATOM     92  O   UNL A   1      39.053  36.820  41.378  1.00  0.00    -0.237 OA
ATOM     93  O   UNL A   1      41.072  37.900  40.449  1.00  0.00    -0.237 OA
ATOM     94  O   UNL A   1      38.835  38.637  39.723  1.00  0.00    -0.744 OA
ENDBRANCH  90  91
ENDBRANCH  58  83
ENDBRANCH  32  33
ENDBRANCH  24  27
ENDBRANCH  22  23
ENDBRANCH   1  22
TORSDOF 16
ENDMDL
