MODEL 1
REMARK VINA RESULT:     -11.5      0.000      0.000
REMARK SMILES O=C(C[C@H]1CN(S(=O)(=O)N2CCCCC2)CCO1)NCCCNC(=O)c1ccc(-c2c3nc(c(-c4c(F)cc(S(=O)(=O)[O-])cc4F)c4ccc([nH]4)c(-c4c(F)cc(S(=O)(=O)[O-])cc4F)c4nc(c(-c5c(F)cc(S(=O)(=O)[O-])cc5F)c5ccc2[nH]5)C=C4)C=C3)cc1
REMARK SMILES IDX 21 1 20 2 19 3 1 4 2 5 3 7 4 8 5 9 18 10 6 11 17 12 16 13
REMARK SMILES IDX 7 14 8 15 9 16 10 17 11 18 15 19 12 20 14 21 13 22 22 23
REMARK SMILES IDX 23 24 24 25 25 27 26 28 27 29 91 30 28 31 90 32 29 33 30 34
REMARK SMILES IDX 31 35 84 36 32 37 89 38 83 39 85 40 33 41 88 42 82 43 81 44
REMARK SMILES IDX 34 46 68 47 47 48 67 49 48 50 51 51 66 52 86 53 49 54 50 55
REMARK SMILES IDX 65 57 87 58 52 59 35 60 36 61 45 62 37 63 38 64 44 65 46 66
REMARK SMILES IDX 39 67 40 68 41 69 42 70 43 71 69 72 70 73 79 74 71 75 72 76
REMARK SMILES IDX 78 77 80 78 73 79 74 80 75 81 76 82 77 83 53 84 54 85 63 86
REMARK SMILES IDX 55 87 56 88 62 89 64 90 57 91 58 92 59 93 60 94 61 95
REMARK H PARENT 19 6 23 26 85 45 51 56
REMARK Flexibility Score: inf
ROOT
ATOM      1  C   UNL A   1      40.783  22.096  27.652  1.00  0.00     0.042 C 
ENDROOT
BRANCH   1   2
ATOM      2  C   UNL A   1      40.499  21.507  26.278  1.00  0.00     0.117 C 
BRANCH   2   3
ATOM      3  N   UNL A   1      39.164  21.773  25.798  1.00  0.00    -0.356 N 
ATOM      4  O   UNL A   1      38.718  19.640  25.117  1.00  0.00    -0.275 OA
ATOM      5  C   UNL A   1      38.333  20.785  25.335  1.00  0.00     0.222 C 
ATOM      6  H   UNL A   1      38.837  22.702  25.804  1.00  0.00     0.163 HD
BRANCH   5   7
ATOM      7  C   UNL A   1      36.938  21.250  24.965  1.00  0.00     0.133 C 
BRANCH   7   8
ATOM      8  C   UNL A   1      36.765  22.553  24.160  1.00  0.00     0.142 C 
ATOM      9  C   UNL A   1      35.427  22.727  23.413  1.00  0.00     0.136 C 
ATOM     10  O   UNL A   1      37.145  23.768  24.829  1.00  0.00    -0.375 OA
ATOM     11  N   UNL A   1      34.313  23.274  24.234  1.00  0.00    -0.184 NA
ATOM     12  C   UNL A   1      36.100  24.308  25.657  1.00  0.00     0.177 C 
ATOM     13  C   UNL A   1      34.801  24.545  24.881  1.00  0.00     0.132 C 
BRANCH  11  14
ATOM     14  S   UNL A   1      33.392  22.309  25.275  1.00  0.00     0.282 S 
ATOM     15  O   UNL A   1      34.184  22.058  26.453  1.00  0.00    -0.195 OA
ATOM     16  O   UNL A   1      32.108  22.961  25.395  1.00  0.00    -0.195 OA
BRANCH  14  17
ATOM     17  N   UNL A   1      33.157  20.858  24.459  1.00  0.00    -0.189 NA
ATOM     18  C   UNL A   1      33.415  19.615  25.207  1.00  0.00     0.103 C 
ATOM     19  C   UNL A   1      32.193  20.789  23.341  1.00  0.00     0.103 C 
ATOM     20  C   UNL A   1      33.672  18.457  24.248  1.00  0.00     0.017 C 
ATOM     21  C   UNL A   1      32.343  19.547  22.472  1.00  0.00     0.017 C 
ATOM     22  C   UNL A   1      32.494  18.284  23.304  1.00  0.00     0.003 C 
ENDBRANCH  14  17
ENDBRANCH  11  14
ENDBRANCH   7   8
ENDBRANCH   5   7
ENDBRANCH   2   3
ENDBRANCH   1   2
BRANCH   1  23
ATOM     23  C   UNL A   1      41.824  23.206  27.647  1.00  0.00     0.118 C 
BRANCH  23  24
ATOM     24  N   UNL A   1      41.831  23.972  26.408  1.00  0.00    -0.352 N 
ATOM     25  C   UNL A   1      41.532  25.291  26.185  1.00  0.00     0.251 C 
ATOM     26  H   UNL A   1      42.091  23.464  25.607  1.00  0.00     0.163 HD
ATOM     27  O   UNL A   1      41.439  25.703  25.032  1.00  0.00    -0.269 OA
BRANCH  25  28
ATOM     28  C   UNL A   1      41.309  26.210  27.323  1.00  0.00     0.039 A 
ATOM     29  C   UNL A   1      40.204  26.000  28.149  1.00  0.00     0.014 A 
ATOM     30  C   UNL A   1      42.167  27.288  27.562  1.00  0.00     0.014 A 
ATOM     31  C   UNL A   1      39.982  26.848  29.236  1.00  0.00     0.010 A 
ATOM     32  C   UNL A   1      42.000  28.070  28.702  1.00  0.00     0.010 A 
ATOM     33  C   UNL A   1      40.892  27.877  29.537  1.00  0.00    -0.014 A 
BRANCH  33  34
ATOM     34  C   UNL A   1      40.666  28.773  30.699  1.00  0.00     0.031 A 
ATOM     35  C   UNL A   1      41.507  28.631  31.941  1.00  0.00     0.074 A 
ATOM     36  C   UNL A   1      39.691  29.703  30.644  1.00  0.00     0.049 A 
ATOM     37  N   UNL A   1      41.473  29.330  33.046  1.00  0.00    -0.248 NA
ATOM     38  C   UNL A   1      42.501  27.545  31.954  1.00  0.00     0.031 C 
ATOM     39  C   UNL A   1      38.772  29.897  29.520  1.00  0.00     0.029 A 
ATOM     40  N   UNL A   1      39.313  30.661  31.550  1.00  0.00    -0.354 N 
ATOM     41  C   UNL A   1      42.430  28.767  33.883  1.00  0.00     0.074 A 
ATOM     42  C   UNL A   1      42.981  27.626  33.186  1.00  0.00     0.031 C 
ATOM     43  C   UNL A   1      37.965  30.937  29.786  1.00  0.00     0.029 A 
ATOM     44  C   UNL A   1      38.282  31.459  31.111  1.00  0.00     0.049 A 
ATOM     45  H   UNL A   1      39.739  30.766  32.430  1.00  0.00     0.167 HD
ATOM     46  C   UNL A   1      42.838  29.181  35.106  1.00  0.00     0.037 A 
ATOM     47  C   UNL A   1      37.666  32.497  31.709  1.00  0.00     0.037 A 
ATOM     48  C   UNL A   1      42.296  30.329  35.787  1.00  0.00     0.049 A 
ATOM     49  C   UNL A   1      38.140  32.941  33.067  1.00  0.00     0.074 A 
ATOM     50  C   UNL A   1      42.668  30.862  37.008  1.00  0.00     0.029 A 
ATOM     51  N   UNL A   1      41.263  31.121  35.306  1.00  0.00    -0.354 N 
ATOM     52  N   UNL A   1      39.093  32.438  33.816  1.00  0.00    -0.248 NA
ATOM     53  C   UNL A   1      37.467  34.108  33.653  1.00  0.00     0.031 C 
ATOM     54  C   UNL A   1      41.824  31.941  37.291  1.00  0.00     0.029 A 
ATOM     55  C   UNL A   1      40.971  32.125  36.214  1.00  0.00     0.049 A 
ATOM     56  H   UNL A   1      40.803  30.987  34.445  1.00  0.00     0.167 HD
ATOM     57  C   UNL A   1      39.159  33.250  34.944  1.00  0.00     0.074 A 
ATOM     58  C   UNL A   1      38.159  34.284  34.769  1.00  0.00     0.031 C 
ATOM     59  C   UNL A   1      39.976  33.151  36.024  1.00  0.00     0.037 A 
BRANCH  46  60
ATOM     60  C   UNL A   1      43.925  28.388  35.787  1.00  0.00     0.058 A 
ATOM     61  C   UNL A   1      43.631  27.330  36.663  1.00  0.00     0.135 A 
ATOM     62  C   UNL A   1      45.277  28.668  35.536  1.00  0.00     0.135 A 
ATOM     63  F   UNL A   1      42.356  27.026  36.955  1.00  0.00    -0.206 F 
ATOM     64  C   UNL A   1      44.637  26.601  37.291  1.00  0.00     0.059 A 
ATOM     65  C   UNL A   1      46.301  27.931  36.126  1.00  0.00     0.059 A 
ATOM     66  F   UNL A   1      45.620  29.669  34.709  1.00  0.00    -0.206 F 
ATOM     67  C   UNL A   1      45.970  26.909  37.014  1.00  0.00     0.060 A 
BRANCH  67  68
ATOM     68  S   UNL A   1      47.262  25.949  37.831  1.00  0.00     0.124 S 
ATOM     69  O   UNL A   1      46.966  24.600  37.358  1.00  0.00    -0.237 OA
ATOM     70  O   UNL A   1      48.481  26.552  37.300  1.00  0.00    -0.237 OA
ATOM     71  O   UNL A   1      47.016  26.183  39.250  1.00  0.00    -0.744 OA
ENDBRANCH  67  68
ENDBRANCH  46  60
BRANCH  47  72
ATOM     72  C   UNL A   1      36.558  33.208  31.013  1.00  0.00     0.058 A 
ATOM     73  C   UNL A   1      36.808  34.043  29.914  1.00  0.00     0.135 A 
ATOM     74  C   UNL A   1      35.226  33.063  31.431  1.00  0.00     0.135 A 
ATOM     75  F   UNL A   1      38.065  34.218  29.478  1.00  0.00    -0.206 F 
ATOM     76  C   UNL A   1      35.784  34.728  29.269  1.00  0.00     0.059 A 
ATOM     77  C   UNL A   1      34.180  33.713  30.783  1.00  0.00     0.059 A 
ATOM     78  F   UNL A   1      34.928  32.262  32.466  1.00  0.00    -0.206 F 
ATOM     79  C   UNL A   1      34.471  34.554  29.711  1.00  0.00     0.060 A 
BRANCH  79  80
ATOM     80  S   UNL A   1      33.145  35.419  28.842  1.00  0.00     0.124 S 
ATOM     81  O   UNL A   1      32.541  34.336  28.075  1.00  0.00    -0.237 OA
ATOM     82  O   UNL A   1      32.346  35.941  29.947  1.00  0.00    -0.237 OA
ATOM     83  O   UNL A   1      33.856  36.426  28.061  1.00  0.00    -0.744 OA
ENDBRANCH  79  80
ENDBRANCH  47  72
BRANCH  59  84
ATOM     84  C   UNL A   1      39.859  34.224  37.075  1.00  0.00     0.058 A 
ATOM     85  C   UNL A   1      39.111  34.043  38.249  1.00  0.00     0.135 A 
ATOM     86  C   UNL A   1      40.517  35.454  36.903  1.00  0.00     0.135 A 
ATOM     87  F   UNL A   1      38.462  32.888  38.467  1.00  0.00    -0.206 F 
ATOM     88  C   UNL A   1      38.976  35.061  39.189  1.00  0.00     0.059 A 
ATOM     89  C   UNL A   1      40.426  36.471  37.847  1.00  0.00     0.059 A 
ATOM     90  F   UNL A   1      41.260  35.676  35.807  1.00  0.00    -0.206 F 
ATOM     91  C   UNL A   1      39.632  36.274  38.975  1.00  0.00     0.060 A 
BRANCH  91  92
ATOM     92  S   UNL A   1      39.437  37.591  40.192  1.00  0.00     0.124 S 
ATOM     93  O   UNL A   1      38.935  36.853  41.346  1.00  0.00    -0.237 OA
ATOM     94  O   UNL A   1      40.796  38.109  40.314  1.00  0.00    -0.237 OA
ATOM     95  O   UNL A   1      38.481  38.498  39.563  1.00  0.00    -0.744 OA
ENDBRANCH  91  92
ENDBRANCH  59  84
ENDBRANCH  33  34
ENDBRANCH  25  28
ENDBRANCH  23  24
ENDBRANCH   1  23
TORSDOF 16
ENDMDL
MODEL 2
REMARK VINA RESULT:     -11.3      6.872     12.652
REMARK SMILES O=C(C[C@H]1CN(S(=O)(=O)N2CCCCC2)CCO1)NCCCNC(=O)c1ccc(-c2c3nc(c(-c4c(F)cc(S(=O)(=O)[O-])cc4F)c4ccc([nH]4)c(-c4c(F)cc(S(=O)(=O)[O-])cc4F)c4nc(c(-c5c(F)cc(S(=O)(=O)[O-])cc5F)c5ccc2[nH]5)C=C4)C=C3)cc1
REMARK SMILES IDX 21 1 20 2 19 3 1 4 2 5 3 7 4 8 5 9 18 10 6 11 17 12 16 13
REMARK SMILES IDX 7 14 8 15 9 16 10 17 11 18 15 19 12 20 14 21 13 22 22 23
REMARK SMILES IDX 23 24 24 25 25 27 26 28 27 29 91 30 28 31 90 32 29 33 30 34
REMARK SMILES IDX 31 35 84 36 32 37 89 38 83 39 85 40 33 41 88 42 82 43 81 44
REMARK SMILES IDX 34 46 68 47 47 48 67 49 48 50 51 51 66 52 86 53 49 54 50 55
REMARK SMILES IDX 65 57 87 58 52 59 35 60 36 61 45 62 37 63 38 64 44 65 46 66
REMARK SMILES IDX 39 67 40 68 41 69 42 70 43 71 69 72 70 73 79 74 71 75 72 76
REMARK SMILES IDX 78 77 80 78 73 79 74 80 75 81 76 82 77 83 53 84 54 85 63 86
REMARK SMILES IDX 55 87 56 88 62 89 64 90 57 91 58 92 59 93 60 94 61 95
REMARK H PARENT 19 6 23 26 85 45 51 56
REMARK Flexibility Score: inf
ROOT
ATOM      1  C   UNL A   1      35.865  32.541  28.026  1.00  0.00     0.042 C 
ENDROOT
BRANCH   1   2
ATOM      2  C   UNL A   1      34.512  31.857  28.145  1.00  0.00     0.117 C 
BRANCH   2   3
ATOM      3  N   UNL A   1      34.335  30.757  27.226  1.00  0.00    -0.356 N 
ATOM      4  O   UNL A   1      32.081  31.013  26.968  1.00  0.00    -0.275 OA
ATOM      5  C   UNL A   1      33.132  30.477  26.630  1.00  0.00     0.222 C 
ATOM      6  H   UNL A   1      35.110  30.186  27.019  1.00  0.00     0.163 HD
BRANCH   5   7
ATOM      7  C   UNL A   1      33.171  29.344  25.625  1.00  0.00     0.133 C 
BRANCH   7   8
ATOM      8  C   UNL A   1      32.689  27.942  26.048  1.00  0.00     0.142 C 
ATOM      9  C   UNL A   1      31.276  27.532  25.584  1.00  0.00     0.136 C 
ATOM     10  O   UNL A   1      33.625  26.866  25.865  1.00  0.00    -0.375 OA
ATOM     11  N   UNL A   1      31.202  26.967  24.210  1.00  0.00    -0.184 NA
ATOM     12  C   UNL A   1      33.602  26.317  24.535  1.00  0.00     0.177 C 
ATOM     13  C   UNL A   1      32.205  25.846  24.120  1.00  0.00     0.132 C 
BRANCH  11  14
ATOM     14  S   UNL A   1      31.169  27.942  22.827  1.00  0.00     0.282 S 
ATOM     15  O   UNL A   1      32.342  28.780  22.855  1.00  0.00    -0.195 OA
ATOM     16  O   UNL A   1      30.947  27.050  21.712  1.00  0.00    -0.195 OA
BRANCH  14  17
ATOM     17  N   UNL A   1      29.805  28.912  22.988  1.00  0.00    -0.189 NA
ATOM     18  C   UNL A   1      28.510  28.230  23.156  1.00  0.00     0.103 C 
ATOM     19  C   UNL A   1      29.932  30.276  23.545  1.00  0.00     0.103 C 
ATOM     20  C   UNL A   1      27.362  29.159  22.769  1.00  0.00     0.017 C 
ATOM     21  C   UNL A   1      28.715  31.158  23.299  1.00  0.00     0.017 C 
ATOM     22  C   UNL A   1      27.414  30.432  23.597  1.00  0.00     0.003 C 
ENDBRANCH  14  17
ENDBRANCH  11  14
ENDBRANCH   7   8
ENDBRANCH   5   7
ENDBRANCH   2   3
ENDBRANCH   1   2
BRANCH   1  23
ATOM     23  C   UNL A   1      36.602  32.691  29.349  1.00  0.00     0.118 C 
BRANCH  23  24
ATOM     24  N   UNL A   1      36.151  31.746  30.360  1.00  0.00    -0.352 N 
ATOM     25  C   UNL A   1      36.692  30.549  30.753  1.00  0.00     0.251 C 
ATOM     26  H   UNL A   1      35.331  32.007  30.836  1.00  0.00     0.163 HD
ATOM     27  O   UNL A   1      36.060  29.821  31.514  1.00  0.00    -0.269 OA
BRANCH  25  28
ATOM     28  C   UNL A   1      38.020  30.129  30.254  1.00  0.00     0.039 A 
ATOM     29  C   UNL A   1      38.187  29.923  28.884  1.00  0.00     0.014 A 
ATOM     30  C   UNL A   1      39.087  29.913  31.130  1.00  0.00     0.014 A 
ATOM     31  C   UNL A   1      39.435  29.539  28.391  1.00  0.00     0.010 A 
ATOM     32  C   UNL A   1      40.354  29.627  30.627  1.00  0.00     0.010 A 
ATOM     33  C   UNL A   1      40.537  29.410  29.255  1.00  0.00    -0.014 A 
BRANCH  33  34
ATOM     34  C   UNL A   1      41.869  29.013  28.733  1.00  0.00     0.031 A 
ATOM     35  C   UNL A   1      42.979  30.028  28.636  1.00  0.00     0.074 A 
ATOM     36  C   UNL A   1      42.075  27.744  28.328  1.00  0.00     0.049 A 
ATOM     37  N   UNL A   1      44.211  29.868  28.226  1.00  0.00    -0.248 NA
ATOM     38  C   UNL A   1      42.656  31.410  29.028  1.00  0.00     0.031 C 
ATOM     39  C   UNL A   1      41.061  26.686  28.316  1.00  0.00     0.029 A 
ATOM     40  N   UNL A   1      43.204  27.126  27.852  1.00  0.00    -0.354 N 
ATOM     41  C   UNL A   1      44.805  31.123  28.304  1.00  0.00     0.074 A 
ATOM     42  C   UNL A   1      43.780  32.048  28.735  1.00  0.00     0.031 C 
ATOM     43  C   UNL A   1      41.624  25.541  27.897  1.00  0.00     0.029 A 
ATOM     44  C   UNL A   1      43.026  25.791  27.574  1.00  0.00     0.049 A 
ATOM     45  H   UNL A   1      44.059  27.594  27.722  1.00  0.00     0.167 HD
ATOM     46  C   UNL A   1      46.093  31.470  28.071  1.00  0.00     0.037 A 
ATOM     47  C   UNL A   1      43.896  24.870  27.114  1.00  0.00     0.037 A 
ATOM     48  C   UNL A   1      47.112  30.538  27.659  1.00  0.00     0.049 A 
ATOM     49  C   UNL A   1      45.324  25.278  26.867  1.00  0.00     0.074 A 
ATOM     50  C   UNL A   1      48.457  30.775  27.439  1.00  0.00     0.029 A 
ATOM     51  N   UNL A   1      46.897  29.192  27.401  1.00  0.00    -0.354 N 
ATOM     52  N   UNL A   1      45.884  26.457  27.011  1.00  0.00    -0.248 NA
ATOM     53  C   UNL A   1      46.242  24.226  26.414  1.00  0.00     0.031 C 
ATOM     54  C   UNL A   1      49.044  29.586  26.995  1.00  0.00     0.029 A 
ATOM     55  C   UNL A   1      48.080  28.590  27.005  1.00  0.00     0.049 A 
ATOM     56  H   UNL A   1      46.031  28.732  27.485  1.00  0.00     0.167 HD
ATOM     57  C   UNL A   1      47.229  26.278  26.702  1.00  0.00     0.074 A 
ATOM     58  C   UNL A   1      47.397  24.875  26.379  1.00  0.00     0.031 C 
ATOM     59  C   UNL A   1      48.234  27.190  26.691  1.00  0.00     0.037 A 
BRANCH  46  60
ATOM     60  C   UNL A   1      46.474  32.916  28.259  1.00  0.00     0.058 A 
ATOM     61  C   UNL A   1      46.393  33.845  27.208  1.00  0.00     0.135 A 
ATOM     62  C   UNL A   1      46.894  33.387  29.513  1.00  0.00     0.135 A 
ATOM     63  F   UNL A   1      46.013  33.451  25.982  1.00  0.00    -0.206 F 
ATOM     64  C   UNL A   1      46.746  35.180  27.385  1.00  0.00     0.059 A 
ATOM     65  C   UNL A   1      47.221  34.724  29.722  1.00  0.00     0.059 A 
ATOM     66  F   UNL A   1      46.994  32.546  30.554  1.00  0.00    -0.206 F 
ATOM     67  C   UNL A   1      47.158  35.610  28.647  1.00  0.00     0.060 A 
BRANCH  67  68
ATOM     68  S   UNL A   1      47.606  37.346  28.861  1.00  0.00     0.124 S 
ATOM     69  O   UNL A   1      48.359  37.301  30.110  1.00  0.00    -0.237 OA
ATOM     70  O   UNL A   1      48.390  37.615  27.659  1.00  0.00    -0.237 OA
ATOM     71  O   UNL A   1      46.317  38.025  28.931  1.00  0.00    -0.744 OA
ENDBRANCH  67  68
ENDBRANCH  46  60
BRANCH  47  72
ATOM     72  C   UNL A   1      43.450  23.468  26.892  1.00  0.00     0.058 A 
ATOM     73  C   UNL A   1      43.231  22.596  27.969  1.00  0.00     0.135 A 
ATOM     74  C   UNL A   1      43.229  22.971  25.598  1.00  0.00     0.135 A 
ATOM     75  F   UNL A   1      43.431  23.020  29.226  1.00  0.00    -0.206 F 
ATOM     76  C   UNL A   1      42.834  21.277  27.773  1.00  0.00     0.059 A 
ATOM     77  C   UNL A   1      42.801  21.665  25.377  1.00  0.00     0.059 A 
ATOM     78  F   UNL A   1      43.406  23.768  24.532  1.00  0.00    -0.206 F 
ATOM     79  C   UNL A   1      42.620  20.822  26.471  1.00  0.00     0.060 A 
BRANCH  79  80
ATOM     80  S   UNL A   1      42.067  19.120  26.229  1.00  0.00     0.124 S 
ATOM     81  O   UNL A   1      42.955  18.671  25.164  1.00  0.00    -0.237 OA
ATOM     82  O   UNL A   1      42.301  18.533  27.546  1.00  0.00    -0.237 OA
ATOM     83  O   UNL A   1      40.664  19.271  25.859  1.00  0.00    -0.744 OA
ENDBRANCH  79  80
ENDBRANCH  47  72
BRANCH  59  84
ATOM     84  C   UNL A   1      49.617  26.686  26.372  1.00  0.00     0.058 A 
ATOM     85  C   UNL A   1      50.459  26.138  27.353  1.00  0.00     0.135 A 
ATOM     86  C   UNL A   1      50.102  26.747  25.055  1.00  0.00     0.135 A 
ATOM     87  F   UNL A   1      50.046  26.053  28.628  1.00  0.00    -0.206 F 
ATOM     88  C   UNL A   1      51.751  25.719  27.050  1.00  0.00     0.059 A 
ATOM     89  C   UNL A   1      51.377  26.299  24.723  1.00  0.00     0.059 A 
ATOM     90  F   UNL A   1      49.335  27.246  24.073  1.00  0.00    -0.206 F 
ATOM     91  C   UNL A   1      52.203  25.810  25.733  1.00  0.00     0.060 A 
BRANCH  91  92
ATOM     92  S   UNL A   1      53.885  25.278  25.355  1.00  0.00     0.124 S 
ATOM     93  O   UNL A   1      54.095  25.880  24.042  1.00  0.00    -0.237 OA
ATOM     94  O   UNL A   1      54.652  25.862  26.450  1.00  0.00    -0.237 OA
ATOM     95  O   UNL A   1      53.793  23.821  25.369  1.00  0.00    -0.744 OA
ENDBRANCH  91  92
ENDBRANCH  59  84
ENDBRANCH  33  34
ENDBRANCH  25  28
ENDBRANCH  23  24
ENDBRANCH   1  23
TORSDOF 16
ENDMDL
MODEL 3
REMARK VINA RESULT:     -11.3      3.107      9.455
REMARK SMILES O=C(C[C@H]1CN(S(=O)(=O)N2CCCCC2)CCO1)NCCCNC(=O)c1ccc(-c2c3nc(c(-c4c(F)cc(S(=O)(=O)[O-])cc4F)c4ccc([nH]4)c(-c4c(F)cc(S(=O)(=O)[O-])cc4F)c4nc(c(-c5c(F)cc(S(=O)(=O)[O-])cc5F)c5ccc2[nH]5)C=C4)C=C3)cc1
REMARK SMILES IDX 21 1 20 2 19 3 1 4 2 5 3 7 4 8 5 9 18 10 6 11 17 12 16 13
REMARK SMILES IDX 7 14 8 15 9 16 10 17 11 18 15 19 12 20 14 21 13 22 22 23
REMARK SMILES IDX 23 24 24 25 25 27 26 28 27 29 91 30 28 31 90 32 29 33 30 34
REMARK SMILES IDX 31 35 84 36 32 37 89 38 83 39 85 40 33 41 88 42 82 43 81 44
REMARK SMILES IDX 34 46 68 47 47 48 67 49 48 50 51 51 66 52 86 53 49 54 50 55
REMARK SMILES IDX 65 57 87 58 52 59 35 60 36 61 45 62 37 63 38 64 44 65 46 66
REMARK SMILES IDX 39 67 40 68 41 69 42 70 43 71 69 72 70 73 79 74 71 75 72 76
REMARK SMILES IDX 78 77 80 78 73 79 74 80 75 81 76 82 77 83 53 84 54 85 63 86
REMARK SMILES IDX 55 87 56 88 62 89 64 90 57 91 58 92 59 93 60 94 61 95
REMARK H PARENT 19 6 23 26 85 45 51 56
REMARK Flexibility Score: inf
ROOT
ATOM      1  C   UNL A   1      34.028  28.243  24.341  1.00  0.00     0.042 C 
ENDROOT
BRANCH   1   2
ATOM      2  C   UNL A   1      32.831  27.407  23.915  1.00  0.00     0.117 C 
BRANCH   2   3
ATOM      3  N   UNL A   1      33.099  25.988  23.881  1.00  0.00    -0.356 N 
ATOM      4  O   UNL A   1      33.653  25.896  21.668  1.00  0.00    -0.275 OA
ATOM      5  C   UNL A   1      33.585  25.353  22.767  1.00  0.00     0.222 C 
ATOM      6  H   UNL A   1      32.925  25.456  24.692  1.00  0.00     0.163 HD
BRANCH   5   7
ATOM      7  C   UNL A   1      33.892  23.881  22.959  1.00  0.00     0.133 C 
BRANCH   7   8
ATOM      8  C   UNL A   1      32.731  22.869  23.009  1.00  0.00     0.142 C 
ATOM      9  C   UNL A   1      32.895  21.682  23.982  1.00  0.00     0.136 C 
ATOM     10  O   UNL A   1      31.407  23.423  23.091  1.00  0.00    -0.375 OA
ATOM     11  N   UNL A   1      32.502  21.961  25.390  1.00  0.00    -0.184 NA
ATOM     12  C   UNL A   1      31.006  23.735  24.437  1.00  0.00     0.177 C 
ATOM     13  C   UNL A   1      31.104  22.525  25.372  1.00  0.00     0.132 C 
BRANCH  11  14
ATOM     14  S   UNL A   1      33.525  22.755  26.479  1.00  0.00     0.282 S 
ATOM     15  O   UNL A   1      33.253  24.167  26.384  1.00  0.00    -0.195 OA
ATOM     16  O   UNL A   1      33.370  22.074  27.744  1.00  0.00    -0.195 OA
BRANCH  14  17
ATOM     17  N   UNL A   1      35.087  22.464  25.928  1.00  0.00    -0.189 NA
ATOM     18  C   UNL A   1      36.081  23.534  26.126  1.00  0.00     0.103 C 
ATOM     19  C   UNL A   1      35.591  21.077  25.839  1.00  0.00     0.103 C 
ATOM     20  C   UNL A   1      37.247  23.366  25.155  1.00  0.00     0.017 C 
ATOM     21  C   UNL A   1      36.853  20.932  24.999  1.00  0.00     0.017 C 
ATOM     22  C   UNL A   1      37.884  21.998  25.329  1.00  0.00     0.003 C 
ENDBRANCH  14  17
ENDBRANCH  11  14
ENDBRANCH   7   8
ENDBRANCH   5   7
ENDBRANCH   2   3
ENDBRANCH   1   2
BRANCH   1  23
ATOM     23  C   UNL A   1      34.140  28.443  25.846  1.00  0.00     0.118 C 
BRANCH  23  24
ATOM     24  N   UNL A   1      33.755  29.782  26.271  1.00  0.00    -0.352 N 
ATOM     25  C   UNL A   1      34.285  30.584  27.248  1.00  0.00     0.251 C 
ATOM     26  H   UNL A   1      32.997  30.172  25.779  1.00  0.00     0.163 HD
ATOM     27  O   UNL A   1      33.703  31.620  27.561  1.00  0.00    -0.269 OA
BRANCH  25  28
ATOM     28  C   UNL A   1      35.539  30.200  27.933  1.00  0.00     0.039 A 
ATOM     29  C   UNL A   1      36.755  30.446  27.293  1.00  0.00     0.014 A 
ATOM     30  C   UNL A   1      35.519  29.578  29.184  1.00  0.00     0.014 A 
ATOM     31  C   UNL A   1      37.951  30.103  27.927  1.00  0.00     0.010 A 
ATOM     32  C   UNL A   1      36.713  29.328  29.856  1.00  0.00     0.010 A 
ATOM     33  C   UNL A   1      37.942  29.563  29.225  1.00  0.00    -0.014 A 
BRANCH  33  34
ATOM     34  C   UNL A   1      39.212  29.208  29.908  1.00  0.00     0.031 A 
ATOM     35  C   UNL A   1      39.628  29.934  31.161  1.00  0.00     0.074 A 
ATOM     36  C   UNL A   1      40.000  28.245  29.390  1.00  0.00     0.049 A 
ATOM     37  N   UNL A   1      40.688  29.754  31.907  1.00  0.00    -0.248 NA
ATOM     38  C   UNL A   1      38.753  31.024  31.624  1.00  0.00     0.031 C 
ATOM     39  C   UNL A   1      39.734  27.512  28.149  1.00  0.00     0.029 A 
ATOM     40  N   UNL A   1      41.182  27.713  29.842  1.00  0.00    -0.354 N 
ATOM     41  C   UNL A   1      40.609  30.706  32.917  1.00  0.00     0.074 A 
ATOM     42  C   UNL A   1      39.435  31.507  32.651  1.00  0.00     0.031 C 
ATOM     43  C   UNL A   1      40.701  26.598  27.962  1.00  0.00     0.029 A 
ATOM     44  C   UNL A   1      41.673  26.705  29.045  1.00  0.00     0.049 A 
ATOM     45  H   UNL A   1      41.634  28.024  30.658  1.00  0.00     0.167 HD
ATOM     46  C   UNL A   1      41.421  30.877  33.988  1.00  0.00     0.037 A 
ATOM     47  C   UNL A   1      42.781  25.949  29.176  1.00  0.00     0.037 A 
ATOM     48  C   UNL A   1      42.579  30.064  34.255  1.00  0.00     0.049 A 
ATOM     49  C   UNL A   1      43.665  26.155  30.377  1.00  0.00     0.074 A 
ATOM     50  C   UNL A   1      43.444  30.123  35.333  1.00  0.00     0.029 A 
ATOM     51  N   UNL A   1      43.038  29.044  33.433  1.00  0.00    -0.354 N 
ATOM     52  N   UNL A   1      43.538  27.017  31.359  1.00  0.00    -0.248 NA
ATOM     53  C   UNL A   1      44.832  25.272  30.497  1.00  0.00     0.031 C 
ATOM     54  C   UNL A   1      44.455  29.177  35.137  1.00  0.00     0.029 A 
ATOM     55  C   UNL A   1      44.183  28.480  33.970  1.00  0.00     0.049 A 
ATOM     56  H   UNL A   1      42.612  28.763  32.590  1.00  0.00     0.167 HD
ATOM     57  C   UNL A   1      44.589  26.754  32.233  1.00  0.00     0.074 A 
ATOM     58  C   UNL A   1      45.329  25.644  31.668  1.00  0.00     0.031 C 
ATOM     59  C   UNL A   1      44.908  27.371  33.399  1.00  0.00     0.037 A 
BRANCH  46  60
ATOM     60  C   UNL A   1      41.083  31.986  34.951  1.00  0.00     0.058 A 
ATOM     61  C   UNL A   1      41.671  33.258  34.853  1.00  0.00     0.135 A 
ATOM     62  C   UNL A   1      40.135  31.785  35.968  1.00  0.00     0.135 A 
ATOM     63  F   UNL A   1      42.596  33.505  33.912  1.00  0.00    -0.206 F 
ATOM     64  C   UNL A   1      41.357  34.279  35.745  1.00  0.00     0.059 A 
ATOM     65  C   UNL A   1      39.780  32.801  36.851  1.00  0.00     0.059 A 
ATOM     66  F   UNL A   1      39.541  30.590  36.113  1.00  0.00    -0.206 F 
ATOM     67  C   UNL A   1      40.409  34.041  36.741  1.00  0.00     0.060 A 
BRANCH  67  68
ATOM     68  S   UNL A   1      40.008  35.378  37.886  1.00  0.00     0.124 S 
ATOM     69  O   UNL A   1      39.654  36.453  36.965  1.00  0.00    -0.237 OA
ATOM     70  O   UNL A   1      38.903  34.811  38.652  1.00  0.00    -0.237 OA
ATOM     71  O   UNL A   1      41.248  35.574  38.629  1.00  0.00    -0.744 OA
ENDBRANCH  67  68
ENDBRANCH  46  60
BRANCH  47  72
ATOM     72  C   UNL A   1      43.096  24.906  28.161  1.00  0.00     0.058 A 
ATOM     73  C   UNL A   1      43.815  25.218  26.998  1.00  0.00     0.135 A 
ATOM     74  C   UNL A   1      42.688  23.575  28.337  1.00  0.00     0.135 A 
ATOM     75  F   UNL A   1      44.225  26.478  26.781  1.00  0.00    -0.206 F 
ATOM     76  C   UNL A   1      44.098  24.257  26.033  1.00  0.00     0.059 A 
ATOM     77  C   UNL A   1      42.986  22.588  27.402  1.00  0.00     0.059 A 
ATOM     78  F   UNL A   1      42.013  23.218  29.441  1.00  0.00    -0.206 F 
ATOM     79  C   UNL A   1      43.680  22.942  26.247  1.00  0.00     0.060 A 
BRANCH  79  80
ATOM     80  S   UNL A   1      44.085  21.693  25.006  1.00  0.00     0.124 S 
ATOM     81  O   UNL A   1      45.473  21.393  25.335  1.00  0.00    -0.237 OA
ATOM     82  O   UNL A   1      43.116  20.643  25.303  1.00  0.00    -0.237 OA
ATOM     83  O   UNL A   1      43.873  22.393  23.743  1.00  0.00    -0.744 OA
ENDBRANCH  79  80
ENDBRANCH  47  72
BRANCH  59  84
ATOM     84  C   UNL A   1      46.080  26.822  34.170  1.00  0.00     0.058 A 
ATOM     85  C   UNL A   1      47.389  27.290  33.976  1.00  0.00     0.135 A 
ATOM     86  C   UNL A   1      45.882  25.812  35.127  1.00  0.00     0.135 A 
ATOM     87  F   UNL A   1      47.636  28.255  33.076  1.00  0.00    -0.206 F 
ATOM     88  C   UNL A   1      48.467  26.739  34.664  1.00  0.00     0.059 A 
ATOM     89  C   UNL A   1      46.940  25.274  35.852  1.00  0.00     0.059 A 
ATOM     90  F   UNL A   1      44.649  25.337  35.366  1.00  0.00    -0.206 F 
ATOM     91  C   UNL A   1      48.232  25.727  35.595  1.00  0.00     0.060 A 
BRANCH  91  92
ATOM     92  S   UNL A   1      49.639  25.011  36.469  1.00  0.00     0.124 S 
ATOM     93  O   UNL A   1      50.657  26.039  36.280  1.00  0.00    -0.237 OA
ATOM     94  O   UNL A   1      49.125  24.871  37.828  1.00  0.00    -0.237 OA
ATOM     95  O   UNL A   1      49.876  23.756  35.763  1.00  0.00    -0.744 OA
ENDBRANCH  91  92
ENDBRANCH  59  84
ENDBRANCH  33  34
ENDBRANCH  25  28
ENDBRANCH  23  24
ENDBRANCH   1  23
TORSDOF 16
ENDMDL
