MODEL 1
REMARK VINA RESULT:     -13.9      0.000      0.000
REMARK SMILES COc1ccc([C@@H](C(=O)NCCCNC(=O)c2ccc(-c3c4nc(c(-c5c(F)cc(S(=O)(=O)[O-])cc5F)c5ccc([nH]5)c(-c5c(F)cc(S(=O)(=O)[O-])cc5F)c5nc(c(-c6c(F)cc(S(=O)(=O)[O-])cc6F)c6ccc3[nH]6)C=C5)C=C4)cc2)[NH+]2CCC(C(N)=O)CC2)c(C)c1
REMARK SMILES IDX 12 1 11 2 10 3 8 4 9 5 7 7 6 8 3 9 4 10 94 11 5 12 92 13
REMARK SMILES IDX 93 14 2 15 1 16 83 17 84 18 91 19 85 21 90 22 86 23 87 24
REMARK SMILES IDX 88 25 89 26 13 29 14 30 15 31 16 33 17 34 18 35 82 36 19 37
REMARK SMILES IDX 81 38 20 39 21 40 22 41 75 42 23 43 80 44 74 45 76 46 24 47
REMARK SMILES IDX 79 48 73 49 72 50 25 52 59 53 38 54 58 55 39 56 42 57 57 58
REMARK SMILES IDX 77 59 40 60 41 61 56 63 78 64 43 65 26 66 27 67 36 68 28 69
REMARK SMILES IDX 29 70 35 71 37 72 30 73 31 74 32 75 33 76 34 77 60 78 61 79
REMARK SMILES IDX 70 80 62 81 63 82 69 83 71 84 64 85 65 86 66 87 67 88 68 89
REMARK SMILES IDX 44 90 45 91 54 92 46 93 47 94 53 95 55 96 48 97 49 98 50 99
REMARK SMILES IDX 51 100 52 101
REMARK H PARENT 10 6 83 20 88 27 88 28 14 32 76 51 42 62
REMARK Flexibility Score: inf
ROOT
ATOM      1  C   UNL A   1      33.288  29.821  27.449  1.00  0.00     0.042 C 
ENDROOT
BRANCH   1   2
ATOM      2  C   UNL A   1      32.950  28.348  27.247  1.00  0.00     0.118 C 
BRANCH   2   3
ATOM      3  N   UNL A   1      33.849  27.671  26.320  1.00  0.00    -0.351 N 
ATOM      4  C   UNL A   1      33.586  26.722  25.359  1.00  0.00     0.283 C 
ATOM      5  O   UNL A   1      34.529  26.411  24.624  1.00  0.00    -0.268 OA
ATOM      6  H   UNL A   1      34.794  27.934  26.394  1.00  0.00     0.163 HD
BRANCH   4   7
ATOM      7  C   UNL A   1      32.148  26.127  25.216  1.00  0.00     0.305 C 
BRANCH   7   8
ATOM      8  C   UNL A   1      32.082  24.591  25.161  1.00  0.00     0.022 A 
ATOM      9  C   UNL A   1      31.852  21.762  25.353  1.00  0.00     0.119 A 
ATOM     10  C   UNL A   1      31.713  22.545  26.488  1.00  0.00     0.047 A 
ATOM     11  C   UNL A   1      32.132  22.383  24.136  1.00  0.00     0.050 A 
ATOM     12  C   UNL A   1      31.816  23.934  26.389  1.00  0.00     0.014 A 
ATOM     13  C   UNL A   1      32.265  23.784  24.016  1.00  0.00    -0.038 A 
ATOM     14  C   UNL A   1      32.580  24.284  22.631  1.00  0.00     0.045 C 
BRANCH   9  15
ATOM     15  O   UNL A   1      31.755  20.399  25.298  1.00  0.00    -0.497 OA
ATOM     16  C   UNL A   1      32.917  19.699  24.876  1.00  0.00     0.278 C 
ENDBRANCH   9  15
ENDBRANCH   7   8
BRANCH   7  17
ATOM     17  N   UNL A   1      31.285  26.843  24.207  1.00  0.00    -0.321 N 
ATOM     18  C   UNL A   1      29.847  26.812  24.497  1.00  0.00     0.263 C 
ATOM     19  C   UNL A   1      31.765  28.211  23.960  1.00  0.00     0.263 C 
ATOM     20  H   UNL A   1      31.384  26.307  23.345  1.00  0.00     0.349 HD
ATOM     21  C   UNL A   1      29.018  27.491  23.401  1.00  0.00     0.075 C 
ATOM     22  C   UNL A   1      30.975  28.923  22.862  1.00  0.00     0.075 C 
ATOM     23  C   UNL A   1      29.488  28.931  23.206  1.00  0.00     0.089 C 
BRANCH  23  24
ATOM     24  C   UNL A   1      28.674  29.622  22.130  1.00  0.00     0.220 C 
ATOM     25  N   UNL A   1      27.323  29.571  22.319  1.00  0.00    -0.369 N 
ATOM     26  O   UNL A   1      29.145  30.185  21.150  1.00  0.00    -0.275 OA
ATOM     27  H   UNL A   1      26.952  29.116  23.110  1.00  0.00     0.159 HD
ATOM     28  H   UNL A   1      26.718  29.989  21.664  1.00  0.00     0.159 HD
ENDBRANCH  23  24
ENDBRANCH   7  17
ENDBRANCH   4   7
ENDBRANCH   2   3
ENDBRANCH   1   2
BRANCH   1  29
ATOM     29  C   UNL A   1      34.634  30.230  26.862  1.00  0.00     0.118 C 
BRANCH  29  30
ATOM     30  N   UNL A   1      35.270  31.290  27.644  1.00  0.00    -0.352 N 
ATOM     31  C   UNL A   1      36.394  31.205  28.448  1.00  0.00     0.251 C 
ATOM     32  H   UNL A   1      34.845  32.177  27.591  1.00  0.00     0.163 HD
ATOM     33  O   UNL A   1      36.772  32.116  29.159  1.00  0.00    -0.269 OA
BRANCH  31  34
ATOM     34  C   UNL A   1      37.173  29.962  28.332  1.00  0.00     0.039 A 
ATOM     35  C   UNL A   1      37.238  29.149  29.470  1.00  0.00     0.014 A 
ATOM     36  C   UNL A   1      38.073  29.825  27.278  1.00  0.00     0.014 A 
ATOM     37  C   UNL A   1      38.339  28.321  29.646  1.00  0.00     0.010 A 
ATOM     38  C   UNL A   1      39.198  29.053  27.488  1.00  0.00     0.010 A 
ATOM     39  C   UNL A   1      39.357  28.355  28.697  1.00  0.00    -0.014 A 
BRANCH  39  40
ATOM     40  C   UNL A   1      40.671  27.765  28.921  1.00  0.00     0.031 A 
ATOM     41  C   UNL A   1      40.905  26.348  28.576  1.00  0.00     0.074 A 
ATOM     42  C   UNL A   1      41.685  28.544  29.357  1.00  0.00     0.049 A 
ATOM     43  N   UNL A   1      41.918  25.648  28.956  1.00  0.00    -0.248 NA
ATOM     44  C   UNL A   1      39.933  25.579  27.810  1.00  0.00     0.031 C 
ATOM     45  C   UNL A   1      43.113  28.244  29.314  1.00  0.00     0.029 A 
ATOM     46  N   UNL A   1      41.593  29.701  30.139  1.00  0.00    -0.354 N 
ATOM     47  C   UNL A   1      41.881  24.444  28.283  1.00  0.00     0.074 A 
ATOM     48  C   UNL A   1      40.582  24.424  27.657  1.00  0.00     0.031 C 
ATOM     49  C   UNL A   1      43.744  29.009  30.215  1.00  0.00     0.029 A 
ATOM     50  C   UNL A   1      42.723  29.701  30.983  1.00  0.00     0.049 A 
ATOM     51  H   UNL A   1      40.881  30.381  30.106  1.00  0.00     0.167 HD
ATOM     52  C   UNL A   1      43.013  23.680  28.233  1.00  0.00     0.037 A 
ATOM     53  C   UNL A   1      42.593  29.617  32.339  1.00  0.00     0.037 A 
ATOM     54  C   UNL A   1      44.018  24.194  29.171  1.00  0.00     0.049 A 
ATOM     55  C   UNL A   1      43.247  28.394  32.939  1.00  0.00     0.074 A 
ATOM     56  C   UNL A   1      45.129  25.009  29.010  1.00  0.00     0.029 A 
ATOM     57  N   UNL A   1      43.767  24.144  30.541  1.00  0.00    -0.354 N 
ATOM     58  N   UNL A   1      43.558  27.323  32.261  1.00  0.00    -0.248 NA
ATOM     59  C   UNL A   1      43.601  28.283  34.351  1.00  0.00     0.031 C 
ATOM     60  C   UNL A   1      45.484  25.524  30.284  1.00  0.00     0.029 A 
ATOM     61  C   UNL A   1      44.612  24.999  31.224  1.00  0.00     0.049 A 
ATOM     62  H   UNL A   1      43.083  23.576  30.964  1.00  0.00     0.167 HD
ATOM     63  C   UNL A   1      44.118  26.395  33.100  1.00  0.00     0.074 A 
ATOM     64  C   UNL A   1      44.143  27.052  34.395  1.00  0.00     0.031 C 
ATOM     65  C   UNL A   1      44.514  25.160  32.670  1.00  0.00     0.037 A 
BRANCH  52  66
ATOM     66  C   UNL A   1      43.320  22.676  27.125  1.00  0.00     0.058 A 
ATOM     67  C   UNL A   1      42.648  21.431  27.076  1.00  0.00     0.135 A 
ATOM     68  C   UNL A   1      44.325  22.816  26.146  1.00  0.00     0.135 A 
ATOM     69  F   UNL A   1      41.598  21.171  27.867  1.00  0.00    -0.206 F 
ATOM     70  C   UNL A   1      43.024  20.386  26.221  1.00  0.00     0.059 A 
ATOM     71  C   UNL A   1      44.751  21.774  25.315  1.00  0.00     0.059 A 
ATOM     72  F   UNL A   1      44.911  23.989  25.895  1.00  0.00    -0.206 F 
ATOM     73  C   UNL A   1      44.105  20.552  25.369  1.00  0.00     0.060 A 
BRANCH  73  74
ATOM     74  S   UNL A   1      44.638  19.181  24.329  1.00  0.00     0.124 S 
ATOM     75  O   UNL A   1      46.036  19.025  24.718  1.00  0.00    -0.237 OA
ATOM     76  O   UNL A   1      43.737  18.113  24.744  1.00  0.00    -0.237 OA
ATOM     77  O   UNL A   1      44.427  19.681  22.971  1.00  0.00    -0.744 OA
ENDBRANCH  73  74
ENDBRANCH  52  66
BRANCH  53  78
ATOM     78  C   UNL A   1      41.382  30.304  32.862  1.00  0.00     0.058 A 
ATOM     79  C   UNL A   1      40.262  29.506  33.167  1.00  0.00     0.135 A 
ATOM     80  C   UNL A   1      41.447  31.576  33.448  1.00  0.00     0.135 A 
ATOM     81  F   UNL A   1      40.141  28.284  32.623  1.00  0.00    -0.206 F 
ATOM     82  C   UNL A   1      39.333  29.881  34.131  1.00  0.00     0.059 A 
ATOM     83  C   UNL A   1      40.520  31.978  34.414  1.00  0.00     0.059 A 
ATOM     84  F   UNL A   1      42.486  32.384  33.192  1.00  0.00    -0.206 F 
ATOM     85  C   UNL A   1      39.507  31.094  34.794  1.00  0.00     0.060 A 
BRANCH  85  86
ATOM     86  S   UNL A   1      38.512  31.388  36.277  1.00  0.00     0.124 S 
ATOM     87  O   UNL A   1      38.167  30.031  36.683  1.00  0.00    -0.237 OA
ATOM     88  O   UNL A   1      39.464  32.082  37.145  1.00  0.00    -0.237 OA
ATOM     89  O   UNL A   1      37.408  32.203  35.784  1.00  0.00    -0.744 OA
ENDBRANCH  85  86
ENDBRANCH  53  78
BRANCH  65  90
ATOM     90  C   UNL A   1      44.944  24.026  33.569  1.00  0.00     0.058 A 
ATOM     91  C   UNL A   1      44.118  22.941  33.907  1.00  0.00     0.135 A 
ATOM     92  C   UNL A   1      46.283  23.937  34.020  1.00  0.00     0.135 A 
ATOM     93  F   UNL A   1      42.864  22.849  33.440  1.00  0.00    -0.206 F 
ATOM     94  C   UNL A   1      44.558  21.882  34.703  1.00  0.00     0.059 A 
ATOM     95  C   UNL A   1      46.759  22.863  34.769  1.00  0.00     0.059 A 
ATOM     96  F   UNL A   1      47.180  24.892  33.736  1.00  0.00    -0.206 F 
ATOM     97  C   UNL A   1      45.881  21.852  35.133  1.00  0.00     0.060 A 
BRANCH  97  98
ATOM     98  S   UNL A   1      46.476  20.463  36.115  1.00  0.00     0.124 S 
ATOM     99  O   UNL A   1      47.919  20.680  36.080  1.00  0.00    -0.237 OA
ATOM    100  O   UNL A   1      45.839  20.680  37.411  1.00  0.00    -0.237 OA
ATOM    101  O   UNL A   1      45.991  19.303  35.375  1.00  0.00    -0.744 OA
ENDBRANCH  97  98
ENDBRANCH  65  90
ENDBRANCH  39  40
ENDBRANCH  31  34
ENDBRANCH  29  30
ENDBRANCH   1  29
TORSDOF 17
ENDMDL
MODEL 2
REMARK VINA RESULT:     -13.9      1.025      3.482
REMARK SMILES COc1ccc([C@@H](C(=O)NCCCNC(=O)c2ccc(-c3c4nc(c(-c5c(F)cc(S(=O)(=O)[O-])cc5F)c5ccc([nH]5)c(-c5c(F)cc(S(=O)(=O)[O-])cc5F)c5nc(c(-c6c(F)cc(S(=O)(=O)[O-])cc6F)c6ccc3[nH]6)C=C5)C=C4)cc2)[NH+]2CCC(C(N)=O)CC2)c(C)c1
REMARK SMILES IDX 12 1 11 2 10 3 8 4 9 5 7 7 6 8 3 9 4 10 94 11 5 12 92 13
REMARK SMILES IDX 93 14 2 15 1 16 83 17 84 18 91 19 85 21 90 22 86 23 87 24
REMARK SMILES IDX 88 25 89 26 13 29 14 30 15 31 16 33 17 34 18 35 82 36 19 37
REMARK SMILES IDX 81 38 20 39 21 40 22 41 75 42 23 43 80 44 74 45 76 46 24 47
REMARK SMILES IDX 79 48 73 49 72 50 25 52 59 53 38 54 58 55 39 56 42 57 57 58
REMARK SMILES IDX 77 59 40 60 41 61 56 63 78 64 43 65 26 66 27 67 36 68 28 69
REMARK SMILES IDX 29 70 35 71 37 72 30 73 31 74 32 75 33 76 34 77 60 78 61 79
REMARK SMILES IDX 70 80 62 81 63 82 69 83 71 84 64 85 65 86 66 87 67 88 68 89
REMARK SMILES IDX 44 90 45 91 54 92 46 93 47 94 53 95 55 96 48 97 49 98 50 99
REMARK SMILES IDX 51 100 52 101
REMARK H PARENT 10 6 83 20 88 27 88 28 14 32 76 51 42 62
REMARK Flexibility Score: inf
ROOT
ATOM      1  C   UNL A   1      34.023  29.497  26.369  1.00  0.00     0.042 C 
ENDROOT
BRANCH   1   2
ATOM      2  C   UNL A   1      33.747  28.025  26.082  1.00  0.00     0.118 C 
BRANCH   2   3
ATOM      3  N   UNL A   1      32.475  27.559  26.623  1.00  0.00    -0.351 N 
ATOM      4  C   UNL A   1      31.411  26.950  25.997  1.00  0.00     0.283 C 
ATOM      5  O   UNL A   1      30.504  26.544  26.731  1.00  0.00    -0.268 OA
ATOM      6  H   UNL A   1      32.360  27.703  27.589  1.00  0.00     0.163 HD
BRANCH   4   7
ATOM      7  C   UNL A   1      31.413  26.770  24.444  1.00  0.00     0.305 C 
BRANCH   7   8
ATOM      8  C   UNL A   1      30.475  27.719  23.679  1.00  0.00     0.022 A 
ATOM      9  C   UNL A   1      29.000  29.619  22.160  1.00  0.00     0.119 A 
ATOM     10  C   UNL A   1      30.360  29.799  22.358  1.00  0.00     0.047 A 
ATOM     11  C   UNL A   1      28.375  28.515  22.740  1.00  0.00     0.050 A 
ATOM     12  C   UNL A   1      31.084  28.859  23.095  1.00  0.00     0.014 A 
ATOM     13  C   UNL A   1      29.081  27.565  23.509  1.00  0.00    -0.038 A 
ATOM     14  C   UNL A   1      28.247  26.443  24.069  1.00  0.00     0.045 C 
BRANCH   9  15
ATOM     15  O   UNL A   1      28.175  30.443  21.447  1.00  0.00    -0.497 OA
ATOM     16  C   UNL A   1      28.467  31.832  21.500  1.00  0.00     0.278 C 
ENDBRANCH   9  15
ENDBRANCH   7   8
BRANCH   7  17
ATOM     17  N   UNL A   1      31.377  25.330  23.994  1.00  0.00    -0.321 N 
ATOM     18  C   UNL A   1      32.219  25.030  22.831  1.00  0.00     0.263 C 
ATOM     19  C   UNL A   1      31.636  24.409  25.111  1.00  0.00     0.263 C 
ATOM     20  H   UNL A   1      30.424  25.178  23.666  1.00  0.00     0.349 HD
ATOM     21  C   UNL A   1      32.084  23.572  22.377  1.00  0.00     0.075 C 
ATOM     22  C   UNL A   1      31.499  22.941  24.706  1.00  0.00     0.075 C 
ATOM     23  C   UNL A   1      32.422  22.632  23.531  1.00  0.00     0.089 C 
BRANCH  23  24
ATOM     24  C   UNL A   1      32.302  21.184  23.099  1.00  0.00     0.220 C 
ATOM     25  N   UNL A   1      31.798  21.005  21.842  1.00  0.00    -0.369 N 
ATOM     26  O   UNL A   1      32.610  20.220  23.788  1.00  0.00    -0.275 OA
ATOM     27  H   UNL A   1      31.553  21.785  21.294  1.00  0.00     0.159 HD
ATOM     28  H   UNL A   1      31.680  20.096  21.483  1.00  0.00     0.159 HD
ENDBRANCH  23  24
ENDBRANCH   7  17
ENDBRANCH   4   7
ENDBRANCH   2   3
ENDBRANCH   1   2
BRANCH   1  29
ATOM     29  C   UNL A   1      34.293  29.797  27.839  1.00  0.00     0.118 C 
BRANCH  29  30
ATOM     30  N   UNL A   1      35.073  31.022  28.011  1.00  0.00    -0.352 N 
ATOM     31  C   UNL A   1      36.418  31.146  28.317  1.00  0.00     0.251 C 
ATOM     32  H   UNL A   1      34.579  31.866  27.894  1.00  0.00     0.163 HD
ATOM     33  O   UNL A   1      36.948  32.212  28.564  1.00  0.00    -0.269 OA
BRANCH  31  34
ATOM     34  C   UNL A   1      37.210  29.907  28.243  1.00  0.00     0.039 A 
ATOM     35  C   UNL A   1      37.291  29.139  29.410  1.00  0.00     0.014 A 
ATOM     36  C   UNL A   1      38.103  29.740  27.188  1.00  0.00     0.014 A 
ATOM     37  C   UNL A   1      38.402  28.329  29.609  1.00  0.00     0.010 A 
ATOM     38  C   UNL A   1      39.238  28.988  27.418  1.00  0.00     0.010 A 
ATOM     39  C   UNL A   1      39.413  28.338  28.652  1.00  0.00    -0.014 A 
BRANCH  39  40
ATOM     40  C   UNL A   1      40.735  27.771  28.889  1.00  0.00     0.031 A 
ATOM     41  C   UNL A   1      41.002  26.363  28.526  1.00  0.00     0.074 A 
ATOM     42  C   UNL A   1      41.727  28.562  29.352  1.00  0.00     0.049 A 
ATOM     43  N   UNL A   1      42.023  25.678  28.913  1.00  0.00    -0.248 NA
ATOM     44  C   UNL A   1      40.057  25.587  27.735  1.00  0.00     0.031 C 
ATOM     45  C   UNL A   1      43.160  28.291  29.327  1.00  0.00     0.029 A 
ATOM     46  N   UNL A   1      41.599  29.706  30.149  1.00  0.00    -0.354 N 
ATOM     47  C   UNL A   1      42.020  24.484  28.222  1.00  0.00     0.074 A 
ATOM     48  C   UNL A   1      40.731  24.447  27.575  1.00  0.00     0.031 C 
ATOM     49  C   UNL A   1      43.762  29.055  30.249  1.00  0.00     0.029 A 
ATOM     50  C   UNL A   1      42.715  29.716  31.010  1.00  0.00     0.049 A 
ATOM     51  H   UNL A   1      40.874  30.372  30.114  1.00  0.00     0.167 HD
ATOM     52  C   UNL A   1      43.168  23.743  28.179  1.00  0.00     0.037 A 
ATOM     53  C   UNL A   1      42.566  29.609  32.362  1.00  0.00     0.037 A 
ATOM     54  C   UNL A   1      44.147  24.263  29.140  1.00  0.00     0.049 A 
ATOM     55  C   UNL A   1      43.234  28.390  32.956  1.00  0.00     0.074 A 
ATOM     56  C   UNL A   1      45.244  25.101  29.009  1.00  0.00     0.029 A 
ATOM     57  N   UNL A   1      43.876  24.187  30.505  1.00  0.00    -0.354 N 
ATOM     58  N   UNL A   1      43.577  27.336  32.267  1.00  0.00    -0.248 NA
ATOM     59  C   UNL A   1      43.569  28.265  34.371  1.00  0.00     0.031 C 
ATOM     60  C   UNL A   1      45.569  25.604  30.295  1.00  0.00     0.029 A 
ATOM     61  C   UNL A   1      44.693  25.048  31.213  1.00  0.00     0.049 A 
ATOM     62  H   UNL A   1      43.197  23.600  30.909  1.00  0.00     0.167 HD
ATOM     63  C   UNL A   1      44.142  26.407  33.101  1.00  0.00     0.074 A 
ATOM     64  C   UNL A   1      44.134  27.045  34.406  1.00  0.00     0.031 C 
ATOM     65  C   UNL A   1      44.570  25.186  32.660  1.00  0.00     0.037 A 
BRANCH  52  66
ATOM     66  C   UNL A   1      43.512  22.761  27.061  1.00  0.00     0.058 A 
ATOM     67  C   UNL A   1      42.831  21.525  26.955  1.00  0.00     0.135 A 
ATOM     68  C   UNL A   1      44.558  22.913  26.128  1.00  0.00     0.135 A 
ATOM     69  F   UNL A   1      41.747  21.257  27.696  1.00  0.00    -0.206 F 
ATOM     70  C   UNL A   1      43.234  20.495  26.093  1.00  0.00     0.059 A 
ATOM     71  C   UNL A   1      45.009  21.887  25.292  1.00  0.00     0.059 A 
ATOM     72  F   UNL A   1      45.164  24.086  25.929  1.00  0.00    -0.206 F 
ATOM     73  C   UNL A   1      44.351  20.670  25.291  1.00  0.00     0.060 A 
BRANCH  73  74
ATOM     74  S   UNL A   1      44.914  19.319  24.241  1.00  0.00     0.124 S 
ATOM     75  O   UNL A   1      44.268  18.163  24.856  1.00  0.00    -0.237 OA
ATOM     76  O   UNL A   1      44.403  19.713  22.933  1.00  0.00    -0.237 OA
ATOM     77  O   UNL A   1      46.368  19.361  24.381  1.00  0.00    -0.744 OA
ENDBRANCH  73  74
ENDBRANCH  52  66
BRANCH  53  78
ATOM     78  C   UNL A   1      41.333  30.264  32.877  1.00  0.00     0.058 A 
ATOM     79  C   UNL A   1      40.256  29.432  33.238  1.00  0.00     0.135 A 
ATOM     80  C   UNL A   1      41.350  31.563  33.402  1.00  0.00     0.135 A 
ATOM     81  F   UNL A   1      40.182  28.182  32.753  1.00  0.00    -0.206 F 
ATOM     82  C   UNL A   1      39.327  29.809  34.201  1.00  0.00     0.059 A 
ATOM     83  C   UNL A   1      40.422  31.968  34.366  1.00  0.00     0.059 A 
ATOM     84  F   UNL A   1      42.347  32.405  33.091  1.00  0.00    -0.206 F 
ATOM     85  C   UNL A   1      39.457  31.058  34.805  1.00  0.00     0.060 A 
BRANCH  85  86
ATOM     86  S   UNL A   1      38.474  31.375  36.291  1.00  0.00     0.124 S 
ATOM     87  O   UNL A   1      37.377  32.177  35.763  1.00  0.00    -0.237 OA
ATOM     88  O   UNL A   1      38.116  30.020  36.710  1.00  0.00    -0.237 OA
ATOM     89  O   UNL A   1      39.406  32.075  37.167  1.00  0.00    -0.744 OA
ENDBRANCH  85  86
ENDBRANCH  53  78
BRANCH  65  90
ATOM     90  C   UNL A   1      45.008  24.048  33.549  1.00  0.00     0.058 A 
ATOM     91  C   UNL A   1      44.187  22.957  33.883  1.00  0.00     0.135 A 
ATOM     92  C   UNL A   1      46.349  23.960  33.993  1.00  0.00     0.135 A 
ATOM     93  F   UNL A   1      42.931  22.864  33.422  1.00  0.00    -0.206 F 
ATOM     94  C   UNL A   1      44.635  21.894  34.670  1.00  0.00     0.059 A 
ATOM     95  C   UNL A   1      46.832  22.883  34.733  1.00  0.00     0.059 A 
ATOM     96  F   UNL A   1      47.242  24.921  33.711  1.00  0.00    -0.206 F 
ATOM     97  C   UNL A   1      45.960  21.866  35.094  1.00  0.00     0.060 A 
BRANCH  97  98
ATOM     98  S   UNL A   1      46.565  20.473  36.064  1.00  0.00     0.124 S 
ATOM     99  O   UNL A   1      46.180  20.870  37.415  1.00  0.00    -0.237 OA
ATOM    100  O   UNL A   1      45.829  19.341  35.507  1.00  0.00    -0.237 OA
ATOM    101  O   UNL A   1      47.998  20.475  35.787  1.00  0.00    -0.744 OA
ENDBRANCH  97  98
ENDBRANCH  65  90
ENDBRANCH  39  40
ENDBRANCH  31  34
ENDBRANCH  29  30
ENDBRANCH   1  29
TORSDOF 17
ENDMDL
MODEL 3
REMARK VINA RESULT:     -13.6      5.021     11.573
REMARK SMILES COc1ccc([C@@H](C(=O)NCCCNC(=O)c2ccc(-c3c4nc(c(-c5c(F)cc(S(=O)(=O)[O-])cc5F)c5ccc([nH]5)c(-c5c(F)cc(S(=O)(=O)[O-])cc5F)c5nc(c(-c6c(F)cc(S(=O)(=O)[O-])cc6F)c6ccc3[nH]6)C=C5)C=C4)cc2)[NH+]2CCC(C(N)=O)CC2)c(C)c1
REMARK SMILES IDX 12 1 11 2 10 3 8 4 9 5 7 7 6 8 3 9 4 10 94 11 5 12 92 13
REMARK SMILES IDX 93 14 2 15 1 16 83 17 84 18 91 19 85 21 90 22 86 23 87 24
REMARK SMILES IDX 88 25 89 26 13 29 14 30 15 31 16 33 17 34 18 35 82 36 19 37
REMARK SMILES IDX 81 38 20 39 21 40 22 41 75 42 23 43 80 44 74 45 76 46 24 47
REMARK SMILES IDX 79 48 73 49 72 50 25 52 59 53 38 54 58 55 39 56 42 57 57 58
REMARK SMILES IDX 77 59 40 60 41 61 56 63 78 64 43 65 26 66 27 67 36 68 28 69
REMARK SMILES IDX 29 70 35 71 37 72 30 73 31 74 32 75 33 76 34 77 60 78 61 79
REMARK SMILES IDX 70 80 62 81 63 82 69 83 71 84 64 85 65 86 66 87 67 88 68 89
REMARK SMILES IDX 44 90 45 91 54 92 46 93 47 94 53 95 55 96 48 97 49 98 50 99
REMARK SMILES IDX 51 100 52 101
REMARK H PARENT 10 6 83 20 88 27 88 28 14 32 76 51 42 62
REMARK Flexibility Score: inf
ROOT
ATOM      1  C   UNL A   1      37.457  22.772  25.879  1.00  0.00     0.042 C 
ENDROOT
BRANCH   1   2
ATOM      2  C   UNL A   1      36.308  23.680  26.301  1.00  0.00     0.118 C 
BRANCH   2   3
ATOM      3  N   UNL A   1      35.279  22.991  27.071  1.00  0.00    -0.351 N 
ATOM      4  C   UNL A   1      34.195  22.255  26.651  1.00  0.00     0.283 C 
ATOM      5  O   UNL A   1      33.554  21.673  27.532  1.00  0.00    -0.268 OA
ATOM      6  H   UNL A   1      35.376  23.064  28.048  1.00  0.00     0.163 HD
BRANCH   4   7
ATOM      7  C   UNL A   1      33.855  22.159  25.128  1.00  0.00     0.305 C 
BRANCH   7   8
ATOM      8  C   UNL A   1      32.728  23.093  24.654  1.00  0.00     0.022 A 
ATOM      9  C   UNL A   1      30.583  24.872  24.081  1.00  0.00     0.119 A 
ATOM     10  C   UNL A   1      30.774  24.414  25.375  1.00  0.00     0.047 A 
ATOM     11  C   UNL A   1      31.439  24.424  23.075  1.00  0.00     0.050 A 
ATOM     12  C   UNL A   1      31.834  23.549  25.656  1.00  0.00     0.014 A 
ATOM     13  C   UNL A   1      32.502  23.530  23.330  1.00  0.00    -0.038 A 
ATOM     14  C   UNL A   1      33.318  23.142  22.126  1.00  0.00     0.045 C 
BRANCH   9  15
ATOM     15  O   UNL A   1      29.605  25.733  23.668  1.00  0.00    -0.497 OA
ATOM     16  C   UNL A   1      30.039  26.998  23.185  1.00  0.00     0.278 C 
ENDBRANCH   9  15
ENDBRANCH   7   8
BRANCH   7  17
ATOM     17  N   UNL A   1      33.781  20.747  24.604  1.00  0.00    -0.321 N 
ATOM     18  C   UNL A   1      34.903  19.887  24.996  1.00  0.00     0.263 C 
ATOM     19  C   UNL A   1      32.482  20.126  24.908  1.00  0.00     0.263 C 
ATOM     20  H   UNL A   1      33.866  20.834  23.592  1.00  0.00     0.349 HD
ATOM     21  C   UNL A   1      34.809  18.489  24.374  1.00  0.00     0.075 C 
ATOM     22  C   UNL A   1      32.339  18.733  24.294  1.00  0.00     0.075 C 
ATOM     23  C   UNL A   1      33.483  17.835  24.756  1.00  0.00     0.089 C 
BRANCH  23  24
ATOM     24  C   UNL A   1      33.375  16.447  24.157  1.00  0.00     0.220 C 
ATOM     25  N   UNL A   1      32.496  15.619  24.795  1.00  0.00    -0.369 N 
ATOM     26  O   UNL A   1      34.010  16.052  23.187  1.00  0.00    -0.275 OA
ATOM     27  H   UNL A   1      31.989  15.945  25.574  1.00  0.00     0.159 HD
ATOM     28  H   UNL A   1      32.368  14.697  24.476  1.00  0.00     0.159 HD
ENDBRANCH  23  24
ENDBRANCH   7  17
ENDBRANCH   4   7
ENDBRANCH   2   3
ENDBRANCH   1   2
BRANCH   1  29
ATOM     29  C   UNL A   1      38.746  23.519  25.555  1.00  0.00     0.118 C 
BRANCH  29  30
ATOM     30  N   UNL A   1      39.827  23.164  26.473  1.00  0.00    -0.352 N 
ATOM     31  C   UNL A   1      40.513  23.989  27.349  1.00  0.00     0.251 C 
ATOM     32  H   UNL A   1      40.102  22.219  26.469  1.00  0.00     0.163 HD
ATOM     33  O   UNL A   1      41.485  23.624  27.982  1.00  0.00    -0.269 OA
BRANCH  31  34
ATOM     34  C   UNL A   1      39.944  25.333  27.545  1.00  0.00     0.039 A 
ATOM     35  C   UNL A   1      40.436  26.352  26.723  1.00  0.00     0.014 A 
ATOM     36  C   UNL A   1      39.246  25.605  28.719  1.00  0.00     0.014 A 
ATOM     37  C   UNL A   1      40.406  27.663  27.182  1.00  0.00     0.010 A 
ATOM     38  C   UNL A   1      39.279  26.898  29.202  1.00  0.00     0.010 A 
ATOM     39  C   UNL A   1      39.915  27.909  28.462  1.00  0.00    -0.014 A 
BRANCH  39  40
ATOM     40  C   UNL A   1      40.105  29.178  29.154  1.00  0.00     0.031 A 
ATOM     41  C   UNL A   1      39.056  30.216  29.079  1.00  0.00     0.074 A 
ATOM     42  C   UNL A   1      41.195  29.357  29.931  1.00  0.00     0.049 A 
ATOM     43  N   UNL A   1      39.206  31.450  29.419  1.00  0.00    -0.248 NA
ATOM     44  C   UNL A   1      37.740  29.931  28.523  1.00  0.00     0.031 C 
ATOM     45  C   UNL A   1      41.397  30.380  30.952  1.00  0.00     0.029 A 
ATOM     46  N   UNL A   1      42.450  28.752  29.787  1.00  0.00    -0.354 N 
ATOM     47  C   UNL A   1      37.967  32.055  29.388  1.00  0.00     0.074 A 
ATOM     48  C   UNL A   1      37.113  31.089  28.740  1.00  0.00     0.031 C 
ATOM     49  C   UNL A   1      42.712  30.521  31.170  1.00  0.00     0.029 A 
ATOM     50  C   UNL A   1      43.402  29.716  30.177  1.00  0.00     0.049 A 
ATOM     51  H   UNL A   1      42.631  27.836  29.476  1.00  0.00     0.167 HD
ATOM     52  C   UNL A   1      37.795  33.244  30.040  1.00  0.00     0.037 A 
ATOM     53  C   UNL A   1      44.315  30.209  29.289  1.00  0.00     0.037 A 
ATOM     54  C   UNL A   1      39.093  33.796  30.444  1.00  0.00     0.049 A 
ATOM     55  C   UNL A   1      44.205  31.699  29.065  1.00  0.00     0.074 A 
ATOM     56  C   UNL A   1      39.793  33.782  31.641  1.00  0.00     0.029 A 
ATOM     57  N   UNL A   1      40.001  34.200  29.467  1.00  0.00    -0.354 N 
ATOM     58  N   UNL A   1      43.143  32.405  29.345  1.00  0.00    -0.248 NA
ATOM     59  C   UNL A   1      45.283  32.510  28.508  1.00  0.00     0.031 C 
ATOM     60  C   UNL A   1      41.150  34.085  31.360  1.00  0.00     0.029 A 
ATOM     61  C   UNL A   1      41.272  34.317  30.000  1.00  0.00     0.049 A 
ATOM     62  H   UNL A   1      39.769  34.378  28.527  1.00  0.00     0.167 HD
ATOM     63  C   UNL A   1      43.362  33.716  29.009  1.00  0.00     0.074 A 
ATOM     64  C   UNL A   1      44.725  33.734  28.508  1.00  0.00     0.031 C 
ATOM     65  C   UNL A   1      42.409  34.683  29.164  1.00  0.00     0.037 A 
BRANCH  52  66
ATOM     66  C   UNL A   1      36.455  33.738  30.581  1.00  0.00     0.058 A 
ATOM     67  C   UNL A   1      35.463  34.232  29.700  1.00  0.00     0.135 A 
ATOM     68  C   UNL A   1      36.113  33.857  31.943  1.00  0.00     0.135 A 
ATOM     69  F   UNL A   1      35.581  34.104  28.371  1.00  0.00    -0.206 F 
ATOM     70  C   UNL A   1      34.305  34.890  30.136  1.00  0.00     0.059 A 
ATOM     71  C   UNL A   1      34.990  34.551  32.404  1.00  0.00     0.059 A 
ATOM     72  F   UNL A   1      36.815  33.254  32.905  1.00  0.00    -0.206 F 
ATOM     73  C   UNL A   1      34.095  35.082  31.493  1.00  0.00     0.060 A 
BRANCH  73  74
ATOM     74  S   UNL A   1      32.647  35.998  32.049  1.00  0.00     0.124 S 
ATOM     75  O   UNL A   1      32.155  36.581  30.804  1.00  0.00    -0.237 OA
ATOM     76  O   UNL A   1      31.822  34.945  32.629  1.00  0.00    -0.237 OA
ATOM     77  O   UNL A   1      33.196  36.957  33.005  1.00  0.00    -0.744 OA
ENDBRANCH  73  74
ENDBRANCH  52  66
BRANCH  53  78
ATOM     78  C   UNL A   1      44.766  29.207  28.286  1.00  0.00     0.058 A 
ATOM     79  C   UNL A   1      45.704  28.243  28.703  1.00  0.00     0.135 A 
ATOM     80  C   UNL A   1      44.015  28.921  27.137  1.00  0.00     0.135 A 
ATOM     81  F   UNL A   1      46.460  28.471  29.790  1.00  0.00    -0.206 F 
ATOM     82  C   UNL A   1      45.783  26.989  28.110  1.00  0.00     0.059 A 
ATOM     83  C   UNL A   1      44.083  27.669  26.519  1.00  0.00     0.059 A 
ATOM     84  F   UNL A   1      43.109  29.801  26.686  1.00  0.00    -0.206 F 
ATOM     85  C   UNL A   1      44.922  26.690  27.056  1.00  0.00     0.060 A 
BRANCH  85  86
ATOM     86  S   UNL A   1      44.789  24.958  26.550  1.00  0.00     0.124 S 
ATOM     87  O   UNL A   1      43.559  24.965  25.767  1.00  0.00    -0.237 OA
ATOM     88  O   UNL A   1      46.021  24.773  25.783  1.00  0.00    -0.237 OA
ATOM     89  O   UNL A   1      44.729  24.240  27.818  1.00  0.00    -0.744 OA
ENDBRANCH  85  86
ENDBRANCH  53  78
BRANCH  65  90
ATOM     90  C   UNL A   1      42.509  36.091  28.629  1.00  0.00     0.058 A 
ATOM     91  C   UNL A   1      42.995  37.177  29.376  1.00  0.00     0.135 A 
ATOM     92  C   UNL A   1      42.230  36.362  27.268  1.00  0.00     0.135 A 
ATOM     93  F   UNL A   1      43.407  37.023  30.642  1.00  0.00    -0.206 F 
ATOM     94  C   UNL A   1      43.121  38.461  28.839  1.00  0.00     0.059 A 
ATOM     95  C   UNL A   1      42.400  37.622  26.698  1.00  0.00     0.059 A 
ATOM     96  F   UNL A   1      41.791  35.402  26.441  1.00  0.00    -0.206 F 
ATOM     97  C   UNL A   1      42.817  38.675  27.498  1.00  0.00     0.060 A 
BRANCH  97  98
ATOM     98  S   UNL A   1      43.027  40.314  26.780  1.00  0.00     0.124 S 
ATOM     99  O   UNL A   1      44.072  40.067  25.791  1.00  0.00    -0.237 OA
ATOM    100  O   UNL A   1      41.704  40.607  26.237  1.00  0.00    -0.237 OA
ATOM    101  O   UNL A   1      43.419  41.130  27.925  1.00  0.00    -0.744 OA
ENDBRANCH  97  98
ENDBRANCH  65  90
ENDBRANCH  39  40
ENDBRANCH  31  34
ENDBRANCH  29  30
ENDBRANCH   1  29
TORSDOF 17
ENDMDL
