MODEL 1
REMARK VINA RESULT:     -12.3      0.000      0.000
REMARK SMILES O=C(Cc1ccccc1)Nc1cc(Cl)ccc1C(=O)NCCCNC(=O)c1ccc(-c2c3nc(c(-c4c(F)cc(S(=O)(=O)[O-])cc4F)c4ccc([nH]4)c(-c4c(F)cc(S(=O)(=O)[O-])cc4F)c4nc(c(-c5c(F)cc(S(=O)(=O)[O-])cc5F)c5ccc2[nH]5)C=C4)C=C3)cc1
REMARK SMILES IDX 22 1 21 2 20 3 18 4 19 5 17 7 11 8 12 9 13 10 16 11 14 12
REMARK SMILES IDX 15 13 10 14 1 15 2 16 3 18 4 19 5 20 9 21 6 22 8 23 7 24
REMARK SMILES IDX 23 25 24 26 25 27 26 29 27 30 28 31 92 32 29 33 91 34 30 35
REMARK SMILES IDX 31 36 32 37 85 38 33 39 90 40 84 41 86 42 34 43 89 44 83 45
REMARK SMILES IDX 82 46 35 48 69 49 48 50 68 51 49 52 52 53 67 54 87 55 50 56
REMARK SMILES IDX 51 57 66 59 88 60 53 61 36 62 37 63 46 64 38 65 39 66 45 67
REMARK SMILES IDX 47 68 40 69 41 70 42 71 43 72 44 73 70 74 71 75 80 76 72 77
REMARK SMILES IDX 73 78 79 79 81 80 74 81 75 82 76 83 77 84 78 85 54 86 55 87
REMARK SMILES IDX 64 88 56 89 57 90 63 91 65 92 58 93 59 94 60 95 61 96 62 97
REMARK H PARENT 20 6 10 17 24 28 86 47 52 58
REMARK Flexibility Score: inf
ROOT
ATOM      1  C   UNL A   1      33.858  28.142  25.937  1.00  0.00     0.042 C 
ENDROOT
BRANCH   1   2
ATOM      2  C   UNL A   1      33.318  28.894  24.741  1.00  0.00     0.118 C 
BRANCH   2   3
ATOM      3  N   UNL A   1      34.069  28.855  23.519  1.00  0.00    -0.352 N 
ATOM      4  C   UNL A   1      33.808  28.067  22.416  1.00  0.00     0.253 C 
ATOM      5  O   UNL A   1      34.390  28.336  21.363  1.00  0.00    -0.269 OA
ATOM      6  H   UNL A   1      34.850  29.451  23.462  1.00  0.00     0.163 HD
BRANCH   4   7
ATOM      7  C   UNL A   1      33.048  26.780  22.518  1.00  0.00     0.063 A 
ATOM      8  C   UNL A   1      31.653  26.553  22.609  1.00  0.00     0.055 A 
ATOM      9  C   UNL A   1      31.210  25.264  22.976  1.00  0.00     0.047 A 
ATOM     10  C   UNL A   1      32.103  24.205  23.149  1.00  0.00     0.043 A 
ATOM     11  C   UNL A   1      33.928  25.679  22.672  1.00  0.00     0.017 A 
ATOM     12  Cl  UNL A   1      31.512  22.644  23.569  1.00  0.00    -0.084 Cl
ATOM     13  C   UNL A   1      33.462  24.400  22.975  1.00  0.00     0.021 A 
BRANCH   8  14
ATOM     14  N   UNL A   1      30.600  27.484  22.400  1.00  0.00    -0.325 N 
ATOM     15  O   UNL A   1      30.001  27.956  24.567  1.00  0.00    -0.274 OA
ATOM     16  C   UNL A   1      29.770  28.024  23.361  1.00  0.00     0.228 C 
ATOM     17  H   UNL A   1      30.445  27.774  21.471  1.00  0.00     0.169 HD
BRANCH  16  18
ATOM     18  C   UNL A   1      28.435  28.565  22.844  1.00  0.00     0.135 C 
BRANCH  18  19
ATOM     19  C   UNL A   1      28.293  30.038  22.559  1.00  0.00    -0.039 A 
ATOM     20  C   UNL A   1      28.041  30.458  21.248  1.00  0.00     0.004 A 
ATOM     21  C   UNL A   1      28.589  31.001  23.537  1.00  0.00     0.004 A 
ATOM     22  C   UNL A   1      28.091  31.811  20.917  1.00  0.00     0.000 A 
ATOM     23  C   UNL A   1      28.617  32.357  23.208  1.00  0.00     0.000 A 
ATOM     24  C   UNL A   1      28.375  32.760  21.897  1.00  0.00     0.000 A 
ENDBRANCH  18  19
ENDBRANCH  16  18
ENDBRANCH   8  14
ENDBRANCH   4   7
ENDBRANCH   2   3
ENDBRANCH   1   2
BRANCH   1  25
ATOM     25  C   UNL A   1      33.217  28.511  27.273  1.00  0.00     0.118 C 
BRANCH  25  26
ATOM     26  N   UNL A   1      33.321  29.924  27.645  1.00  0.00    -0.352 N 
ATOM     27  C   UNL A   1      34.347  30.692  28.160  1.00  0.00     0.251 C 
ATOM     28  H   UNL A   1      32.490  30.430  27.497  1.00  0.00     0.163 HD
ATOM     29  O   UNL A   1      34.111  31.847  28.492  1.00  0.00    -0.269 OA
BRANCH  27  30
ATOM     30  C   UNL A   1      35.710  30.135  28.349  1.00  0.00     0.039 A 
ATOM     31  C   UNL A   1      36.612  30.123  27.277  1.00  0.00     0.014 A 
ATOM     32  C   UNL A   1      36.106  29.610  29.572  1.00  0.00     0.014 A 
ATOM     33  C   UNL A   1      37.932  29.695  27.478  1.00  0.00     0.010 A 
ATOM     34  C   UNL A   1      37.445  29.329  29.809  1.00  0.00     0.010 A 
ATOM     35  C   UNL A   1      38.378  29.355  28.765  1.00  0.00    -0.014 A 
BRANCH  35  36
ATOM     36  C   UNL A   1      39.792  28.998  29.070  1.00  0.00     0.031 A 
ATOM     37  C   UNL A   1      40.718  30.044  29.644  1.00  0.00     0.074 A 
ATOM     38  C   UNL A   1      40.279  27.792  28.715  1.00  0.00     0.049 A 
ATOM     39  N   UNL A   1      42.019  30.016  29.780  1.00  0.00    -0.248 NA
ATOM     40  C   UNL A   1      40.103  31.316  30.062  1.00  0.00     0.031 C 
ATOM     41  C   UNL A   1      39.511  26.711  28.090  1.00  0.00     0.029 A 
ATOM     42  N   UNL A   1      41.549  27.277  28.810  1.00  0.00    -0.354 N 
ATOM     43  C   UNL A   1      42.377  31.277  30.248  1.00  0.00     0.074 A 
ATOM     44  C   UNL A   1      41.167  32.065  30.309  1.00  0.00     0.031 C 
ATOM     45  C   UNL A   1      40.317  25.657  27.883  1.00  0.00     0.029 A 
ATOM     46  C   UNL A   1      41.668  25.998  28.315  1.00  0.00     0.049 A 
ATOM     47  H   UNL A   1      42.305  27.776  29.195  1.00  0.00     0.167 HD
ATOM     48  C   UNL A   1      43.598  31.730  30.624  1.00  0.00     0.037 A 
ATOM     49  C   UNL A   1      42.744  25.195  28.213  1.00  0.00     0.037 A 
ATOM     50  C   UNL A   1      44.783  30.916  30.635  1.00  0.00     0.049 A 
ATOM     51  C   UNL A   1      44.077  25.694  28.699  1.00  0.00     0.074 A 
ATOM     52  C   UNL A   1      46.052  31.248  31.076  1.00  0.00     0.029 A 
ATOM     53  N   UNL A   1      44.842  29.600  30.201  1.00  0.00    -0.354 N 
ATOM     54  N   UNL A   1      44.389  26.873  29.184  1.00  0.00    -0.248 NA
ATOM     55  C   UNL A   1      45.205  24.754  28.634  1.00  0.00     0.031 C 
ATOM     56  C   UNL A   1      46.884  30.140  30.884  1.00  0.00     0.029 A 
ATOM     57  C   UNL A   1      46.123  29.105  30.362  1.00  0.00     0.049 A 
ATOM     58  H   UNL A   1      44.082  29.092  29.832  1.00  0.00     0.167 HD
ATOM     59  C   UNL A   1      45.739  26.805  29.510  1.00  0.00     0.074 A 
ATOM     60  C   UNL A   1      46.181  25.467  29.177  1.00  0.00     0.031 C 
ATOM     61  C   UNL A   1      46.540  27.763  30.041  1.00  0.00     0.037 A 
BRANCH  48  62
ATOM     62  C   UNL A   1      43.701  33.162  31.081  1.00  0.00     0.058 A 
ATOM     63  C   UNL A   1      43.907  34.213  30.173  1.00  0.00     0.135 A 
ATOM     64  C   UNL A   1      43.574  33.489  32.441  1.00  0.00     0.135 A 
ATOM     65  F   UNL A   1      44.051  33.958  28.863  1.00  0.00    -0.206 F 
ATOM     66  C   UNL A   1      44.026  35.532  30.600  1.00  0.00     0.059 A 
ATOM     67  C   UNL A   1      43.657  34.806  32.886  1.00  0.00     0.059 A 
ATOM     68  F   UNL A   1      43.373  32.526  33.353  1.00  0.00    -0.206 F 
ATOM     69  C   UNL A   1      43.903  35.818  31.960  1.00  0.00     0.060 A 
BRANCH  69  70
ATOM     70  S   UNL A   1      44.060  37.534  32.496  1.00  0.00     0.124 S 
ATOM     71  O   UNL A   1      43.074  37.594  33.570  1.00  0.00    -0.237 OA
ATOM     72  O   UNL A   1      45.457  37.605  32.913  1.00  0.00    -0.237 OA
ATOM     73  O   UNL A   1      43.727  38.296  31.296  1.00  0.00    -0.744 OA
ENDBRANCH  69  70
ENDBRANCH  48  62
BRANCH  49  74
ATOM     74  C   UNL A   1      42.597  23.818  27.669  1.00  0.00     0.058 A 
ATOM     75  C   UNL A   1      42.449  22.720  28.529  1.00  0.00     0.135 A 
ATOM     76  C   UNL A   1      42.583  23.570  26.288  1.00  0.00     0.135 A 
ATOM     77  F   UNL A   1      42.462  22.905  29.859  1.00  0.00    -0.206 F 
ATOM     78  C   UNL A   1      42.310  21.423  28.044  1.00  0.00     0.059 A 
ATOM     79  C   UNL A   1      42.420  22.285  25.776  1.00  0.00     0.059 A 
ATOM     80  F   UNL A   1      42.700  24.588  25.420  1.00  0.00    -0.206 F 
ATOM     81  C   UNL A   1      42.294  21.217  26.664  1.00  0.00     0.060 A 
BRANCH  81  82
ATOM     82  S   UNL A   1      42.058  19.537  26.043  1.00  0.00     0.124 S 
ATOM     83  O   UNL A   1      42.434  18.740  27.204  1.00  0.00    -0.237 OA
ATOM     84  O   UNL A   1      40.640  19.534  25.698  1.00  0.00    -0.237 OA
ATOM     85  O   UNL A   1      42.971  19.470  24.905  1.00  0.00    -0.744 OA
ENDBRANCH  81  82
ENDBRANCH  49  74
BRANCH  61  86
ATOM     86  C   UNL A   1      47.962  27.386  30.341  1.00  0.00     0.058 A 
ATOM     87  C   UNL A   1      49.019  27.760  29.498  1.00  0.00     0.135 A 
ATOM     88  C   UNL A   1      48.274  26.683  31.515  1.00  0.00     0.135 A 
ATOM     89  F   UNL A   1      48.773  28.429  28.360  1.00  0.00    -0.206 F 
ATOM     90  C   UNL A   1      50.337  27.429  29.798  1.00  0.00     0.059 A 
ATOM     91  C   UNL A   1      49.586  26.365  31.848  1.00  0.00     0.059 A 
ATOM     92  F   UNL A   1      47.300  26.313  32.361  1.00  0.00    -0.206 F 
ATOM     93  C   UNL A   1      50.610  26.731  30.976  1.00  0.00     0.060 A 
BRANCH  93  94
ATOM     94  S   UNL A   1      52.326  26.334  31.369  1.00  0.00     0.124 S 
ATOM     95  O   UNL A   1      52.814  27.612  31.876  1.00  0.00    -0.237 OA
ATOM     96  O   UNL A   1      52.184  25.271  32.360  1.00  0.00    -0.237 OA
ATOM     97  O   UNL A   1      52.879  25.915  30.084  1.00  0.00    -0.744 OA
ENDBRANCH  93  94
ENDBRANCH  61  86
ENDBRANCH  35  36
ENDBRANCH  27  30
ENDBRANCH  25  26
ENDBRANCH   1  25
TORSDOF 16
ENDMDL
MODEL 2
REMARK VINA RESULT:     -12.3      1.564      2.618
REMARK SMILES O=C(Cc1ccccc1)Nc1cc(Cl)ccc1C(=O)NCCCNC(=O)c1ccc(-c2c3nc(c(-c4c(F)cc(S(=O)(=O)[O-])cc4F)c4ccc([nH]4)c(-c4c(F)cc(S(=O)(=O)[O-])cc4F)c4nc(c(-c5c(F)cc(S(=O)(=O)[O-])cc5F)c5ccc2[nH]5)C=C4)C=C3)cc1
REMARK SMILES IDX 22 1 21 2 20 3 18 4 19 5 17 7 11 8 12 9 13 10 16 11 14 12
REMARK SMILES IDX 15 13 10 14 1 15 2 16 3 18 4 19 5 20 9 21 6 22 8 23 7 24
REMARK SMILES IDX 23 25 24 26 25 27 26 29 27 30 28 31 92 32 29 33 91 34 30 35
REMARK SMILES IDX 31 36 32 37 85 38 33 39 90 40 84 41 86 42 34 43 89 44 83 45
REMARK SMILES IDX 82 46 35 48 69 49 48 50 68 51 49 52 52 53 67 54 87 55 50 56
REMARK SMILES IDX 51 57 66 59 88 60 53 61 36 62 37 63 46 64 38 65 39 66 45 67
REMARK SMILES IDX 47 68 40 69 41 70 42 71 43 72 44 73 70 74 71 75 80 76 72 77
REMARK SMILES IDX 73 78 79 79 81 80 74 81 75 82 76 83 77 84 78 85 54 86 55 87
REMARK SMILES IDX 64 88 56 89 57 90 63 91 65 92 58 93 59 94 60 95 61 96 62 97
REMARK H PARENT 20 6 10 17 24 28 86 47 52 58
REMARK Flexibility Score: inf
ROOT
ATOM      1  C   UNL A   1      33.973  27.869  26.130  1.00  0.00     0.042 C 
ENDROOT
BRANCH   1   2
ATOM      2  C   UNL A   1      33.593  26.476  25.679  1.00  0.00     0.118 C 
BRANCH   2   3
ATOM      3  N   UNL A   1      32.412  25.881  26.237  1.00  0.00    -0.352 N 
ATOM      4  C   UNL A   1      32.234  24.551  26.561  1.00  0.00     0.253 C 
ATOM      5  O   UNL A   1      31.264  24.251  27.260  1.00  0.00    -0.269 OA
ATOM      6  H   UNL A   1      31.652  26.483  26.406  1.00  0.00     0.163 HD
BRANCH   4   7
ATOM      7  C   UNL A   1      33.021  23.459  25.904  1.00  0.00     0.063 A 
ATOM      8  C   UNL A   1      33.021  23.023  24.557  1.00  0.00     0.055 A 
ATOM      9  C   UNL A   1      33.646  21.794  24.252  1.00  0.00     0.047 A 
ATOM     10  C   UNL A   1      34.337  21.066  25.222  1.00  0.00     0.043 A 
ATOM     11  C   UNL A   1      33.755  22.711  26.860  1.00  0.00     0.017 A 
ATOM     12  Cl  UNL A   1      35.107  19.586  24.798  1.00  0.00    -0.084 Cl
ATOM     13  C   UNL A   1      34.416  21.531  26.524  1.00  0.00     0.021 A 
BRANCH   8  14
ATOM     14  N   UNL A   1      32.436  23.662  23.430  1.00  0.00    -0.325 N 
ATOM     15  O   UNL A   1      34.283  24.648  22.483  1.00  0.00    -0.274 OA
ATOM     16  C   UNL A   1      33.062  24.520  22.549  1.00  0.00     0.228 C 
ATOM     17  H   UNL A   1      31.485  23.473  23.260  1.00  0.00     0.169 HD
BRANCH  16  18
ATOM     18  C   UNL A   1      32.129  25.450  21.768  1.00  0.00     0.135 C 
BRANCH  18  19
ATOM     19  C   UNL A   1      31.619  26.707  22.423  1.00  0.00    -0.039 A 
ATOM     20  C   UNL A   1      32.440  27.841  22.456  1.00  0.00     0.004 A 
ATOM     21  C   UNL A   1      30.422  26.713  23.156  1.00  0.00     0.004 A 
ATOM     22  C   UNL A   1      32.077  28.955  23.213  1.00  0.00     0.000 A 
ATOM     23  C   UNL A   1      30.051  27.836  23.896  1.00  0.00     0.000 A 
ATOM     24  C   UNL A   1      30.882  28.954  23.929  1.00  0.00     0.000 A 
ENDBRANCH  18  19
ENDBRANCH  16  18
ENDBRANCH   8  14
ENDBRANCH   4   7
ENDBRANCH   2   3
ENDBRANCH   1   2
BRANCH   1  25
ATOM     25  C   UNL A   1      33.258  28.356  27.388  1.00  0.00     0.118 C 
BRANCH  25  26
ATOM     26  N   UNL A   1      33.380  29.791  27.658  1.00  0.00    -0.352 N 
ATOM     27  C   UNL A   1      34.423  30.585  28.097  1.00  0.00     0.251 C 
ATOM     28  H   UNL A   1      32.550  30.292  27.492  1.00  0.00     0.163 HD
ATOM     29  O   UNL A   1      34.202  31.761  28.352  1.00  0.00    -0.269 OA
BRANCH  27  30
ATOM     30  C   UNL A   1      35.786  30.031  28.296  1.00  0.00     0.039 A 
ATOM     31  C   UNL A   1      36.713  30.067  27.247  1.00  0.00     0.014 A 
ATOM     32  C   UNL A   1      36.156  29.460  29.507  1.00  0.00     0.014 A 
ATOM     33  C   UNL A   1      38.031  29.641  27.463  1.00  0.00     0.010 A 
ATOM     34  C   UNL A   1      37.491  29.180  29.765  1.00  0.00     0.010 A 
ATOM     35  C   UNL A   1      38.449  29.254  28.745  1.00  0.00    -0.014 A 
BRANCH  35  36
ATOM     36  C   UNL A   1      39.858  28.895  29.070  1.00  0.00     0.031 A 
ATOM     37  C   UNL A   1      40.775  29.939  29.664  1.00  0.00     0.074 A 
ATOM     38  C   UNL A   1      40.351  27.691  28.716  1.00  0.00     0.049 A 
ATOM     39  N   UNL A   1      42.074  29.910  29.820  1.00  0.00    -0.248 NA
ATOM     40  C   UNL A   1      40.154  31.207  30.079  1.00  0.00     0.031 C 
ATOM     41  C   UNL A   1      39.593  26.614  28.072  1.00  0.00     0.029 A 
ATOM     42  N   UNL A   1      41.620  27.176  28.826  1.00  0.00    -0.354 N 
ATOM     43  C   UNL A   1      42.424  31.168  30.300  1.00  0.00     0.074 A 
ATOM     44  C   UNL A   1      41.213  31.955  30.348  1.00  0.00     0.031 C 
ATOM     45  C   UNL A   1      40.402  25.561  27.872  1.00  0.00     0.029 A 
ATOM     46  C   UNL A   1      41.747  25.900  28.326  1.00  0.00     0.049 A 
ATOM     47  H   UNL A   1      42.370  27.674  29.226  1.00  0.00     0.167 HD
ATOM     48  C   UNL A   1      43.639  31.619  30.698  1.00  0.00     0.037 A 
ATOM     49  C   UNL A   1      42.824  25.098  28.236  1.00  0.00     0.037 A 
ATOM     50  C   UNL A   1      44.825  30.805  30.722  1.00  0.00     0.049 A 
ATOM     51  C   UNL A   1      44.150  25.595  28.745  1.00  0.00     0.074 A 
ATOM     52  C   UNL A   1      46.086  31.135  31.184  1.00  0.00     0.029 A 
ATOM     53  N   UNL A   1      44.890  29.492  30.281  1.00  0.00    -0.354 N 
ATOM     54  N   UNL A   1      44.453  26.771  29.241  1.00  0.00    -0.248 NA
ATOM     55  C   UNL A   1      45.279  24.655  28.692  1.00  0.00     0.031 C 
ATOM     56  C   UNL A   1      46.922  30.028  30.999  1.00  0.00     0.029 A 
ATOM     57  C   UNL A   1      46.169  28.996  30.459  1.00  0.00     0.049 A 
ATOM     58  H   UNL A   1      44.136  28.986  29.898  1.00  0.00     0.167 HD
ATOM     59  C   UNL A   1      45.798  26.702  29.588  1.00  0.00     0.074 A 
ATOM     60  C   UNL A   1      46.246  25.366  29.254  1.00  0.00     0.031 C 
ATOM     61  C   UNL A   1      46.591  27.657  30.136  1.00  0.00     0.037 A 
BRANCH  48  62
ATOM     62  C   UNL A   1      43.735  33.048  31.165  1.00  0.00     0.058 A 
ATOM     63  C   UNL A   1      44.094  34.088  30.291  1.00  0.00     0.135 A 
ATOM     64  C   UNL A   1      43.446  33.385  32.497  1.00  0.00     0.135 A 
ATOM     65  F   UNL A   1      44.395  33.821  29.010  1.00  0.00    -0.206 F 
ATOM     66  C   UNL A   1      44.205  35.403  30.730  1.00  0.00     0.059 A 
ATOM     67  C   UNL A   1      43.520  34.701  32.950  1.00  0.00     0.059 A 
ATOM     68  F   UNL A   1      43.095  32.434  33.376  1.00  0.00    -0.206 F 
ATOM     69  C   UNL A   1      43.918  35.699  32.063  1.00  0.00     0.060 A 
BRANCH  69  70
ATOM     70  S   UNL A   1      44.068  37.411  32.615  1.00  0.00     0.124 S 
ATOM     71  O   UNL A   1      45.432  37.428  33.136  1.00  0.00    -0.237 OA
ATOM     72  O   UNL A   1      43.853  38.159  31.381  1.00  0.00    -0.237 OA
ATOM     73  O   UNL A   1      43.013  37.539  33.615  1.00  0.00    -0.744 OA
ENDBRANCH  69  70
ENDBRANCH  48  62
BRANCH  49  74
ATOM     74  C   UNL A   1      42.686  23.724  27.681  1.00  0.00     0.058 A 
ATOM     75  C   UNL A   1      42.392  22.639  28.521  1.00  0.00     0.135 A 
ATOM     76  C   UNL A   1      42.826  23.467  26.309  1.00  0.00     0.135 A 
ATOM     77  F   UNL A   1      42.254  22.833  29.842  1.00  0.00    -0.206 F 
ATOM     78  C   UNL A   1      42.257  21.346  28.026  1.00  0.00     0.059 A 
ATOM     79  C   UNL A   1      42.672  22.186  25.785  1.00  0.00     0.059 A 
ATOM     80  F   UNL A   1      43.087  24.473  25.459  1.00  0.00    -0.206 F 
ATOM     81  C   UNL A   1      42.397  21.130  26.654  1.00  0.00     0.060 A 
BRANCH  81  82
ATOM     82  S   UNL A   1      42.167  19.457  26.014  1.00  0.00     0.124 S 
ATOM     83  O   UNL A   1      42.705  18.650  27.101  1.00  0.00    -0.237 OA
ATOM     84  O   UNL A   1      40.720  19.397  25.827  1.00  0.00    -0.237 OA
ATOM     85  O   UNL A   1      42.949  19.461  24.780  1.00  0.00    -0.744 OA
ENDBRANCH  81  82
ENDBRANCH  49  74
BRANCH  61  86
ATOM     86  C   UNL A   1      48.009  27.278  30.456  1.00  0.00     0.058 A 
ATOM     87  C   UNL A   1      48.365  26.727  31.695  1.00  0.00     0.135 A 
ATOM     88  C   UNL A   1      49.014  27.423  29.487  1.00  0.00     0.135 A 
ATOM     89  F   UNL A   1      47.441  26.574  32.658  1.00  0.00    -0.206 F 
ATOM     90  C   UNL A   1      49.676  26.355  31.973  1.00  0.00     0.059 A 
ATOM     91  C   UNL A   1      50.326  27.033  29.733  1.00  0.00     0.059 A 
ATOM     92  F   UNL A   1      48.722  27.934  28.280  1.00  0.00    -0.206 F 
ATOM     93  C   UNL A   1      50.650  26.512  30.984  1.00  0.00     0.060 A 
BRANCH  93  94
ATOM     94  S   UNL A   1      52.342  25.997  31.346  1.00  0.00     0.124 S 
ATOM     95  O   UNL A   1      52.138  24.630  31.813  1.00  0.00    -0.237 OA
ATOM     96  O   UNL A   1      52.996  26.133  30.048  1.00  0.00    -0.237 OA
ATOM     97  O   UNL A   1      52.775  26.951  32.363  1.00  0.00    -0.744 OA
ENDBRANCH  93  94
ENDBRANCH  61  86
ENDBRANCH  35  36
ENDBRANCH  27  30
ENDBRANCH  25  26
ENDBRANCH   1  25
TORSDOF 16
ENDMDL
MODEL 3
REMARK VINA RESULT:     -12.2      1.354      3.575
REMARK SMILES O=C(Cc1ccccc1)Nc1cc(Cl)ccc1C(=O)NCCCNC(=O)c1ccc(-c2c3nc(c(-c4c(F)cc(S(=O)(=O)[O-])cc4F)c4ccc([nH]4)c(-c4c(F)cc(S(=O)(=O)[O-])cc4F)c4nc(c(-c5c(F)cc(S(=O)(=O)[O-])cc5F)c5ccc2[nH]5)C=C4)C=C3)cc1
REMARK SMILES IDX 22 1 21 2 20 3 18 4 19 5 17 7 11 8 12 9 13 10 16 11 14 12
REMARK SMILES IDX 15 13 10 14 1 15 2 16 3 18 4 19 5 20 9 21 6 22 8 23 7 24
REMARK SMILES IDX 23 25 24 26 25 27 26 29 27 30 28 31 92 32 29 33 91 34 30 35
REMARK SMILES IDX 31 36 32 37 85 38 33 39 90 40 84 41 86 42 34 43 89 44 83 45
REMARK SMILES IDX 82 46 35 48 69 49 48 50 68 51 49 52 52 53 67 54 87 55 50 56
REMARK SMILES IDX 51 57 66 59 88 60 53 61 36 62 37 63 46 64 38 65 39 66 45 67
REMARK SMILES IDX 47 68 40 69 41 70 42 71 43 72 44 73 70 74 71 75 80 76 72 77
REMARK SMILES IDX 73 78 79 79 81 80 74 81 75 82 76 83 77 84 78 85 54 86 55 87
REMARK SMILES IDX 64 88 56 89 57 90 63 91 65 92 58 93 59 94 60 95 61 96 62 97
REMARK H PARENT 20 6 10 17 24 28 86 47 52 58
REMARK Flexibility Score: inf
ROOT
ATOM      1  C   UNL A   1      34.067  27.951  26.247  1.00  0.00     0.042 C 
ENDROOT
BRANCH   1   2
ATOM      2  C   UNL A   1      33.666  28.439  24.874  1.00  0.00     0.118 C 
BRANCH   2   3
ATOM      3  N   UNL A   1      33.722  27.511  23.780  1.00  0.00    -0.352 N 
ATOM      4  C   UNL A   1      32.713  27.238  22.878  1.00  0.00     0.253 C 
ATOM      5  O   UNL A   1      33.004  26.612  21.857  1.00  0.00    -0.269 OA
ATOM      6  H   UNL A   1      34.566  27.019  23.661  1.00  0.00     0.163 HD
BRANCH   4   7
ATOM      7  C   UNL A   1      31.268  27.457  23.209  1.00  0.00     0.063 A 
ATOM      8  C   UNL A   1      30.328  26.578  23.800  1.00  0.00     0.055 A 
ATOM      9  C   UNL A   1      28.962  26.930  23.748  1.00  0.00     0.047 A 
ATOM     10  C   UNL A   1      28.541  28.154  23.223  1.00  0.00     0.043 A 
ATOM     11  C   UNL A   1      30.813  28.703  22.709  1.00  0.00     0.017 A 
ATOM     12  Cl  UNL A   1      26.866  28.550  23.208  1.00  0.00    -0.084 Cl
ATOM     13  C   UNL A   1      29.464  29.056  22.724  1.00  0.00     0.021 A 
BRANCH   8  14
ATOM     14  N   UNL A   1      30.575  25.333  24.438  1.00  0.00    -0.325 N 
ATOM     15  O   UNL A   1      30.905  26.016  26.607  1.00  0.00    -0.274 OA
ATOM     16  C   UNL A   1      30.964  25.139  25.748  1.00  0.00     0.228 C 
ATOM     17  H   UNL A   1      30.456  24.524  23.889  1.00  0.00     0.169 HD
BRANCH  16  18
ATOM     18  C   UNL A   1      31.649  23.800  26.035  1.00  0.00     0.135 C 
BRANCH  18  19
ATOM     19  C   UNL A   1      33.030  23.543  25.490  1.00  0.00    -0.039 A 
ATOM     20  C   UNL A   1      34.061  24.439  25.793  1.00  0.00     0.004 A 
ATOM     21  C   UNL A   1      33.262  22.535  24.541  1.00  0.00     0.004 A 
ATOM     22  C   UNL A   1      35.298  24.336  25.156  1.00  0.00     0.000 A 
ATOM     23  C   UNL A   1      34.506  22.421  23.920  1.00  0.00     0.000 A 
ATOM     24  C   UNL A   1      35.521  23.326  24.223  1.00  0.00     0.000 A 
ENDBRANCH  18  19
ENDBRANCH  16  18
ENDBRANCH   8  14
ENDBRANCH   4   7
ENDBRANCH   2   3
ENDBRANCH   1   2
BRANCH   1  25
ATOM     25  C   UNL A   1      33.245  28.522  27.400  1.00  0.00     0.118 C 
BRANCH  25  26
ATOM     26  N   UNL A   1      33.400  29.962  27.622  1.00  0.00    -0.352 N 
ATOM     27  C   UNL A   1      34.459  30.745  28.040  1.00  0.00     0.251 C 
ATOM     28  H   UNL A   1      32.582  30.477  27.434  1.00  0.00     0.163 HD
ATOM     29  O   UNL A   1      34.265  31.935  28.254  1.00  0.00    -0.269 OA
BRANCH  27  30
ATOM     30  C   UNL A   1      35.806  30.166  28.266  1.00  0.00     0.039 A 
ATOM     31  C   UNL A   1      36.754  30.182  27.235  1.00  0.00     0.014 A 
ATOM     32  C   UNL A   1      36.143  29.591  29.486  1.00  0.00     0.014 A 
ATOM     33  C   UNL A   1      38.060  29.731  27.477  1.00  0.00     0.010 A 
ATOM     34  C   UNL A   1      37.468  29.286  29.769  1.00  0.00     0.010 A 
ATOM     35  C   UNL A   1      38.445  29.340  28.768  1.00  0.00    -0.014 A 
BRANCH  35  36
ATOM     36  C   UNL A   1      39.842  28.955  29.120  1.00  0.00     0.031 A 
ATOM     37  C   UNL A   1      40.764  29.980  29.734  1.00  0.00     0.074 A 
ATOM     38  C   UNL A   1      40.320  27.743  28.773  1.00  0.00     0.049 A 
ATOM     39  N   UNL A   1      42.059  29.928  29.917  1.00  0.00    -0.248 NA
ATOM     40  C   UNL A   1      40.158  31.259  30.140  1.00  0.00     0.031 C 
ATOM     41  C   UNL A   1      39.556  26.681  28.112  1.00  0.00     0.029 A 
ATOM     42  N   UNL A   1      41.576  27.205  28.908  1.00  0.00    -0.354 N 
ATOM     43  C   UNL A   1      42.423  31.179  30.407  1.00  0.00     0.074 A 
ATOM     44  C   UNL A   1      41.225  31.988  30.431  1.00  0.00     0.031 C 
ATOM     45  C   UNL A   1      40.349  25.614  27.926  1.00  0.00     0.029 A 
ATOM     46  C   UNL A   1      41.690  25.928  28.408  1.00  0.00     0.049 A 
ATOM     47  H   UNL A   1      42.327  27.688  29.324  1.00  0.00     0.167 HD
ATOM     48  C   UNL A   1      43.637  31.607  30.830  1.00  0.00     0.037 A 
ATOM     49  C   UNL A   1      42.755  25.106  28.338  1.00  0.00     0.037 A 
ATOM     50  C   UNL A   1      44.807  30.772  30.876  1.00  0.00     0.049 A 
ATOM     51  C   UNL A   1      44.079  25.578  28.874  1.00  0.00     0.074 A 
ATOM     52  C   UNL A   1      46.065  31.078  31.364  1.00  0.00     0.029 A 
ATOM     53  N   UNL A   1      44.858  29.459  30.434  1.00  0.00    -0.354 N 
ATOM     54  N   UNL A   1      44.393  26.748  29.379  1.00  0.00    -0.248 NA
ATOM     55  C   UNL A   1      45.191  24.618  28.842  1.00  0.00     0.031 C 
ATOM     56  C   UNL A   1      46.884  29.957  31.193  1.00  0.00     0.029 A 
ATOM     57  C   UNL A   1      46.124  28.940  30.636  1.00  0.00     0.049 A 
ATOM     58  H   UNL A   1      44.103  28.967  30.034  1.00  0.00     0.167 HD
ATOM     59  C   UNL A   1      45.730  26.654  29.753  1.00  0.00     0.074 A 
ATOM     60  C   UNL A   1      46.160  25.310  29.425  1.00  0.00     0.031 C 
ATOM     61  C   UNL A   1      46.528  27.593  30.319  1.00  0.00     0.037 A 
BRANCH  48  62
ATOM     62  C   UNL A   1      43.749  33.033  31.301  1.00  0.00     0.058 A 
ATOM     63  C   UNL A   1      43.505  33.390  32.638  1.00  0.00     0.135 A 
ATOM     64  C   UNL A   1      44.122  34.053  30.411  1.00  0.00     0.135 A 
ATOM     65  F   UNL A   1      43.130  32.459  33.529  1.00  0.00    -0.206 F 
ATOM     66  C   UNL A   1      43.585  34.711  33.065  1.00  0.00     0.059 A 
ATOM     67  C   UNL A   1      44.241  35.378  30.826  1.00  0.00     0.059 A 
ATOM     68  F   UNL A   1      44.370  33.771  29.123  1.00  0.00    -0.206 F 
ATOM     69  C   UNL A   1      43.952  35.699  32.151  1.00  0.00     0.060 A 
BRANCH  69  70
ATOM     70  S   UNL A   1      44.051  37.408  32.723  1.00  0.00     0.124 S 
ATOM     71  O   UNL A   1      45.399  37.448  33.281  1.00  0.00    -0.237 OA
ATOM     72  O   UNL A   1      43.853  38.163  31.491  1.00  0.00    -0.237 OA
ATOM     73  O   UNL A   1      42.967  37.503  33.696  1.00  0.00    -0.744 OA
ENDBRANCH  69  70
ENDBRANCH  48  62
BRANCH  49  74
ATOM     74  C   UNL A   1      42.603  23.736  27.778  1.00  0.00     0.058 A 
ATOM     75  C   UNL A   1      42.658  23.519  26.392  1.00  0.00     0.135 A 
ATOM     76  C   UNL A   1      42.421  22.618  28.606  1.00  0.00     0.135 A 
ATOM     77  F   UNL A   1      42.826  24.558  25.558  1.00  0.00    -0.206 F 
ATOM     78  C   UNL A   1      42.520  22.248  25.845  1.00  0.00     0.059 A 
ATOM     79  C   UNL A   1      42.306  21.332  28.083  1.00  0.00     0.059 A 
ATOM     80  F   UNL A   1      42.383  22.767  29.939  1.00  0.00    -0.206 F 
ATOM     81  C   UNL A   1      42.347  21.159  26.700  1.00  0.00     0.060 A 
BRANCH  81  82
ATOM     82  S   UNL A   1      42.224  19.506  25.983  1.00  0.00     0.124 S 
ATOM     83  O   UNL A   1      40.795  19.410  25.712  1.00  0.00    -0.237 OA
ATOM     84  O   UNL A   1      43.090  19.614  24.813  1.00  0.00    -0.237 OA
ATOM     85  O   UNL A   1      42.727  18.642  27.046  1.00  0.00    -0.744 OA
ENDBRANCH  81  82
ENDBRANCH  49  74
BRANCH  61  86
ATOM     86  C   UNL A   1      47.932  27.188  30.666  1.00  0.00     0.058 A 
ATOM     87  C   UNL A   1      48.265  26.690  31.934  1.00  0.00     0.135 A 
ATOM     88  C   UNL A   1      48.946  27.254  29.697  1.00  0.00     0.135 A 
ATOM     89  F   UNL A   1      47.332  26.613  32.897  1.00  0.00    -0.206 F 
ATOM     90  C   UNL A   1      49.563  26.293  32.238  1.00  0.00     0.059 A 
ATOM     91  C   UNL A   1      50.244  26.838  29.971  1.00  0.00     0.059 A 
ATOM     92  F   UNL A   1      48.676  27.712  28.464  1.00  0.00    -0.206 F 
ATOM     93  C   UNL A   1      50.546  26.371  31.249  1.00  0.00     0.060 A 
BRANCH  93  94
ATOM     94  S   UNL A   1      52.220  25.824  31.646  1.00  0.00     0.124 S 
ATOM     95  O   UNL A   1      51.995  24.426  31.998  1.00  0.00    -0.237 OA
ATOM     96  O   UNL A   1      52.932  26.056  30.394  1.00  0.00    -0.237 OA
ATOM     97  O   UNL A   1      52.606  26.696  32.752  1.00  0.00    -0.744 OA
ENDBRANCH  93  94
ENDBRANCH  61  86
ENDBRANCH  35  36
ENDBRANCH  27  30
ENDBRANCH  25  26
ENDBRANCH   1  25
TORSDOF 16
ENDMDL
