MODEL 1
REMARK VINA RESULT:     -11.5      0.000      0.000
REMARK SMILES CC(C)C[C@H](NC(=O)[C@H](Cc1ccccc1)NC(=O)CNC(=O)C[NH3+])C(=O)NCCCNC(=O)c1ccc(-c2c3nc(c(-c4c(F)cc(S(=O)(=O)[O-])cc4F)c4ccc([nH]4)c(-c4c(F)cc(S(=O)(=O)[O-])cc4F)c4nc(c(-c5c(F)cc(S(=O)(=O)[O-])cc5F)c5ccc2[nH]5)C=C4)C=C3)cc1
REMARK SMILES IDX 26 1 27 2 28 3 5 5 4 6 2 7 1 8 3 9 6 10 7 11 8 13 9 14 17 15
REMARK SMILES IDX 18 16 19 18 20 19 21 20 22 21 23 23 24 24 25 25 10 29 11 30
REMARK SMILES IDX 12 31 16 32 13 33 15 34 14 35 29 36 30 37 31 38 32 39 33 40
REMARK SMILES IDX 34 42 35 43 36 44 100 45 37 46 99 47 38 48 39 49 40 50 93 51
REMARK SMILES IDX 41 52 98 53 92 54 94 55 42 56 97 57 91 58 90 59 43 61 77 62
REMARK SMILES IDX 56 63 76 64 57 65 60 66 75 67 95 68 58 69 59 70 74 72 96 73
REMARK SMILES IDX 61 74 44 75 45 76 54 77 46 78 47 79 53 80 55 81 48 82 49 83
REMARK SMILES IDX 50 84 51 85 52 86 78 87 79 88 88 89 80 90 81 91 87 92 89 93
REMARK SMILES IDX 82 94 83 95 84 96 85 97 86 98 62 99 63 100 72 101 64 102
REMARK SMILES IDX 65 103 71 104 73 105 66 106 67 107 68 108 69 109 70 110
REMARK H PARENT 28 4 6 12 17 17 21 22 25 26 25 27 25 28 32 41 94 60 60 71
REMARK Flexibility Score: inf
ROOT
ATOM      1  C   UNL A   1      36.209  23.403  23.667  1.00  0.00     0.242 C 
ATOM      2  O   UNL A   1      36.249  22.960  22.517  1.00  0.00    -0.273 OA
ATOM      3  N   UNL A   1      37.325  23.275  24.437  1.00  0.00    -0.354 N 
ATOM      4  H   UNL A   1      38.051  22.756  24.023  1.00  0.00     0.163 HD
ENDROOT
BRANCH   1   5
ATOM      5  C   UNL A   1      34.944  24.096  24.208  1.00  0.00     0.171 C 
BRANCH   5   6
ATOM      6  C   UNL A   1      33.932  23.118  24.830  1.00  0.00     0.038 C 
BRANCH   6   7
ATOM      7  C   UNL A   1      33.347  22.067  23.867  1.00  0.00    -0.015 C 
ATOM      8  C   UNL A   1      33.420  20.647  24.422  1.00  0.00     0.007 C 
ATOM      9  C   UNL A   1      31.896  22.424  23.536  1.00  0.00     0.007 C 
ENDBRANCH   6   7
ENDBRANCH   5   6
BRANCH   5  10
ATOM     10  N   UNL A   1      34.366  24.851  23.097  1.00  0.00    -0.343 N 
ATOM     11  C   UNL A   1      33.551  25.913  22.976  1.00  0.00     0.243 C 
ATOM     12  H   UNL A   1      34.641  24.494  22.223  1.00  0.00     0.164 HD
ATOM     13  O   UNL A   1      33.162  26.119  21.816  1.00  0.00    -0.273 OA
BRANCH  11  14
ATOM     14  C   UNL A   1      33.024  26.808  24.115  1.00  0.00     0.175 C 
BRANCH  14  15
ATOM     15  N   UNL A   1      31.709  26.332  24.535  1.00  0.00    -0.342 N 
ATOM     16  C   UNL A   1      30.460  26.754  24.205  1.00  0.00     0.240 C 
ATOM     17  H   UNL A   1      31.732  25.576  25.165  1.00  0.00     0.164 HD
ATOM     18  O   UNL A   1      29.514  26.140  24.711  1.00  0.00    -0.273 OA
BRANCH  16  19
ATOM     19  C   UNL A   1      30.200  27.811  23.120  1.00  0.00     0.216 C 
BRANCH  19  20
ATOM     20  N   UNL A   1      29.906  29.163  23.564  1.00  0.00    -0.342 N 
ATOM     21  C   UNL A   1      28.859  29.963  23.198  1.00  0.00     0.275 C 
ATOM     22  H   UNL A   1      30.540  29.551  24.210  1.00  0.00     0.164 HD
ATOM     23  O   UNL A   1      28.833  31.126  23.605  1.00  0.00    -0.268 OA
BRANCH  21  24
ATOM     24  C   UNL A   1      27.768  29.411  22.275  1.00  0.00     0.360 C 
BRANCH  24  25
ATOM     25  N   UNL A   1      26.786  28.649  23.049  1.00  0.00    -0.350 N 
ATOM     26  H   UNL A   1      27.263  27.919  23.579  1.00  0.00     0.344 HD
ATOM     27  H   UNL A   1      26.110  28.222  22.415  1.00  0.00     0.344 HD
ATOM     28  H   UNL A   1      26.300  29.273  23.692  1.00  0.00     0.344 HD
ENDBRANCH  24  25
ENDBRANCH  21  24
ENDBRANCH  19  20
ENDBRANCH  16  19
ENDBRANCH  14  15
BRANCH  14  29
ATOM     29  C   UNL A   1      33.955  27.297  25.240  1.00  0.00     0.070 C 
BRANCH  29  30
ATOM     30  C   UNL A   1      33.721  28.560  26.049  1.00  0.00    -0.045 A 
ATOM     31  C   UNL A   1      32.654  29.447  25.876  1.00  0.00     0.004 A 
ATOM     32  C   UNL A   1      34.713  28.912  26.984  1.00  0.00     0.004 A 
ATOM     33  C   UNL A   1      32.552  30.617  26.634  1.00  0.00     0.000 A 
ATOM     34  C   UNL A   1      34.626  30.090  27.730  1.00  0.00     0.000 A 
ATOM     35  C   UNL A   1      33.540  30.941  27.559  1.00  0.00     0.000 A 
ENDBRANCH  29  30
ENDBRANCH  14  29
ENDBRANCH  11  14
ENDBRANCH   5  10
ENDBRANCH   1   5
BRANCH   3  36
ATOM     36  C   UNL A   1      37.623  23.780  25.769  1.00  0.00     0.117 C 
BRANCH  36  37
ATOM     37  C   UNL A   1      38.545  22.851  26.535  1.00  0.00     0.042 C 
BRANCH  37  38
ATOM     38  C   UNL A   1      39.771  23.547  27.103  1.00  0.00     0.118 C 
BRANCH  38  39
ATOM     39  N   UNL A   1      40.573  24.197  26.074  1.00  0.00    -0.352 N 
ATOM     40  C   UNL A   1      41.133  25.454  26.071  1.00  0.00     0.251 C 
ATOM     41  H   UNL A   1      40.737  23.660  25.264  1.00  0.00     0.163 HD
ATOM     42  O   UNL A   1      41.603  25.918  25.041  1.00  0.00    -0.269 OA
BRANCH  40  43
ATOM     43  C   UNL A   1      41.131  26.239  27.322  1.00  0.00     0.039 A 
ATOM     44  C   UNL A   1      42.193  27.103  27.590  1.00  0.00     0.014 A 
ATOM     45  C   UNL A   1      40.044  26.158  28.196  1.00  0.00     0.014 A 
ATOM     46  C   UNL A   1      42.119  27.956  28.693  1.00  0.00     0.010 A 
ATOM     47  C   UNL A   1      39.925  27.077  29.228  1.00  0.00     0.010 A 
ATOM     48  C   UNL A   1      40.961  27.985  29.489  1.00  0.00    -0.014 A 
BRANCH  48  49
ATOM     49  C   UNL A   1      40.801  28.955  30.599  1.00  0.00     0.031 A 
ATOM     50  C   UNL A   1      41.646  28.820  31.836  1.00  0.00     0.074 A 
ATOM     51  C   UNL A   1      39.832  29.891  30.534  1.00  0.00     0.049 A 
ATOM     52  N   UNL A   1      41.578  29.483  32.960  1.00  0.00    -0.248 NA
ATOM     53  C   UNL A   1      42.683  27.774  31.820  1.00  0.00     0.031 C 
ATOM     54  C   UNL A   1      38.908  30.080  29.413  1.00  0.00     0.029 A 
ATOM     55  N   UNL A   1      39.452  30.851  31.438  1.00  0.00    -0.354 N 
ATOM     56  C   UNL A   1      42.541  28.921  33.789  1.00  0.00     0.074 A 
ATOM     57  C   UNL A   1      43.142  27.827  33.060  1.00  0.00     0.031 C 
ATOM     58  C   UNL A   1      38.086  31.106  29.687  1.00  0.00     0.029 A 
ATOM     59  C   UNL A   1      38.393  31.620  31.017  1.00  0.00     0.049 A 
ATOM     60  H   UNL A   1      39.896  30.977  32.308  1.00  0.00     0.167 HD
ATOM     61  C   UNL A   1      42.912  29.302  35.034  1.00  0.00     0.037 A 
ATOM     62  C   UNL A   1      37.737  32.619  31.638  1.00  0.00     0.037 A 
ATOM     63  C   UNL A   1      42.336  30.418  35.736  1.00  0.00     0.049 A 
ATOM     64  C   UNL A   1      38.173  33.031  33.017  1.00  0.00     0.074 A 
ATOM     65  C   UNL A   1      42.690  30.935  36.970  1.00  0.00     0.029 A 
ATOM     66  N   UNL A   1      41.285  31.191  35.263  1.00  0.00    -0.354 N 
ATOM     67  N   UNL A   1      39.132  32.532  33.761  1.00  0.00    -0.248 NA
ATOM     68  C   UNL A   1      37.441  34.140  33.643  1.00  0.00     0.031 C 
ATOM     69  C   UNL A   1      41.826  31.996  37.261  1.00  0.00     0.029 A 
ATOM     70  C   UNL A   1      40.963  32.169  36.191  1.00  0.00     0.049 A 
ATOM     71  H   UNL A   1      40.835  31.065  34.397  1.00  0.00     0.167 HD
ATOM     72  C   UNL A   1      39.130  33.277  34.934  1.00  0.00     0.074 A 
ATOM     73  C   UNL A   1      38.086  34.272  34.794  1.00  0.00     0.031 C 
ATOM     74  C   UNL A   1      39.918  33.149  36.030  1.00  0.00     0.037 A 
BRANCH  61  75
ATOM     75  C   UNL A   1      43.997  28.511  35.709  1.00  0.00     0.058 A 
ATOM     76  C   UNL A   1      45.356  28.810  35.513  1.00  0.00     0.135 A 
ATOM     77  C   UNL A   1      43.678  27.457  36.580  1.00  0.00     0.135 A 
ATOM     78  F   UNL A   1      45.718  29.796  34.677  1.00  0.00    -0.206 F 
ATOM     79  C   UNL A   1      46.360  28.072  36.132  1.00  0.00     0.059 A 
ATOM     80  C   UNL A   1      44.665  26.723  37.232  1.00  0.00     0.059 A 
ATOM     81  F   UNL A   1      42.396  27.127  36.801  1.00  0.00    -0.206 F 
ATOM     82  C   UNL A   1      46.004  27.030  36.989  1.00  0.00     0.060 A 
BRANCH  82  83
ATOM     83  S   UNL A   1      47.319  26.085  37.787  1.00  0.00     0.124 S 
ATOM     84  O   UNL A   1      47.569  26.889  38.981  1.00  0.00    -0.237 OA
ATOM     85  O   UNL A   1      46.681  24.793  38.018  1.00  0.00    -0.237 OA
ATOM     86  O   UNL A   1      48.388  26.084  36.795  1.00  0.00    -0.744 OA
ENDBRANCH  82  83
ENDBRANCH  61  75
BRANCH  62  87
ATOM     87  C   UNL A   1      36.611  33.309  30.953  1.00  0.00     0.058 A 
ATOM     88  C   UNL A   1      35.284  33.091  31.354  1.00  0.00     0.135 A 
ATOM     89  C   UNL A   1      36.836  34.210  29.901  1.00  0.00     0.135 A 
ATOM     90  F   UNL A   1      35.018  32.234  32.352  1.00  0.00    -0.206 F 
ATOM     91  C   UNL A   1      34.219  33.729  30.728  1.00  0.00     0.059 A 
ATOM     92  C   UNL A   1      35.789  34.878  29.275  1.00  0.00     0.059 A 
ATOM     93  F   UNL A   1      38.089  34.465  29.491  1.00  0.00    -0.206 F 
ATOM     94  C   UNL A   1      34.482  34.623  29.689  1.00  0.00     0.060 A 
BRANCH  94  95
ATOM     95  S   UNL A   1      33.095  35.484  28.916  1.00  0.00     0.124 S 
ATOM     96  O   UNL A   1      32.469  34.409  28.157  1.00  0.00    -0.237 OA
ATOM     97  O   UNL A   1      32.349  35.967  30.074  1.00  0.00    -0.237 OA
ATOM     98  O   UNL A   1      33.746  36.522  28.122  1.00  0.00    -0.744 OA
ENDBRANCH  94  95
ENDBRANCH  62  87
BRANCH  74  99
ATOM     99  C   UNL A   1      39.693  34.117  37.157  1.00  0.00     0.058 A 
ATOM    100  C   UNL A   1      38.870  33.795  38.247  1.00  0.00     0.135 A 
ATOM    101  C   UNL A   1      40.349  35.358  37.172  1.00  0.00     0.135 A 
ATOM    102  F   UNL A   1      38.215  32.623  38.276  1.00  0.00    -0.206 F 
ATOM    103  C   UNL A   1      38.690  34.678  39.306  1.00  0.00     0.059 A 
ATOM    104  C   UNL A   1      40.204  36.246  38.232  1.00  0.00     0.059 A 
ATOM    105  F   UNL A   1      41.155  35.710  36.157  1.00  0.00    -0.206 F 
ATOM    106  C   UNL A   1      39.363  35.901  39.289  1.00  0.00     0.060 A 
BRANCH 106 107
ATOM    107  S   UNL A   1      39.150  37.024  40.687  1.00  0.00     0.124 S 
ATOM    108  O   UNL A   1      40.528  37.422  40.956  1.00  0.00    -0.237 OA
ATOM    109  O   UNL A   1      38.287  38.060  40.128  1.00  0.00    -0.237 OA
ATOM    110  O   UNL A   1      38.529  36.183  41.706  1.00  0.00    -0.744 OA
ENDBRANCH 106 107
ENDBRANCH  74  99
ENDBRANCH  48  49
ENDBRANCH  40  43
ENDBRANCH  38  39
ENDBRANCH  37  38
ENDBRANCH  36  37
ENDBRANCH   3  36
TORSDOF 24
ENDMDL
MODEL 2
REMARK VINA RESULT:     -11.3      4.716     10.179
REMARK SMILES CC(C)C[C@H](NC(=O)[C@H](Cc1ccccc1)NC(=O)CNC(=O)C[NH3+])C(=O)NCCCNC(=O)c1ccc(-c2c3nc(c(-c4c(F)cc(S(=O)(=O)[O-])cc4F)c4ccc([nH]4)c(-c4c(F)cc(S(=O)(=O)[O-])cc4F)c4nc(c(-c5c(F)cc(S(=O)(=O)[O-])cc5F)c5ccc2[nH]5)C=C4)C=C3)cc1
REMARK SMILES IDX 26 1 27 2 28 3 5 5 4 6 2 7 1 8 3 9 6 10 7 11 8 13 9 14 17 15
REMARK SMILES IDX 18 16 19 18 20 19 21 20 22 21 23 23 24 24 25 25 10 29 11 30
REMARK SMILES IDX 12 31 16 32 13 33 15 34 14 35 29 36 30 37 31 38 32 39 33 40
REMARK SMILES IDX 34 42 35 43 36 44 100 45 37 46 99 47 38 48 39 49 40 50 93 51
REMARK SMILES IDX 41 52 98 53 92 54 94 55 42 56 97 57 91 58 90 59 43 61 77 62
REMARK SMILES IDX 56 63 76 64 57 65 60 66 75 67 95 68 58 69 59 70 74 72 96 73
REMARK SMILES IDX 61 74 44 75 45 76 54 77 46 78 47 79 53 80 55 81 48 82 49 83
REMARK SMILES IDX 50 84 51 85 52 86 78 87 79 88 88 89 80 90 81 91 87 92 89 93
REMARK SMILES IDX 82 94 83 95 84 96 85 97 86 98 62 99 63 100 72 101 64 102
REMARK SMILES IDX 65 103 71 104 73 105 66 106 67 107 68 108 69 109 70 110
REMARK H PARENT 28 4 6 12 17 17 21 22 25 26 25 27 25 28 32 41 94 60 60 71
REMARK Flexibility Score: inf
ROOT
ATOM      1  C   UNL A   1      34.093  25.575  23.118  1.00  0.00     0.242 C 
ATOM      2  O   UNL A   1      33.937  25.718  21.903  1.00  0.00    -0.273 OA
ATOM      3  N   UNL A   1      33.953  26.673  23.911  1.00  0.00    -0.354 N 
ATOM      4  H   UNL A   1      33.817  27.516  23.423  1.00  0.00     0.163 HD
ENDROOT
BRANCH   1   5
ATOM      5  C   UNL A   1      34.418  24.195  23.720  1.00  0.00     0.171 C 
BRANCH   5   6
ATOM      6  C   UNL A   1      35.926  23.899  23.789  1.00  0.00     0.038 C 
BRANCH   6   7
ATOM      7  C   UNL A   1      36.409  23.208  25.079  1.00  0.00    -0.015 C 
ATOM      8  C   UNL A   1      35.413  23.332  26.228  1.00  0.00     0.007 C 
ATOM      9  C   UNL A   1      36.697  21.732  24.795  1.00  0.00     0.007 C 
ENDBRANCH   6   7
ENDBRANCH   5   6
BRANCH   5  10
ATOM     10  N   UNL A   1      33.700  23.203  22.919  1.00  0.00    -0.343 N 
ATOM     11  C   UNL A   1      32.442  22.733  22.872  1.00  0.00     0.243 C 
ATOM     12  H   UNL A   1      34.282  22.775  22.251  1.00  0.00     0.164 HD
ATOM     13  O   UNL A   1      32.304  21.741  22.139  1.00  0.00    -0.273 OA
BRANCH  11  14
ATOM     14  C   UNL A   1      31.230  23.251  23.671  1.00  0.00     0.175 C 
BRANCH  14  15
ATOM     15  N   UNL A   1      31.588  23.345  25.083  1.00  0.00    -0.342 N 
ATOM     16  C   UNL A   1      31.825  22.380  26.010  1.00  0.00     0.240 C 
ATOM     17  H   UNL A   1      31.671  24.266  25.422  1.00  0.00     0.164 HD
ATOM     18  O   UNL A   1      32.129  22.763  27.145  1.00  0.00    -0.273 OA
BRANCH  16  19
ATOM     19  C   UNL A   1      31.903  20.888  25.653  1.00  0.00     0.216 C 
BRANCH  19  20
ATOM     20  N   UNL A   1      33.208  20.353  25.303  1.00  0.00    -0.342 N 
ATOM     21  C   UNL A   1      33.494  19.213  24.605  1.00  0.00     0.275 C 
ATOM     22  H   UNL A   1      33.983  20.879  25.607  1.00  0.00     0.164 HD
ATOM     23  O   UNL A   1      34.672  18.867  24.496  1.00  0.00    -0.268 OA
BRANCH  21  24
ATOM     24  C   UNL A   1      32.355  18.382  24.008  1.00  0.00     0.360 C 
BRANCH  24  25
ATOM     25  N   UNL A   1      32.159  18.727  22.599  1.00  0.00    -0.350 N 
ATOM     26  H   UNL A   1      31.582  19.566  22.531  1.00  0.00     0.344 HD
ATOM     27  H   UNL A   1      31.694  17.955  22.121  1.00  0.00     0.344 HD
ATOM     28  H   UNL A   1      33.063  18.901  22.162  1.00  0.00     0.344 HD
ENDBRANCH  24  25
ENDBRANCH  21  24
ENDBRANCH  19  20
ENDBRANCH  16  19
ENDBRANCH  14  15
BRANCH  14  29
ATOM     29  C   UNL A   1      30.340  24.382  23.123  1.00  0.00     0.070 C 
BRANCH  29  30
ATOM     30  C   UNL A   1      30.509  25.847  23.482  1.00  0.00    -0.045 A 
ATOM     31  C   UNL A   1      30.358  26.391  24.762  1.00  0.00     0.004 A 
ATOM     32  C   UNL A   1      30.743  26.741  22.420  1.00  0.00     0.004 A 
ATOM     33  C   UNL A   1      30.479  27.766  24.985  1.00  0.00     0.000 A 
ATOM     34  C   UNL A   1      30.846  28.118  22.636  1.00  0.00     0.000 A 
ATOM     35  C   UNL A   1      30.719  28.630  23.923  1.00  0.00     0.000 A 
ENDBRANCH  29  30
ENDBRANCH  14  29
ENDBRANCH  11  14
ENDBRANCH   5  10
ENDBRANCH   1   5
BRANCH   3  36
ATOM     36  C   UNL A   1      33.969  26.807  25.360  1.00  0.00     0.117 C 
BRANCH  36  37
ATOM     37  C   UNL A   1      34.022  28.258  25.795  1.00  0.00     0.042 C 
BRANCH  37  38
ATOM     38  C   UNL A   1      33.529  28.484  27.215  1.00  0.00     0.118 C 
BRANCH  38  39
ATOM     39  N   UNL A   1      33.505  29.895  27.581  1.00  0.00    -0.352 N 
ATOM     40  C   UNL A   1      34.469  30.647  28.211  1.00  0.00     0.251 C 
ATOM     41  H   UNL A   1      32.679  30.378  27.345  1.00  0.00     0.163 HD
ATOM     42  O   UNL A   1      34.205  31.767  28.627  1.00  0.00    -0.269 OA
BRANCH  40  43
ATOM     43  C   UNL A   1      35.816  30.070  28.399  1.00  0.00     0.039 A 
ATOM     44  C   UNL A   1      36.739  30.132  27.355  1.00  0.00     0.014 A 
ATOM     45  C   UNL A   1      36.175  29.522  29.633  1.00  0.00     0.014 A 
ATOM     46  C   UNL A   1      38.055  29.726  27.582  1.00  0.00     0.010 A 
ATOM     47  C   UNL A   1      37.504  29.220  29.886  1.00  0.00     0.010 A 
ATOM     48  C   UNL A   1      38.459  29.317  28.864  1.00  0.00    -0.014 A 
BRANCH  48  49
ATOM     49  C   UNL A   1      39.872  28.986  29.169  1.00  0.00     0.031 A 
ATOM     50  C   UNL A   1      40.771  30.033  29.769  1.00  0.00     0.074 A 
ATOM     51  C   UNL A   1      40.368  27.782  28.819  1.00  0.00     0.049 A 
ATOM     52  N   UNL A   1      42.056  29.987  29.996  1.00  0.00    -0.248 NA
ATOM     53  C   UNL A   1      40.145  31.319  30.125  1.00  0.00     0.031 C 
ATOM     54  C   UNL A   1      39.610  26.707  28.174  1.00  0.00     0.029 A 
ATOM     55  N   UNL A   1      41.633  27.265  28.941  1.00  0.00    -0.354 N 
ATOM     56  C   UNL A   1      42.397  31.237  30.497  1.00  0.00     0.074 A 
ATOM     57  C   UNL A   1      41.194  32.040  30.488  1.00  0.00     0.031 C 
ATOM     58  C   UNL A   1      40.418  25.652  27.980  1.00  0.00     0.029 A 
ATOM     59  C   UNL A   1      41.759  25.989  28.444  1.00  0.00     0.049 A 
ATOM     60  H   UNL A   1      42.381  27.761  29.345  1.00  0.00     0.167 HD
ATOM     61  C   UNL A   1      43.597  31.669  30.952  1.00  0.00     0.037 A 
ATOM     62  C   UNL A   1      42.838  25.185  28.362  1.00  0.00     0.037 A 
ATOM     63  C   UNL A   1      44.779  30.850  30.994  1.00  0.00     0.049 A 
ATOM     64  C   UNL A   1      44.158  25.682  28.882  1.00  0.00     0.074 A 
ATOM     65  C   UNL A   1      46.026  31.164  31.505  1.00  0.00     0.029 A 
ATOM     66  N   UNL A   1      44.859  29.553  30.510  1.00  0.00    -0.354 N 
ATOM     67  N   UNL A   1      44.447  26.846  29.416  1.00  0.00    -0.248 NA
ATOM     68  C   UNL A   1      45.299  24.762  28.791  1.00  0.00     0.031 C 
ATOM     69  C   UNL A   1      46.872  30.071  31.292  1.00  0.00     0.029 A 
ATOM     70  C   UNL A   1      46.141  29.059  30.689  1.00  0.00     0.049 A 
ATOM     71  H   UNL A   1      44.116  29.055  30.099  1.00  0.00     0.167 HD
ATOM     72  C   UNL A   1      45.797  26.790  29.740  1.00  0.00     0.074 A 
ATOM     73  C   UNL A   1      46.264  25.472  29.358  1.00  0.00     0.031 C 
ATOM     74  C   UNL A   1      46.583  27.743  30.300  1.00  0.00     0.037 A 
BRANCH  61  75
ATOM     75  C   UNL A   1      43.685  33.085  31.448  1.00  0.00     0.058 A 
ATOM     76  C   UNL A   1      43.909  34.159  30.570  1.00  0.00     0.135 A 
ATOM     77  C   UNL A   1      43.521  33.377  32.811  1.00  0.00     0.135 A 
ATOM     78  F   UNL A   1      44.091  33.935  29.259  1.00  0.00    -0.206 F 
ATOM     79  C   UNL A   1      43.999  35.468  31.032  1.00  0.00     0.059 A 
ATOM     80  C   UNL A   1      43.579  34.682  33.291  1.00  0.00     0.059 A 
ATOM     81  F   UNL A   1      43.308  32.389  33.693  1.00  0.00    -0.206 F 
ATOM     82  C   UNL A   1      43.833  35.720  32.394  1.00  0.00     0.060 A 
BRANCH  82  83
ATOM     83  S   UNL A   1      43.948  37.425  32.975  1.00  0.00     0.124 S 
ATOM     84  O   UNL A   1      45.249  37.417  33.639  1.00  0.00    -0.237 OA
ATOM     85  O   UNL A   1      43.878  38.185  31.732  1.00  0.00    -0.237 OA
ATOM     86  O   UNL A   1      42.794  37.563  33.857  1.00  0.00    -0.744 OA
ENDBRANCH  82  83
ENDBRANCH  61  75
BRANCH  62  87
ATOM     87  C   UNL A   1      42.708  23.823  27.780  1.00  0.00     0.058 A 
ATOM     88  C   UNL A   1      42.548  22.701  28.607  1.00  0.00     0.135 A 
ATOM     89  C   UNL A   1      42.723  23.615  26.392  1.00  0.00     0.135 A 
ATOM     90  F   UNL A   1      42.533  22.848  29.941  1.00  0.00    -0.206 F 
ATOM     91  C   UNL A   1      42.423  21.419  28.081  1.00  0.00     0.059 A 
ATOM     92  C   UNL A   1      42.576  22.346  25.842  1.00  0.00     0.059 A 
ATOM     93  F   UNL A   1      42.857  24.658  25.558  1.00  0.00    -0.206 F 
ATOM     94  C   UNL A   1      42.436  21.252  26.695  1.00  0.00     0.060 A 
BRANCH  94  95
ATOM     95  S   UNL A   1      42.223  19.590  26.021  1.00  0.00     0.124 S 
ATOM     96  O   UNL A   1      42.595  18.761  27.162  1.00  0.00    -0.237 OA
ATOM     97  O   UNL A   1      40.807  19.584  25.663  1.00  0.00    -0.237 OA
ATOM     98  O   UNL A   1      43.148  19.565  24.893  1.00  0.00    -0.744 OA
ENDBRANCH  94  95
ENDBRANCH  62  87
BRANCH  74  99
ATOM     99  C   UNL A   1      48.023  27.391  30.549  1.00  0.00     0.058 A 
ATOM    100  C   UNL A   1      48.445  26.854  31.774  1.00  0.00     0.135 A 
ATOM    101  C   UNL A   1      48.979  27.544  29.532  1.00  0.00     0.135 A 
ATOM    102  F   UNL A   1      47.570  26.696  32.780  1.00  0.00    -0.206 F 
ATOM    103  C   UNL A   1      49.772  26.497  31.990  1.00  0.00     0.059 A 
ATOM    104  C   UNL A   1      50.305  27.169  29.717  1.00  0.00     0.059 A 
ATOM    105  F   UNL A   1      48.623  28.044  28.338  1.00  0.00    -0.206 F 
ATOM    106  C   UNL A   1      50.694  26.657  30.955  1.00  0.00     0.060 A 
BRANCH 106 107
ATOM    107  S   UNL A   1      52.405  26.155  31.235  1.00  0.00     0.124 S 
ATOM    108  O   UNL A   1      52.230  24.817  31.790  1.00  0.00    -0.237 OA
ATOM    109  O   UNL A   1      52.974  26.217  29.893  1.00  0.00    -0.237 OA
ATOM    110  O   UNL A   1      52.905  27.161  32.168  1.00  0.00    -0.744 OA
ENDBRANCH 106 107
ENDBRANCH  74  99
ENDBRANCH  48  49
ENDBRANCH  40  43
ENDBRANCH  38  39
ENDBRANCH  37  38
ENDBRANCH  36  37
ENDBRANCH   3  36
TORSDOF 24
ENDMDL
MODEL 3
REMARK VINA RESULT:     -10.6      3.291      8.801
REMARK SMILES CC(C)C[C@H](NC(=O)[C@H](Cc1ccccc1)NC(=O)CNC(=O)C[NH3+])C(=O)NCCCNC(=O)c1ccc(-c2c3nc(c(-c4c(F)cc(S(=O)(=O)[O-])cc4F)c4ccc([nH]4)c(-c4c(F)cc(S(=O)(=O)[O-])cc4F)c4nc(c(-c5c(F)cc(S(=O)(=O)[O-])cc5F)c5ccc2[nH]5)C=C4)C=C3)cc1
REMARK SMILES IDX 26 1 27 2 28 3 5 5 4 6 2 7 1 8 3 9 6 10 7 11 8 13 9 14 17 15
REMARK SMILES IDX 18 16 19 18 20 19 21 20 22 21 23 23 24 24 25 25 10 29 11 30
REMARK SMILES IDX 12 31 16 32 13 33 15 34 14 35 29 36 30 37 31 38 32 39 33 40
REMARK SMILES IDX 34 42 35 43 36 44 100 45 37 46 99 47 38 48 39 49 40 50 93 51
REMARK SMILES IDX 41 52 98 53 92 54 94 55 42 56 97 57 91 58 90 59 43 61 77 62
REMARK SMILES IDX 56 63 76 64 57 65 60 66 75 67 95 68 58 69 59 70 74 72 96 73
REMARK SMILES IDX 61 74 44 75 45 76 54 77 46 78 47 79 53 80 55 81 48 82 49 83
REMARK SMILES IDX 50 84 51 85 52 86 78 87 79 88 88 89 80 90 81 91 87 92 89 93
REMARK SMILES IDX 82 94 83 95 84 96 85 97 86 98 62 99 63 100 72 101 64 102
REMARK SMILES IDX 65 103 71 104 73 105 66 106 67 107 68 108 69 109 70 110
REMARK H PARENT 28 4 6 12 17 17 21 22 25 26 25 27 25 28 32 41 94 60 60 71
REMARK Flexibility Score: inf
ROOT
ATOM      1  C   UNL A   1      33.025  25.650  22.119  1.00  0.00     0.242 C 
ATOM      2  O   UNL A   1      32.333  25.609  21.099  1.00  0.00    -0.273 OA
ATOM      3  N   UNL A   1      33.444  26.871  22.553  1.00  0.00    -0.354 N 
ATOM      4  H   UNL A   1      33.220  27.619  21.955  1.00  0.00     0.163 HD
ENDROOT
BRANCH   1   5
ATOM      5  C   UNL A   1      33.388  24.365  22.885  1.00  0.00     0.171 C 
BRANCH   5   6
ATOM      6  C   UNL A   1      34.882  24.011  22.809  1.00  0.00     0.038 C 
BRANCH   6   7
ATOM      7  C   UNL A   1      35.439  23.220  24.009  1.00  0.00    -0.015 C 
ATOM      8  C   UNL A   1      36.807  22.604  23.731  1.00  0.00     0.007 C 
ATOM      9  C   UNL A   1      35.518  24.133  25.235  1.00  0.00     0.007 C 
ENDBRANCH   6   7
ENDBRANCH   5   6
BRANCH   5  10
ATOM     10  N   UNL A   1      32.543  23.298  22.349  1.00  0.00    -0.343 N 
ATOM     11  C   UNL A   1      31.975  22.183  22.837  1.00  0.00     0.243 C 
ATOM     12  H   UNL A   1      32.341  23.430  21.395  1.00  0.00     0.164 HD
ATOM     13  O   UNL A   1      31.472  21.453  21.969  1.00  0.00    -0.273 OA
BRANCH  11  14
ATOM     14  C   UNL A   1      31.962  21.720  24.308  1.00  0.00     0.175 C 
BRANCH  14  15
ATOM     15  N   UNL A   1      33.247  21.109  24.633  1.00  0.00    -0.342 N 
ATOM     16  C   UNL A   1      33.618  19.805  24.723  1.00  0.00     0.240 C 
ATOM     17  H   UNL A   1      33.968  21.752  24.819  1.00  0.00     0.164 HD
ATOM     18  O   UNL A   1      34.800  19.581  25.005  1.00  0.00    -0.273 OA
BRANCH  16  19
ATOM     19  C   UNL A   1      32.691  18.648  24.318  1.00  0.00     0.216 C 
BRANCH  19  20
ATOM     20  N   UNL A   1      33.218  17.665  23.386  1.00  0.00    -0.342 N 
ATOM     21  C   UNL A   1      33.949  16.544  23.665  1.00  0.00     0.275 C 
ATOM     22  H   UNL A   1      33.024  17.828  22.435  1.00  0.00     0.164 HD
ATOM     23  O   UNL A   1      34.399  15.883  22.727  1.00  0.00    -0.268 OA
BRANCH  21  24
ATOM     24  C   UNL A   1      34.218  16.155  25.122  1.00  0.00     0.360 C 
BRANCH  24  25
ATOM     25  N   UNL A   1      35.600  16.472  25.486  1.00  0.00    -0.350 N 
ATOM     26  H   UNL A   1      35.987  15.710  26.044  1.00  0.00     0.344 HD
ATOM     27  H   UNL A   1      35.621  17.335  26.028  1.00  0.00     0.344 HD
ATOM     28  H   UNL A   1      36.156  16.588  24.640  1.00  0.00     0.344 HD
ENDBRANCH  24  25
ENDBRANCH  21  24
ENDBRANCH  19  20
ENDBRANCH  16  19
ENDBRANCH  14  15
BRANCH  14  29
ATOM     29  C   UNL A   1      31.329  22.589  25.410  1.00  0.00     0.070 C 
BRANCH  29  30
ATOM     30  C   UNL A   1      30.911  24.035  25.218  1.00  0.00    -0.045 A 
ATOM     31  C   UNL A   1      30.144  24.523  24.155  1.00  0.00     0.004 A 
ATOM     32  C   UNL A   1      31.420  24.973  26.136  1.00  0.00     0.004 A 
ATOM     33  C   UNL A   1      29.857  25.886  24.033  1.00  0.00     0.000 A 
ATOM     34  C   UNL A   1      31.152  26.339  26.007  1.00  0.00     0.000 A 
ATOM     35  C   UNL A   1      30.363  26.795  24.956  1.00  0.00     0.000 A 
ENDBRANCH  29  30
ENDBRANCH  14  29
ENDBRANCH  11  14
ENDBRANCH   5  10
ENDBRANCH   1   5
BRANCH   3  36
ATOM     36  C   UNL A   1      34.168  27.254  23.757  1.00  0.00     0.117 C 
BRANCH  36  37
ATOM     37  C   UNL A   1      33.554  28.469  24.425  1.00  0.00     0.042 C 
BRANCH  37  38
ATOM     38  C   UNL A   1      34.039  28.687  25.849  1.00  0.00     0.118 C 
BRANCH  38  39
ATOM     39  N   UNL A   1      33.685  30.003  26.365  1.00  0.00    -0.352 N 
ATOM     40  C   UNL A   1      34.273  30.730  27.375  1.00  0.00     0.251 C 
ATOM     41  H   UNL A   1      32.913  30.434  25.930  1.00  0.00     0.163 HD
ATOM     42  O   UNL A   1      33.723  31.728  27.819  1.00  0.00    -0.269 OA
BRANCH  40  43
ATOM     43  C   UNL A   1      35.562  30.268  27.929  1.00  0.00     0.039 A 
ATOM     44  C   UNL A   1      36.749  30.614  27.281  1.00  0.00     0.014 A 
ATOM     45  C   UNL A   1      35.590  29.543  29.122  1.00  0.00     0.014 A 
ATOM     46  C   UNL A   1      37.970  30.310  27.885  1.00  0.00     0.010 A 
ATOM     47  C   UNL A   1      36.799  29.336  29.770  1.00  0.00     0.010 A 
ATOM     48  C   UNL A   1      38.002  29.716  29.158  1.00  0.00    -0.014 A 
BRANCH  48  49
ATOM     49  C   UNL A   1      39.278  29.481  29.878  1.00  0.00     0.031 A 
ATOM     50  C   UNL A   1      40.203  28.386  29.420  1.00  0.00     0.074 A 
ATOM     51  C   UNL A   1      39.553  30.183  30.996  1.00  0.00     0.049 A 
ATOM     52  N   UNL A   1      41.297  27.941  29.979  1.00  0.00    -0.248 NA
ATOM     53  C   UNL A   1      39.827  27.673  28.187  1.00  0.00     0.031 C 
ATOM     54  C   UNL A   1      38.703  31.226  31.574  1.00  0.00     0.029 A 
ATOM     55  N   UNL A   1      40.620  30.114  31.856  1.00  0.00    -0.354 N 
ATOM     56  C   UNL A   1      41.725  26.885  29.184  1.00  0.00     0.074 A 
ATOM     57  C   UNL A   1      40.743  26.719  28.135  1.00  0.00     0.031 C 
ATOM     58  C   UNL A   1      39.291  31.715  32.678  1.00  0.00     0.029 A 
ATOM     59  C   UNL A   1      40.537  30.992  32.912  1.00  0.00     0.049 A 
ATOM     60  H   UNL A   1      41.373  29.494  31.731  1.00  0.00     0.167 HD
ATOM     61  C   UNL A   1      42.849  26.140  29.299  1.00  0.00     0.037 A 
ATOM     62  C   UNL A   1      41.366  31.185  33.956  1.00  0.00     0.037 A 
ATOM     63  C   UNL A   1      43.840  26.339  30.324  1.00  0.00     0.049 A 
ATOM     64  C   UNL A   1      42.614  30.352  34.058  1.00  0.00     0.074 A 
ATOM     65  C   UNL A   1      45.051  25.691  30.487  1.00  0.00     0.029 A 
ATOM     66  N   UNL A   1      43.735  27.259  31.357  1.00  0.00    -0.354 N 
ATOM     67  N   UNL A   1      43.038  29.402  33.258  1.00  0.00    -0.248 NA
ATOM     68  C   UNL A   1      43.498  30.615  35.202  1.00  0.00     0.031 C 
ATOM     69  C   UNL A   1      45.660  26.190  31.643  1.00  0.00     0.029 A 
ATOM     70  C   UNL A   1      44.849  27.180  32.176  1.00  0.00     0.049 A 
ATOM     71  H   UNL A   1      42.979  27.877  31.490  1.00  0.00     0.167 HD
ATOM     72  C   UNL A   1      44.245  28.966  33.792  1.00  0.00     0.074 A 
ATOM     73  C   UNL A   1      44.493  29.768  34.973  1.00  0.00     0.031 C 
ATOM     74  C   UNL A   1      45.074  27.989  33.348  1.00  0.00     0.037 A 
BRANCH  61  75
ATOM     75  C   UNL A   1      43.069  25.051  28.288  1.00  0.00     0.058 A 
ATOM     76  C   UNL A   1      43.526  25.334  26.990  1.00  0.00     0.135 A 
ATOM     77  C   UNL A   1      42.845  23.707  28.624  1.00  0.00     0.135 A 
ATOM     78  F   UNL A   1      43.739  26.604  26.609  1.00  0.00    -0.206 F 
ATOM     79  C   UNL A   1      43.721  24.326  26.051  1.00  0.00     0.059 A 
ATOM     80  C   UNL A   1      43.061  22.679  27.710  1.00  0.00     0.059 A 
ATOM     81  F   UNL A   1      42.406  23.380  29.849  1.00  0.00    -0.206 F 
ATOM     82  C   UNL A   1      43.485  23.001  26.421  1.00  0.00     0.060 A 
BRANCH  82  83
ATOM     83  S   UNL A   1      43.748  21.705  25.193  1.00  0.00     0.124 S 
ATOM     84  O   UNL A   1      42.651  20.791  25.496  1.00  0.00    -0.237 OA
ATOM     85  O   UNL A   1      43.632  22.437  23.935  1.00  0.00    -0.237 OA
ATOM     86  O   UNL A   1      45.084  21.208  25.504  1.00  0.00    -0.744 OA
ENDBRANCH  82  83
ENDBRANCH  61  75
BRANCH  62  87
ATOM     87  C   UNL A   1      41.051  32.220  34.975  1.00  0.00     0.058 A 
ATOM     88  C   UNL A   1      41.576  33.517  34.869  1.00  0.00     0.135 A 
ATOM     89  C   UNL A   1      40.209  31.944  36.064  1.00  0.00     0.135 A 
ATOM     90  F   UNL A   1      42.391  33.828  33.848  1.00  0.00    -0.206 F 
ATOM     91  C   UNL A   1      41.290  34.500  35.811  1.00  0.00     0.059 A 
ATOM     92  C   UNL A   1      39.890  32.917  37.006  1.00  0.00     0.059 A 
ATOM     93  F   UNL A   1      39.668  30.723  36.201  1.00  0.00    -0.206 F 
ATOM     94  C   UNL A   1      40.444  34.189  36.876  1.00  0.00     0.060 A 
BRANCH  94  95
ATOM     95  S   UNL A   1      40.039  35.486  38.066  1.00  0.00     0.124 S 
ATOM     96  O   UNL A   1      41.244  35.518  38.886  1.00  0.00    -0.237 OA
ATOM     97  O   UNL A   1      39.826  36.642  37.201  1.00  0.00    -0.237 OA
ATOM     98  O   UNL A   1      38.840  34.975  38.724  1.00  0.00    -0.744 OA
ENDBRANCH  94  95
ENDBRANCH  62  87
BRANCH  74  99
ATOM     99  C   UNL A   1      46.332  27.743  34.132  1.00  0.00     0.058 A 
ATOM    100  C   UNL A   1      46.377  26.800  35.169  1.00  0.00     0.135 A 
ATOM    101  C   UNL A   1      47.517  28.422  33.807  1.00  0.00     0.135 A 
ATOM    102  F   UNL A   1      45.268  26.131  35.522  1.00  0.00    -0.206 F 
ATOM    103  C   UNL A   1      47.551  26.550  35.871  1.00  0.00     0.059 A 
ATOM    104  C   UNL A   1      48.709  28.169  34.479  1.00  0.00     0.059 A 
ATOM    105  F   UNL A   1      47.529  29.328  32.816  1.00  0.00    -0.206 F 
ATOM    106  C   UNL A   1      48.712  27.239  35.517  1.00  0.00     0.060 A 
BRANCH 106 107
ATOM    107  S   UNL A   1      50.238  26.879  36.411  1.00  0.00     0.124 S 
ATOM    108  O   UNL A   1      50.164  27.832  37.514  1.00  0.00    -0.237 OA
ATOM    109  O   UNL A   1      50.065  25.475  36.773  1.00  0.00    -0.237 OA
ATOM    110  O   UNL A   1      51.281  27.141  35.424  1.00  0.00    -0.744 OA
ENDBRANCH 106 107
ENDBRANCH  74  99
ENDBRANCH  48  49
ENDBRANCH  40  43
ENDBRANCH  38  39
ENDBRANCH  37  38
ENDBRANCH  36  37
ENDBRANCH   3  36
TORSDOF 24
ENDMDL
