MODEL 1
REMARK VINA RESULT:     -12.7      0.000      0.000
REMARK SMILES O=C(NCCCNC(=O)[C@H]1Cc2c([nH]c3ccccc23)[C@@H](c2ccc(OC(F)(F)F)cc2)[NH2+]1)c1ccc(-c2c3nc(c(-c4c(F)cc(S(=O)(=O)[O-])cc4F)c4ccc([nH]4)c(-c4c(F)cc(S(=O)(=O)[O-])cc4F)c4nc(c(-c5c(F)cc(S(=O)(=O)[O-])cc5F)c5ccc2[nH]5)C=C4)C=C3)cc1
REMARK SMILES IDX 5 1 4 2 3 3 1 4 2 5 34 7 35 8 99 9 36 10 98 11 37 12 38 13
REMARK SMILES IDX 39 14 92 15 40 16 97 17 91 18 93 19 41 20 96 21 90 22 89 23
REMARK SMILES IDX 42 25 76 26 55 27 75 28 56 29 59 30 74 31 94 32 57 33 58 34
REMARK SMILES IDX 73 36 95 37 60 38 43 39 44 40 53 41 45 42 46 43 52 44 54 45
REMARK SMILES IDX 47 46 48 47 49 48 50 49 51 50 77 51 78 52 87 53 79 54 80 55
REMARK SMILES IDX 86 56 88 57 81 58 82 59 83 60 84 61 85 62 61 63 62 64 71 65
REMARK SMILES IDX 63 66 64 67 70 68 72 69 65 70 66 71 67 72 68 73 69 74 6 75
REMARK SMILES IDX 7 76 8 77 9 79 10 80 11 81 33 82 12 83 21 84 13 87 20 88
REMARK SMILES IDX 14 89 15 90 19 91 16 93 18 94 17 95 22 96 23 97 32 98 24 99
REMARK SMILES IDX 31 100 25 101 26 102 27 103 28 104 29 105 30 106
REMARK H PARENT 3 6 93 24 59 35 7 78 33 85 33 86 14 92
REMARK Flexibility Score: inf
ROOT
ATOM      1  C   UNL A   1      34.073  28.107  24.678  1.00  0.00     0.042 C 
ENDROOT
BRANCH   1   2
ATOM      2  C   UNL A   1      34.205  28.423  26.155  1.00  0.00     0.118 C 
BRANCH   2   3
ATOM      3  N   UNL A   1      33.949  29.838  26.418  1.00  0.00    -0.352 N 
ATOM      4  O   UNL A   1      33.949  31.732  27.635  1.00  0.00    -0.269 OA
ATOM      5  C   UNL A   1      34.495  30.671  27.363  1.00  0.00     0.251 C 
ATOM      6  H   UNL A   1      33.283  30.259  25.826  1.00  0.00     0.163 HD
BRANCH   5   7
ATOM      7  C   UNL A   1      35.747  30.271  28.034  1.00  0.00     0.039 A 
ATOM      8  C   UNL A   1      36.972  30.616  27.462  1.00  0.00     0.014 A 
ATOM      9  C   UNL A   1      35.703  29.583  29.249  1.00  0.00     0.014 A 
ATOM     10  C   UNL A   1      38.146  30.130  28.003  1.00  0.00     0.010 A 
ATOM     11  C   UNL A   1      36.898  29.214  29.870  1.00  0.00     0.010 A 
ATOM     12  C   UNL A   1      38.126  29.476  29.244  1.00  0.00    -0.014 A 
BRANCH  12  13
ATOM     13  C   UNL A   1      39.423  29.214  29.909  1.00  0.00     0.031 A 
ATOM     14  C   UNL A   1      39.861  30.003  31.105  1.00  0.00     0.074 A 
ATOM     15  C   UNL A   1      40.179  28.211  29.418  1.00  0.00     0.049 A 
ATOM     16  N   UNL A   1      40.962  29.883  31.800  1.00  0.00    -0.248 NA
ATOM     17  C   UNL A   1      38.961  31.065  31.584  1.00  0.00     0.031 C 
ATOM     18  C   UNL A   1      39.837  27.394  28.245  1.00  0.00     0.029 A 
ATOM     19  N   UNL A   1      41.368  27.684  29.845  1.00  0.00    -0.354 N 
ATOM     20  C   UNL A   1      40.903  30.865  32.780  1.00  0.00     0.074 A 
ATOM     21  C   UNL A   1      39.663  31.584  32.584  1.00  0.00     0.031 C 
ATOM     22  C   UNL A   1      40.763  26.442  28.082  1.00  0.00     0.029 A 
ATOM     23  C   UNL A   1      41.808  26.632  29.077  1.00  0.00     0.049 A 
ATOM     24  H   UNL A   1      41.860  28.025  30.626  1.00  0.00     0.167 HD
ATOM     25  C   UNL A   1      41.809  31.131  33.750  1.00  0.00     0.037 A 
ATOM     26  C   UNL A   1      42.948  25.921  29.140  1.00  0.00     0.037 A 
ATOM     27  C   UNL A   1      43.029  30.385  33.935  1.00  0.00     0.049 A 
ATOM     28  C   UNL A   1      43.940  26.263  30.212  1.00  0.00     0.074 A 
ATOM     29  C   UNL A   1      43.992  30.545  34.916  1.00  0.00     0.029 A 
ATOM     30  N   UNL A   1      43.458  29.346  33.120  1.00  0.00    -0.354 N 
ATOM     31  N   UNL A   1      43.848  27.168  31.157  1.00  0.00    -0.248 NA
ATOM     32  C   UNL A   1      45.190  25.496  30.225  1.00  0.00     0.031 C 
ATOM     33  C   UNL A   1      45.029  29.642  34.661  1.00  0.00     0.029 A 
ATOM     34  C   UNL A   1      44.687  28.878  33.558  1.00  0.00     0.049 A 
ATOM     35  H   UNL A   1      42.963  28.994  32.345  1.00  0.00     0.167 HD
ATOM     36  C   UNL A   1      45.025  27.070  31.887  1.00  0.00     0.074 A 
ATOM     37  C   UNL A   1      45.797  25.998  31.290  1.00  0.00     0.031 C 
ATOM     38  C   UNL A   1      45.434  27.806  32.948  1.00  0.00     0.037 A 
BRANCH  25  39
ATOM     39  C   UNL A   1      41.543  32.282  34.680  1.00  0.00     0.058 A 
ATOM     40  C   UNL A   1      41.950  33.591  34.378  1.00  0.00     0.135 A 
ATOM     41  C   UNL A   1      40.779  32.087  35.843  1.00  0.00     0.135 A 
ATOM     42  F   UNL A   1      42.699  33.832  33.290  1.00  0.00    -0.206 F 
ATOM     43  C   UNL A   1      41.609  34.664  35.195  1.00  0.00     0.059 A 
ATOM     44  C   UNL A   1      40.405  33.149  36.662  1.00  0.00     0.059 A 
ATOM     45  F   UNL A   1      40.368  30.854  36.182  1.00  0.00    -0.206 F 
ATOM     46  C   UNL A   1      40.828  34.435  36.331  1.00  0.00     0.060 A 
BRANCH  46  47
ATOM     47  S   UNL A   1      40.348  35.847  37.348  1.00  0.00     0.124 S 
ATOM     48  O   UNL A   1      39.774  36.744  36.349  1.00  0.00    -0.237 OA
ATOM     49  O   UNL A   1      39.399  35.250  38.282  1.00  0.00    -0.237 OA
ATOM     50  O   UNL A   1      41.609  36.289  37.935  1.00  0.00    -0.744 OA
ENDBRANCH  46  47
ENDBRANCH  25  39
BRANCH  26  51
ATOM     51  C   UNL A   1      43.225  24.863  28.134  1.00  0.00     0.058 A 
ATOM     52  C   UNL A   1      42.794  23.543  28.327  1.00  0.00     0.135 A 
ATOM     53  C   UNL A   1      43.934  25.153  26.956  1.00  0.00     0.135 A 
ATOM     54  F   UNL A   1      42.111  23.216  29.435  1.00  0.00    -0.206 F 
ATOM     55  C   UNL A   1      43.086  22.541  27.408  1.00  0.00     0.059 A 
ATOM     56  C   UNL A   1      44.206  24.177  26.006  1.00  0.00     0.059 A 
ATOM     57  F   UNL A   1      44.347  26.405  26.709  1.00  0.00    -0.206 F 
ATOM     58  C   UNL A   1      43.797  22.868  26.252  1.00  0.00     0.060 A 
BRANCH  58  59
ATOM     59  S   UNL A   1      44.171  21.562  25.064  1.00  0.00     0.124 S 
ATOM     60  O   UNL A   1      43.996  22.262  23.797  1.00  0.00    -0.237 OA
ATOM     61  O   UNL A   1      45.543  21.209  25.416  1.00  0.00    -0.237 OA
ATOM     62  O   UNL A   1      43.172  20.539  25.364  1.00  0.00    -0.744 OA
ENDBRANCH  58  59
ENDBRANCH  26  51
BRANCH  38  63
ATOM     63  C   UNL A   1      46.766  27.451  33.548  1.00  0.00     0.058 A 
ATOM     64  C   UNL A   1      46.883  26.483  34.557  1.00  0.00     0.135 A 
ATOM     65  C   UNL A   1      47.939  28.066  33.084  1.00  0.00     0.135 A 
ATOM     66  F   UNL A   1      45.789  25.876  35.044  1.00  0.00    -0.206 F 
ATOM     67  C   UNL A   1      48.117  26.157  35.107  1.00  0.00     0.059 A 
ATOM     68  C   UNL A   1      49.187  27.731  33.596  1.00  0.00     0.059 A 
ATOM     69  F   UNL A   1      47.881  28.993  32.115  1.00  0.00    -0.206 F 
ATOM     70  C   UNL A   1      49.265  26.785  34.618  1.00  0.00     0.060 A 
BRANCH  70  71
ATOM     71  S   UNL A   1      50.863  26.331  35.320  1.00  0.00     0.124 S 
ATOM     72  O   UNL A   1      50.579  26.374  36.750  1.00  0.00    -0.237 OA
ATOM     73  O   UNL A   1      51.084  25.002  34.757  1.00  0.00    -0.237 OA
ATOM     74  O   UNL A   1      51.760  27.372  34.826  1.00  0.00    -0.744 OA
ENDBRANCH  70  71
ENDBRANCH  38  63
ENDBRANCH  12  13
ENDBRANCH   5   7
ENDBRANCH   2   3
ENDBRANCH   1   2
BRANCH   1  75
ATOM     75  C   UNL A   1      32.624  27.835  24.318  1.00  0.00     0.118 C 
BRANCH  75  76
ATOM     76  N   UNL A   1      32.031  26.840  25.199  1.00  0.00    -0.351 N 
ATOM     77  C   UNL A   1      32.270  25.533  25.477  1.00  0.00     0.278 C 
ATOM     78  H   UNL A   1      31.274  27.200  25.716  1.00  0.00     0.163 HD
ATOM     79  O   UNL A   1      31.481  25.007  26.278  1.00  0.00    -0.268 OA
BRANCH  77  80
ATOM     80  C   UNL A   1      33.443  24.686  24.928  1.00  0.00     0.277 C 
ATOM     81  C   UNL A   1      34.670  24.617  25.824  1.00  0.00     0.114 C 
ATOM     82  N   UNL A   1      32.904  23.323  24.669  1.00  0.00    -0.325 N 
ATOM     83  C   UNL A   1      35.647  23.635  25.334  1.00  0.00    -0.006 A 
ATOM     84  C   UNL A   1      33.836  22.358  24.045  1.00  0.00     0.262 C 
ATOM     85  H   UNL A   1      32.099  23.419  24.051  1.00  0.00     0.347 HD
ATOM     86  H   UNL A   1      32.687  22.937  25.588  1.00  0.00     0.347 HD
ATOM     87  C   UNL A   1      35.249  22.598  24.523  1.00  0.00     0.083 A 
ATOM     88  C   UNL A   1      36.974  23.420  25.750  1.00  0.00     0.003 A 
ATOM     89  N   UNL A   1      36.362  21.823  24.302  1.00  0.00    -0.353 N 
ATOM     90  C   UNL A   1      37.397  22.249  25.122  1.00  0.00     0.046 A 
ATOM     91  C   UNL A   1      37.820  24.072  26.666  1.00  0.00     0.010 A 
ATOM     92  H   UNL A   1      36.417  21.079  23.659  1.00  0.00     0.166 HD
ATOM     93  C   UNL A   1      38.652  21.689  25.387  1.00  0.00     0.026 A 
ATOM     94  C   UNL A   1      39.067  23.518  26.948  1.00  0.00     0.001 A 
ATOM     95  C   UNL A   1      39.472  22.342  26.321  1.00  0.00     0.002 A 
BRANCH  84  96
ATOM     96  C   UNL A   1      33.287  20.962  24.357  1.00  0.00     0.016 A 
ATOM     97  C   UNL A   1      32.698  20.139  23.385  1.00  0.00     0.014 A 
ATOM     98  C   UNL A   1      33.478  20.416  25.640  1.00  0.00     0.014 A 
ATOM     99  C   UNL A   1      32.261  18.850  23.700  1.00  0.00     0.047 A 
ATOM    100  C   UNL A   1      33.075  19.108  25.945  1.00  0.00     0.047 A 
ATOM    101  C   UNL A   1      32.450  18.323  24.978  1.00  0.00     0.129 A 
BRANCH 101 102
ATOM    102  O   UNL A   1      31.986  17.050  25.133  1.00  0.00    -0.406 OA
BRANCH 102 103
ATOM    103  C   UNL A   1      32.912  15.989  25.007  1.00  0.00     0.573 C 
ATOM    104  F   UNL A   1      33.463  15.962  23.776  1.00  0.00    -0.132 F 
ATOM    105  F   UNL A   1      33.887  16.073  25.938  1.00  0.00    -0.132 F 
ATOM    106  F   UNL A   1      32.257  14.820  25.199  1.00  0.00    -0.132 F 
ENDBRANCH 102 103
ENDBRANCH 101 102
ENDBRANCH  84  96
ENDBRANCH  77  80
ENDBRANCH  75  76
ENDBRANCH   1  75
TORSDOF 16
ENDMDL
MODEL 2
REMARK VINA RESULT:     -12.6      2.181      8.059
REMARK SMILES O=C(NCCCNC(=O)[C@H]1Cc2c([nH]c3ccccc23)[C@@H](c2ccc(OC(F)(F)F)cc2)[NH2+]1)c1ccc(-c2c3nc(c(-c4c(F)cc(S(=O)(=O)[O-])cc4F)c4ccc([nH]4)c(-c4c(F)cc(S(=O)(=O)[O-])cc4F)c4nc(c(-c5c(F)cc(S(=O)(=O)[O-])cc5F)c5ccc2[nH]5)C=C4)C=C3)cc1
REMARK SMILES IDX 5 1 4 2 3 3 1 4 2 5 34 7 35 8 99 9 36 10 98 11 37 12 38 13
REMARK SMILES IDX 39 14 92 15 40 16 97 17 91 18 93 19 41 20 96 21 90 22 89 23
REMARK SMILES IDX 42 25 76 26 55 27 75 28 56 29 59 30 74 31 94 32 57 33 58 34
REMARK SMILES IDX 73 36 95 37 60 38 43 39 44 40 53 41 45 42 46 43 52 44 54 45
REMARK SMILES IDX 47 46 48 47 49 48 50 49 51 50 77 51 78 52 87 53 79 54 80 55
REMARK SMILES IDX 86 56 88 57 81 58 82 59 83 60 84 61 85 62 61 63 62 64 71 65
REMARK SMILES IDX 63 66 64 67 70 68 72 69 65 70 66 71 67 72 68 73 69 74 6 75
REMARK SMILES IDX 7 76 8 77 9 79 10 80 11 81 33 82 12 83 21 84 13 87 20 88
REMARK SMILES IDX 14 89 15 90 19 91 16 93 18 94 17 95 22 96 23 97 32 98 24 99
REMARK SMILES IDX 31 100 25 101 26 102 27 103 28 104 29 105 30 106
REMARK H PARENT 3 6 93 24 59 35 7 78 33 85 33 86 14 92
REMARK Flexibility Score: inf
ROOT
ATOM      1  C   UNL A   1      33.980  28.028  25.470  1.00  0.00     0.042 C 
ENDROOT
BRANCH   1   2
ATOM      2  C   UNL A   1      33.842  28.231  26.966  1.00  0.00     0.118 C 
BRANCH   2   3
ATOM      3  N   UNL A   1      33.673  29.646  27.294  1.00  0.00    -0.352 N 
ATOM      4  O   UNL A   1      34.025  31.537  28.464  1.00  0.00    -0.269 OA
ATOM      5  C   UNL A   1      34.469  30.476  28.044  1.00  0.00     0.251 C 
ATOM      6  H   UNL A   1      32.866  30.068  26.920  1.00  0.00     0.163 HD
BRANCH   5   7
ATOM      7  C   UNL A   1      35.861  30.074  28.326  1.00  0.00     0.039 A 
ATOM      8  C   UNL A   1      36.827  30.204  27.328  1.00  0.00     0.014 A 
ATOM      9  C   UNL A   1      36.211  29.600  29.592  1.00  0.00     0.014 A 
ATOM     10  C   UNL A   1      38.098  29.704  27.532  1.00  0.00     0.010 A 
ATOM     11  C   UNL A   1      37.533  29.226  29.841  1.00  0.00     0.010 A 
ATOM     12  C   UNL A   1      38.481  29.265  28.808  1.00  0.00    -0.014 A 
BRANCH  12  13
ATOM     13  C   UNL A   1      39.917  28.994  29.043  1.00  0.00     0.031 A 
ATOM     14  C   UNL A   1      40.553  27.711  28.602  1.00  0.00     0.074 A 
ATOM     15  C   UNL A   1      40.642  29.964  29.638  1.00  0.00     0.049 A 
ATOM     16  N   UNL A   1      41.799  27.334  28.728  1.00  0.00    -0.248 NA
ATOM     17  C   UNL A   1      39.690  26.718  27.942  1.00  0.00     0.031 C 
ATOM     18  C   UNL A   1      40.103  31.246  30.115  1.00  0.00     0.029 A 
ATOM     19  N   UNL A   1      41.978  30.047  29.923  1.00  0.00    -0.354 N 
ATOM     20  C   UNL A   1      41.867  26.056  28.189  1.00  0.00     0.074 A 
ATOM     21  C   UNL A   1      40.534  25.713  27.746  1.00  0.00     0.031 C 
ATOM     22  C   UNL A   1      41.104  32.003  30.580  1.00  0.00     0.029 A 
ATOM     23  C   UNL A   1      42.337  31.232  30.520  1.00  0.00     0.049 A 
ATOM     24  H   UNL A   1      42.619  29.329  29.720  1.00  0.00     0.167 HD
ATOM     25  C   UNL A   1      42.952  25.253  28.082  1.00  0.00     0.037 A 
ATOM     26  C   UNL A   1      43.523  31.643  31.005  1.00  0.00     0.037 A 
ATOM     27  C   UNL A   1      44.274  25.629  28.516  1.00  0.00     0.049 A 
ATOM     28  C   UNL A   1      44.696  30.715  30.891  1.00  0.00     0.074 A 
ATOM     29  C   UNL A   1      45.450  24.906  28.410  1.00  0.00     0.029 A 
ATOM     30  N   UNL A   1      44.597  26.824  29.145  1.00  0.00    -0.354 N 
ATOM     31  N   UNL A   1      44.751  29.525  30.340  1.00  0.00    -0.248 NA
ATOM     32  C   UNL A   1      45.963  31.176  31.468  1.00  0.00     0.031 C 
ATOM     33  C   UNL A   1      46.471  25.639  29.024  1.00  0.00     0.029 A 
ATOM     34  C   UNL A   1      45.946  26.844  29.460  1.00  0.00     0.049 A 
ATOM     35  H   UNL A   1      43.961  27.550  29.338  1.00  0.00     0.167 HD
ATOM     36  C   UNL A   1      46.064  29.101  30.493  1.00  0.00     0.074 A 
ATOM     37  C   UNL A   1      46.774  30.174  31.161  1.00  0.00     0.031 C 
ATOM     38  C   UNL A   1      46.630  27.927  30.122  1.00  0.00     0.037 A 
BRANCH  25  39
ATOM     39  C   UNL A   1      42.770  23.881  27.494  1.00  0.00     0.058 A 
ATOM     40  C   UNL A   1      42.977  23.624  26.131  1.00  0.00     0.135 A 
ATOM     41  C   UNL A   1      42.483  22.788  28.330  1.00  0.00     0.135 A 
ATOM     42  F   UNL A   1      43.235  24.633  25.283  1.00  0.00    -0.206 F 
ATOM     43  C   UNL A   1      42.907  22.333  25.616  1.00  0.00     0.059 A 
ATOM     44  C   UNL A   1      42.431  21.486  27.842  1.00  0.00     0.059 A 
ATOM     45  F   UNL A   1      42.270  22.979  29.642  1.00  0.00    -0.206 F 
ATOM     46  C   UNL A   1      42.643  21.268  26.482  1.00  0.00     0.060 A 
BRANCH  46  47
ATOM     47  S   UNL A   1      42.610  19.595  25.806  1.00  0.00     0.124 S 
ATOM     48  O   UNL A   1      43.033  18.806  26.959  1.00  0.00    -0.237 OA
ATOM     49  O   UNL A   1      41.212  19.444  25.415  1.00  0.00    -0.237 OA
ATOM     50  O   UNL A   1      43.564  19.653  24.703  1.00  0.00    -0.744 OA
ENDBRANCH  46  47
ENDBRANCH  25  39
BRANCH  26  51
ATOM     51  C   UNL A   1      43.639  32.962  31.679  1.00  0.00     0.058 A 
ATOM     52  C   UNL A   1      43.943  34.124  30.958  1.00  0.00     0.135 A 
ATOM     53  C   UNL A   1      43.452  33.084  33.067  1.00  0.00     0.135 A 
ATOM     54  F   UNL A   1      44.128  34.061  29.630  1.00  0.00    -0.206 F 
ATOM     55  C   UNL A   1      44.092  35.354  31.590  1.00  0.00     0.059 A 
ATOM     56  C   UNL A   1      43.560  34.308  33.715  1.00  0.00     0.059 A 
ATOM     57  F   UNL A   1      43.134  32.007  33.801  1.00  0.00    -0.206 F 
ATOM     58  C   UNL A   1      43.903  35.434  32.971  1.00  0.00     0.060 A 
BRANCH  58  59
ATOM     59  S   UNL A   1      44.098  37.034  33.783  1.00  0.00     0.124 S 
ATOM     60  O   UNL A   1      44.354  37.908  32.645  1.00  0.00    -0.237 OA
ATOM     61  O   UNL A   1      42.807  37.203  34.443  1.00  0.00    -0.237 OA
ATOM     62  O   UNL A   1      45.229  36.817  34.682  1.00  0.00    -0.744 OA
ENDBRANCH  58  59
ENDBRANCH  26  51
BRANCH  38  63
ATOM     63  C   UNL A   1      48.096  27.760  30.407  1.00  0.00     0.058 A 
ATOM     64  C   UNL A   1      48.552  27.124  31.572  1.00  0.00     0.135 A 
ATOM     65  C   UNL A   1      49.054  28.214  29.486  1.00  0.00     0.135 A 
ATOM     66  F   UNL A   1      47.676  26.684  32.489  1.00  0.00    -0.206 F 
ATOM     67  C   UNL A   1      49.909  26.970  31.829  1.00  0.00     0.059 A 
ATOM     68  C   UNL A   1      50.415  28.040  29.708  1.00  0.00     0.059 A 
ATOM     69  F   UNL A   1      48.669  28.821  28.353  1.00  0.00    -0.206 F 
ATOM     70  C   UNL A   1      50.833  27.430  30.890  1.00  0.00     0.060 A 
BRANCH  70  71
ATOM     71  S   UNL A   1      52.591  27.197  31.222  1.00  0.00     0.124 S 
ATOM     72  O   UNL A   1      53.197  27.828  30.055  1.00  0.00    -0.237 OA
ATOM     73  O   UNL A   1      52.764  27.904  32.488  1.00  0.00    -0.237 OA
ATOM     74  O   UNL A   1      52.734  25.746  31.298  1.00  0.00    -0.744 OA
ENDBRANCH  70  71
ENDBRANCH  38  63
ENDBRANCH  12  13
ENDBRANCH   5   7
ENDBRANCH   2   3
ENDBRANCH   1   2
BRANCH   1  75
ATOM     75  C   UNL A   1      32.621  27.797  24.834  1.00  0.00     0.118 C 
BRANCH  75  76
ATOM     76  N   UNL A   1      31.901  26.714  25.489  1.00  0.00    -0.351 N 
ATOM     77  C   UNL A   1      32.043  25.367  25.559  1.00  0.00     0.278 C 
ATOM     78  H   UNL A   1      31.125  27.037  26.002  1.00  0.00     0.163 HD
ATOM     79  O   UNL A   1      31.160  24.772  26.200  1.00  0.00    -0.268 OA
BRANCH  77  80
ATOM     80  C   UNL A   1      33.209  24.542  24.964  1.00  0.00     0.277 C 
ATOM     81  C   UNL A   1      34.462  24.474  25.822  1.00  0.00     0.114 C 
ATOM     82  N   UNL A   1      32.678  23.176  24.699  1.00  0.00    -0.325 N 
ATOM     83  C   UNL A   1      35.435  23.510  25.289  1.00  0.00    -0.006 A 
ATOM     84  C   UNL A   1      33.602  22.231  24.034  1.00  0.00     0.262 C 
ATOM     85  H   UNL A   1      31.853  23.273  24.108  1.00  0.00     0.347 HD
ATOM     86  H   UNL A   1      32.492  22.774  25.619  1.00  0.00     0.347 HD
ATOM     87  C   UNL A   1      35.025  22.481  24.475  1.00  0.00     0.083 A 
ATOM     88  C   UNL A   1      36.776  23.305  25.663  1.00  0.00     0.003 A 
ATOM     89  N   UNL A   1      36.140  21.723  24.209  1.00  0.00    -0.353 N 
ATOM     90  C   UNL A   1      37.194  22.149  25.005  1.00  0.00     0.046 A 
ATOM     91  C   UNL A   1      37.641  23.953  26.564  1.00  0.00     0.010 A 
ATOM     92  H   UNL A   1      36.185  20.989  23.554  1.00  0.00     0.166 HD
ATOM     93  C   UNL A   1      38.462  21.600  25.225  1.00  0.00     0.026 A 
ATOM     94  C   UNL A   1      38.902  23.410  26.801  1.00  0.00     0.001 A 
ATOM     95  C   UNL A   1      39.302  22.248  26.144  1.00  0.00     0.002 A 
BRANCH  84  96
ATOM     96  C   UNL A   1      33.078  20.825  24.341  1.00  0.00     0.016 A 
ATOM     97  C   UNL A   1      32.559  19.972  23.355  1.00  0.00     0.014 A 
ATOM     98  C   UNL A   1      33.223  20.302  25.639  1.00  0.00     0.014 A 
ATOM     99  C   UNL A   1      32.144  18.676  23.668  1.00  0.00     0.047 A 
ATOM    100  C   UNL A   1      32.842  18.988  25.945  1.00  0.00     0.047 A 
ATOM    101  C   UNL A   1      32.287  18.172  24.962  1.00  0.00     0.129 A 
BRANCH 101 102
ATOM    102  O   UNL A   1      31.851  16.888  25.113  1.00  0.00    -0.406 OA
BRANCH 102 103
ATOM    103  C   UNL A   1      32.810  15.851  25.031  1.00  0.00     0.573 C 
ATOM    104  F   UNL A   1      33.433  15.853  23.834  1.00  0.00    -0.132 F 
ATOM    105  F   UNL A   1      33.725  15.947  26.019  1.00  0.00    -0.132 F 
ATOM    106  F   UNL A   1      32.174  14.665  25.171  1.00  0.00    -0.132 F 
ENDBRANCH 102 103
ENDBRANCH 101 102
ENDBRANCH  84  96
ENDBRANCH  77  80
ENDBRANCH  75  76
ENDBRANCH   1  75
TORSDOF 16
ENDMDL
MODEL 3
REMARK VINA RESULT:     -12.6      0.421      7.899
REMARK SMILES O=C(NCCCNC(=O)[C@H]1Cc2c([nH]c3ccccc23)[C@@H](c2ccc(OC(F)(F)F)cc2)[NH2+]1)c1ccc(-c2c3nc(c(-c4c(F)cc(S(=O)(=O)[O-])cc4F)c4ccc([nH]4)c(-c4c(F)cc(S(=O)(=O)[O-])cc4F)c4nc(c(-c5c(F)cc(S(=O)(=O)[O-])cc5F)c5ccc2[nH]5)C=C4)C=C3)cc1
REMARK SMILES IDX 5 1 4 2 3 3 1 4 2 5 34 7 35 8 99 9 36 10 98 11 37 12 38 13
REMARK SMILES IDX 39 14 92 15 40 16 97 17 91 18 93 19 41 20 96 21 90 22 89 23
REMARK SMILES IDX 42 25 76 26 55 27 75 28 56 29 59 30 74 31 94 32 57 33 58 34
REMARK SMILES IDX 73 36 95 37 60 38 43 39 44 40 53 41 45 42 46 43 52 44 54 45
REMARK SMILES IDX 47 46 48 47 49 48 50 49 51 50 77 51 78 52 87 53 79 54 80 55
REMARK SMILES IDX 86 56 88 57 81 58 82 59 83 60 84 61 85 62 61 63 62 64 71 65
REMARK SMILES IDX 63 66 64 67 70 68 72 69 65 70 66 71 67 72 68 73 69 74 6 75
REMARK SMILES IDX 7 76 8 77 9 79 10 80 11 81 33 82 12 83 21 84 13 87 20 88
REMARK SMILES IDX 14 89 15 90 19 91 16 93 18 94 17 95 22 96 23 97 32 98 24 99
REMARK SMILES IDX 31 100 25 101 26 102 27 103 28 104 29 105 30 106
REMARK H PARENT 3 6 93 24 59 35 7 78 33 85 33 86 14 92
REMARK Flexibility Score: inf
ROOT
ATOM      1  C   UNL A   1      34.034  28.292  24.654  1.00  0.00     0.042 C 
ENDROOT
BRANCH   1   2
ATOM      2  C   UNL A   1      33.939  28.547  26.146  1.00  0.00     0.118 C 
BRANCH   2   3
ATOM      3  N   UNL A   1      33.711  29.963  26.427  1.00  0.00    -0.352 N 
ATOM      4  O   UNL A   1      33.755  31.843  27.665  1.00  0.00    -0.269 OA
ATOM      5  C   UNL A   1      34.280  30.775  27.376  1.00  0.00     0.251 C 
ATOM      6  H   UNL A   1      33.047  30.402  25.846  1.00  0.00     0.163 HD
BRANCH   5   7
ATOM      7  C   UNL A   1      35.531  30.346  28.031  1.00  0.00     0.039 A 
ATOM      8  C   UNL A   1      36.756  30.649  27.435  1.00  0.00     0.014 A 
ATOM      9  C   UNL A   1      35.487  29.672  29.253  1.00  0.00     0.014 A 
ATOM     10  C   UNL A   1      37.923  30.134  27.963  1.00  0.00     0.010 A 
ATOM     11  C   UNL A   1      36.680  29.274  29.859  1.00  0.00     0.010 A 
ATOM     12  C   UNL A   1      37.905  29.494  29.210  1.00  0.00    -0.014 A 
BRANCH  12  13
ATOM     13  C   UNL A   1      39.204  29.201  29.857  1.00  0.00     0.031 A 
ATOM     14  C   UNL A   1      40.132  28.158  29.310  1.00  0.00     0.074 A 
ATOM     15  C   UNL A   1      39.539  29.937  30.937  1.00  0.00     0.049 A 
ATOM     16  N   UNL A   1      41.305  27.798  29.759  1.00  0.00    -0.248 NA
ATOM     17  C   UNL A   1      39.693  27.419  28.115  1.00  0.00     0.031 C 
ATOM     18  C   UNL A   1      38.690  30.968  31.549  1.00  0.00     0.029 A 
ATOM     19  N   UNL A   1      40.676  29.958  31.698  1.00  0.00    -0.354 N 
ATOM     20  C   UNL A   1      41.736  26.776  28.923  1.00  0.00     0.074 A 
ATOM     21  C   UNL A   1      40.693  26.563  27.945  1.00  0.00     0.031 C 
ATOM     22  C   UNL A   1      39.357  31.555  32.551  1.00  0.00     0.029 A 
ATOM     23  C   UNL A   1      40.638  30.885  32.712  1.00  0.00     0.049 A 
ATOM     24  H   UNL A   1      41.446  29.368  31.534  1.00  0.00     0.167 HD
ATOM     25  C   UNL A   1      42.901  26.087  28.979  1.00  0.00     0.037 A 
ATOM     26  C   UNL A   1      41.521  31.143  33.694  1.00  0.00     0.037 A 
ATOM     27  C   UNL A   1      43.933  26.335  29.954  1.00  0.00     0.049 A 
ATOM     28  C   UNL A   1      42.788  30.342  33.738  1.00  0.00     0.074 A 
ATOM     29  C   UNL A   1      45.170  25.724  30.068  1.00  0.00     0.029 A 
ATOM     30  N   UNL A   1      43.849  27.259  30.987  1.00  0.00    -0.354 N 
ATOM     31  N   UNL A   1      43.198  29.408  32.913  1.00  0.00    -0.248 NA
ATOM     32  C   UNL A   1      43.709  30.620  34.845  1.00  0.00     0.031 C 
ATOM     33  C   UNL A   1      45.809  26.238  31.201  1.00  0.00     0.029 A 
ATOM     34  C   UNL A   1      44.998  27.212  31.760  1.00  0.00     0.049 A 
ATOM     35  H   UNL A   1      43.085  27.860  31.146  1.00  0.00     0.167 HD
ATOM     36  C   UNL A   1      44.433  28.995  33.395  1.00  0.00     0.074 A 
ATOM     37  C   UNL A   1      44.714  29.803  34.565  1.00  0.00     0.031 C 
ATOM     38  C   UNL A   1      45.255  28.030  32.919  1.00  0.00     0.037 A 
BRANCH  25  39
ATOM     39  C   UNL A   1      43.128  24.987  27.980  1.00  0.00     0.058 A 
ATOM     40  C   UNL A   1      43.715  25.229  26.728  1.00  0.00     0.135 A 
ATOM     41  C   UNL A   1      42.848  23.654  28.324  1.00  0.00     0.135 A 
ATOM     42  F   UNL A   1      43.986  26.485  26.340  1.00  0.00    -0.206 F 
ATOM     43  C   UNL A   1      44.015  24.189  25.853  1.00  0.00     0.059 A 
ATOM     44  C   UNL A   1      43.161  22.596  27.475  1.00  0.00     0.059 A 
ATOM     45  F   UNL A   1      42.281  23.366  29.507  1.00  0.00    -0.206 F 
ATOM     46  C   UNL A   1      43.744  22.874  26.240  1.00  0.00     0.060 A 
BRANCH  46  47
ATOM     47  S   UNL A   1      44.191  21.535  25.115  1.00  0.00     0.124 S 
ATOM     48  O   UNL A   1      44.110  22.203  23.819  1.00  0.00    -0.237 OA
ATOM     49  O   UNL A   1      45.536  21.188  25.565  1.00  0.00    -0.237 OA
ATOM     50  O   UNL A   1      43.169  20.524  25.363  1.00  0.00    -0.744 OA
ENDBRANCH  46  47
ENDBRANCH  25  39
BRANCH  26  51
ATOM     51  C   UNL A   1      41.211  32.164  34.729  1.00  0.00     0.058 A 
ATOM     52  C   UNL A   1      40.561  31.818  35.921  1.00  0.00     0.135 A 
ATOM     53  C   UNL A   1      41.558  33.513  34.541  1.00  0.00     0.135 A 
ATOM     54  F   UNL A   1      40.211  30.542  36.149  1.00  0.00    -0.206 F 
ATOM     55  C   UNL A   1      40.232  32.776  36.875  1.00  0.00     0.059 A 
ATOM     56  C   UNL A   1      41.273  34.482  35.495  1.00  0.00     0.059 A 
ATOM     57  F   UNL A   1      42.204  33.894  33.428  1.00  0.00    -0.206 F 
ATOM     58  C   UNL A   1      40.590  34.107  36.649  1.00  0.00     0.060 A 
BRANCH  58  59
ATOM     59  S   UNL A   1      40.161  35.343  37.892  1.00  0.00     0.124 S 
ATOM     60  O   UNL A   1      38.906  34.811  38.410  1.00  0.00    -0.237 OA
ATOM     61  O   UNL A   1      41.305  35.280  38.796  1.00  0.00    -0.237 OA
ATOM     62  O   UNL A   1      40.052  36.575  37.115  1.00  0.00    -0.744 OA
ENDBRANCH  58  59
ENDBRANCH  26  51
BRANCH  38  63
ATOM     63  C   UNL A   1      46.551  27.820  33.650  1.00  0.00     0.058 A 
ATOM     64  C   UNL A   1      46.664  26.889  34.694  1.00  0.00     0.135 A 
ATOM     65  C   UNL A   1      47.699  28.538  33.280  1.00  0.00     0.135 A 
ATOM     66  F   UNL A   1      45.592  26.187  35.094  1.00  0.00    -0.206 F 
ATOM     67  C   UNL A   1      47.865  26.696  35.366  1.00  0.00     0.059 A 
ATOM     68  C   UNL A   1      48.919  28.337  33.917  1.00  0.00     0.059 A 
ATOM     69  F   UNL A   1      47.645  29.434  32.283  1.00  0.00    -0.206 F 
ATOM     70  C   UNL A   1      48.988  27.424  34.968  1.00  0.00     0.060 A 
BRANCH  70  71
ATOM     71  S   UNL A   1      50.548  27.144  35.830  1.00  0.00     0.124 S 
ATOM     72  O   UNL A   1      50.819  28.465  36.386  1.00  0.00    -0.237 OA
ATOM     73  O   UNL A   1      50.189  26.110  36.796  1.00  0.00    -0.237 OA
ATOM     74  O   UNL A   1      51.451  26.712  34.767  1.00  0.00    -0.744 OA
ENDBRANCH  70  71
ENDBRANCH  38  63
ENDBRANCH  12  13
ENDBRANCH   5   7
ENDBRANCH   2   3
ENDBRANCH   1   2
BRANCH   1  75
ATOM     75  C   UNL A   1      32.702  27.808  24.109  1.00  0.00     0.118 C 
BRANCH  75  76
ATOM     76  N   UNL A   1      32.080  26.838  24.997  1.00  0.00    -0.351 N 
ATOM     77  C   UNL A   1      32.302  25.536  25.309  1.00  0.00     0.278 C 
ATOM     78  H   UNL A   1      31.316  27.216  25.490  1.00  0.00     0.163 HD
ATOM     79  O   UNL A   1      31.489  25.034  26.103  1.00  0.00    -0.268 OA
BRANCH  77  80
ATOM     80  C   UNL A   1      33.479  24.667  24.806  1.00  0.00     0.277 C 
ATOM     81  C   UNL A   1      34.691  24.621  25.723  1.00  0.00     0.114 C 
ATOM     82  N   UNL A   1      32.938  23.298  24.580  1.00  0.00    -0.325 N 
ATOM     83  C   UNL A   1      35.671  23.619  25.280  1.00  0.00    -0.006 A 
ATOM     84  C   UNL A   1      33.875  22.310  24.002  1.00  0.00     0.262 C 
ATOM     85  H   UNL A   1      32.143  23.379  23.948  1.00  0.00     0.347 HD
ATOM     86  H   UNL A   1      32.704  22.943  25.508  1.00  0.00     0.347 HD
ATOM     87  C   UNL A   1      35.281  22.559  24.496  1.00  0.00     0.083 A 
ATOM     88  C   UNL A   1      36.990  23.412  25.724  1.00  0.00     0.003 A 
ATOM     89  N   UNL A   1      36.394  21.774  24.317  1.00  0.00    -0.353 N 
ATOM     90  C   UNL A   1      37.418  22.221  25.139  1.00  0.00     0.046 A 
ATOM     91  C   UNL A   1      37.824  24.088  26.633  1.00  0.00     0.010 A 
ATOM     92  H   UNL A   1      36.456  21.009  23.699  1.00  0.00     0.166 HD
ATOM     93  C   UNL A   1      38.666  21.664  25.442  1.00  0.00     0.026 A 
ATOM     94  C   UNL A   1      39.064  23.539  26.952  1.00  0.00     0.001 A 
ATOM     95  C   UNL A   1      39.474  22.342  26.368  1.00  0.00     0.002 A 
BRANCH  84  96
ATOM     96  C   UNL A   1      33.314  20.927  24.349  1.00  0.00     0.016 A 
ATOM     97  C   UNL A   1      32.836  20.033  23.379  1.00  0.00     0.014 A 
ATOM     98  C   UNL A   1      33.382  20.468  25.677  1.00  0.00     0.014 A 
ATOM     99  C   UNL A   1      32.385  18.759  23.733  1.00  0.00     0.047 A 
ATOM    100  C   UNL A   1      32.966  19.176  26.025  1.00  0.00     0.047 A 
ATOM    101  C   UNL A   1      32.451  18.319  25.055  1.00  0.00     0.129 A 
BRANCH 101 102
ATOM    102  O   UNL A   1      31.989  17.050  25.245  1.00  0.00    -0.406 OA
BRANCH 102 103
ATOM    103  C   UNL A   1      32.909  15.984  25.110  1.00  0.00     0.573 C 
ATOM    104  F   UNL A   1      33.341  15.867  23.837  1.00  0.00    -0.132 F 
ATOM    105  F   UNL A   1      33.967  16.138  25.935  1.00  0.00    -0.132 F 
ATOM    106  F   UNL A   1      32.285  14.831  25.448  1.00  0.00    -0.132 F 
ENDBRANCH 102 103
ENDBRANCH 101 102
ENDBRANCH  84  96
ENDBRANCH  77  80
ENDBRANCH  75  76
ENDBRANCH   1  75
TORSDOF 16
ENDMDL
