MODEL 1
REMARK VINA RESULT:     -11.9      0.000      0.000
REMARK SMILES C[C@H]1[C@H]([NH+]2CCC(CC(=O)NCCCNC(=O)c3ccc(-c4c5nc(c(-c6c(F)cc(S(=O)(=O)[O-])cc6F)c6ccc([nH]6)c(-c6c(F)cc(S(=O)(=O)[O-])cc6F)c6nc(c(-c7c(F)cc(S(=O)(=O)[O-])cc7F)c7ccc4[nH]7)C=C6)C=C5)cc3)CC2)CCC[C@@H]1C
REMARK SMILES IDX 13 1 12 2 11 3 9 4 10 5 8 7 7 8 4 9 5 10 85 11 6 13 84 14
REMARK SMILES IDX 3 15 1 16 2 17 89 18 86 19 88 20 90 21 87 22 14 23 15 24
REMARK SMILES IDX 16 25 17 27 18 28 19 29 83 30 20 31 82 32 21 33 22 34 23 35
REMARK SMILES IDX 76 36 24 37 81 38 75 39 77 40 25 41 80 42 74 43 73 44 26 46
REMARK SMILES IDX 60 47 39 48 59 49 40 50 43 51 58 52 78 53 41 54 42 55 57 57
REMARK SMILES IDX 79 58 44 59 27 60 28 61 37 62 29 63 30 64 36 65 38 66 31 67
REMARK SMILES IDX 32 68 33 69 34 70 35 71 61 72 62 73 71 74 63 75 64 76 70 77
REMARK SMILES IDX 72 78 65 79 66 80 67 81 68 82 69 83 45 84 46 85 55 86 47 87
REMARK SMILES IDX 48 88 54 89 56 90 49 91 50 92 51 93 52 94 53 95
REMARK H PARENT 11 6 4 12 15 26 77 45 43 56
REMARK Flexibility Score: inf
ROOT
ATOM      1  C   UNL A   1      34.208  31.235  27.627  1.00  0.00     0.042 C 
ENDROOT
BRANCH   1   2
ATOM      2  C   UNL A   1      33.393  30.351  26.687  1.00  0.00     0.117 C 
BRANCH   2   3
ATOM      3  N   UNL A   1      32.409  29.550  27.401  1.00  0.00    -0.356 N 
ATOM      4  C   UNL A   1      32.151  28.211  27.387  1.00  0.00     0.220 C 
ATOM      5  O   UNL A   1      31.234  27.797  28.102  1.00  0.00    -0.275 OA
ATOM      6  H   UNL A   1      31.826  30.068  28.002  1.00  0.00     0.163 HD
BRANCH   4   7
ATOM      7  C   UNL A   1      32.970  27.237  26.554  1.00  0.00     0.104 C 
BRANCH   7   8
ATOM      8  C   UNL A   1      32.388  26.920  25.150  1.00  0.00     0.009 C 
ATOM      9  N   UNL A   1      32.551  24.480  23.445  1.00  0.00    -0.332 N 
ATOM     10  C   UNL A   1      31.273  24.889  24.015  1.00  0.00     0.262 C 
ATOM     11  C   UNL A   1      33.313  25.645  23.036  1.00  0.00     0.262 C 
ATOM     12  H   UNL A   1      32.300  23.958  22.604  1.00  0.00     0.348 HD
ATOM     13  C   UNL A   1      31.390  25.756  25.264  1.00  0.00     0.066 C 
ATOM     14  C   UNL A   1      33.519  26.674  24.143  1.00  0.00     0.066 C 
BRANCH   9  15
ATOM     15  C   UNL A   1      33.266  23.278  23.939  1.00  0.00     0.187 C 
ATOM     16  C   UNL A   1      34.917  24.068  25.751  1.00  0.00     0.014 C 
ATOM     17  C   UNL A   1      33.666  23.224  25.454  1.00  0.00     0.047 C 
ATOM     18  C   UNL A   1      33.916  21.815  26.064  1.00  0.00    -0.006 C 
ATOM     19  C   UNL A   1      32.491  22.028  23.459  1.00  0.00     0.065 C 
ATOM     20  C   UNL A   1      32.973  20.749  25.526  1.00  0.00     0.004 C 
ATOM     21  C   UNL A   1      33.818  21.869  27.599  1.00  0.00     0.008 C 
ATOM     22  C   UNL A   1      33.043  20.724  24.010  1.00  0.00     0.006 C 
ENDBRANCH   9  15
ENDBRANCH   7   8
ENDBRANCH   4   7
ENDBRANCH   2   3
ENDBRANCH   1   2
BRANCH   1  23
ATOM     23  C   UNL A   1      35.327  30.520  28.360  1.00  0.00     0.118 C 
BRANCH  23  24
ATOM     24  N   UNL A   1      35.386  30.877  29.766  1.00  0.00    -0.352 N 
ATOM     25  C   UNL A   1      36.420  30.741  30.665  1.00  0.00     0.251 C 
ATOM     26  H   UNL A   1      34.563  31.276  30.131  1.00  0.00     0.163 HD
ATOM     27  O   UNL A   1      36.195  30.929  31.857  1.00  0.00    -0.269 OA
BRANCH  25  28
ATOM     28  C   UNL A   1      37.783  30.352  30.217  1.00  0.00     0.039 A 
ATOM     29  C   UNL A   1      38.691  29.870  31.165  1.00  0.00     0.014 A 
ATOM     30  C   UNL A   1      38.189  30.487  28.888  1.00  0.00     0.014 A 
ATOM     31  C   UNL A   1      39.977  29.483  30.772  1.00  0.00     0.010 A 
ATOM     32  C   UNL A   1      39.431  30.004  28.479  1.00  0.00     0.010 A 
ATOM     33  C   UNL A   1      40.350  29.518  29.419  1.00  0.00    -0.014 A 
BRANCH  33  34
ATOM     34  C   UNL A   1      41.706  29.095  28.973  1.00  0.00     0.031 A 
ATOM     35  C   UNL A   1      42.830  30.099  28.923  1.00  0.00     0.074 A 
ATOM     36  C   UNL A   1      41.914  27.827  28.563  1.00  0.00     0.049 A 
ATOM     37  N   UNL A   1      44.058  29.946  28.501  1.00  0.00    -0.248 NA
ATOM     38  C   UNL A   1      42.522  31.467  29.377  1.00  0.00     0.031 C 
ATOM     39  C   UNL A   1      40.897  26.775  28.516  1.00  0.00     0.029 A 
ATOM     40  N   UNL A   1      43.050  27.209  28.101  1.00  0.00    -0.354 N 
ATOM     41  C   UNL A   1      44.660  31.194  28.621  1.00  0.00     0.074 A 
ATOM     42  C   UNL A   1      43.646  32.108  29.095  1.00  0.00     0.031 C 
ATOM     43  C   UNL A   1      41.460  25.637  28.079  1.00  0.00     0.029 A 
ATOM     44  C   UNL A   1      42.866  25.886  27.776  1.00  0.00     0.049 A 
ATOM     45  H   UNL A   1      43.914  27.672  28.011  1.00  0.00     0.167 HD
ATOM     46  C   UNL A   1      45.949  31.543  28.386  1.00  0.00     0.037 A 
ATOM     47  C   UNL A   1      43.731  24.976  27.284  1.00  0.00     0.037 A 
ATOM     48  C   UNL A   1      46.962  30.620  27.948  1.00  0.00     0.049 A 
ATOM     49  C   UNL A   1      45.158  25.385  27.036  1.00  0.00     0.074 A 
ATOM     50  C   UNL A   1      48.309  30.856  27.742  1.00  0.00     0.029 A 
ATOM     51  N   UNL A   1      46.741  29.283  27.651  1.00  0.00    -0.354 N 
ATOM     52  N   UNL A   1      45.725  26.555  27.216  1.00  0.00    -0.248 NA
ATOM     53  C   UNL A   1      46.066  24.351  26.522  1.00  0.00     0.031 C 
ATOM     54  C   UNL A   1      48.894  29.674  27.275  1.00  0.00     0.029 A 
ATOM     55  C   UNL A   1      47.922  28.687  27.242  1.00  0.00     0.049 A 
ATOM     56  H   UNL A   1      45.872  28.825  27.720  1.00  0.00     0.167 HD
ATOM     57  C   UNL A   1      47.060  26.390  26.864  1.00  0.00     0.074 A 
ATOM     58  C   UNL A   1      47.220  25.004  26.474  1.00  0.00     0.031 C 
ATOM     59  C   UNL A   1      48.064  27.302  26.864  1.00  0.00     0.037 A 
BRANCH  46  60
ATOM     60  C   UNL A   1      46.336  32.982  28.607  1.00  0.00     0.058 A 
ATOM     61  C   UNL A   1      46.789  33.442  29.853  1.00  0.00     0.135 A 
ATOM     62  C   UNL A   1      46.283  33.906  27.550  1.00  0.00     0.135 A 
ATOM     63  F   UNL A   1      46.845  32.607  30.903  1.00  0.00    -0.206 F 
ATOM     64  C   UNL A   1      47.143  34.772  30.055  1.00  0.00     0.059 A 
ATOM     65  C   UNL A   1      46.662  35.235  27.721  1.00  0.00     0.059 A 
ATOM     66  F   UNL A   1      45.858  33.523  26.336  1.00  0.00    -0.206 F 
ATOM     67  C   UNL A   1      47.076  35.661  28.982  1.00  0.00     0.060 A 
BRANCH  67  68
ATOM     68  S   UNL A   1      47.543  37.383  29.260  1.00  0.00     0.124 S 
ATOM     69  O   UNL A   1      47.988  37.782  27.928  1.00  0.00    -0.237 OA
ATOM     70  O   UNL A   1      46.290  37.977  29.714  1.00  0.00    -0.237 OA
ATOM     71  O   UNL A   1      48.593  37.292  30.271  1.00  0.00    -0.744 OA
ENDBRANCH  67  68
ENDBRANCH  46  60
BRANCH  47  72
ATOM     72  C   UNL A   1      43.277  23.584  27.018  1.00  0.00     0.058 A 
ATOM     73  C   UNL A   1      42.998  23.153  25.712  1.00  0.00     0.135 A 
ATOM     74  C   UNL A   1      43.127  22.654  28.058  1.00  0.00     0.135 A 
ATOM     75  F   UNL A   1      43.119  24.007  24.684  1.00  0.00    -0.206 F 
ATOM     76  C   UNL A   1      42.568  21.857  25.448  1.00  0.00     0.059 A 
ATOM     77  C   UNL A   1      42.726  21.344  27.815  1.00  0.00     0.059 A 
ATOM     78  F   UNL A   1      43.398  23.009  29.324  1.00  0.00    -0.206 F 
ATOM     79  C   UNL A   1      42.439  20.957  26.506  1.00  0.00     0.060 A 
BRANCH  79  80
ATOM     80  S   UNL A   1      41.928  19.262  26.145  1.00  0.00     0.124 S 
ATOM     81  O   UNL A   1      42.726  18.961  24.963  1.00  0.00    -0.237 OA
ATOM     82  O   UNL A   1      42.307  18.561  27.368  1.00  0.00    -0.237 OA
ATOM     83  O   UNL A   1      40.491  19.385  25.923  1.00  0.00    -0.744 OA
ENDBRANCH  79  80
ENDBRANCH  47  72
BRANCH  59  84
ATOM     84  C   UNL A   1      49.433  26.827  26.461  1.00  0.00     0.058 A 
ATOM     85  C   UNL A   1      50.280  26.166  27.364  1.00  0.00     0.135 A 
ATOM     86  C   UNL A   1      49.879  26.986  25.139  1.00  0.00     0.135 A 
ATOM     87  F   UNL A   1      49.905  25.993  28.641  1.00  0.00    -0.206 F 
ATOM     88  C   UNL A   1      51.533  25.701  26.977  1.00  0.00     0.059 A 
ATOM     89  C   UNL A   1      51.114  26.503  24.723  1.00  0.00     0.059 A 
ATOM     90  F   UNL A   1      49.102  27.600  24.233  1.00  0.00    -0.206 F 
ATOM     91  C   UNL A   1      51.940  25.872  25.653  1.00  0.00     0.060 A 
BRANCH  91  92
ATOM     92  S   UNL A   1      53.553  25.232  25.154  1.00  0.00     0.124 S 
ATOM     93  O   UNL A   1      54.440  25.914  26.090  1.00  0.00    -0.237 OA
ATOM     94  O   UNL A   1      53.396  23.797  25.359  1.00  0.00    -0.237 OA
ATOM     95  O   UNL A   1      53.670  25.652  23.760  1.00  0.00    -0.744 OA
ENDBRANCH  91  92
ENDBRANCH  59  84
ENDBRANCH  33  34
ENDBRANCH  25  28
ENDBRANCH  23  24
ENDBRANCH   1  23
TORSDOF 15
ENDMDL
MODEL 2
REMARK VINA RESULT:     -11.9      2.780      3.889
REMARK SMILES C[C@H]1[C@H]([NH+]2CCC(CC(=O)NCCCNC(=O)c3ccc(-c4c5nc(c(-c6c(F)cc(S(=O)(=O)[O-])cc6F)c6ccc([nH]6)c(-c6c(F)cc(S(=O)(=O)[O-])cc6F)c6nc(c(-c7c(F)cc(S(=O)(=O)[O-])cc7F)c7ccc4[nH]7)C=C6)C=C5)cc3)CC2)CCC[C@@H]1C
REMARK SMILES IDX 13 1 12 2 11 3 9 4 10 5 8 7 7 8 4 9 5 10 85 11 6 13 84 14
REMARK SMILES IDX 3 15 1 16 2 17 89 18 86 19 88 20 90 21 87 22 14 23 15 24
REMARK SMILES IDX 16 25 17 27 18 28 19 29 83 30 20 31 82 32 21 33 22 34 23 35
REMARK SMILES IDX 76 36 24 37 81 38 75 39 77 40 25 41 80 42 74 43 73 44 26 46
REMARK SMILES IDX 60 47 39 48 59 49 40 50 43 51 58 52 78 53 41 54 42 55 57 57
REMARK SMILES IDX 79 58 44 59 27 60 28 61 37 62 29 63 30 64 36 65 38 66 31 67
REMARK SMILES IDX 32 68 33 69 34 70 35 71 61 72 62 73 71 74 63 75 64 76 70 77
REMARK SMILES IDX 72 78 65 79 66 80 67 81 68 82 69 83 45 84 46 85 55 86 47 87
REMARK SMILES IDX 48 88 54 89 56 90 49 91 50 92 51 93 52 94 53 95
REMARK H PARENT 11 6 4 12 15 26 77 45 43 56
REMARK Flexibility Score: inf
ROOT
ATOM      1  C   UNL A   1      33.653  27.955  25.633  1.00  0.00     0.042 C 
ENDROOT
BRANCH   1   2
ATOM      2  C   UNL A   1      32.282  28.026  24.965  1.00  0.00     0.117 C 
BRANCH   2   3
ATOM      3  N   UNL A   1      31.267  27.301  25.716  1.00  0.00    -0.356 N 
ATOM      4  C   UNL A   1      31.041  25.965  25.874  1.00  0.00     0.220 C 
ATOM      5  O   UNL A   1      30.084  25.625  26.574  1.00  0.00    -0.275 OA
ATOM      6  H   UNL A   1      30.630  27.878  26.195  1.00  0.00     0.163 HD
BRANCH   4   7
ATOM      7  C   UNL A   1      31.940  24.913  25.246  1.00  0.00     0.104 C 
BRANCH   7   8
ATOM      8  C   UNL A   1      32.982  24.278  26.206  1.00  0.00     0.009 C 
ATOM      9  N   UNL A   1      34.446  21.683  26.104  1.00  0.00    -0.332 N 
ATOM     10  C   UNL A   1      35.172  22.937  25.950  1.00  0.00     0.262 C 
ATOM     11  C   UNL A   1      33.395  21.830  27.094  1.00  0.00     0.262 C 
ATOM     12  H   UNL A   1      35.138  21.031  26.477  1.00  0.00     0.348 HD
ATOM     13  C   UNL A   1      34.318  24.103  25.464  1.00  0.00     0.066 C 
ATOM     14  C   UNL A   1      32.434  22.981  26.814  1.00  0.00     0.066 C 
BRANCH   9  15
ATOM     15  C   UNL A   1      34.244  20.764  24.958  1.00  0.00     0.187 C 
ATOM     16  C   UNL A   1      36.368  19.319  24.758  1.00  0.00     0.014 C 
ATOM     17  C   UNL A   1      34.856  19.322  25.046  1.00  0.00     0.047 C 
ATOM     18  C   UNL A   1      34.221  18.233  24.136  1.00  0.00    -0.006 C 
ATOM     19  C   UNL A   1      32.740  20.775  24.594  1.00  0.00     0.065 C 
ATOM     20  C   UNL A   1      32.712  18.371  23.994  1.00  0.00     0.004 C 
ATOM     21  C   UNL A   1      34.568  16.827  24.659  1.00  0.00     0.008 C 
ATOM     22  C   UNL A   1      32.370  19.770  23.516  1.00  0.00     0.006 C 
ENDBRANCH   9  15
ENDBRANCH   7   8
ENDBRANCH   4   7
ENDBRANCH   2   3
ENDBRANCH   1   2
BRANCH   1  23
ATOM     23  C   UNL A   1      33.645  28.212  27.127  1.00  0.00     0.118 C 
BRANCH  23  24
ATOM     24  N   UNL A   1      33.499  29.621  27.446  1.00  0.00    -0.352 N 
ATOM     25  C   UNL A   1      34.383  30.479  28.061  1.00  0.00     0.251 C 
ATOM     26  H   UNL A   1      32.640  30.023  27.182  1.00  0.00     0.163 HD
ATOM     27  O   UNL A   1      33.985  31.588  28.410  1.00  0.00    -0.269 OA
BRANCH  25  28
ATOM     28  C   UNL A   1      35.789  30.077  28.326  1.00  0.00     0.039 A 
ATOM     29  C   UNL A   1      36.716  30.140  27.280  1.00  0.00     0.014 A 
ATOM     30  C   UNL A   1      36.199  29.609  29.576  1.00  0.00     0.014 A 
ATOM     31  C   UNL A   1      38.050  29.781  27.502  1.00  0.00     0.010 A 
ATOM     32  C   UNL A   1      37.547  29.352  29.824  1.00  0.00     0.010 A 
ATOM     33  C   UNL A   1      38.485  29.411  28.785  1.00  0.00    -0.014 A 
BRANCH  33  34
ATOM     34  C   UNL A   1      39.902  29.042  29.051  1.00  0.00     0.031 A 
ATOM     35  C   UNL A   1      40.848  30.058  29.641  1.00  0.00     0.074 A 
ATOM     36  C   UNL A   1      40.353  27.816  28.715  1.00  0.00     0.049 A 
ATOM     37  N   UNL A   1      42.129  29.954  29.883  1.00  0.00    -0.248 NA
ATOM     38  C   UNL A   1      40.284  31.379  29.973  1.00  0.00     0.031 C 
ATOM     39  C   UNL A   1      39.551  26.762  28.091  1.00  0.00     0.029 A 
ATOM     40  N   UNL A   1      41.597  27.252  28.843  1.00  0.00    -0.354 N 
ATOM     41  C   UNL A   1      42.525  31.193  30.376  1.00  0.00     0.074 A 
ATOM     42  C   UNL A   1      41.364  32.053  30.338  1.00  0.00     0.031 C 
ATOM     43  C   UNL A   1      40.315  25.671  27.918  1.00  0.00     0.029 A 
ATOM     44  C   UNL A   1      41.670  25.959  28.379  1.00  0.00     0.049 A 
ATOM     45  H   UNL A   1      42.367  27.729  29.231  1.00  0.00     0.167 HD
ATOM     46  C   UNL A   1      43.739  31.574  30.843  1.00  0.00     0.037 A 
ATOM     47  C   UNL A   1      42.711  25.104  28.326  1.00  0.00     0.037 A 
ATOM     48  C   UNL A   1      44.882  30.702  30.910  1.00  0.00     0.049 A 
ATOM     49  C   UNL A   1      44.048  25.547  28.856  1.00  0.00     0.074 A 
ATOM     50  C   UNL A   1      46.138  30.969  31.425  1.00  0.00     0.029 A 
ATOM     51  N   UNL A   1      44.907  29.393  30.451  1.00  0.00    -0.354 N 
ATOM     52  N   UNL A   1      44.387  26.703  29.377  1.00  0.00    -0.248 NA
ATOM     53  C   UNL A   1      45.143  24.569  28.798  1.00  0.00     0.031 C 
ATOM     54  C   UNL A   1      46.938  29.837  31.234  1.00  0.00     0.029 A 
ATOM     55  C   UNL A   1      46.164  28.846  30.650  1.00  0.00     0.049 A 
ATOM     56  H   UNL A   1      44.145  28.922  30.043  1.00  0.00     0.167 HD
ATOM     57  C   UNL A   1      45.727  26.582  29.732  1.00  0.00     0.074 A 
ATOM     58  C   UNL A   1      46.131  25.236  29.381  1.00  0.00     0.031 C 
ATOM     59  C   UNL A   1      46.547  27.501  30.299  1.00  0.00     0.037 A 
BRANCH  46  60
ATOM     60  C   UNL A   1      43.889  32.993  31.327  1.00  0.00     0.058 A 
ATOM     61  C   UNL A   1      44.206  34.042  30.450  1.00  0.00     0.135 A 
ATOM     62  C   UNL A   1      43.683  33.312  32.679  1.00  0.00     0.135 A 
ATOM     63  F   UNL A   1      44.429  33.794  29.150  1.00  0.00    -0.206 F 
ATOM     64  C   UNL A   1      44.346  35.351  30.900  1.00  0.00     0.059 A 
ATOM     65  C   UNL A   1      43.787  34.620  33.146  1.00  0.00     0.059 A 
ATOM     66  F   UNL A   1      43.377  32.350  33.563  1.00  0.00    -0.206 F 
ATOM     67  C   UNL A   1      44.136  35.630  32.251  1.00  0.00     0.060 A 
BRANCH  67  68
ATOM     68  S   UNL A   1      44.319  37.335  32.817  1.00  0.00     0.124 S 
ATOM     69  O   UNL A   1      45.580  37.264  33.548  1.00  0.00    -0.237 OA
ATOM     70  O   UNL A   1      44.355  38.078  31.561  1.00  0.00    -0.237 OA
ATOM     71  O   UNL A   1      43.130  37.551  33.636  1.00  0.00    -0.744 OA
ENDBRANCH  67  68
ENDBRANCH  46  60
BRANCH  47  72
ATOM     72  C   UNL A   1      42.523  23.735  27.772  1.00  0.00     0.058 A 
ATOM     73  C   UNL A   1      42.470  23.518  26.388  1.00  0.00     0.135 A 
ATOM     74  C   UNL A   1      42.407  22.617  28.613  1.00  0.00     0.135 A 
ATOM     75  F   UNL A   1      42.568  24.555  25.542  1.00  0.00    -0.206 F 
ATOM     76  C   UNL A   1      42.290  22.245  25.855  1.00  0.00     0.059 A 
ATOM     77  C   UNL A   1      42.255  21.331  28.103  1.00  0.00     0.059 A 
ATOM     78  F   UNL A   1      42.468  22.767  29.946  1.00  0.00    -0.206 F 
ATOM     79  C   UNL A   1      42.188  21.157  26.721  1.00  0.00     0.060 A 
BRANCH  79  80
ATOM     80  S   UNL A   1      42.004  19.503  26.017  1.00  0.00     0.124 S 
ATOM     81  O   UNL A   1      42.500  18.665  27.103  1.00  0.00    -0.237 OA
ATOM     82  O   UNL A   1      40.568  19.436  25.763  1.00  0.00    -0.237 OA
ATOM     83  O   UNL A   1      42.843  19.552  24.824  1.00  0.00    -0.744 OA
ENDBRANCH  79  80
ENDBRANCH  47  72
BRANCH  59  84
ATOM     84  C   UNL A   1      47.957  27.076  30.606  1.00  0.00     0.058 A 
ATOM     85  C   UNL A   1      49.001  27.261  29.686  1.00  0.00     0.135 A 
ATOM     86  C   UNL A   1      48.276  26.527  31.858  1.00  0.00     0.135 A 
ATOM     87  F   UNL A   1      48.748  27.776  28.472  1.00  0.00    -0.206 F 
ATOM     88  C   UNL A   1      50.308  26.895  29.987  1.00  0.00     0.059 A 
ATOM     89  C   UNL A   1      49.581  26.181  32.192  1.00  0.00     0.059 A 
ATOM     90  F   UNL A   1      47.317  26.340  32.779  1.00  0.00    -0.206 F 
ATOM     91  C   UNL A   1      50.589  26.357  31.245  1.00  0.00     0.060 A 
BRANCH  91  92
ATOM     92  S   UNL A   1      52.296  25.919  31.637  1.00  0.00     0.124 S 
ATOM     93  O   UNL A   1      52.150  24.535  32.074  1.00  0.00    -0.237 OA
ATOM     94  O   UNL A   1      52.969  26.114  30.358  1.00  0.00    -0.237 OA
ATOM     95  O   UNL A   1      52.660  26.872  32.682  1.00  0.00    -0.744 OA
ENDBRANCH  91  92
ENDBRANCH  59  84
ENDBRANCH  33  34
ENDBRANCH  25  28
ENDBRANCH  23  24
ENDBRANCH   1  23
TORSDOF 15
ENDMDL
MODEL 3
REMARK VINA RESULT:     -11.9      6.580     12.064
REMARK SMILES C[C@H]1[C@H]([NH+]2CCC(CC(=O)NCCCNC(=O)c3ccc(-c4c5nc(c(-c6c(F)cc(S(=O)(=O)[O-])cc6F)c6ccc([nH]6)c(-c6c(F)cc(S(=O)(=O)[O-])cc6F)c6nc(c(-c7c(F)cc(S(=O)(=O)[O-])cc7F)c7ccc4[nH]7)C=C6)C=C5)cc3)CC2)CCC[C@@H]1C
REMARK SMILES IDX 13 1 12 2 11 3 9 4 10 5 8 7 7 8 4 9 5 10 85 11 6 13 84 14
REMARK SMILES IDX 3 15 1 16 2 17 89 18 86 19 88 20 90 21 87 22 14 23 15 24
REMARK SMILES IDX 16 25 17 27 18 28 19 29 83 30 20 31 82 32 21 33 22 34 23 35
REMARK SMILES IDX 76 36 24 37 81 38 75 39 77 40 25 41 80 42 74 43 73 44 26 46
REMARK SMILES IDX 60 47 39 48 59 49 40 50 43 51 58 52 78 53 41 54 42 55 57 57
REMARK SMILES IDX 79 58 44 59 27 60 28 61 37 62 29 63 30 64 36 65 38 66 31 67
REMARK SMILES IDX 32 68 33 69 34 70 35 71 61 72 62 73 71 74 63 75 64 76 70 77
REMARK SMILES IDX 72 78 65 79 66 80 67 81 68 82 69 83 45 84 46 85 55 86 47 87
REMARK SMILES IDX 48 88 54 89 56 90 49 91 50 92 51 93 52 94 53 95
REMARK H PARENT 11 6 4 12 15 26 77 45 43 56
REMARK Flexibility Score: inf
ROOT
ATOM      1  C   UNL A   1      37.914  23.782  26.061  1.00  0.00     0.042 C 
ENDROOT
BRANCH   1   2
ATOM      2  C   UNL A   1      37.390  22.522  25.375  1.00  0.00     0.117 C 
BRANCH   2   3
ATOM      3  N   UNL A   1      36.334  21.878  26.140  1.00  0.00    -0.356 N 
ATOM      4  C   UNL A   1      35.006  22.166  26.270  1.00  0.00     0.220 C 
ATOM      5  O   UNL A   1      34.332  21.441  27.007  1.00  0.00    -0.275 OA
ATOM      6  H   UNL A   1      36.629  21.095  26.657  1.00  0.00     0.163 HD
BRANCH   4   7
ATOM      7  C   UNL A   1      34.350  23.313  25.519  1.00  0.00     0.104 C 
BRANCH   7   8
ATOM      8  C   UNL A   1      32.816  23.180  25.322  1.00  0.00     0.009 C 
ATOM      9  N   UNL A   1      30.699  25.220  24.824  1.00  0.00    -0.332 N 
ATOM     10  C   UNL A   1      31.038  24.251  23.789  1.00  0.00     0.262 C 
ATOM     11  C   UNL A   1      30.741  24.591  26.132  1.00  0.00     0.262 C 
ATOM     12  H   UNL A   1      29.729  25.473  24.630  1.00  0.00     0.348 HD
ATOM     13  C   UNL A   1      32.439  23.664  23.911  1.00  0.00     0.066 C 
ATOM     14  C   UNL A   1      32.064  23.901  26.448  1.00  0.00     0.066 C 
BRANCH   9  15
ATOM     15  C   UNL A   1      31.066  26.650  24.692  1.00  0.00     0.187 C 
ATOM     16  C   UNL A   1      33.556  26.857  25.319  1.00  0.00     0.014 C 
ATOM     17  C   UNL A   1      32.512  27.002  24.198  1.00  0.00     0.047 C 
ATOM     18  C   UNL A   1      32.717  28.410  23.570  1.00  0.00    -0.006 C 
ATOM     19  C   UNL A   1      29.949  27.360  23.889  1.00  0.00     0.065 C 
ATOM     20  C   UNL A   1      31.533  28.875  22.734  1.00  0.00     0.004 C 
ATOM     21  C   UNL A   1      33.998  28.438  22.718  1.00  0.00     0.008 C 
ATOM     22  C   UNL A   1      30.264  28.809  23.564  1.00  0.00     0.006 C 
ENDBRANCH   9  15
ENDBRANCH   7   8
ENDBRANCH   4   7
ENDBRANCH   2   3
ENDBRANCH   1   2
BRANCH   1  23
ATOM     23  C   UNL A   1      39.155  23.574  26.907  1.00  0.00     0.118 C 
BRANCH  23  24
ATOM     24  N   UNL A   1      40.376  23.873  26.182  1.00  0.00    -0.352 N 
ATOM     25  C   UNL A   1      41.210  24.964  26.278  1.00  0.00     0.251 C 
ATOM     26  H   UNL A   1      40.649  23.193  25.523  1.00  0.00     0.163 HD
ATOM     27  O   UNL A   1      42.089  25.113  25.433  1.00  0.00    -0.269 OA
BRANCH  25  28
ATOM     28  C   UNL A   1      41.047  25.965  27.364  1.00  0.00     0.039 A 
ATOM     29  C   UNL A   1      40.094  25.728  28.360  1.00  0.00     0.014 A 
ATOM     30  C   UNL A   1      41.793  27.145  27.399  1.00  0.00     0.014 A 
ATOM     31  C   UNL A   1      39.927  26.645  29.404  1.00  0.00     0.010 A 
ATOM     32  C   UNL A   1      41.701  28.004  28.492  1.00  0.00     0.010 A 
ATOM     33  C   UNL A   1      40.750  27.778  29.497  1.00  0.00    -0.014 A 
BRANCH  33  34
ATOM     34  C   UNL A   1      40.604  28.759  30.607  1.00  0.00     0.031 A 
ATOM     35  C   UNL A   1      41.475  28.645  31.832  1.00  0.00     0.074 A 
ATOM     36  C   UNL A   1      39.656  29.716  30.539  1.00  0.00     0.049 A 
ATOM     37  N   UNL A   1      41.457  29.355  32.930  1.00  0.00    -0.248 NA
ATOM     38  C   UNL A   1      42.481  27.568  31.837  1.00  0.00     0.031 C 
ATOM     39  C   UNL A   1      38.717  29.900  29.431  1.00  0.00     0.029 A 
ATOM     40  N   UNL A   1      39.321  30.710  31.424  1.00  0.00    -0.354 N 
ATOM     41  C   UNL A   1      42.428  28.802  33.758  1.00  0.00     0.074 A 
ATOM     42  C   UNL A   1      42.974  27.659  33.063  1.00  0.00     0.031 C 
ATOM     43  C   UNL A   1      37.932  30.959  29.689  1.00  0.00     0.029 A 
ATOM     44  C   UNL A   1      38.283  31.505  30.996  1.00  0.00     0.049 A 
ATOM     45  H   UNL A   1      39.780  30.841  32.285  1.00  0.00     0.167 HD
ATOM     46  C   UNL A   1      42.848  29.224  34.976  1.00  0.00     0.037 A 
ATOM     47  C   UNL A   1      37.678  32.552  31.592  1.00  0.00     0.037 A 
ATOM     48  C   UNL A   1      42.325  30.385  35.647  1.00  0.00     0.049 A 
ATOM     49  C   UNL A   1      38.165  33.006  32.942  1.00  0.00     0.074 A 
ATOM     50  C   UNL A   1      42.724  30.934  36.852  1.00  0.00     0.029 A 
ATOM     51  N   UNL A   1      41.289  31.175  35.170  1.00  0.00    -0.354 N 
ATOM     52  N   UNL A   1      39.129  32.509  33.682  1.00  0.00    -0.248 NA
ATOM     53  C   UNL A   1      37.489  34.167  33.537  1.00  0.00     0.031 C 
ATOM     54  C   UNL A   1      41.899  32.031  37.127  1.00  0.00     0.029 A 
ATOM     55  C   UNL A   1      41.021  32.196  36.067  1.00  0.00     0.049 A 
ATOM     56  H   UNL A   1      40.814  31.033  34.320  1.00  0.00     0.167 HD
ATOM     57  C   UNL A   1      39.191  33.312  34.816  1.00  0.00     0.074 A 
ATOM     58  C   UNL A   1      38.178  34.335  34.658  1.00  0.00     0.031 C 
ATOM     59  C   UNL A   1      40.013  33.212  35.890  1.00  0.00     0.037 A 
BRANCH  46  60
ATOM     60  C   UNL A   1      43.934  28.431  35.655  1.00  0.00     0.058 A 
ATOM     61  C   UNL A   1      43.638  27.389  36.548  1.00  0.00     0.135 A 
ATOM     62  C   UNL A   1      45.287  28.695  35.386  1.00  0.00     0.135 A 
ATOM     63  F   UNL A   1      42.362  27.103  36.856  1.00  0.00    -0.206 F 
ATOM     64  C   UNL A   1      44.642  26.660  37.176  1.00  0.00     0.059 A 
ATOM     65  C   UNL A   1      46.308  27.957  35.979  1.00  0.00     0.059 A 
ATOM     66  F   UNL A   1      45.630  29.679  34.540  1.00  0.00    -0.206 F 
ATOM     67  C   UNL A   1      45.975  26.952  36.885  1.00  0.00     0.060 A 
BRANCH  67  68
ATOM     68  S   UNL A   1      47.265  25.992  37.707  1.00  0.00     0.124 S 
ATOM     69  O   UNL A   1      48.432  26.849  37.512  1.00  0.00    -0.237 OA
ATOM     70  O   UNL A   1      46.766  25.905  39.075  1.00  0.00    -0.237 OA
ATOM     71  O   UNL A   1      47.280  24.735  36.965  1.00  0.00    -0.744 OA
ENDBRANCH  67  68
ENDBRANCH  46  60
BRANCH  47  72
ATOM     72  C   UNL A   1      36.561  33.257  30.905  1.00  0.00     0.058 A 
ATOM     73  C   UNL A   1      35.239  33.122  31.352  1.00  0.00     0.135 A 
ATOM     74  C   UNL A   1      36.795  34.089  29.799  1.00  0.00     0.135 A 
ATOM     75  F   UNL A   1      34.963  32.333  32.402  1.00  0.00    -0.206 F 
ATOM     76  C   UNL A   1      34.184  33.772  30.718  1.00  0.00     0.059 A 
ATOM     77  C   UNL A   1      35.760  34.771  29.166  1.00  0.00     0.059 A 
ATOM     78  F   UNL A   1      38.044  34.267  29.341  1.00  0.00    -0.206 F 
ATOM     79  C   UNL A   1      34.456  34.598  29.627  1.00  0.00     0.060 A 
BRANCH  79  80
ATOM     80  S   UNL A   1      33.085  35.474  28.842  1.00  0.00     0.124 S 
ATOM     81  O   UNL A   1      32.449  34.404  28.082  1.00  0.00    -0.237 OA
ATOM     82  O   UNL A   1      32.338  35.970  29.994  1.00  0.00    -0.237 OA
ATOM     83  O   UNL A   1      33.753  36.501  28.049  1.00  0.00    -0.744 OA
ENDBRANCH  79  80
ENDBRANCH  47  72
BRANCH  59  84
ATOM     84  C   UNL A   1      39.876  34.253  36.967  1.00  0.00     0.058 A 
ATOM     85  C   UNL A   1      40.507  35.502  36.870  1.00  0.00     0.135 A 
ATOM     86  C   UNL A   1      39.057  34.016  38.083  1.00  0.00     0.135 A 
ATOM     87  F   UNL A   1      41.305  35.777  35.827  1.00  0.00    -0.206 F 
ATOM     88  C   UNL A   1      40.351  36.473  37.854  1.00  0.00     0.059 A 
ATOM     89  C   UNL A   1      38.863  34.982  39.064  1.00  0.00     0.059 A 
ATOM     90  F   UNL A   1      38.421  32.842  38.218  1.00  0.00    -0.206 F 
ATOM     91  C   UNL A   1      39.525  36.204  38.947  1.00  0.00     0.060 A 
BRANCH  91  92
ATOM     92  S   UNL A   1      39.303  37.485  40.199  1.00  0.00     0.124 S 
ATOM     93  O   UNL A   1      40.633  38.082  40.247  1.00  0.00    -0.237 OA
ATOM     94  O   UNL A   1      38.256  38.316  39.613  1.00  0.00    -0.237 OA
ATOM     95  O   UNL A   1      38.908  36.735  41.388  1.00  0.00    -0.744 OA
ENDBRANCH  91  92
ENDBRANCH  59  84
ENDBRANCH  33  34
ENDBRANCH  25  28
ENDBRANCH  23  24
ENDBRANCH   1  23
TORSDOF 15
ENDMDL
