MODEL 1
REMARK VINA RESULT:     -11.4      0.000      0.000
REMARK SMILES NC(=O)[C@@H]1CCCCN1c1cncc(C(=O)NCCCNC(=O)c2ccc(-c3c4nc(c(-c5c(F)cc(S(=O)(=O)[O-])cc5F)c5ccc([nH]5)c(-c5c(F)cc(S(=O)(=O)[O-])cc5F)c5nc(c(-c6c(F)cc(S(=O)(=O)[O-])cc6F)c6ccc3[nH]6)C=C5)C=C4)cc2)n1
REMARK SMILES IDX 19 1 18 2 17 3 15 4 16 5 14 7 10 8 11 9 90 10 12 11 13 12
REMARK SMILES IDX 9 13 4 14 5 15 6 16 8 17 7 18 2 19 1 20 3 23 20 24 21 25
REMARK SMILES IDX 22 26 23 28 24 29 25 30 89 31 26 32 88 33 27 34 28 35 29 36
REMARK SMILES IDX 82 37 30 38 87 39 81 40 83 41 31 42 86 43 80 44 79 45 32 47
REMARK SMILES IDX 66 48 45 49 65 50 46 51 49 52 64 53 84 54 47 55 48 56 63 58
REMARK SMILES IDX 85 59 50 60 33 61 34 62 43 63 35 64 36 65 42 66 44 67 37 68
REMARK SMILES IDX 38 69 39 70 40 71 41 72 67 73 68 74 77 75 69 76 70 77 76 78
REMARK SMILES IDX 78 79 71 80 72 81 73 82 74 83 75 84 51 85 52 86 61 87 53 88
REMARK SMILES IDX 54 89 60 90 62 91 55 92 56 93 57 94 58 95 59 96
REMARK H PARENT 17 6 1 21 1 22 21 27 83 46 49 57
REMARK Flexibility Score: inf
ROOT
ATOM      1  C   UNL A   1      33.416  27.652  25.854  1.00  0.00     0.042 C 
ENDROOT
BRANCH   1   2
ATOM      2  C   UNL A   1      32.025  27.138  25.500  1.00  0.00     0.118 C 
BRANCH   2   3
ATOM      3  N   UNL A   1      31.544  26.156  26.455  1.00  0.00    -0.351 N 
ATOM      4  C   UNL A   1      31.465  24.785  26.380  1.00  0.00     0.271 C 
ATOM      5  O   UNL A   1      31.010  24.191  27.362  1.00  0.00    -0.267 OA
ATOM      6  H   UNL A   1      31.219  26.537  27.302  1.00  0.00     0.163 HD
BRANCH   4   7
ATOM      7  C   UNL A   1      31.897  23.990  25.192  1.00  0.00     0.148 A 
ATOM      8  C   UNL A   1      33.487  22.805  24.002  1.00  0.00     0.148 A 
ATOM      9  C   UNL A   1      32.506  22.566  23.026  1.00  0.00     0.157 A 
ATOM     10  N   UNL A   1      33.174  23.533  25.092  1.00  0.00    -0.222 NA
ATOM     11  N   UNL A   1      31.224  22.996  23.106  1.00  0.00    -0.258 NA
ATOM     12  C   UNL A   1      30.945  23.715  24.218  1.00  0.00     0.145 A 
BRANCH   8  13
ATOM     13  N   UNL A   1      34.735  22.209  23.892  1.00  0.00    -0.343 N 
ATOM     14  C   UNL A   1      35.143  21.076  24.768  1.00  0.00     0.172 C 
ATOM     15  C   UNL A   1      36.003  21.560  25.939  1.00  0.00     0.035 C 
ATOM     16  C   UNL A   1      37.175  22.405  25.445  1.00  0.00     0.004 C 
ATOM     17  C   UNL A   1      35.826  23.072  23.422  1.00  0.00     0.119 C 
ATOM     18  C   UNL A   1      36.669  23.569  24.599  1.00  0.00     0.022 C 
BRANCH  14  19
ATOM     19  C   UNL A   1      33.994  20.150  25.231  1.00  0.00     0.240 C 
ATOM     20  N   UNL A   1      33.432  20.463  26.440  1.00  0.00    -0.368 N 
ATOM     21  H   UNL A   1      32.695  19.916  26.797  1.00  0.00     0.159 HD
ATOM     22  H   UNL A   1      33.764  21.235  26.953  1.00  0.00     0.159 HD
ATOM     23  O   UNL A   1      33.508  19.250  24.551  1.00  0.00    -0.273 OA
ENDBRANCH  14  19
ENDBRANCH   8  13
ENDBRANCH   4   7
ENDBRANCH   2   3
ENDBRANCH   1   2
BRANCH   1  24
ATOM     24  C   UNL A   1      33.549  28.091  27.311  1.00  0.00     0.118 C 
BRANCH  24  25
ATOM     25  N   UNL A   1      33.473  29.540  27.463  1.00  0.00    -0.352 N 
ATOM     26  C   UNL A   1      34.372  30.436  27.978  1.00  0.00     0.251 C 
ATOM     27  H   UNL A   1      32.634  29.942  27.142  1.00  0.00     0.163 HD
ATOM     28  O   UNL A   1      34.002  31.590  28.205  1.00  0.00    -0.269 OA
BRANCH  26  29
ATOM     29  C   UNL A   1      35.767  30.044  28.265  1.00  0.00     0.039 A 
ATOM     30  C   UNL A   1      36.705  30.094  27.229  1.00  0.00     0.014 A 
ATOM     31  C   UNL A   1      36.146  29.573  29.525  1.00  0.00     0.014 A 
ATOM     32  C   UNL A   1      38.029  29.721  27.470  1.00  0.00     0.010 A 
ATOM     33  C   UNL A   1      37.482  29.271  29.783  1.00  0.00     0.010 A 
ATOM     34  C   UNL A   1      38.435  29.334  28.757  1.00  0.00    -0.014 A 
BRANCH  34  35
ATOM     35  C   UNL A   1      39.852  28.991  29.040  1.00  0.00     0.031 A 
ATOM     36  C   UNL A   1      40.772  30.003  29.667  1.00  0.00     0.074 A 
ATOM     37  C   UNL A   1      40.321  27.777  28.688  1.00  0.00     0.049 A 
ATOM     38  N   UNL A   1      42.045  29.897  29.954  1.00  0.00    -0.248 NA
ATOM     39  C   UNL A   1      40.193  31.317  29.987  1.00  0.00     0.031 C 
ATOM     40  C   UNL A   1      39.540  26.727  28.030  1.00  0.00     0.029 A 
ATOM     41  N   UNL A   1      41.568  27.223  28.829  1.00  0.00    -0.354 N 
ATOM     42  C   UNL A   1      42.421  31.129  30.478  1.00  0.00     0.074 A 
ATOM     43  C   UNL A   1      41.255  31.985  30.416  1.00  0.00     0.031 C 
ATOM     44  C   UNL A   1      40.316  25.646  27.854  1.00  0.00     0.029 A 
ATOM     45  C   UNL A   1      41.656  25.937  28.353  1.00  0.00     0.049 A 
ATOM     46  H   UNL A   1      42.328  27.701  29.234  1.00  0.00     0.167 HD
ATOM     47  C   UNL A   1      43.619  31.506  30.987  1.00  0.00     0.037 A 
ATOM     48  C   UNL A   1      42.700  25.086  28.322  1.00  0.00     0.037 A 
ATOM     49  C   UNL A   1      44.770  30.643  31.063  1.00  0.00     0.049 A 
ATOM     50  C   UNL A   1      44.019  25.524  28.895  1.00  0.00     0.074 A 
ATOM     51  C   UNL A   1      46.014  30.910  31.606  1.00  0.00     0.029 A 
ATOM     52  N   UNL A   1      44.818  29.343  30.577  1.00  0.00    -0.354 N 
ATOM     53  N   UNL A   1      44.341  26.673  29.438  1.00  0.00    -0.248 NA
ATOM     54  C   UNL A   1      45.115  24.546  28.857  1.00  0.00     0.031 C 
ATOM     55  C   UNL A   1      46.826  29.786  31.416  1.00  0.00     0.029 A 
ATOM     56  C   UNL A   1      46.076  28.802  30.792  1.00  0.00     0.049 A 
ATOM     57  H   UNL A   1      44.068  28.874  30.144  1.00  0.00     0.167 HD
ATOM     58  C   UNL A   1      45.671  26.551  29.826  1.00  0.00     0.074 A 
ATOM     59  C   UNL A   1      46.086  25.208  29.470  1.00  0.00     0.031 C 
ATOM     60  C   UNL A   1      46.475  27.466  30.424  1.00  0.00     0.037 A 
BRANCH  47  61
ATOM     61  C   UNL A   1      43.738  32.915  31.501  1.00  0.00     0.058 A 
ATOM     62  C   UNL A   1      43.489  33.231  32.847  1.00  0.00     0.135 A 
ATOM     63  C   UNL A   1      44.112  33.963  30.644  1.00  0.00     0.135 A 
ATOM     64  F   UNL A   1      43.115  32.272  33.709  1.00  0.00    -0.206 F 
ATOM     65  C   UNL A   1      43.564  34.539  33.315  1.00  0.00     0.059 A 
ATOM     66  C   UNL A   1      44.221  35.275  31.097  1.00  0.00     0.059 A 
ATOM     67  F   UNL A   1      44.365  33.719  29.348  1.00  0.00    -0.206 F 
ATOM     68  C   UNL A   1      43.926  35.555  32.430  1.00  0.00     0.060 A 
BRANCH  68  69
ATOM     69  S   UNL A   1      44.000  37.252  33.046  1.00  0.00     0.124 S 
ATOM     70  O   UNL A   1      43.943  38.014  31.802  1.00  0.00    -0.237 OA
ATOM     71  O   UNL A   1      42.812  37.330  33.891  1.00  0.00    -0.237 OA
ATOM     72  O   UNL A   1      45.274  37.300  33.755  1.00  0.00    -0.744 OA
ENDBRANCH  68  69
ENDBRANCH  47  61
BRANCH  48  73
ATOM     73  C   UNL A   1      42.524  23.721  27.760  1.00  0.00     0.058 A 
ATOM     74  C   UNL A   1      42.586  23.501  26.376  1.00  0.00     0.135 A 
ATOM     75  C   UNL A   1      42.322  22.609  28.591  1.00  0.00     0.135 A 
ATOM     76  F   UNL A   1      42.772  24.534  25.541  1.00  0.00    -0.206 F 
ATOM     77  C   UNL A   1      42.446  22.228  25.834  1.00  0.00     0.059 A 
ATOM     78  C   UNL A   1      42.202  21.323  28.074  1.00  0.00     0.059 A 
ATOM     79  F   UNL A   1      42.272  22.765  29.923  1.00  0.00    -0.206 F 
ATOM     80  C   UNL A   1      42.259  21.143  26.693  1.00  0.00     0.060 A 
BRANCH  80  81
ATOM     81  S   UNL A   1      42.145  19.486  25.982  1.00  0.00     0.124 S 
ATOM     82  O   UNL A   1      42.707  18.669  27.050  1.00  0.00    -0.237 OA
ATOM     83  O   UNL A   1      40.710  19.347  25.758  1.00  0.00    -0.237 OA
ATOM     84  O   UNL A   1      42.952  19.587  24.770  1.00  0.00    -0.744 OA
ENDBRANCH  80  81
ENDBRANCH  48  73
BRANCH  60  85
ATOM     85  C   UNL A   1      47.880  27.035  30.744  1.00  0.00     0.058 A 
ATOM     86  C   UNL A   1      48.187  26.346  31.929  1.00  0.00     0.135 A 
ATOM     87  C   UNL A   1      48.928  27.298  29.848  1.00  0.00     0.135 A 
ATOM     88  F   UNL A   1      47.222  26.075  32.822  1.00  0.00    -0.206 F 
ATOM     89  C   UNL A   1      49.491  25.964  32.229  1.00  0.00     0.059 A 
ATOM     90  C   UNL A   1      50.234  26.901  30.115  1.00  0.00     0.059 A 
ATOM     91  F   UNL A   1      48.687  27.945  28.696  1.00  0.00    -0.206 F 
ATOM     92  C   UNL A   1      50.508  26.249  31.317  1.00  0.00     0.060 A 
BRANCH  92  93
ATOM     93  S   UNL A   1      52.195  25.744  31.714  1.00  0.00     0.124 S 
ATOM     94  O   UNL A   1      52.876  25.967  30.443  1.00  0.00    -0.237 OA
ATOM     95  O   UNL A   1      52.552  26.660  32.793  1.00  0.00    -0.237 OA
ATOM     96  O   UNL A   1      52.046  24.347  32.111  1.00  0.00    -0.744 OA
ENDBRANCH  92  93
ENDBRANCH  60  85
ENDBRANCH  34  35
ENDBRANCH  26  29
ENDBRANCH  24  25
ENDBRANCH   1  24
TORSDOF 15
ENDMDL
MODEL 2
REMARK VINA RESULT:     -11.3      4.796     10.372
REMARK SMILES NC(=O)[C@@H]1CCCCN1c1cncc(C(=O)NCCCNC(=O)c2ccc(-c3c4nc(c(-c5c(F)cc(S(=O)(=O)[O-])cc5F)c5ccc([nH]5)c(-c5c(F)cc(S(=O)(=O)[O-])cc5F)c5nc(c(-c6c(F)cc(S(=O)(=O)[O-])cc6F)c6ccc3[nH]6)C=C5)C=C4)cc2)n1
REMARK SMILES IDX 19 1 18 2 17 3 15 4 16 5 14 7 10 8 11 9 90 10 12 11 13 12
REMARK SMILES IDX 9 13 4 14 5 15 6 16 8 17 7 18 2 19 1 20 3 23 20 24 21 25
REMARK SMILES IDX 22 26 23 28 24 29 25 30 89 31 26 32 88 33 27 34 28 35 29 36
REMARK SMILES IDX 82 37 30 38 87 39 81 40 83 41 31 42 86 43 80 44 79 45 32 47
REMARK SMILES IDX 66 48 45 49 65 50 46 51 49 52 64 53 84 54 47 55 48 56 63 58
REMARK SMILES IDX 85 59 50 60 33 61 34 62 43 63 35 64 36 65 42 66 44 67 37 68
REMARK SMILES IDX 38 69 39 70 40 71 41 72 67 73 68 74 77 75 69 76 70 77 76 78
REMARK SMILES IDX 78 79 71 80 72 81 73 82 74 83 75 84 51 85 52 86 61 87 53 88
REMARK SMILES IDX 54 89 60 90 62 91 55 92 56 93 57 94 58 95 59 96
REMARK H PARENT 17 6 1 21 1 22 21 27 83 46 49 57
REMARK Flexibility Score: inf
ROOT
ATOM      1  C   UNL A   1      38.271  23.781  26.411  1.00  0.00     0.042 C 
ENDROOT
BRANCH   1   2
ATOM      2  C   UNL A   1      37.597  22.554  25.806  1.00  0.00     0.118 C 
BRANCH   2   3
ATOM      3  N   UNL A   1      37.483  22.648  24.362  1.00  0.00    -0.351 N 
ATOM      4  C   UNL A   1      36.400  22.904  23.554  1.00  0.00     0.271 C 
ATOM      5  O   UNL A   1      36.597  22.931  22.336  1.00  0.00    -0.267 OA
ATOM      6  H   UNL A   1      38.327  22.503  23.876  1.00  0.00     0.163 HD
BRANCH   4   7
ATOM      7  C   UNL A   1      35.019  23.151  24.069  1.00  0.00     0.148 A 
ATOM      8  C   UNL A   1      33.294  24.566  24.675  1.00  0.00     0.148 A 
ATOM      9  C   UNL A   1      32.529  23.426  24.969  1.00  0.00     0.157 A 
ATOM     10  N   UNL A   1      34.556  24.420  24.226  1.00  0.00    -0.222 NA
ATOM     11  N   UNL A   1      32.959  22.152  24.809  1.00  0.00    -0.258 NA
ATOM     12  C   UNL A   1      34.227  22.045  24.347  1.00  0.00     0.145 A 
BRANCH   8  13
ATOM     13  N   UNL A   1      32.718  25.826  24.747  1.00  0.00    -0.343 N 
ATOM     14  C   UNL A   1      32.722  26.758  23.586  1.00  0.00     0.172 C 
ATOM     15  C   UNL A   1      33.848  27.788  23.702  1.00  0.00     0.035 C 
ATOM     16  C   UNL A   1      33.806  28.495  25.055  1.00  0.00     0.004 C 
ATOM     17  C   UNL A   1      32.714  26.463  26.071  1.00  0.00     0.119 C 
ATOM     18  C   UNL A   1      33.856  27.475  26.187  1.00  0.00     0.022 C 
BRANCH  14  19
ATOM     19  C   UNL A   1      32.689  26.083  22.195  1.00  0.00     0.240 C 
ATOM     20  N   UNL A   1      31.494  25.517  21.839  1.00  0.00    -0.368 N 
ATOM     21  H   UNL A   1      31.401  25.070  20.966  1.00  0.00     0.159 HD
ATOM     22  H   UNL A   1      30.727  25.558  22.454  1.00  0.00     0.159 HD
ATOM     23  O   UNL A   1      33.610  26.118  21.382  1.00  0.00    -0.273 OA
ENDBRANCH  14  19
ENDBRANCH   8  13
ENDBRANCH   4   7
ENDBRANCH   2   3
ENDBRANCH   1   2
BRANCH   1  24
ATOM     24  C   UNL A   1      39.695  23.515  26.897  1.00  0.00     0.118 C 
BRANCH  24  25
ATOM     25  N   UNL A   1      40.698  24.134  26.037  1.00  0.00    -0.352 N 
ATOM     26  C   UNL A   1      41.282  25.372  26.089  1.00  0.00     0.251 C 
ATOM     27  H   UNL A   1      41.007  23.567  25.294  1.00  0.00     0.163 HD
ATOM     28  O   UNL A   1      41.946  25.760  25.125  1.00  0.00    -0.269 OA
BRANCH  26  29
ATOM     29  C   UNL A   1      41.128  26.245  27.271  1.00  0.00     0.039 A 
ATOM     30  C   UNL A   1      41.963  27.359  27.395  1.00  0.00     0.014 A 
ATOM     31  C   UNL A   1      40.213  25.943  28.283  1.00  0.00     0.014 A 
ATOM     32  C   UNL A   1      41.846  28.196  28.507  1.00  0.00     0.010 A 
ATOM     33  C   UNL A   1      40.047  26.819  29.355  1.00  0.00     0.010 A 
ATOM     34  C   UNL A   1      40.866  27.949  29.482  1.00  0.00    -0.014 A 
BRANCH  34  35
ATOM     35  C   UNL A   1      40.692  28.864  30.639  1.00  0.00     0.031 A 
ATOM     36  C   UNL A   1      41.555  28.719  31.863  1.00  0.00     0.074 A 
ATOM     37  C   UNL A   1      39.721  29.799  30.603  1.00  0.00     0.049 A 
ATOM     38  N   UNL A   1      41.524  29.399  32.981  1.00  0.00    -0.248 NA
ATOM     39  C   UNL A   1      42.566  27.651  31.839  1.00  0.00     0.031 C 
ATOM     40  C   UNL A   1      38.789  30.006  29.492  1.00  0.00     0.029 A 
ATOM     41  N   UNL A   1      39.354  30.746  31.525  1.00  0.00    -0.354 N 
ATOM     42  C   UNL A   1      42.501  28.838  33.795  1.00  0.00     0.074 A 
ATOM     43  C   UNL A   1      43.068  27.724  33.063  1.00  0.00     0.031 C 
ATOM     44  C   UNL A   1      37.979  31.036  29.785  1.00  0.00     0.029 A 
ATOM     45  C   UNL A   1      38.309  31.538  31.114  1.00  0.00     0.049 A 
ATOM     46  H   UNL A   1      39.797  30.848  32.398  1.00  0.00     0.167 HD
ATOM     47  C   UNL A   1      42.907  29.227  35.027  1.00  0.00     0.037 A 
ATOM     48  C   UNL A   1      37.687  32.557  31.738  1.00  0.00     0.037 A 
ATOM     49  C   UNL A   1      42.352  30.348  35.742  1.00  0.00     0.049 A 
ATOM     50  C   UNL A   1      38.156  32.975  33.104  1.00  0.00     0.074 A 
ATOM     51  C   UNL A   1      42.727  30.858  36.973  1.00  0.00     0.029 A 
ATOM     52  N   UNL A   1      41.300  31.133  35.289  1.00  0.00    -0.354 N 
ATOM     53  N   UNL A   1      39.120  32.469  33.835  1.00  0.00    -0.248 NA
ATOM     54  C   UNL A   1      37.458  34.108  33.726  1.00  0.00     0.031 C 
ATOM     55  C   UNL A   1      41.877  31.927  37.282  1.00  0.00     0.029 A 
ATOM     56  C   UNL A   1      41.001  32.111  36.224  1.00  0.00     0.049 A 
ATOM     57  H   UNL A   1      40.835  31.012  34.430  1.00  0.00     0.167 HD
ATOM     58  C   UNL A   1      39.158  33.233  34.997  1.00  0.00     0.074 A 
ATOM     59  C   UNL A   1      38.131  34.247  34.859  1.00  0.00     0.031 C 
ATOM     60  C   UNL A   1      39.969  33.109  36.077  1.00  0.00     0.037 A 
BRANCH  47  61
ATOM     61  C   UNL A   1      44.008  28.431  35.676  1.00  0.00     0.058 A 
ATOM     62  C   UNL A   1      43.730  27.345  36.523  1.00  0.00     0.135 A 
ATOM     63  C   UNL A   1      45.356  28.750  35.447  1.00  0.00     0.135 A 
ATOM     64  F   UNL A   1      42.459  27.003  36.789  1.00  0.00    -0.206 F 
ATOM     65  C   UNL A   1      44.746  26.632  37.152  1.00  0.00     0.059 A 
ATOM     66  C   UNL A   1      46.390  28.033  36.042  1.00  0.00     0.059 A 
ATOM     67  F   UNL A   1      45.681  29.777  34.644  1.00  0.00    -0.206 F 
ATOM     68  C   UNL A   1      46.073  26.988  36.909  1.00  0.00     0.060 A 
BRANCH  68  69
ATOM     69  S   UNL A   1      47.381  26.067  37.747  1.00  0.00     0.124 S 
ATOM     70  O   UNL A   1      47.090  24.700  37.325  1.00  0.00    -0.237 OA
ATOM     71  O   UNL A   1      48.591  26.659  37.185  1.00  0.00    -0.237 OA
ATOM     72  O   UNL A   1      47.146  26.352  39.159  1.00  0.00    -0.744 OA
ENDBRANCH  68  69
ENDBRANCH  47  61
BRANCH  48  73
ATOM     73  C   UNL A   1      36.578  33.274  31.056  1.00  0.00     0.058 A 
ATOM     74  C   UNL A   1      36.840  34.167  30.006  1.00  0.00     0.135 A 
ATOM     75  C   UNL A   1      35.239  33.059  31.414  1.00  0.00     0.135 A 
ATOM     76  F   UNL A   1      38.105  34.408  29.631  1.00  0.00    -0.206 F 
ATOM     77  C   UNL A   1      35.814  34.830  29.341  1.00  0.00     0.059 A 
ATOM     78  C   UNL A   1      34.194  33.693  30.749  1.00  0.00     0.059 A 
ATOM     79  F   UNL A   1      34.935  32.202  32.401  1.00  0.00    -0.206 F 
ATOM     80  C   UNL A   1      34.492  34.582  29.717  1.00  0.00     0.060 A 
BRANCH  80  81
ATOM     81  S   UNL A   1      33.165  35.398  28.803  1.00  0.00     0.124 S 
ATOM     82  O   UNL A   1      33.912  36.328  27.966  1.00  0.00    -0.237 OA
ATOM     83  O   UNL A   1      32.536  34.277  28.111  1.00  0.00    -0.237 OA
ATOM     84  O   UNL A   1      32.356  36.003  29.857  1.00  0.00    -0.744 OA
ENDBRANCH  80  81
ENDBRANCH  48  73
BRANCH  60  85
ATOM     85  C   UNL A   1      39.788  34.107  37.187  1.00  0.00     0.058 A 
ATOM     86  C   UNL A   1      39.009  33.817  38.318  1.00  0.00     0.135 A 
ATOM     87  C   UNL A   1      40.414  35.361  37.126  1.00  0.00     0.135 A 
ATOM     88  F   UNL A   1      38.383  32.633  38.422  1.00  0.00    -0.206 F 
ATOM     89  C   UNL A   1      38.830  34.749  39.334  1.00  0.00     0.059 A 
ATOM     90  C   UNL A   1      40.271  36.299  38.144  1.00  0.00     0.059 A 
ATOM     91  F   UNL A   1      41.179  35.686  36.071  1.00  0.00    -0.206 F 
ATOM     92  C   UNL A   1      39.463  35.990  39.237  1.00  0.00     0.060 A 
BRANCH  92  93
ATOM     93  S   UNL A   1      39.228  37.190  40.564  1.00  0.00     0.124 S 
ATOM     94  O   UNL A   1      40.585  37.693  40.749  1.00  0.00    -0.237 OA
ATOM     95  O   UNL A   1      38.279  38.129  39.974  1.00  0.00    -0.237 OA
ATOM     96  O   UNL A   1      38.701  36.383  41.661  1.00  0.00    -0.744 OA
ENDBRANCH  92  93
ENDBRANCH  60  85
ENDBRANCH  34  35
ENDBRANCH  26  29
ENDBRANCH  24  25
ENDBRANCH   1  24
TORSDOF 15
ENDMDL
MODEL 3
REMARK VINA RESULT:     -11.3      4.641     10.375
REMARK SMILES NC(=O)[C@@H]1CCCCN1c1cncc(C(=O)NCCCNC(=O)c2ccc(-c3c4nc(c(-c5c(F)cc(S(=O)(=O)[O-])cc5F)c5ccc([nH]5)c(-c5c(F)cc(S(=O)(=O)[O-])cc5F)c5nc(c(-c6c(F)cc(S(=O)(=O)[O-])cc6F)c6ccc3[nH]6)C=C5)C=C4)cc2)n1
REMARK SMILES IDX 19 1 18 2 17 3 15 4 16 5 14 7 10 8 11 9 90 10 12 11 13 12
REMARK SMILES IDX 9 13 4 14 5 15 6 16 8 17 7 18 2 19 1 20 3 23 20 24 21 25
REMARK SMILES IDX 22 26 23 28 24 29 25 30 89 31 26 32 88 33 27 34 28 35 29 36
REMARK SMILES IDX 82 37 30 38 87 39 81 40 83 41 31 42 86 43 80 44 79 45 32 47
REMARK SMILES IDX 66 48 45 49 65 50 46 51 49 52 64 53 84 54 47 55 48 56 63 58
REMARK SMILES IDX 85 59 50 60 33 61 34 62 43 63 35 64 36 65 42 66 44 67 37 68
REMARK SMILES IDX 38 69 39 70 40 71 41 72 67 73 68 74 77 75 69 76 70 77 76 78
REMARK SMILES IDX 78 79 71 80 72 81 73 82 74 83 75 84 51 85 52 86 61 87 53 88
REMARK SMILES IDX 54 89 60 90 62 91 55 92 56 93 57 94 58 95 59 96
REMARK H PARENT 17 6 1 21 1 22 21 27 83 46 49 57
REMARK Flexibility Score: inf
ROOT
ATOM      1  C   UNL A   1      39.234  22.063  26.428  1.00  0.00     0.042 C 
ENDROOT
BRANCH   1   2
ATOM      2  C   UNL A   1      37.936  22.554  25.796  1.00  0.00     0.118 C 
BRANCH   2   3
ATOM      3  N   UNL A   1      36.910  21.527  25.780  1.00  0.00    -0.351 N 
ATOM      4  C   UNL A   1      35.594  21.567  25.383  1.00  0.00     0.271 C 
ATOM      5  O   UNL A   1      34.944  20.523  25.475  1.00  0.00    -0.267 OA
ATOM      6  H   UNL A   1      37.208  20.649  26.111  1.00  0.00     0.163 HD
BRANCH   4   7
ATOM      7  C   UNL A   1      34.924  22.791  24.850  1.00  0.00     0.148 A 
ATOM      8  C   UNL A   1      33.741  24.757  25.142  1.00  0.00     0.148 A 
ATOM      9  C   UNL A   1      33.800  24.940  23.751  1.00  0.00     0.157 A 
ATOM     10  N   UNL A   1      34.306  23.664  25.691  1.00  0.00    -0.222 NA
ATOM     11  N   UNL A   1      34.420  24.097  22.892  1.00  0.00    -0.258 NA
ATOM     12  C   UNL A   1      34.984  23.016  23.481  1.00  0.00     0.145 A 
BRANCH   8  13
ATOM     13  N   UNL A   1      33.197  25.745  25.950  1.00  0.00    -0.343 N 
ATOM     14  C   UNL A   1      31.750  25.764  26.299  1.00  0.00     0.172 C 
ATOM     15  C   UNL A   1      30.974  26.733  25.404  1.00  0.00     0.035 C 
ATOM     16  C   UNL A   1      31.622  28.116  25.403  1.00  0.00     0.004 C 
ATOM     17  C   UNL A   1      33.855  27.057  25.901  1.00  0.00     0.119 C 
ATOM     18  C   UNL A   1      33.086  28.014  24.987  1.00  0.00     0.022 C 
BRANCH  14  19
ATOM     19  C   UNL A   1      31.071  24.377  26.384  1.00  0.00     0.240 C 
ATOM     20  N   UNL A   1      30.441  23.956  25.244  1.00  0.00    -0.368 N 
ATOM     21  H   UNL A   1      29.987  23.081  25.226  1.00  0.00     0.159 HD
ATOM     22  H   UNL A   1      30.440  24.526  24.442  1.00  0.00     0.159 HD
ATOM     23  O   UNL A   1      31.155  23.619  27.347  1.00  0.00    -0.273 OA
ENDBRANCH  14  19
ENDBRANCH   8  13
ENDBRANCH   4   7
ENDBRANCH   2   3
ENDBRANCH   1   2
BRANCH   1  24
ATOM     24  C   UNL A   1      40.059  23.177  27.068  1.00  0.00     0.118 C 
BRANCH  24  25
ATOM     25  N   UNL A   1      40.882  23.887  26.095  1.00  0.00    -0.352 N 
ATOM     26  C   UNL A   1      41.294  25.193  26.052  1.00  0.00     0.251 C 
ATOM     27  H   UNL A   1      41.194  23.335  25.342  1.00  0.00     0.163 HD
ATOM     28  O   UNL A   1      41.804  25.624  25.016  1.00  0.00    -0.269 OA
BRANCH  26  29
ATOM     29  C   UNL A   1      41.134  26.087  27.217  1.00  0.00     0.039 A 
ATOM     30  C   UNL A   1      42.074  27.102  27.417  1.00  0.00     0.014 A 
ATOM     31  C   UNL A   1      40.106  25.897  28.145  1.00  0.00     0.014 A 
ATOM     32  C   UNL A   1      41.953  27.956  28.515  1.00  0.00     0.010 A 
ATOM     33  C   UNL A   1      39.945  26.795  29.198  1.00  0.00     0.010 A 
ATOM     34  C   UNL A   1      40.870  27.828  29.399  1.00  0.00    -0.014 A 
BRANCH  34  35
ATOM     35  C   UNL A   1      40.698  28.766  30.538  1.00  0.00     0.031 A 
ATOM     36  C   UNL A   1      41.564  28.647  31.763  1.00  0.00     0.074 A 
ATOM     37  C   UNL A   1      39.726  29.699  30.485  1.00  0.00     0.049 A 
ATOM     38  N   UNL A   1      41.535  29.349  32.866  1.00  0.00    -0.248 NA
ATOM     39  C   UNL A   1      42.576  27.580  31.758  1.00  0.00     0.031 C 
ATOM     40  C   UNL A   1      38.791  29.883  29.373  1.00  0.00     0.029 A 
ATOM     41  N   UNL A   1      39.360  30.664  31.389  1.00  0.00    -0.354 N 
ATOM     42  C   UNL A   1      42.515  28.806  33.689  1.00  0.00     0.074 A 
ATOM     43  C   UNL A   1      43.081  27.678  32.979  1.00  0.00     0.031 C 
ATOM     44  C   UNL A   1      37.980  30.917  29.647  1.00  0.00     0.029 A 
ATOM     45  C   UNL A   1      38.313  31.447  30.965  1.00  0.00     0.049 A 
ATOM     46  H   UNL A   1      39.806  30.784  32.259  1.00  0.00     0.167 HD
ATOM     47  C   UNL A   1      42.924  29.221  34.913  1.00  0.00     0.037 A 
ATOM     48  C   UNL A   1      37.692  32.477  31.570  1.00  0.00     0.037 A 
ATOM     49  C   UNL A   1      42.369  30.355  35.606  1.00  0.00     0.049 A 
ATOM     50  C   UNL A   1      38.164  32.923  32.925  1.00  0.00     0.074 A 
ATOM     51  C   UNL A   1      42.746  30.890  36.825  1.00  0.00     0.029 A 
ATOM     52  N   UNL A   1      41.315  31.130  35.140  1.00  0.00    -0.354 N 
ATOM     53  N   UNL A   1      39.130  32.433  33.665  1.00  0.00    -0.248 NA
ATOM     54  C   UNL A   1      37.465  34.068  33.526  1.00  0.00     0.031 C 
ATOM     55  C   UNL A   1      41.896  31.964  37.114  1.00  0.00     0.029 A 
ATOM     56  C   UNL A   1      41.017  32.126  36.056  1.00  0.00     0.049 A 
ATOM     57  H   UNL A   1      40.848  30.991  34.285  1.00  0.00     0.167 HD
ATOM     58  C   UNL A   1      39.170  33.221  34.810  1.00  0.00     0.074 A 
ATOM     59  C   UNL A   1      38.141  34.231  34.655  1.00  0.00     0.031 C 
ATOM     60  C   UNL A   1      39.984  33.120  35.890  1.00  0.00     0.037 A 
BRANCH  47  61
ATOM     61  C   UNL A   1      44.026  28.439  35.575  1.00  0.00     0.058 A 
ATOM     62  C   UNL A   1      45.380  28.727  35.334  1.00  0.00     0.135 A 
ATOM     63  C   UNL A   1      43.731  27.394  36.465  1.00  0.00     0.135 A 
ATOM     64  F   UNL A   1      45.722  29.706  34.482  1.00  0.00    -0.206 F 
ATOM     65  C   UNL A   1      46.399  27.981  35.918  1.00  0.00     0.059 A 
ATOM     66  C   UNL A   1      44.734  26.653  37.084  1.00  0.00     0.059 A 
ATOM     67  F   UNL A   1      42.454  27.076  36.735  1.00  0.00    -0.206 F 
ATOM     68  C   UNL A   1      46.066  26.942  36.787  1.00  0.00     0.060 A 
BRANCH  68  69
ATOM     69  S   UNL A   1      47.398  25.969  37.522  1.00  0.00     0.124 S 
ATOM     70  O   UNL A   1      48.566  26.778  37.188  1.00  0.00    -0.237 OA
ATOM     71  O   UNL A   1      47.027  25.946  38.934  1.00  0.00    -0.237 OA
ATOM     72  O   UNL A   1      47.303  24.687  36.832  1.00  0.00    -0.744 OA
ENDBRANCH  68  69
ENDBRANCH  47  61
BRANCH  48  73
ATOM     73  C   UNL A   1      36.580  33.179  30.876  1.00  0.00     0.058 A 
ATOM     74  C   UNL A   1      35.256  33.041  31.319  1.00  0.00     0.135 A 
ATOM     75  C   UNL A   1      36.819  34.024  29.782  1.00  0.00     0.135 A 
ATOM     76  F   UNL A   1      34.978  32.240  32.358  1.00  0.00    -0.206 F 
ATOM     77  C   UNL A   1      34.207  33.708  30.697  1.00  0.00     0.059 A 
ATOM     78  C   UNL A   1      35.789  34.720  29.157  1.00  0.00     0.059 A 
ATOM     79  F   UNL A   1      38.071  34.203  29.330  1.00  0.00    -0.206 F 
ATOM     80  C   UNL A   1      34.484  34.550  29.618  1.00  0.00     0.060 A 
BRANCH  80  81
ATOM     81  S   UNL A   1      33.122  35.462  28.860  1.00  0.00     0.124 S 
ATOM     82  O   UNL A   1      32.402  35.945  30.032  1.00  0.00    -0.237 OA
ATOM     83  O   UNL A   1      33.827  36.474  28.080  1.00  0.00    -0.237 OA
ATOM     84  O   UNL A   1      32.436  34.443  28.071  1.00  0.00    -0.744 OA
ENDBRANCH  80  81
ENDBRANCH  48  73
BRANCH  60  85
ATOM     85  C   UNL A   1      39.804  34.140  36.980  1.00  0.00     0.058 A 
ATOM     86  C   UNL A   1      39.022  33.874  38.115  1.00  0.00     0.135 A 
ATOM     87  C   UNL A   1      40.435  35.391  36.896  1.00  0.00     0.135 A 
ATOM     88  F   UNL A   1      38.392  32.695  38.242  1.00  0.00    -0.206 F 
ATOM     89  C   UNL A   1      38.845  34.827  39.113  1.00  0.00     0.059 A 
ATOM     90  C   UNL A   1      40.293  36.349  37.895  1.00  0.00     0.059 A 
ATOM     91  F   UNL A   1      41.202  35.692  35.836  1.00  0.00    -0.206 F 
ATOM     92  C   UNL A   1      39.482  36.063  38.992  1.00  0.00     0.060 A 
BRANCH  92  93
ATOM     93  S   UNL A   1      39.249  37.290  40.296  1.00  0.00     0.124 S 
ATOM     94  O   UNL A   1      38.435  38.292  39.615  1.00  0.00    -0.237 OA
ATOM     95  O   UNL A   1      38.569  36.520  41.334  1.00  0.00    -0.237 OA
ATOM     96  O   UNL A   1      40.612  37.701  40.622  1.00  0.00    -0.744 OA
ENDBRANCH  92  93
ENDBRANCH  60  85
ENDBRANCH  34  35
ENDBRANCH  26  29
ENDBRANCH  24  25
ENDBRANCH   1  24
TORSDOF 15
ENDMDL
