MODEL 1
REMARK VINA RESULT:     -13.3      0.000      0.000
REMARK SMILES O=C(NCCCNC(=O)c1cc(S(=O)(=O)NNC(=O)[C@H]2C=C(c3ccccc3)N=N2)ccc1F)c1ccc(-c2c3nc(c(-c4c(F)cc(S(=O)(=O)[O-])cc4F)c4ccc([nH]4)c(-c4c(F)cc(S(=O)(=O)[O-])cc4F)c4nc(c(-c5c(F)cc(S(=O)(=O)[O-])cc5F)c5ccc2[nH]5)C=C4)C=C3)cc1
REMARK SMILES IDX 6 1 5 2 4 3 3 4 1 5 2 6 35 8 36 9 100 10 37 11 99 12 38 13
REMARK SMILES IDX 39 14 40 15 93 16 41 17 98 18 92 19 94 20 42 21 97 22 91 23
REMARK SMILES IDX 90 24 43 26 77 27 56 28 76 29 57 30 60 31 75 32 95 33 58 34
REMARK SMILES IDX 59 35 74 37 96 38 61 39 44 40 45 41 54 42 46 43 47 44 53 45
REMARK SMILES IDX 55 46 48 47 49 48 50 49 51 50 52 51 78 52 79 53 88 54 80 55
REMARK SMILES IDX 81 56 87 57 89 58 82 59 83 60 84 61 85 62 86 63 62 64 63 65
REMARK SMILES IDX 72 66 64 67 65 68 71 69 73 70 66 71 67 72 68 73 69 74 70 75
REMARK SMILES IDX 7 76 8 77 9 79 10 80 11 81 33 82 12 83 32 84 34 85 31 86
REMARK SMILES IDX 13 87 14 88 15 89 16 90 17 92 18 93 19 95 20 96 21 97 30 98
REMARK SMILES IDX 22 99 29 100 23 101 24 102 28 103 25 104 27 105 26 106
REMARK H PARENT 3 7 94 25 60 36 7 78 16 91 17 94
REMARK Flexibility Score: inf
ROOT
ATOM      1  C   UNL A   1      36.714  21.930  25.885  1.00  0.00     0.118 C 
ENDROOT
BRANCH   1   2
ATOM      2  C   UNL A   1      38.143  22.087  25.369  1.00  0.00     0.042 C 
BRANCH   2   3
ATOM      3  C   UNL A   1      39.222  21.697  26.364  1.00  0.00     0.118 C 
BRANCH   3   4
ATOM      4  N   UNL A   1      40.509  22.272  26.063  1.00  0.00    -0.352 N 
ATOM      5  O   UNL A   1      42.468  23.217  26.291  1.00  0.00    -0.269 OA
ATOM      6  C   UNL A   1      41.285  23.222  26.650  1.00  0.00     0.251 C 
ATOM      7  H   UNL A   1      40.917  21.891  25.252  1.00  0.00     0.163 HD
BRANCH   6   8
ATOM      8  C   UNL A   1      40.797  24.333  27.509  1.00  0.00     0.039 A 
ATOM      9  C   UNL A   1      39.512  24.827  27.732  1.00  0.00     0.014 A 
ATOM     10  C   UNL A   1      41.839  24.983  28.168  1.00  0.00     0.014 A 
ATOM     11  C   UNL A   1      39.371  26.130  28.304  1.00  0.00     0.010 A 
ATOM     12  C   UNL A   1      41.589  26.063  28.989  1.00  0.00     0.010 A 
ATOM     13  C   UNL A   1      40.504  26.873  28.742  1.00  0.00    -0.014 A 
BRANCH  13  14
ATOM     14  C   UNL A   1      40.500  28.164  29.543  1.00  0.00     0.031 A 
ATOM     15  C   UNL A   1      41.570  29.046  28.839  1.00  0.00     0.074 A 
ATOM     16  C   UNL A   1      39.643  28.528  30.611  1.00  0.00     0.049 A 
ATOM     17  N   UNL A   1      42.776  29.234  29.275  1.00  0.00    -0.248 NA
ATOM     18  C   UNL A   1      41.509  29.447  27.393  1.00  0.00     0.031 C 
ATOM     19  C   UNL A   1      38.503  27.837  31.318  1.00  0.00     0.029 A 
ATOM     20  N   UNL A   1      39.633  29.696  31.414  1.00  0.00    -0.354 N 
ATOM     21  C   UNL A   1      43.400  30.128  28.397  1.00  0.00     0.074 A 
ATOM     22  C   UNL A   1      42.691  30.037  27.168  1.00  0.00     0.031 C 
ATOM     23  C   UNL A   1      37.771  28.693  32.111  1.00  0.00     0.029 A 
ATOM     24  C   UNL A   1      38.413  29.997  32.161  1.00  0.00     0.049 A 
ATOM     25  H   UNL A   1      40.421  30.284  31.467  1.00  0.00     0.167 HD
ATOM     26  C   UNL A   1      44.255  31.067  28.888  1.00  0.00     0.037 A 
ATOM     27  C   UNL A   1      38.121  31.091  32.994  1.00  0.00     0.037 A 
ATOM     28  C   UNL A   1      44.608  30.692  30.235  1.00  0.00     0.049 A 
ATOM     29  C   UNL A   1      39.440  31.741  33.234  1.00  0.00     0.074 A 
ATOM     30  C   UNL A   1      45.300  29.630  30.779  1.00  0.00     0.029 A 
ATOM     31  N   UNL A   1      43.677  31.083  31.162  1.00  0.00    -0.354 N 
ATOM     32  N   UNL A   1      40.375  31.136  33.919  1.00  0.00    -0.248 NA
ATOM     33  C   UNL A   1      39.860  32.631  32.153  1.00  0.00     0.031 C 
ATOM     34  C   UNL A   1      44.508  29.184  31.879  1.00  0.00     0.029 A 
ATOM     35  C   UNL A   1      43.493  30.110  32.108  1.00  0.00     0.049 A 
ATOM     36  H   UNL A   1      43.205  31.946  31.148  1.00  0.00     0.167 HD
ATOM     37  C   UNL A   1      41.460  31.151  33.062  1.00  0.00     0.074 A 
ATOM     38  C   UNL A   1      41.056  32.062  31.962  1.00  0.00     0.031 C 
ATOM     39  C   UNL A   1      42.416  30.169  33.071  1.00  0.00     0.037 A 
BRANCH  26  40
ATOM     40  C   UNL A   1      44.409  32.483  28.374  1.00  0.00     0.058 A 
ATOM     41  C   UNL A   1      43.467  33.519  28.575  1.00  0.00     0.135 A 
ATOM     42  C   UNL A   1      45.655  32.896  27.863  1.00  0.00     0.135 A 
ATOM     43  F   UNL A   1      42.289  33.286  29.173  1.00  0.00    -0.206 F 
ATOM     44  C   UNL A   1      43.719  34.853  28.232  1.00  0.00     0.059 A 
ATOM     45  C   UNL A   1      45.941  34.226  27.541  1.00  0.00     0.059 A 
ATOM     46  F   UNL A   1      46.644  32.005  27.688  1.00  0.00    -0.206 F 
ATOM     47  C   UNL A   1      44.961  35.196  27.709  1.00  0.00     0.060 A 
BRANCH  47  48
ATOM     48  S   UNL A   1      45.273  36.913  27.237  1.00  0.00     0.124 S 
ATOM     49  O   UNL A   1      43.934  37.368  26.877  1.00  0.00    -0.237 OA
ATOM     50  O   UNL A   1      45.829  37.476  28.462  1.00  0.00    -0.237 OA
ATOM     51  O   UNL A   1      46.208  36.793  26.121  1.00  0.00    -0.744 OA
ENDBRANCH  47  48
ENDBRANCH  26  40
BRANCH  27  52
ATOM     52  C   UNL A   1      36.855  31.986  33.097  1.00  0.00     0.058 A 
ATOM     53  C   UNL A   1      36.036  32.032  31.965  1.00  0.00     0.135 A 
ATOM     54  C   UNL A   1      36.563  33.019  34.058  1.00  0.00     0.135 A 
ATOM     55  F   UNL A   1      36.212  31.140  30.984  1.00  0.00    -0.206 F 
ATOM     56  C   UNL A   1      35.079  33.028  31.734  1.00  0.00     0.059 A 
ATOM     57  C   UNL A   1      35.569  34.031  33.855  1.00  0.00     0.059 A 
ATOM     58  F   UNL A   1      37.256  33.103  35.208  1.00  0.00    -0.206 F 
ATOM     59  C   UNL A   1      34.859  34.042  32.658  1.00  0.00     0.060 A 
BRANCH  59  60
ATOM     60  S   UNL A   1      33.698  35.357  32.163  1.00  0.00     0.124 S 
ATOM     61  O   UNL A   1      34.175  36.490  32.952  1.00  0.00    -0.237 OA
ATOM     62  O   UNL A   1      33.943  35.454  30.726  1.00  0.00    -0.237 OA
ATOM     63  O   UNL A   1      32.387  34.839  32.538  1.00  0.00    -0.744 OA
ENDBRANCH  59  60
ENDBRANCH  27  52
BRANCH  39  64
ATOM     64  C   UNL A   1      42.419  29.086  34.142  1.00  0.00     0.058 A 
ATOM     65  C   UNL A   1      41.876  27.855  33.759  1.00  0.00     0.135 A 
ATOM     66  C   UNL A   1      42.694  29.239  35.521  1.00  0.00     0.135 A 
ATOM     67  F   UNL A   1      41.492  27.667  32.487  1.00  0.00    -0.206 F 
ATOM     68  C   UNL A   1      41.631  26.828  34.664  1.00  0.00     0.059 A 
ATOM     69  C   UNL A   1      42.494  28.199  36.451  1.00  0.00     0.059 A 
ATOM     70  F   UNL A   1      43.084  30.418  36.020  1.00  0.00    -0.206 F 
ATOM     71  C   UNL A   1      41.961  26.993  36.005  1.00  0.00     0.060 A 
BRANCH  71  72
ATOM     72  S   UNL A   1      41.671  25.597  37.116  1.00  0.00     0.124 S 
ATOM     73  O   UNL A   1      40.391  25.950  37.725  1.00  0.00    -0.237 OA
ATOM     74  O   UNL A   1      41.638  24.470  36.189  1.00  0.00    -0.237 OA
ATOM     75  O   UNL A   1      42.815  25.625  38.022  1.00  0.00    -0.744 OA
ENDBRANCH  71  72
ENDBRANCH  39  64
ENDBRANCH  13  14
ENDBRANCH   6   8
ENDBRANCH   3   4
ENDBRANCH   2   3
ENDBRANCH   1   2
BRANCH   1  76
ATOM     76  N   UNL A   1      36.035  20.738  25.381  1.00  0.00    -0.352 N 
ATOM     77  C   UNL A   1      34.757  20.587  24.906  1.00  0.00     0.254 C 
ATOM     78  H   UNL A   1      36.579  19.918  25.383  1.00  0.00     0.163 HD
ATOM     79  O   UNL A   1      34.334  19.470  24.619  1.00  0.00    -0.269 OA
BRANCH  77  80
ATOM     80  C   UNL A   1      33.853  21.743  24.790  1.00  0.00     0.076 A 
ATOM     81  C   UNL A   1      33.874  22.483  23.606  1.00  0.00     0.038 A 
ATOM     82  C   UNL A   1      33.017  22.138  25.836  1.00  0.00     0.136 A 
ATOM     83  C   UNL A   1      32.984  23.549  23.460  1.00  0.00     0.085 A 
ATOM     84  C   UNL A   1      32.089  23.158  25.661  1.00  0.00     0.041 A 
ATOM     85  F   UNL A   1      33.077  21.539  27.033  1.00  0.00    -0.206 F 
ATOM     86  C   UNL A   1      32.052  23.853  24.458  1.00  0.00     0.025 A 
BRANCH  83  87
ATOM     87  S   UNL A   1      33.182  24.585  22.051  1.00  0.00     0.257 S 
ATOM     88  O   UNL A   1      34.169  25.584  22.347  1.00  0.00    -0.205 OA
ATOM     89  O   UNL A   1      33.277  23.727  20.875  1.00  0.00    -0.205 OA
BRANCH  87  90
ATOM     90  N   UNL A   1      31.689  25.386  21.922  1.00  0.00    -0.123 NA
ATOM     91  H   UNL A   1      31.170  25.195  22.779  1.00  0.00     0.167 HD
BRANCH  90  92
ATOM     92  N   UNL A   1      31.688  26.814  21.733  1.00  0.00    -0.275 N 
ATOM     93  C   UNL A   1      31.754  27.788  22.694  1.00  0.00     0.265 C 
ATOM     94  H   UNL A   1      31.637  27.127  20.802  1.00  0.00     0.186 HD
ATOM     95  O   UNL A   1      31.881  28.953  22.294  1.00  0.00    -0.271 OA
BRANCH  93  96
ATOM     96  C   UNL A   1      31.627  27.489  24.206  1.00  0.00     0.244 C 
ATOM     97  C   UNL A   1      32.807  27.667  25.086  1.00  0.00     0.042 C 
ATOM     98  N   UNL A   1      30.679  28.505  24.746  1.00  0.00    -0.171 NA
ATOM     99  C   UNL A   1      32.540  28.761  25.801  1.00  0.00     0.091 C 
ATOM    100  N   UNL A   1      31.264  29.219  25.609  1.00  0.00    -0.155 NA
BRANCH  99 101
ATOM    101  C   UNL A   1      33.536  29.512  26.561  1.00  0.00     0.002 A 
ATOM    102  C   UNL A   1      33.282  30.812  27.000  1.00  0.00     0.010 A 
ATOM    103  C   UNL A   1      34.776  28.923  26.862  1.00  0.00     0.010 A 
ATOM    104  C   UNL A   1      34.243  31.496  27.751  1.00  0.00     0.001 A 
ATOM    105  C   UNL A   1      35.715  29.588  27.646  1.00  0.00     0.001 A 
ATOM    106  C   UNL A   1      35.447  30.878  28.089  1.00  0.00     0.000 A 
ENDBRANCH  99 101
ENDBRANCH  93  96
ENDBRANCH  90  92
ENDBRANCH  87  90
ENDBRANCH  83  87
ENDBRANCH  77  80
ENDBRANCH   1  76
TORSDOF 18
ENDMDL
MODEL 2
REMARK VINA RESULT:     -13.2      2.927      5.409
REMARK SMILES O=C(NCCCNC(=O)c1cc(S(=O)(=O)NNC(=O)[C@H]2C=C(c3ccccc3)N=N2)ccc1F)c1ccc(-c2c3nc(c(-c4c(F)cc(S(=O)(=O)[O-])cc4F)c4ccc([nH]4)c(-c4c(F)cc(S(=O)(=O)[O-])cc4F)c4nc(c(-c5c(F)cc(S(=O)(=O)[O-])cc5F)c5ccc2[nH]5)C=C4)C=C3)cc1
REMARK SMILES IDX 6 1 5 2 4 3 3 4 1 5 2 6 35 8 36 9 100 10 37 11 99 12 38 13
REMARK SMILES IDX 39 14 40 15 93 16 41 17 98 18 92 19 94 20 42 21 97 22 91 23
REMARK SMILES IDX 90 24 43 26 77 27 56 28 76 29 57 30 60 31 75 32 95 33 58 34
REMARK SMILES IDX 59 35 74 37 96 38 61 39 44 40 45 41 54 42 46 43 47 44 53 45
REMARK SMILES IDX 55 46 48 47 49 48 50 49 51 50 52 51 78 52 79 53 88 54 80 55
REMARK SMILES IDX 81 56 87 57 89 58 82 59 83 60 84 61 85 62 86 63 62 64 63 65
REMARK SMILES IDX 72 66 64 67 65 68 71 69 73 70 66 71 67 72 68 73 69 74 70 75
REMARK SMILES IDX 7 76 8 77 9 79 10 80 11 81 33 82 12 83 32 84 34 85 31 86
REMARK SMILES IDX 13 87 14 88 15 89 16 90 17 92 18 93 19 95 20 96 21 97 30 98
REMARK SMILES IDX 22 99 29 100 23 101 24 102 28 103 25 104 27 105 26 106
REMARK H PARENT 3 7 94 25 60 36 7 78 16 91 17 94
REMARK Flexibility Score: inf
ROOT
ATOM      1  C   UNL A   1      42.837  20.882  25.462  1.00  0.00     0.118 C 
ENDROOT
BRANCH   1   2
ATOM      2  C   UNL A   1      43.911  21.962  25.578  1.00  0.00     0.042 C 
BRANCH   2   3
ATOM      3  C   UNL A   1      43.759  23.115  24.600  1.00  0.00     0.118 C 
BRANCH   3   4
ATOM      4  N   UNL A   1      44.851  24.054  24.652  1.00  0.00    -0.352 N 
ATOM      5  O   UNL A   1      46.278  25.544  25.377  1.00  0.00    -0.269 OA
ATOM      6  C   UNL A   1      45.095  25.188  25.362  1.00  0.00     0.251 C 
ATOM      7  H   UNL A   1      45.584  23.822  24.037  1.00  0.00     0.163 HD
BRANCH   6   8
ATOM      8  C   UNL A   1      44.063  26.092  25.936  1.00  0.00     0.039 A 
ATOM      9  C   UNL A   1      42.882  26.600  25.397  1.00  0.00     0.014 A 
ATOM     10  C   UNL A   1      44.384  26.499  27.230  1.00  0.00     0.014 A 
ATOM     11  C   UNL A   1      42.278  27.736  26.021  1.00  0.00     0.010 A 
ATOM     12  C   UNL A   1      43.564  27.367  27.920  1.00  0.00     0.010 A 
ATOM     13  C   UNL A   1      42.799  28.280  27.230  1.00  0.00    -0.014 A 
BRANCH  13  14
ATOM     14  C   UNL A   1      42.158  29.340  28.108  1.00  0.00     0.031 A 
ATOM     15  C   UNL A   1      43.154  30.533  28.043  1.00  0.00     0.074 A 
ATOM     16  C   UNL A   1      40.893  29.301  28.747  1.00  0.00     0.049 A 
ATOM     17  N   UNL A   1      44.007  30.835  28.970  1.00  0.00    -0.248 NA
ATOM     18  C   UNL A   1      43.554  31.225  26.771  1.00  0.00     0.031 C 
ATOM     19  C   UNL A   1      39.786  28.277  28.810  1.00  0.00     0.029 A 
ATOM     20  N   UNL A   1      40.278  30.243  29.610  1.00  0.00    -0.354 N 
ATOM     21  C   UNL A   1      44.671  31.997  28.560  1.00  0.00     0.074 A 
ATOM     22  C   UNL A   1      44.539  32.053  27.146  1.00  0.00     0.031 C 
ATOM     23  C   UNL A   1      38.613  28.793  29.317  1.00  0.00     0.029 A 
ATOM     24  C   UNL A   1      38.832  30.147  29.798  1.00  0.00     0.049 A 
ATOM     25  H   UNL A   1      40.807  30.937  30.065  1.00  0.00     0.167 HD
ATOM     26  C   UNL A   1      45.002  32.944  29.482  1.00  0.00     0.037 A 
ATOM     27  C   UNL A   1      37.973  30.961  30.559  1.00  0.00     0.037 A 
ATOM     28  C   UNL A   1      44.892  32.352  30.792  1.00  0.00     0.049 A 
ATOM     29  C   UNL A   1      38.886  31.769  31.416  1.00  0.00     0.074 A 
ATOM     30  C   UNL A   1      45.567  31.339  31.440  1.00  0.00     0.029 A 
ATOM     31  N   UNL A   1      43.610  32.355  31.276  1.00  0.00    -0.354 N 
ATOM     32  N   UNL A   1      39.605  31.206  32.351  1.00  0.00    -0.248 NA
ATOM     33  C   UNL A   1      39.447  32.935  30.737  1.00  0.00     0.031 C 
ATOM     34  C   UNL A   1      44.554  30.527  32.034  1.00  0.00     0.029 A 
ATOM     35  C   UNL A   1      43.330  31.182  31.924  1.00  0.00     0.049 A 
ATOM     36  H   UNL A   1      42.976  33.101  31.172  1.00  0.00     0.167 HD
ATOM     37  C   UNL A   1      40.894  31.605  32.046  1.00  0.00     0.074 A 
ATOM     38  C   UNL A   1      40.727  32.646  31.003  1.00  0.00     0.031 C 
ATOM     39  C   UNL A   1      41.988  30.833  32.337  1.00  0.00     0.037 A 
BRANCH  26  40
ATOM     40  C   UNL A   1      44.975  34.442  29.264  1.00  0.00     0.058 A 
ATOM     41  C   UNL A   1      46.124  35.259  29.140  1.00  0.00     0.135 A 
ATOM     42  C   UNL A   1      43.756  35.064  28.925  1.00  0.00     0.135 A 
ATOM     43  F   UNL A   1      47.357  34.759  29.308  1.00  0.00    -0.206 F 
ATOM     44  C   UNL A   1      46.061  36.608  28.772  1.00  0.00     0.059 A 
ATOM     45  C   UNL A   1      43.672  36.401  28.526  1.00  0.00     0.059 A 
ATOM     46  F   UNL A   1      42.611  34.366  28.950  1.00  0.00    -0.206 F 
ATOM     47  C   UNL A   1      44.826  37.173  28.471  1.00  0.00     0.060 A 
BRANCH  47  48
ATOM     48  S   UNL A   1      44.744  38.924  28.027  1.00  0.00     0.124 S 
ATOM     49  O   UNL A   1      43.307  39.171  28.069  1.00  0.00    -0.237 OA
ATOM     50  O   UNL A   1      45.529  39.549  29.085  1.00  0.00    -0.237 OA
ATOM     51  O   UNL A   1      45.341  38.964  26.695  1.00  0.00    -0.744 OA
ENDBRANCH  47  48
ENDBRANCH  26  40
BRANCH  27  52
ATOM     52  C   UNL A   1      36.583  31.568  30.225  1.00  0.00     0.058 A 
ATOM     53  C   UNL A   1      36.400  32.013  28.912  1.00  0.00     0.135 A 
ATOM     54  C   UNL A   1      35.566  32.033  31.133  1.00  0.00     0.135 A 
ATOM     55  F   UNL A   1      37.283  31.669  27.968  1.00  0.00    -0.206 F 
ATOM     56  C   UNL A   1      35.384  32.892  28.520  1.00  0.00     0.059 A 
ATOM     57  C   UNL A   1      34.501  32.910  30.748  1.00  0.00     0.059 A 
ATOM     58  F   UNL A   1      35.593  31.683  32.432  1.00  0.00    -0.206 F 
ATOM     59  C   UNL A   1      34.450  33.365  29.434  1.00  0.00     0.060 A 
BRANCH  59  60
ATOM     60  S   UNL A   1      33.278  34.621  28.825  1.00  0.00     0.124 S 
ATOM     61  O   UNL A   1      34.180  35.640  28.296  1.00  0.00    -0.237 OA
ATOM     62  O   UNL A   1      32.527  33.873  27.820  1.00  0.00    -0.237 OA
ATOM     63  O   UNL A   1      32.519  35.009  30.008  1.00  0.00    -0.744 OA
ENDBRANCH  59  60
ENDBRANCH  27  52
BRANCH  39  64
ATOM     64  C   UNL A   1      41.855  29.560  33.162  1.00  0.00     0.058 A 
ATOM     65  C   UNL A   1      41.864  29.734  34.550  1.00  0.00     0.135 A 
ATOM     66  C   UNL A   1      41.946  28.224  32.706  1.00  0.00     0.135 A 
ATOM     67  F   UNL A   1      41.885  30.975  35.062  1.00  0.00    -0.206 F 
ATOM     68  C   UNL A   1      41.942  28.669  35.441  1.00  0.00     0.059 A 
ATOM     69  C   UNL A   1      41.982  27.125  33.588  1.00  0.00     0.059 A 
ATOM     70  F   UNL A   1      42.083  27.948  31.403  1.00  0.00    -0.206 F 
ATOM     71  C   UNL A   1      41.978  27.365  34.959  1.00  0.00     0.060 A 
BRANCH  71  72
ATOM     72  S   UNL A   1      42.019  26.025  36.172  1.00  0.00     0.124 S 
ATOM     73  O   UNL A   1      42.365  26.733  37.401  1.00  0.00    -0.237 OA
ATOM     74  O   UNL A   1      40.655  25.510  36.104  1.00  0.00    -0.237 OA
ATOM     75  O   UNL A   1      43.051  25.124  35.666  1.00  0.00    -0.744 OA
ENDBRANCH  71  72
ENDBRANCH  39  64
ENDBRANCH  13  14
ENDBRANCH   6   8
ENDBRANCH   3   4
ENDBRANCH   2   3
ENDBRANCH   1   2
BRANCH   1  76
ATOM     76  N   UNL A   1      42.336  20.412  26.751  1.00  0.00    -0.352 N 
ATOM     77  C   UNL A   1      41.365  20.940  27.564  1.00  0.00     0.254 C 
ATOM     78  H   UNL A   1      42.761  19.591  27.088  1.00  0.00     0.163 HD
ATOM     79  O   UNL A   1      41.154  20.450  28.671  1.00  0.00    -0.269 OA
BRANCH  77  80
ATOM     80  C   UNL A   1      40.605  22.134  27.157  1.00  0.00     0.076 A 
ATOM     81  C   UNL A   1      39.353  21.951  26.568  1.00  0.00     0.038 A 
ATOM     82  C   UNL A   1      41.117  23.424  27.302  1.00  0.00     0.136 A 
ATOM     83  C   UNL A   1      38.597  23.073  26.226  1.00  0.00     0.085 A 
ATOM     84  C   UNL A   1      40.335  24.538  27.021  1.00  0.00     0.041 A 
ATOM     85  F   UNL A   1      42.371  23.626  27.729  1.00  0.00    -0.206 F 
ATOM     86  C   UNL A   1      39.057  24.365  26.503  1.00  0.00     0.025 A 
BRANCH  83  87
ATOM     87  S   UNL A   1      37.124  22.809  25.298  1.00  0.00     0.257 S 
ATOM     88  O   UNL A   1      36.533  24.082  24.999  1.00  0.00    -0.205 OA
ATOM     89  O   UNL A   1      37.421  21.829  24.258  1.00  0.00    -0.205 OA
BRANCH  87  90
ATOM     90  N   UNL A   1      36.088  22.026  26.393  1.00  0.00    -0.123 NA
ATOM     91  H   UNL A   1      36.652  21.753  27.198  1.00  0.00     0.167 HD
BRANCH  90  92
ATOM     92  N   UNL A   1      34.948  22.747  26.897  1.00  0.00    -0.275 N 
ATOM     93  C   UNL A   1      33.675  22.764  26.392  1.00  0.00     0.265 C 
ATOM     94  H   UNL A   1      35.101  23.292  27.702  1.00  0.00     0.186 HD
ATOM     95  O   UNL A   1      32.817  23.346  27.069  1.00  0.00    -0.271 OA
BRANCH  93  96
ATOM     96  C   UNL A   1      33.305  22.144  25.023  1.00  0.00     0.244 C 
ATOM     97  C   UNL A   1      33.923  20.861  24.614  1.00  0.00     0.042 C 
ATOM     98  N   UNL A   1      31.862  21.780  25.116  1.00  0.00    -0.171 NA
ATOM     99  C   UNL A   1      32.944  19.961  24.711  1.00  0.00     0.091 C 
ATOM    100  N   UNL A   1      31.728  20.531  24.975  1.00  0.00    -0.155 NA
BRANCH  99 101
ATOM    101  C   UNL A   1      33.152  18.515  24.726  1.00  0.00     0.002 A 
ATOM    102  C   UNL A   1      32.682  17.728  25.778  1.00  0.00     0.010 A 
ATOM    103  C   UNL A   1      33.836  17.896  23.666  1.00  0.00     0.010 A 
ATOM    104  C   UNL A   1      32.870  16.342  25.752  1.00  0.00     0.001 A 
ATOM    105  C   UNL A   1      33.985  16.512  23.619  1.00  0.00     0.001 A 
ATOM    106  C   UNL A   1      33.502  15.735  24.666  1.00  0.00     0.000 A 
ENDBRANCH  99 101
ENDBRANCH  93  96
ENDBRANCH  90  92
ENDBRANCH  87  90
ENDBRANCH  83  87
ENDBRANCH  77  80
ENDBRANCH   1  76
TORSDOF 18
ENDMDL
MODEL 3
REMARK VINA RESULT:     -13.2      3.231     10.122
REMARK SMILES O=C(NCCCNC(=O)c1cc(S(=O)(=O)NNC(=O)[C@H]2C=C(c3ccccc3)N=N2)ccc1F)c1ccc(-c2c3nc(c(-c4c(F)cc(S(=O)(=O)[O-])cc4F)c4ccc([nH]4)c(-c4c(F)cc(S(=O)(=O)[O-])cc4F)c4nc(c(-c5c(F)cc(S(=O)(=O)[O-])cc5F)c5ccc2[nH]5)C=C4)C=C3)cc1
REMARK SMILES IDX 6 1 5 2 4 3 3 4 1 5 2 6 35 8 36 9 100 10 37 11 99 12 38 13
REMARK SMILES IDX 39 14 40 15 93 16 41 17 98 18 92 19 94 20 42 21 97 22 91 23
REMARK SMILES IDX 90 24 43 26 77 27 56 28 76 29 57 30 60 31 75 32 95 33 58 34
REMARK SMILES IDX 59 35 74 37 96 38 61 39 44 40 45 41 54 42 46 43 47 44 53 45
REMARK SMILES IDX 55 46 48 47 49 48 50 49 51 50 52 51 78 52 79 53 88 54 80 55
REMARK SMILES IDX 81 56 87 57 89 58 82 59 83 60 84 61 85 62 86 63 62 64 63 65
REMARK SMILES IDX 72 66 64 67 65 68 71 69 73 70 66 71 67 72 68 73 69 74 70 75
REMARK SMILES IDX 7 76 8 77 9 79 10 80 11 81 33 82 12 83 32 84 34 85 31 86
REMARK SMILES IDX 13 87 14 88 15 89 16 90 17 92 18 93 19 95 20 96 21 97 30 98
REMARK SMILES IDX 22 99 29 100 23 101 24 102 28 103 25 104 27 105 26 106
REMARK H PARENT 3 7 94 25 60 36 7 78 16 91 17 94
REMARK Flexibility Score: inf
ROOT
ATOM      1  C   UNL A   1      32.617  29.886  25.950  1.00  0.00     0.118 C 
ENDROOT
BRANCH   1   2
ATOM      2  C   UNL A   1      32.731  30.751  27.203  1.00  0.00     0.042 C 
BRANCH   2   3
ATOM      3  C   UNL A   1      33.992  31.594  27.278  1.00  0.00     0.118 C 
BRANCH   3   4
ATOM      4  N   UNL A   1      34.452  31.812  28.627  1.00  0.00    -0.352 N 
ATOM      5  O   UNL A   1      35.721  32.325  30.333  1.00  0.00    -0.269 OA
ATOM      6  C   UNL A   1      35.666  31.758  29.236  1.00  0.00     0.251 C 
ATOM      7  H   UNL A   1      33.725  32.055  29.244  1.00  0.00     0.163 HD
BRANCH   6   8
ATOM      8  C   UNL A   1      36.828  30.944  28.788  1.00  0.00     0.039 A 
ATOM      9  C   UNL A   1      36.913  29.878  27.893  1.00  0.00     0.014 A 
ATOM     10  C   UNL A   1      38.012  31.329  29.414  1.00  0.00     0.014 A 
ATOM     11  C   UNL A   1      38.072  29.042  27.933  1.00  0.00     0.010 A 
ATOM     12  C   UNL A   1      39.194  30.670  29.153  1.00  0.00     0.010 A 
ATOM     13  C   UNL A   1      39.172  29.343  28.787  1.00  0.00    -0.014 A 
BRANCH  13  14
ATOM     14  C   UNL A   1      40.537  28.676  28.793  1.00  0.00     0.031 A 
ATOM     15  C   UNL A   1      40.822  28.421  30.301  1.00  0.00     0.074 A 
ATOM     16  C   UNL A   1      41.319  28.273  27.682  1.00  0.00     0.049 A 
ATOM     17  N   UNL A   1      41.604  29.145  31.038  1.00  0.00    -0.248 NA
ATOM     18  C   UNL A   1      39.944  27.592  31.194  1.00  0.00     0.031 C 
ATOM     19  C   UNL A   1      41.128  28.350  26.187  1.00  0.00     0.029 A 
ATOM     20  N   UNL A   1      42.612  27.693  27.641  1.00  0.00    -0.354 N 
ATOM     21  C   UNL A   1      41.638  28.558  32.308  1.00  0.00     0.074 A 
ATOM     22  C   UNL A   1      40.453  27.781  32.419  1.00  0.00     0.031 C 
ATOM     23  C   UNL A   1      42.027  27.567  25.495  1.00  0.00     0.029 A 
ATOM     24  C   UNL A   1      43.011  27.013  26.411  1.00  0.00     0.049 A 
ATOM     25  H   UNL A   1      43.219  27.747  28.413  1.00  0.00     0.167 HD
ATOM     26  C   UNL A   1      42.804  28.547  33.013  1.00  0.00     0.037 A 
ATOM     27  C   UNL A   1      44.204  26.329  26.112  1.00  0.00     0.037 A 
ATOM     28  C   UNL A   1      43.704  29.494  32.405  1.00  0.00     0.049 A 
ATOM     29  C   UNL A   1      45.139  26.716  27.206  1.00  0.00     0.074 A 
ATOM     30  C   UNL A   1      43.688  30.866  32.256  1.00  0.00     0.029 A 
ATOM     31  N   UNL A   1      44.375  28.980  31.325  1.00  0.00    -0.354 N 
ATOM     32  N   UNL A   1      45.567  27.946  27.322  1.00  0.00    -0.248 NA
ATOM     33  C   UNL A   1      44.960  25.941  28.432  1.00  0.00     0.031 C 
ATOM     34  C   UNL A   1      44.038  31.104  30.893  1.00  0.00     0.029 A 
ATOM     35  C   UNL A   1      44.470  29.909  30.323  1.00  0.00     0.049 A 
ATOM     36  H   UNL A   1      44.739  28.067  31.277  1.00  0.00     0.167 HD
ATOM     37  C   UNL A   1      45.232  28.279  28.622  1.00  0.00     0.074 A 
ATOM     38  C   UNL A   1      44.818  26.996  29.242  1.00  0.00     0.031 C 
ATOM     39  C   UNL A   1      44.931  29.563  28.996  1.00  0.00     0.037 A 
BRANCH  26  40
ATOM     40  C   UNL A   1      43.289  27.427  33.908  1.00  0.00     0.058 A 
ATOM     41  C   UNL A   1      43.815  26.197  33.447  1.00  0.00     0.135 A 
ATOM     42  C   UNL A   1      43.462  27.675  35.285  1.00  0.00     0.135 A 
ATOM     43  F   UNL A   1      43.832  25.891  32.141  1.00  0.00    -0.206 F 
ATOM     44  C   UNL A   1      44.407  25.256  34.298  1.00  0.00     0.059 A 
ATOM     45  C   UNL A   1      44.077  26.764  36.149  1.00  0.00     0.059 A 
ATOM     46  F   UNL A   1      43.054  28.836  35.819  1.00  0.00    -0.206 F 
ATOM     47  C   UNL A   1      44.529  25.548  35.652  1.00  0.00     0.060 A 
BRANCH  47  48
ATOM     48  S   UNL A   1      45.265  24.318  36.755  1.00  0.00     0.124 S 
ATOM     49  O   UNL A   1      46.682  24.655  36.668  1.00  0.00    -0.237 OA
ATOM     50  O   UNL A   1      44.617  24.615  38.027  1.00  0.00    -0.237 OA
ATOM     51  O   UNL A   1      44.890  23.046  36.142  1.00  0.00    -0.744 OA
ENDBRANCH  47  48
ENDBRANCH  26  40
BRANCH  27  52
ATOM     52  C   UNL A   1      44.450  24.965  25.412  1.00  0.00     0.058 A 
ATOM     53  C   UNL A   1      43.395  24.050  25.448  1.00  0.00     0.135 A 
ATOM     54  C   UNL A   1      45.702  24.379  25.006  1.00  0.00     0.135 A 
ATOM     55  F   UNL A   1      42.178  24.458  25.826  1.00  0.00    -0.206 F 
ATOM     56  C   UNL A   1      43.540  22.680  25.202  1.00  0.00     0.059 A 
ATOM     57  C   UNL A   1      45.868  22.984  24.722  1.00  0.00     0.059 A 
ATOM     58  F   UNL A   1      46.813  25.131  24.908  1.00  0.00    -0.206 F 
ATOM     59  C   UNL A   1      44.774  22.136  24.866  1.00  0.00     0.060 A 
BRANCH  59  60
ATOM     60  S   UNL A   1      44.854  20.321  24.724  1.00  0.00     0.124 S 
ATOM     61  O   UNL A   1      44.547  20.118  23.311  1.00  0.00    -0.237 OA
ATOM     62  O   UNL A   1      46.238  20.047  25.105  1.00  0.00    -0.237 OA
ATOM     63  O   UNL A   1      43.844  19.842  25.660  1.00  0.00    -0.744 OA
ENDBRANCH  59  60
ENDBRANCH  27  52
BRANCH  39  64
ATOM     64  C   UNL A   1      45.108  30.724  28.028  1.00  0.00     0.058 A 
ATOM     65  C   UNL A   1      46.298  31.448  28.162  1.00  0.00     0.135 A 
ATOM     66  C   UNL A   1      44.133  31.290  27.174  1.00  0.00     0.135 A 
ATOM     67  F   UNL A   1      47.232  31.033  29.032  1.00  0.00    -0.206 F 
ATOM     68  C   UNL A   1      46.530  32.643  27.491  1.00  0.00     0.059 A 
ATOM     69  C   UNL A   1      44.360  32.477  26.449  1.00  0.00     0.059 A 
ATOM     70  F   UNL A   1      42.908  30.758  27.078  1.00  0.00    -0.206 F 
ATOM     71  C   UNL A   1      45.570  33.145  26.617  1.00  0.00     0.060 A 
BRANCH  71  72
ATOM     72  S   UNL A   1      45.960  34.672  25.732  1.00  0.00     0.124 S 
ATOM     73  O   UNL A   1      45.794  35.682  26.773  1.00  0.00    -0.237 OA
ATOM     74  O   UNL A   1      47.334  34.433  25.300  1.00  0.00    -0.237 OA
ATOM     75  O   UNL A   1      44.970  34.721  24.660  1.00  0.00    -0.744 OA
ENDBRANCH  71  72
ENDBRANCH  39  64
ENDBRANCH  13  14
ENDBRANCH   6   8
ENDBRANCH   3   4
ENDBRANCH   2   3
ENDBRANCH   1   2
BRANCH   1  76
ATOM     76  N   UNL A   1      31.452  30.198  25.125  1.00  0.00    -0.352 N 
ATOM     77  C   UNL A   1      30.742  29.399  24.265  1.00  0.00     0.254 C 
ATOM     78  H   UNL A   1      31.128  31.124  25.197  1.00  0.00     0.163 HD
ATOM     79  O   UNL A   1      29.845  29.878  23.577  1.00  0.00    -0.269 OA
BRANCH  77  80
ATOM     80  C   UNL A   1      31.079  27.975  24.105  1.00  0.00     0.076 A 
ATOM     81  C   UNL A   1      30.642  27.078  25.081  1.00  0.00     0.038 A 
ATOM     82  C   UNL A   1      31.852  27.511  23.039  1.00  0.00     0.136 A 
ATOM     83  C   UNL A   1      30.907  25.717  24.916  1.00  0.00     0.085 A 
ATOM     84  C   UNL A   1      32.057  26.151  22.845  1.00  0.00     0.041 A 
ATOM     85  F   UNL A   1      32.408  28.363  22.166  1.00  0.00    -0.206 F 
ATOM     86  C   UNL A   1      31.561  25.243  23.773  1.00  0.00     0.025 A 
BRANCH  83  87
ATOM     87  S   UNL A   1      30.529  24.646  26.261  1.00  0.00     0.257 S 
ATOM     88  O   UNL A   1      31.601  24.705  27.213  1.00  0.00    -0.205 OA
ATOM     89  O   UNL A   1      29.140  24.880  26.642  1.00  0.00    -0.205 OA
BRANCH  87  90
ATOM     90  N   UNL A   1      30.567  23.095  25.568  1.00  0.00    -0.123 NA
ATOM     91  H   UNL A   1      30.911  23.200  24.614  1.00  0.00     0.167 HD
BRANCH  90  92
ATOM     92  N   UNL A   1      31.367  22.079  26.201  1.00  0.00    -0.275 N 
ATOM     93  C   UNL A   1      32.724  21.912  26.126  1.00  0.00     0.265 C 
ATOM     94  H   UNL A   1      30.881  21.427  26.755  1.00  0.00     0.186 HD
ATOM     95  O   UNL A   1      33.219  21.050  26.866  1.00  0.00    -0.271 OA
BRANCH  93  96
ATOM     96  C   UNL A   1      33.617  22.704  25.142  1.00  0.00     0.244 C 
ATOM     97  C   UNL A   1      34.816  23.410  25.653  1.00  0.00     0.042 C 
ATOM     98  N   UNL A   1      34.218  21.691  24.228  1.00  0.00    -0.171 NA
ATOM     99  C   UNL A   1      35.851  22.692  25.214  1.00  0.00     0.091 C 
ATOM    100  N   UNL A   1      35.476  21.702  24.346  1.00  0.00    -0.155 NA
BRANCH  99 101
ATOM    101  C   UNL A   1      37.213  22.808  25.731  1.00  0.00     0.002 A 
ATOM    102  C   UNL A   1      37.681  24.005  26.272  1.00  0.00     0.010 A 
ATOM    103  C   UNL A   1      38.074  21.698  25.687  1.00  0.00     0.010 A 
ATOM    104  C   UNL A   1      38.980  24.078  26.787  1.00  0.00     0.001 A 
ATOM    105  C   UNL A   1      39.351  21.759  26.238  1.00  0.00     0.001 A 
ATOM    106  C   UNL A   1      39.804  22.953  26.787  1.00  0.00     0.000 A 
ENDBRANCH  99 101
ENDBRANCH  93  96
ENDBRANCH  90  92
ENDBRANCH  87  90
ENDBRANCH  83  87
ENDBRANCH  77  80
ENDBRANCH   1  76
TORSDOF 18
ENDMDL
