MODEL 1
REMARK VINA RESULT:     -15.0      0.000      0.000
REMARK SMILES Cc1ccc(-c2cc(Cl)cc3c2O[C@H](C(F)(F)F)C(C(=O)NCCCNC(=O)c2ccc(-c4c5nc(c(-c6c(F)cc(S(=O)(=O)[O-])cc6F)c6ccc([nH]6)c(-c6c(F)cc(S(=O)(=O)[O-])cc6F)c6nc(c(-c7c(F)cc(S(=O)(=O)[O-])cc7F)c7ccc4[nH]7)C=C6)C=C5)cc2)=C3)cc1F
REMARK SMILES IDX 25 1 24 2 23 3 22 4 20 5 21 6 19 8 6 9 7 10 12 11 8 12 11 13
REMARK SMILES IDX 13 14 9 15 10 16 95 17 14 18 5 19 1 20 2 21 3 22 97 23 4 24
REMARK SMILES IDX 96 25 98 26 15 27 16 28 17 29 18 30 26 31 27 32 28 34 29 35
REMARK SMILES IDX 30 36 94 37 31 38 93 39 32 40 33 41 34 42 87 43 35 44 92 45
REMARK SMILES IDX 86 46 88 47 36 48 91 49 85 50 84 51 37 53 71 54 50 55 70 56
REMARK SMILES IDX 51 57 54 58 69 59 89 60 52 61 53 62 68 64 90 65 55 66 38 67
REMARK SMILES IDX 39 68 48 69 40 70 41 71 47 72 49 73 42 74 43 75 44 76 45 77
REMARK SMILES IDX 46 78 72 79 73 80 82 81 74 82 75 83 81 84 83 85 76 86 77 87
REMARK SMILES IDX 78 88 79 89 80 90 56 91 57 92 66 93 58 94 59 95 65 96 67 97
REMARK SMILES IDX 60 98 61 99 62 100 63 101 64 102
REMARK H PARENT 22 7 26 33 88 52 54 63
REMARK Flexibility Score: inf
ROOT
ATOM      1  C   UNL A   1      34.298  29.467  27.140  1.00  0.00     0.118 C 
ENDROOT
BRANCH   1   2
ATOM      2  C   UNL A   1      32.992  28.679  27.206  1.00  0.00     0.042 C 
BRANCH   2   3
ATOM      3  C   UNL A   1      32.384  28.188  25.888  1.00  0.00     0.118 C 
BRANCH   3   4
ATOM      4  N   UNL A   1      31.184  27.377  26.053  1.00  0.00    -0.352 N 
ATOM      5  C   UNL A   1      30.879  26.058  26.053  1.00  0.00     0.251 C 
ATOM      6  O   UNL A   1      29.698  25.793  26.313  1.00  0.00    -0.270 OA
ATOM      7  H   UNL A   1      30.387  27.935  26.202  1.00  0.00     0.163 HD
BRANCH   5   8
ATOM      8  C   UNL A   1      31.815  24.930  25.751  1.00  0.00     0.067 C 
ATOM      9  C   UNL A   1      34.677  21.887  25.060  1.00  0.00     0.026 A 
ATOM     10  C   UNL A   1      36.041  22.204  25.175  1.00  0.00     0.033 A 
ATOM     11  C   UNL A   1      33.729  22.905  25.303  1.00  0.00     0.135 A 
ATOM     12  C   UNL A   1      36.439  23.496  25.522  1.00  0.00     0.042 A 
ATOM     13  C   UNL A   1      34.129  24.192  25.676  1.00  0.00     0.019 A 
ATOM     14  O   UNL A   1      32.403  22.568  25.237  1.00  0.00    -0.475 OA
ATOM     15  Cl  UNL A   1      38.117  23.860  25.660  1.00  0.00    -0.084 Cl
ATOM     16  C   UNL A   1      35.492  24.488  25.775  1.00  0.00     0.032 A 
ATOM     17  C   UNL A   1      33.114  25.186  26.009  1.00  0.00     0.025 C 
ATOM     18  C   UNL A   1      31.432  23.644  25.065  1.00  0.00     0.314 C 
BRANCH   9  19
ATOM     19  C   UNL A   1      34.263  20.518  24.708  1.00  0.00    -0.012 A 
ATOM     20  C   UNL A   1      33.190  16.525  23.435  1.00  0.00     0.047 C 
ATOM     21  C   UNL A   1      33.528  17.908  23.898  1.00  0.00    -0.015 A 
ATOM     22  C   UNL A   1      32.665  18.985  23.676  1.00  0.00     0.007 A 
ATOM     23  C   UNL A   1      34.742  18.147  24.543  1.00  0.00     0.126 A 
ATOM     24  C   UNL A   1      33.028  20.275  24.081  1.00  0.00     0.009 A 
ATOM     25  C   UNL A   1      35.110  19.427  24.947  1.00  0.00     0.048 A 
ATOM     26  F   UNL A   1      35.581  17.129  24.781  1.00  0.00    -0.207 F 
ENDBRANCH   9  19
BRANCH  18  27
ATOM     27  C   UNL A   1      31.131  23.844  23.571  1.00  0.00     0.429 C 
ATOM     28  F   UNL A   1      31.131  22.662  22.914  1.00  0.00    -0.167 F 
ATOM     29  F   UNL A   1      29.944  24.446  23.372  1.00  0.00    -0.167 F 
ATOM     30  F   UNL A   1      32.075  24.621  22.977  1.00  0.00    -0.167 F 
ENDBRANCH  18  27
ENDBRANCH   5   8
ENDBRANCH   3   4
ENDBRANCH   2   3
ENDBRANCH   1   2
BRANCH   1  31
ATOM     31  N   UNL A   1      34.716  30.184  28.323  1.00  0.00    -0.352 N 
ATOM     32  C   UNL A   1      35.969  30.564  28.750  1.00  0.00     0.251 C 
ATOM     33  H   UNL A   1      33.982  30.443  28.926  1.00  0.00     0.163 HD
ATOM     34  O   UNL A   1      36.117  31.685  29.243  1.00  0.00    -0.269 OA
BRANCH  32  35
ATOM     35  C   UNL A   1      37.066  29.570  28.873  1.00  0.00     0.039 A 
ATOM     36  C   UNL A   1      37.347  28.819  30.018  1.00  0.00     0.014 A 
ATOM     37  C   UNL A   1      37.983  29.586  27.809  1.00  0.00     0.014 A 
ATOM     38  C   UNL A   1      38.610  28.244  30.178  1.00  0.00     0.010 A 
ATOM     39  C   UNL A   1      39.238  29.029  27.970  1.00  0.00     0.010 A 
ATOM     40  C   UNL A   1      39.572  28.419  29.179  1.00  0.00    -0.014 A 
BRANCH  40  41
ATOM     41  C   UNL A   1      40.926  27.896  29.275  1.00  0.00     0.031 A 
ATOM     42  C   UNL A   1      41.184  26.540  28.740  1.00  0.00     0.074 A 
ATOM     43  C   UNL A   1      41.933  28.633  29.802  1.00  0.00     0.049 A 
ATOM     44  N   UNL A   1      42.129  25.770  29.157  1.00  0.00    -0.248 NA
ATOM     45  C   UNL A   1      40.334  25.899  27.738  1.00  0.00     0.031 C 
ATOM     46  C   UNL A   1      43.360  28.375  29.660  1.00  0.00     0.029 A 
ATOM     47  N   UNL A   1      41.877  29.710  30.693  1.00  0.00    -0.354 N 
ATOM     48  C   UNL A   1      42.212  24.700  28.292  1.00  0.00     0.074 A 
ATOM     49  C   UNL A   1      40.995  24.754  27.519  1.00  0.00     0.031 C 
ATOM     50  C   UNL A   1      44.033  29.083  30.580  1.00  0.00     0.029 A 
ATOM     51  C   UNL A   1      43.065  29.709  31.463  1.00  0.00     0.049 A 
ATOM     52  H   UNL A   1      41.138  30.356  30.772  1.00  0.00     0.167 HD
ATOM     53  C   UNL A   1      43.378  23.993  28.239  1.00  0.00     0.037 A 
ATOM     54  C   UNL A   1      43.068  29.576  32.831  1.00  0.00     0.037 A 
ATOM     55  C   UNL A   1      44.343  24.545  29.186  1.00  0.00     0.049 A 
ATOM     56  C   UNL A   1      43.675  28.295  33.337  1.00  0.00     0.074 A 
ATOM     57  C   UNL A   1      45.364  25.473  29.074  1.00  0.00     0.029 A 
ATOM     58  N   UNL A   1      44.127  24.371  30.533  1.00  0.00    -0.354 N 
ATOM     59  N   UNL A   1      44.162  27.367  32.568  1.00  0.00    -0.248 NA
ATOM     60  C   UNL A   1      43.683  27.909  34.748  1.00  0.00     0.031 C 
ATOM     61  C   UNL A   1      45.764  25.842  30.386  1.00  0.00     0.029 A 
ATOM     62  C   UNL A   1      44.998  25.125  31.289  1.00  0.00     0.049 A 
ATOM     63  H   UNL A   1      43.435  23.780  30.911  1.00  0.00     0.167 HD
ATOM     64  C   UNL A   1      44.448  26.258  33.314  1.00  0.00     0.074 A 
ATOM     65  C   UNL A   1      44.139  26.647  34.678  1.00  0.00     0.031 C 
ATOM     66  C   UNL A   1      44.872  25.098  32.736  1.00  0.00     0.037 A 
BRANCH  53  67
ATOM     67  C   UNL A   1      43.789  22.966  27.205  1.00  0.00     0.058 A 
ATOM     68  C   UNL A   1      43.025  21.782  27.061  1.00  0.00     0.135 A 
ATOM     69  C   UNL A   1      44.894  23.056  26.336  1.00  0.00     0.135 A 
ATOM     70  F   UNL A   1      41.901  21.575  27.759  1.00  0.00    -0.206 F 
ATOM     71  C   UNL A   1      43.370  20.745  26.200  1.00  0.00     0.059 A 
ATOM     72  C   UNL A   1      45.276  22.014  25.477  1.00  0.00     0.059 A 
ATOM     73  F   UNL A   1      45.627  24.172  26.246  1.00  0.00    -0.206 F 
ATOM     74  C   UNL A   1      44.510  20.856  25.424  1.00  0.00     0.060 A 
BRANCH  74  75
ATOM     75  S   UNL A   1      44.938  19.480  24.347  1.00  0.00     0.124 S 
ATOM     76  O   UNL A   1      46.388  19.407  24.508  1.00  0.00    -0.237 OA
ATOM     77  O   UNL A   1      44.180  18.381  24.936  1.00  0.00    -0.237 OA
ATOM     78  O   UNL A   1      44.482  19.920  23.032  1.00  0.00    -0.744 OA
ENDBRANCH  74  75
ENDBRANCH  53  67
BRANCH  54  79
ATOM     79  C   UNL A   1      41.966  30.290  33.552  1.00  0.00     0.058 A 
ATOM     80  C   UNL A   1      42.140  31.681  33.633  1.00  0.00     0.135 A 
ATOM     81  C   UNL A   1      40.683  29.795  33.304  1.00  0.00     0.135 A 
ATOM     82  F   UNL A   1      43.317  32.191  34.027  1.00  0.00    -0.206 F 
ATOM     83  C   UNL A   1      41.223  32.529  33.042  1.00  0.00     0.059 A 
ATOM     84  C   UNL A   1      39.791  30.608  32.627  1.00  0.00     0.059 A 
ATOM     85  F   UNL A   1      40.442  28.476  33.355  1.00  0.00    -0.206 F 
ATOM     86  C   UNL A   1      40.137  31.944  32.400  1.00  0.00     0.060 A 
BRANCH  86  87
ATOM     87  S   UNL A   1      39.543  32.793  30.921  1.00  0.00     0.124 S 
ATOM     88  O   UNL A   1      38.125  32.939  31.203  1.00  0.00    -0.237 OA
ATOM     89  O   UNL A   1      40.357  34.002  30.939  1.00  0.00    -0.237 OA
ATOM     90  O   UNL A   1      39.863  31.842  29.865  1.00  0.00    -0.744 OA
ENDBRANCH  86  87
ENDBRANCH  54  79
BRANCH  66  91
ATOM     91  C   UNL A   1      45.193  23.840  33.496  1.00  0.00     0.058 A 
ATOM     92  C   UNL A   1      44.207  22.903  33.841  1.00  0.00     0.135 A 
ATOM     93  C   UNL A   1      46.488  23.584  34.005  1.00  0.00     0.135 A 
ATOM     94  F   UNL A   1      42.924  23.093  33.495  1.00  0.00    -0.206 F 
ATOM     95  C   UNL A   1      44.501  21.751  34.568  1.00  0.00     0.059 A 
ATOM     96  C   UNL A   1      46.789  22.481  34.791  1.00  0.00     0.059 A 
ATOM     97  F   UNL A   1      47.532  24.377  33.726  1.00  0.00    -0.206 F 
ATOM     98  C   UNL A   1      45.797  21.547  35.036  1.00  0.00     0.060 A 
BRANCH  98  99
ATOM     99  S   UNL A   1      46.180  20.054  35.961  1.00  0.00     0.124 S 
ATOM    100  O   UNL A   1      47.631  19.963  35.824  1.00  0.00    -0.237 OA
ATOM    101  O   UNL A   1      45.691  20.407  37.290  1.00  0.00    -0.237 OA
ATOM    102  O   UNL A   1      45.422  19.017  35.268  1.00  0.00    -0.744 OA
ENDBRANCH  98  99
ENDBRANCH  66  91
ENDBRANCH  40  41
ENDBRANCH  32  35
ENDBRANCH   1  31
TORSDOF 15
ENDMDL
MODEL 2
REMARK VINA RESULT:     -14.6      3.708      5.794
REMARK SMILES Cc1ccc(-c2cc(Cl)cc3c2O[C@H](C(F)(F)F)C(C(=O)NCCCNC(=O)c2ccc(-c4c5nc(c(-c6c(F)cc(S(=O)(=O)[O-])cc6F)c6ccc([nH]6)c(-c6c(F)cc(S(=O)(=O)[O-])cc6F)c6nc(c(-c7c(F)cc(S(=O)(=O)[O-])cc7F)c7ccc4[nH]7)C=C6)C=C5)cc2)=C3)cc1F
REMARK SMILES IDX 25 1 24 2 23 3 22 4 20 5 21 6 19 8 6 9 7 10 12 11 8 12 11 13
REMARK SMILES IDX 13 14 9 15 10 16 95 17 14 18 5 19 1 20 2 21 3 22 97 23 4 24
REMARK SMILES IDX 96 25 98 26 15 27 16 28 17 29 18 30 26 31 27 32 28 34 29 35
REMARK SMILES IDX 30 36 94 37 31 38 93 39 32 40 33 41 34 42 87 43 35 44 92 45
REMARK SMILES IDX 86 46 88 47 36 48 91 49 85 50 84 51 37 53 71 54 50 55 70 56
REMARK SMILES IDX 51 57 54 58 69 59 89 60 52 61 53 62 68 64 90 65 55 66 38 67
REMARK SMILES IDX 39 68 48 69 40 70 41 71 47 72 49 73 42 74 43 75 44 76 45 77
REMARK SMILES IDX 46 78 72 79 73 80 82 81 74 82 75 83 81 84 83 85 76 86 77 87
REMARK SMILES IDX 78 88 79 89 80 90 56 91 57 92 66 93 58 94 59 95 65 96 67 97
REMARK SMILES IDX 60 98 61 99 62 100 63 101 64 102
REMARK H PARENT 22 7 26 33 88 52 54 63
REMARK Flexibility Score: inf
ROOT
ATOM      1  C   UNL A   1      33.809  28.909  24.287  1.00  0.00     0.118 C 
ENDROOT
BRANCH   1   2
ATOM      2  C   UNL A   1      33.389  28.914  22.819  1.00  0.00     0.042 C 
BRANCH   2   3
ATOM      3  C   UNL A   1      33.465  27.592  22.048  1.00  0.00     0.118 C 
BRANCH   3   4
ATOM      4  N   UNL A   1      32.326  26.709  22.270  1.00  0.00    -0.352 N 
ATOM      5  C   UNL A   1      32.106  25.520  22.878  1.00  0.00     0.251 C 
ATOM      6  O   UNL A   1      30.924  25.151  22.895  1.00  0.00    -0.270 OA
ATOM      7  H   UNL A   1      31.502  27.072  21.872  1.00  0.00     0.163 HD
BRANCH   5   8
ATOM      8  C   UNL A   1      33.141  24.632  23.494  1.00  0.00     0.067 C 
ATOM      9  C   UNL A   1      35.948  21.884  25.075  1.00  0.00     0.026 A 
ATOM     10  C   UNL A   1      35.628  20.516  25.075  1.00  0.00     0.033 A 
ATOM     11  C   UNL A   1      35.011  22.792  24.536  1.00  0.00     0.135 A 
ATOM     12  C   UNL A   1      34.412  20.076  24.552  1.00  0.00     0.042 A 
ATOM     13  C   UNL A   1      33.804  22.346  23.989  1.00  0.00     0.019 A 
ATOM     14  O   UNL A   1      35.359  24.117  24.497  1.00  0.00    -0.475 OA
ATOM     15  Cl  UNL A   1      34.042  18.393  24.560  1.00  0.00    -0.084 Cl
ATOM     16  C   UNL A   1      33.501  20.982  24.007  1.00  0.00     0.032 A 
ATOM     17  C   UNL A   1      32.908  23.310  23.357  1.00  0.00     0.025 C 
ATOM     18  C   UNL A   1      34.290  25.100  24.349  1.00  0.00     0.314 C 
BRANCH   9  19
ATOM     19  C   UNL A   1      37.240  22.342  25.616  1.00  0.00    -0.012 A 
ATOM     20  C   UNL A   1      40.967  23.561  27.444  1.00  0.00     0.047 C 
ATOM     21  C   UNL A   1      39.680  23.170  26.787  1.00  0.00    -0.015 A 
ATOM     22  C   UNL A   1      38.582  24.036  26.755  1.00  0.00     0.007 A 
ATOM     23  C   UNL A   1      39.549  21.906  26.211  1.00  0.00     0.126 A 
ATOM     24  C   UNL A   1      37.377  23.626  26.171  1.00  0.00     0.009 A 
ATOM     25  C   UNL A   1      38.354  21.491  25.632  1.00  0.00     0.048 A 
ATOM     26  F   UNL A   1      40.591  21.062  26.215  1.00  0.00    -0.207 F 
ENDBRANCH   9  19
BRANCH  18  27
ATOM     27  C   UNL A   1      33.831  25.586  25.732  1.00  0.00     0.429 C 
ATOM     28  F   UNL A   1      33.846  24.576  26.631  1.00  0.00    -0.167 F 
ATOM     29  F   UNL A   1      34.604  26.586  26.198  1.00  0.00    -0.167 F 
ATOM     30  F   UNL A   1      32.556  26.055  25.693  1.00  0.00    -0.167 F 
ENDBRANCH  18  27
ENDBRANCH   5   8
ENDBRANCH   3   4
ENDBRANCH   2   3
ENDBRANCH   1   2
BRANCH   1  31
ATOM     31  N   UNL A   1      32.781  29.095  25.286  1.00  0.00    -0.352 N 
ATOM     32  C   UNL A   1      32.582  30.108  26.196  1.00  0.00     0.251 C 
ATOM     33  H   UNL A   1      32.110  28.375  25.322  1.00  0.00     0.163 HD
ATOM     34  O   UNL A   1      31.436  30.522  26.390  1.00  0.00    -0.269 OA
BRANCH  32  35
ATOM     35  C   UNL A   1      33.666  30.519  27.127  1.00  0.00     0.039 A 
ATOM     36  C   UNL A   1      34.086  31.835  27.342  1.00  0.00     0.014 A 
ATOM     37  C   UNL A   1      34.429  29.453  27.632  1.00  0.00     0.014 A 
ATOM     38  C   UNL A   1      35.348  32.079  27.890  1.00  0.00     0.010 A 
ATOM     39  C   UNL A   1      35.682  29.692  28.164  1.00  0.00     0.010 A 
ATOM     40  C   UNL A   1      36.167  30.999  28.229  1.00  0.00    -0.014 A 
BRANCH  40  41
ATOM     41  C   UNL A   1      37.510  31.153  28.764  1.00  0.00     0.031 A 
ATOM     42  C   UNL A   1      38.516  30.124  28.416  1.00  0.00     0.074 A 
ATOM     43  C   UNL A   1      37.850  32.219  29.526  1.00  0.00     0.049 A 
ATOM     44  N   UNL A   1      39.539  29.841  29.146  1.00  0.00    -0.248 NA
ATOM     45  C   UNL A   1      38.404  29.258  27.243  1.00  0.00     0.031 C 
ATOM     46  C   UNL A   1      39.202  32.662  29.841  1.00  0.00     0.029 A 
ATOM     47  N   UNL A   1      37.037  33.062  30.292  1.00  0.00    -0.354 N 
ATOM     48  C   UNL A   1      40.364  29.014  28.413  1.00  0.00     0.074 A 
ATOM     49  C   UNL A   1      39.553  28.571  27.305  1.00  0.00     0.031 C 
ATOM     50  C   UNL A   1      39.160  33.513  30.879  1.00  0.00     0.029 A 
ATOM     51  C   UNL A   1      37.800  33.539  31.385  1.00  0.00     0.049 A 
ATOM     52  H   UNL A   1      36.097  33.284  30.103  1.00  0.00     0.167 HD
ATOM     53  C   UNL A   1      41.681  28.933  28.760  1.00  0.00     0.037 A 
ATOM     54  C   UNL A   1      37.459  33.297  32.695  1.00  0.00     0.037 A 
ATOM     55  C   UNL A   1      41.947  29.777  29.921  1.00  0.00     0.049 A 
ATOM     56  C   UNL A   1      38.411  32.400  33.438  1.00  0.00     0.074 A 
ATOM     57  C   UNL A   1      42.399  31.078  30.069  1.00  0.00     0.029 A 
ATOM     58  N   UNL A   1      41.449  29.401  31.147  1.00  0.00    -0.354 N 
ATOM     59  N   UNL A   1      39.478  31.876  32.911  1.00  0.00    -0.248 NA
ATOM     60  C   UNL A   1      38.180  31.934  34.805  1.00  0.00     0.031 C 
ATOM     61  C   UNL A   1      42.171  31.468  31.416  1.00  0.00     0.029 A 
ATOM     62  C   UNL A   1      41.599  30.400  32.084  1.00  0.00     0.049 A 
ATOM     63  H   UNL A   1      41.035  28.527  31.331  1.00  0.00     0.167 HD
ATOM     64  C   UNL A   1      40.013  30.961  33.774  1.00  0.00     0.074 A 
ATOM     65  C   UNL A   1      39.169  31.036  34.953  1.00  0.00     0.031 C 
ATOM     66  C   UNL A   1      41.078  30.185  33.424  1.00  0.00     0.037 A 
BRANCH  53  67
ATOM     67  C   UNL A   1      42.809  28.310  27.964  1.00  0.00     0.058 A 
ATOM     68  C   UNL A   1      43.103  26.935  28.136  1.00  0.00     0.135 A 
ATOM     69  C   UNL A   1      43.637  28.973  27.038  1.00  0.00     0.135 A 
ATOM     70  F   UNL A   1      42.362  26.145  28.924  1.00  0.00    -0.206 F 
ATOM     71  C   UNL A   1      44.170  26.294  27.514  1.00  0.00     0.059 A 
ATOM     72  C   UNL A   1      44.734  28.354  26.417  1.00  0.00     0.059 A 
ATOM     73  F   UNL A   1      43.397  30.233  26.657  1.00  0.00    -0.206 F 
ATOM     74  C   UNL A   1      44.997  27.014  26.671  1.00  0.00     0.060 A 
BRANCH  74  75
ATOM     75  S   UNL A   1      46.385  26.156  25.911  1.00  0.00     0.124 S 
ATOM     76  O   UNL A   1      45.802  25.687  24.657  1.00  0.00    -0.237 OA
ATOM     77  O   UNL A   1      47.375  27.220  25.790  1.00  0.00    -0.237 OA
ATOM     78  O   UNL A   1      46.707  25.108  26.875  1.00  0.00    -0.744 OA
ENDBRANCH  74  75
ENDBRANCH  53  67
BRANCH  54  79
ATOM     79  C   UNL A   1      35.994  33.353  33.001  1.00  0.00     0.058 A 
ATOM     80  C   UNL A   1      35.502  34.651  33.218  1.00  0.00     0.135 A 
ATOM     81  C   UNL A   1      35.205  32.458  32.274  1.00  0.00     0.135 A 
ATOM     82  F   UNL A   1      36.149  35.488  34.043  1.00  0.00    -0.206 F 
ATOM     83  C   UNL A   1      34.535  35.173  32.381  1.00  0.00     0.059 A 
ATOM     84  C   UNL A   1      34.300  32.977  31.365  1.00  0.00     0.059 A 
ATOM     85  F   UNL A   1      35.569  31.172  32.160  1.00  0.00    -0.206 F 
ATOM     86  C   UNL A   1      34.073  34.357  31.355  1.00  0.00     0.060 A 
BRANCH  86  87
ATOM     87  S   UNL A   1      33.648  35.192  29.811  1.00  0.00     0.124 S 
ATOM     88  O   UNL A   1      32.564  34.368  29.308  1.00  0.00    -0.237 OA
ATOM     89  O   UNL A   1      33.308  36.526  30.292  1.00  0.00    -0.237 OA
ATOM     90  O   UNL A   1      34.890  35.102  29.055  1.00  0.00    -0.744 OA
ENDBRANCH  86  87
ENDBRANCH  54  79
BRANCH  66  91
ATOM     91  C   UNL A   1      41.707  29.153  34.319  1.00  0.00     0.058 A 
ATOM     92  C   UNL A   1      41.341  27.799  34.271  1.00  0.00     0.135 A 
ATOM     93  C   UNL A   1      42.619  29.506  35.341  1.00  0.00     0.135 A 
ATOM     94  F   UNL A   1      40.410  27.366  33.406  1.00  0.00    -0.206 F 
ATOM     95  C   UNL A   1      41.905  26.848  35.120  1.00  0.00     0.059 A 
ATOM     96  C   UNL A   1      43.140  28.589  36.244  1.00  0.00     0.059 A 
ATOM     97  F   UNL A   1      43.080  30.757  35.482  1.00  0.00    -0.206 F 
ATOM     98  C   UNL A   1      42.807  27.253  36.101  1.00  0.00     0.060 A 
BRANCH  98  99
ATOM     99  S   UNL A   1      43.545  26.024  37.186  1.00  0.00     0.124 S 
ATOM    100  O   UNL A   1      44.879  25.862  36.615  1.00  0.00    -0.237 OA
ATOM    101  O   UNL A   1      43.488  26.708  38.474  1.00  0.00    -0.237 OA
ATOM    102  O   UNL A   1      42.664  24.870  37.048  1.00  0.00    -0.744 OA
ENDBRANCH  98  99
ENDBRANCH  66  91
ENDBRANCH  40  41
ENDBRANCH  32  35
ENDBRANCH   1  31
TORSDOF 15
ENDMDL
MODEL 3
REMARK VINA RESULT:     -14.6      3.577      5.683
REMARK SMILES Cc1ccc(-c2cc(Cl)cc3c2O[C@H](C(F)(F)F)C(C(=O)NCCCNC(=O)c2ccc(-c4c5nc(c(-c6c(F)cc(S(=O)(=O)[O-])cc6F)c6ccc([nH]6)c(-c6c(F)cc(S(=O)(=O)[O-])cc6F)c6nc(c(-c7c(F)cc(S(=O)(=O)[O-])cc7F)c7ccc4[nH]7)C=C6)C=C5)cc2)=C3)cc1F
REMARK SMILES IDX 25 1 24 2 23 3 22 4 20 5 21 6 19 8 6 9 7 10 12 11 8 12 11 13
REMARK SMILES IDX 13 14 9 15 10 16 95 17 14 18 5 19 1 20 2 21 3 22 97 23 4 24
REMARK SMILES IDX 96 25 98 26 15 27 16 28 17 29 18 30 26 31 27 32 28 34 29 35
REMARK SMILES IDX 30 36 94 37 31 38 93 39 32 40 33 41 34 42 87 43 35 44 92 45
REMARK SMILES IDX 86 46 88 47 36 48 91 49 85 50 84 51 37 53 71 54 50 55 70 56
REMARK SMILES IDX 51 57 54 58 69 59 89 60 52 61 53 62 68 64 90 65 55 66 38 67
REMARK SMILES IDX 39 68 48 69 40 70 41 71 47 72 49 73 42 74 43 75 44 76 45 77
REMARK SMILES IDX 46 78 72 79 73 80 82 81 74 82 75 83 81 84 83 85 76 86 77 87
REMARK SMILES IDX 78 88 79 89 80 90 56 91 57 92 66 93 58 94 59 95 65 96 67 97
REMARK SMILES IDX 60 98 61 99 62 100 63 101 64 102
REMARK H PARENT 22 7 26 33 88 52 54 63
REMARK Flexibility Score: inf
ROOT
ATOM      1  C   UNL A   1      33.971  28.670  24.247  1.00  0.00     0.118 C 
ENDROOT
BRANCH   1   2
ATOM      2  C   UNL A   1      33.541  28.574  22.786  1.00  0.00     0.042 C 
BRANCH   2   3
ATOM      3  C   UNL A   1      33.260  27.181  22.211  1.00  0.00     0.118 C 
BRANCH   3   4
ATOM      4  N   UNL A   1      32.023  26.579  22.692  1.00  0.00    -0.352 N 
ATOM      5  C   UNL A   1      31.667  25.451  23.350  1.00  0.00     0.251 C 
ATOM      6  O   UNL A   1      30.465  25.366  23.633  1.00  0.00    -0.270 OA
ATOM      7  H   UNL A   1      31.241  27.139  22.481  1.00  0.00     0.163 HD
BRANCH   5   8
ATOM      8  C   UNL A   1      32.573  24.323  23.733  1.00  0.00     0.067 C 
ATOM      9  C   UNL A   1      34.949  20.943  24.661  1.00  0.00     0.026 A 
ATOM     10  C   UNL A   1      34.360  19.669  24.610  1.00  0.00     0.033 A 
ATOM     11  C   UNL A   1      34.152  22.064  24.340  1.00  0.00     0.135 A 
ATOM     12  C   UNL A   1      33.020  19.525  24.247  1.00  0.00     0.042 A 
ATOM     13  C   UNL A   1      32.817  21.915  23.952  1.00  0.00     0.019 A 
ATOM     14  O   UNL A   1      34.754  23.295  24.346  1.00  0.00    -0.475 OA
ATOM     15  Cl  UNL A   1      32.320  17.951  24.188  1.00  0.00    -0.084 Cl
ATOM     16  C   UNL A   1      32.249  20.638  23.916  1.00  0.00     0.032 A 
ATOM     17  C   UNL A   1      32.060  23.092  23.537  1.00  0.00     0.025 C 
ATOM     18  C   UNL A   1      33.898  24.474  24.435  1.00  0.00     0.314 C 
BRANCH   9  19
ATOM     19  C   UNL A   1      36.368  21.088  25.031  1.00  0.00    -0.012 A 
ATOM     20  C   UNL A   1      40.468  21.420  26.370  1.00  0.00     0.047 C 
ATOM     21  C   UNL A   1      39.056  21.334  25.880  1.00  0.00    -0.015 A 
ATOM     22  C   UNL A   1      38.205  22.443  25.902  1.00  0.00     0.007 A 
ATOM     23  C   UNL A   1      38.556  20.118  25.412  1.00  0.00     0.126 A 
ATOM     24  C   UNL A   1      36.876  22.321  25.478  1.00  0.00     0.009 A 
ATOM     25  C   UNL A   1      37.236  19.989  24.990  1.00  0.00     0.048 A 
ATOM     26  F   UNL A   1      39.357  19.043  25.367  1.00  0.00    -0.207 F 
ENDBRANCH   9  19
BRANCH  18  27
ATOM     27  C   UNL A   1      33.739  24.894  25.904  1.00  0.00     0.429 C 
ATOM     28  F   UNL A   1      32.441  24.857  26.282  1.00  0.00    -0.167 F 
ATOM     29  F   UNL A   1      34.449  24.107  26.734  1.00  0.00    -0.167 F 
ATOM     30  F   UNL A   1      34.166  26.169  26.103  1.00  0.00    -0.167 F 
ENDBRANCH  18  27
ENDBRANCH   5   8
ENDBRANCH   3   4
ENDBRANCH   2   3
ENDBRANCH   1   2
BRANCH   1  31
ATOM     31  N   UNL A   1      32.940  28.825  25.248  1.00  0.00    -0.352 N 
ATOM     32  C   UNL A   1      32.718  29.827  26.165  1.00  0.00     0.251 C 
ATOM     33  H   UNL A   1      32.286  28.089  25.280  1.00  0.00     0.163 HD
ATOM     34  O   UNL A   1      31.562  30.211  26.362  1.00  0.00    -0.269 OA
BRANCH  32  35
ATOM     35  C   UNL A   1      33.792  30.259  27.097  1.00  0.00     0.039 A 
ATOM     36  C   UNL A   1      34.190  31.582  27.310  1.00  0.00     0.014 A 
ATOM     37  C   UNL A   1      34.571  29.207  27.607  1.00  0.00     0.014 A 
ATOM     38  C   UNL A   1      35.445  31.848  27.861  1.00  0.00     0.010 A 
ATOM     39  C   UNL A   1      35.819  29.468  28.142  1.00  0.00     0.010 A 
ATOM     40  C   UNL A   1      36.281  30.782  28.204  1.00  0.00    -0.014 A 
BRANCH  40  41
ATOM     41  C   UNL A   1      37.621  30.960  28.742  1.00  0.00     0.031 A 
ATOM     42  C   UNL A   1      38.635  29.927  28.430  1.00  0.00     0.074 A 
ATOM     43  C   UNL A   1      37.950  32.050  29.476  1.00  0.00     0.049 A 
ATOM     44  N   UNL A   1      39.655  29.672  29.174  1.00  0.00    -0.248 NA
ATOM     45  C   UNL A   1      38.535  29.028  27.282  1.00  0.00     0.031 C 
ATOM     46  C   UNL A   1      39.297  32.510  29.786  1.00  0.00     0.029 A 
ATOM     47  N   UNL A   1      37.127  32.910  30.212  1.00  0.00    -0.354 N 
ATOM     48  C   UNL A   1      40.489  28.829  28.470  1.00  0.00     0.074 A 
ATOM     49  C   UNL A   1      39.688  28.350  27.370  1.00  0.00     0.031 C 
ATOM     50  C   UNL A   1      39.244  33.390  30.798  1.00  0.00     0.029 A 
ATOM     51  C   UNL A   1      37.880  33.422  31.295  1.00  0.00     0.049 A 
ATOM     52  H   UNL A   1      36.187  33.120  30.011  1.00  0.00     0.167 HD
ATOM     53  C   UNL A   1      41.805  28.766  28.827  1.00  0.00     0.037 A 
ATOM     54  C   UNL A   1      37.533  33.216  32.610  1.00  0.00     0.037 A 
ATOM     55  C   UNL A   1      42.059  29.646  29.965  1.00  0.00     0.049 A 
ATOM     56  C   UNL A   1      38.487  32.347  33.384  1.00  0.00     0.074 A 
ATOM     57  C   UNL A   1      42.502  30.953  30.078  1.00  0.00     0.029 A 
ATOM     58  N   UNL A   1      41.556  29.302  31.197  1.00  0.00    -0.354 N 
ATOM     59  N   UNL A   1      39.559  31.814  32.878  1.00  0.00    -0.248 NA
ATOM     60  C   UNL A   1      38.250  31.919  34.762  1.00  0.00     0.031 C 
ATOM     61  C   UNL A   1      42.264  31.380  31.411  1.00  0.00     0.029 A 
ATOM     62  C   UNL A   1      41.694  30.328  32.107  1.00  0.00     0.049 A 
ATOM     63  H   UNL A   1      41.146  28.431  31.404  1.00  0.00     0.167 HD
ATOM     64  C   UNL A   1      40.094  30.927  33.770  1.00  0.00     0.074 A 
ATOM     65  C   UNL A   1      39.243  31.031  34.942  1.00  0.00     0.031 C 
ATOM     66  C   UNL A   1      41.167  30.148  33.449  1.00  0.00     0.037 A 
BRANCH  53  67
ATOM     67  C   UNL A   1      42.941  28.129  28.056  1.00  0.00     0.058 A 
ATOM     68  C   UNL A   1      43.429  28.764  26.887  1.00  0.00     0.135 A 
ATOM     69  C   UNL A   1      43.591  26.922  28.378  1.00  0.00     0.135 A 
ATOM     70  F   UNL A   1      42.970  29.956  26.484  1.00  0.00    -0.206 F 
ATOM     71  C   UNL A   1      44.410  28.216  26.067  1.00  0.00     0.059 A 
ATOM     72  C   UNL A   1      44.565  26.337  27.554  1.00  0.00     0.059 A 
ATOM     73  F   UNL A   1      43.347  26.278  29.525  1.00  0.00    -0.206 F 
ATOM     74  C   UNL A   1      44.961  26.989  26.393  1.00  0.00     0.060 A 
BRANCH  74  75
ATOM     75  S   UNL A   1      46.204  26.300  25.289  1.00  0.00     0.124 S 
ATOM     76  O   UNL A   1      46.326  27.346  24.277  1.00  0.00    -0.237 OA
ATOM     77  O   UNL A   1      47.350  26.142  26.178  1.00  0.00    -0.237 OA
ATOM     78  O   UNL A   1      45.597  25.056  24.826  1.00  0.00    -0.744 OA
ENDBRANCH  74  75
ENDBRANCH  53  67
BRANCH  54  79
ATOM     79  C   UNL A   1      36.066  33.272  32.906  1.00  0.00     0.058 A 
ATOM     80  C   UNL A   1      35.568  34.571  33.097  1.00  0.00     0.135 A 
ATOM     81  C   UNL A   1      35.285  32.362  32.189  1.00  0.00     0.135 A 
ATOM     82  F   UNL A   1      36.207  35.424  33.913  1.00  0.00    -0.206 F 
ATOM     83  C   UNL A   1      34.604  35.076  32.246  1.00  0.00     0.059 A 
ATOM     84  C   UNL A   1      34.384  32.862  31.265  1.00  0.00     0.059 A 
ATOM     85  F   UNL A   1      35.654  31.075  32.099  1.00  0.00    -0.206 F 
ATOM     86  C   UNL A   1      34.152  34.240  31.231  1.00  0.00     0.060 A 
BRANCH  86  87
ATOM     87  S   UNL A   1      33.734  35.048  29.671  1.00  0.00     0.124 S 
ATOM     88  O   UNL A   1      32.661  34.207  29.170  1.00  0.00    -0.237 OA
ATOM     89  O   UNL A   1      33.379  36.386  30.128  1.00  0.00    -0.237 OA
ATOM     90  O   UNL A   1      34.984  34.956  28.927  1.00  0.00    -0.744 OA
ENDBRANCH  86  87
ENDBRANCH  54  79
BRANCH  66  91
ATOM     91  C   UNL A   1      41.796  29.147  34.377  1.00  0.00     0.058 A 
ATOM     92  C   UNL A   1      42.850  29.485  35.239  1.00  0.00     0.135 A 
ATOM     93  C   UNL A   1      41.438  27.778  34.353  1.00  0.00     0.135 A 
ATOM     94  F   UNL A   1      43.338  30.736  35.274  1.00  0.00    -0.206 F 
ATOM     95  C   UNL A   1      43.450  28.550  36.080  1.00  0.00     0.059 A 
ATOM     96  C   UNL A   1      42.070  26.815  35.129  1.00  0.00     0.059 A 
ATOM     97  F   UNL A   1      40.427  27.319  33.602  1.00  0.00    -0.206 F 
ATOM     98  C   UNL A   1      43.049  27.217  36.020  1.00  0.00     0.060 A 
BRANCH  98  99
ATOM     99  S   UNL A   1      43.814  26.013  37.116  1.00  0.00     0.124 S 
ATOM    100  O   UNL A   1      43.195  24.762  36.686  1.00  0.00    -0.237 OA
ATOM    101  O   UNL A   1      45.224  26.171  36.775  1.00  0.00    -0.237 OA
ATOM    102  O   UNL A   1      43.433  26.471  38.447  1.00  0.00    -0.744 OA
ENDBRANCH  98  99
ENDBRANCH  66  91
ENDBRANCH  40  41
ENDBRANCH  32  35
ENDBRANCH   1  31
TORSDOF 15
ENDMDL
