MODEL 1
REMARK VINA RESULT:     -10.8      0.000      0.000
REMARK SMILES CC[C@H](NC(=O)N1CCO[C@@H](CC(=O)NCCCNC(=O)c2ccc(-c3c4nc(c(-c5c(F)cc(S(=O)(=O)[O-])cc5F)c5ccc([nH]5)c(-c5c(F)cc(S(=O)(=O)[O-])cc5F)c5nc(c(-c6c(F)cc(S(=O)(=O)[O-])cc6F)c6ccc3[nH]6)C=C5)C=C4)cc2)C1)c1cccs1
REMARK SMILES IDX 16 1 15 2 13 3 14 4 12 6 11 7 7 8 8 9 88 10 9 11 10 12 5 13
REMARK SMILES IDX 4 14 6 16 3 17 2 18 1 19 89 20 90 21 93 22 91 23 92 24 17 25
REMARK SMILES IDX 18 26 19 27 20 28 21 30 22 31 23 32 87 33 24 34 86 35 25 36
REMARK SMILES IDX 26 37 27 38 80 39 28 40 85 41 79 42 81 43 29 44 84 45 78 46
REMARK SMILES IDX 77 47 30 49 64 50 43 51 63 52 44 53 47 54 62 55 82 56 45 57
REMARK SMILES IDX 46 58 61 60 83 61 48 62 31 63 32 64 41 65 33 66 34 67 40 68
REMARK SMILES IDX 42 69 35 70 36 71 37 72 38 73 39 74 65 75 66 76 75 77 67 78
REMARK SMILES IDX 68 79 74 80 76 81 69 82 70 83 71 84 72 85 73 86 49 87 50 88
REMARK SMILES IDX 59 89 51 90 52 91 58 92 60 93 53 94 54 95 55 96 56 97 57 98
REMARK H PARENT 15 5 4 15 19 29 81 48 47 59
REMARK Flexibility Score: inf
ROOT
ATOM      1  C   UNL A   1      31.521  28.524  25.978  1.00  0.00     0.117 C 
ENDROOT
BRANCH   1   2
ATOM      2  N   UNL A   1      31.309  28.610  24.535  1.00  0.00    -0.356 N 
ATOM      3  C   UNL A   1      30.568  27.829  23.692  1.00  0.00     0.222 C 
ATOM      4  O   UNL A   1      30.642  28.039  22.481  1.00  0.00    -0.275 OA
ATOM      5  H   UNL A   1      31.778  29.356  24.095  1.00  0.00     0.163 HD
BRANCH   3   6
ATOM      6  C   UNL A   1      29.683  26.728  24.233  1.00  0.00     0.133 C 
BRANCH   6   7
ATOM      7  C   UNL A   1      30.380  25.368  24.378  1.00  0.00     0.147 C 
ATOM      8  N   UNL A   1      32.604  24.250  23.987  1.00  0.00    -0.320 N 
ATOM      9  C   UNL A   1      32.744  24.129  25.429  1.00  0.00     0.150 C 
ATOM     10  C   UNL A   1      31.726  25.353  23.646  1.00  0.00     0.154 C 
ATOM     11  C   UNL A   1      31.365  24.002  26.074  1.00  0.00     0.182 C 
ATOM     12  O   UNL A   1      30.564  25.164  25.800  1.00  0.00    -0.374 OA
BRANCH   8  13
ATOM     13  C   UNL A   1      33.741  24.197  23.217  1.00  0.00     0.318 C 
ATOM     14  N   UNL A   1      34.631  23.209  23.462  1.00  0.00    -0.330 N 
ATOM     15  H   UNL A   1      35.226  23.023  22.699  1.00  0.00     0.166 HD
ATOM     16  O   UNL A   1      33.894  24.917  22.231  1.00  0.00    -0.249 OA
BRANCH  14  17
ATOM     17  C   UNL A   1      34.894  22.359  24.621  1.00  0.00     0.124 C 
BRANCH  17  18
ATOM     18  C   UNL A   1      34.296  20.951  24.442  1.00  0.00     0.027 C 
ATOM     19  C   UNL A   1      33.487  20.403  25.607  1.00  0.00     0.006 C 
ENDBRANCH  17  18
BRANCH  17  20
ATOM     20  C   UNL A   1      36.302  22.490  25.164  1.00  0.00     0.027 A 
ATOM     21  C   UNL A   1      36.853  23.608  25.775  1.00  0.00     0.017 A 
ATOM     22  S   UNL A   1      37.427  21.193  25.179  1.00  0.00    -0.147 S 
ATOM     23  C   UNL A   1      38.208  23.422  26.167  1.00  0.00     0.012 A 
ATOM     24  C   UNL A   1      38.650  22.151  25.884  1.00  0.00     0.065 A 
ENDBRANCH  17  20
ENDBRANCH  14  17
ENDBRANCH   8  13
ENDBRANCH   6   7
ENDBRANCH   3   6
ENDBRANCH   1   2
BRANCH   1  25
ATOM     25  C   UNL A   1      32.752  27.682  26.317  1.00  0.00     0.042 C 
BRANCH  25  26
ATOM     26  C   UNL A   1      34.043  28.475  26.427  1.00  0.00     0.118 C 
BRANCH  26  27
ATOM     27  N   UNL A   1      33.830  29.781  27.026  1.00  0.00    -0.352 N 
ATOM     28  C   UNL A   1      34.618  30.476  27.914  1.00  0.00     0.251 C 
ATOM     29  H   UNL A   1      33.000  30.236  26.758  1.00  0.00     0.163 HD
ATOM     30  O   UNL A   1      34.141  31.456  28.488  1.00  0.00    -0.269 OA
BRANCH  28  31
ATOM     31  C   UNL A   1      36.016  30.064  28.195  1.00  0.00     0.039 A 
ATOM     32  C   UNL A   1      36.341  29.590  29.471  1.00  0.00     0.014 A 
ATOM     33  C   UNL A   1      37.025  30.199  27.238  1.00  0.00     0.014 A 
ATOM     34  C   UNL A   1      37.657  29.211  29.768  1.00  0.00     0.010 A 
ATOM     35  C   UNL A   1      38.312  29.737  27.504  1.00  0.00     0.010 A 
ATOM     36  C   UNL A   1      38.651  29.259  28.778  1.00  0.00    -0.014 A 
BRANCH  36  37
ATOM     37  C   UNL A   1      40.061  28.873  29.056  1.00  0.00     0.031 A 
ATOM     38  C   UNL A   1      41.010  29.891  29.636  1.00  0.00     0.074 A 
ATOM     39  C   UNL A   1      40.510  27.645  28.729  1.00  0.00     0.049 A 
ATOM     40  N   UNL A   1      42.303  29.811  29.820  1.00  0.00    -0.248 NA
ATOM     41  C   UNL A   1      40.431  31.187  30.031  1.00  0.00     0.031 C 
ATOM     42  C   UNL A   1      39.704  26.574  28.140  1.00  0.00     0.029 A 
ATOM     43  N   UNL A   1      41.765  27.094  28.833  1.00  0.00    -0.354 N 
ATOM     44  C   UNL A   1      42.693  31.048  30.323  1.00  0.00     0.074 A 
ATOM     45  C   UNL A   1      41.509  31.877  30.370  1.00  0.00     0.031 C 
ATOM     46  C   UNL A   1      40.477  25.493  27.951  1.00  0.00     0.029 A 
ATOM     47  C   UNL A   1      41.845  25.805  28.360  1.00  0.00     0.049 A 
ATOM     48  H   UNL A   1      42.536  27.577  29.210  1.00  0.00     0.167 HD
ATOM     49  C   UNL A   1      43.920  31.451  30.732  1.00  0.00     0.037 A 
ATOM     50  C   UNL A   1      42.901  24.975  28.251  1.00  0.00     0.037 A 
ATOM     51  C   UNL A   1      45.087  30.609  30.724  1.00  0.00     0.049 A 
ATOM     52  C   UNL A   1      44.258  25.445  28.708  1.00  0.00     0.074 A 
ATOM     53  C   UNL A   1      46.366  30.907  31.161  1.00  0.00     0.029 A 
ATOM     54  N   UNL A   1      45.116  29.301  30.264  1.00  0.00    -0.354 N 
ATOM     55  N   UNL A   1      44.600  26.606  29.211  1.00  0.00    -0.248 NA
ATOM     56  C   UNL A   1      45.371  24.492  28.582  1.00  0.00     0.031 C 
ATOM     57  C   UNL A   1      47.177  29.791  30.933  1.00  0.00     0.029 A 
ATOM     58  C   UNL A   1      46.392  28.783  30.396  1.00  0.00     0.049 A 
ATOM     59  H   UNL A   1      44.343  28.813  29.898  1.00  0.00     0.167 HD
ATOM     60  C   UNL A   1      45.959  26.512  29.494  1.00  0.00     0.074 A 
ATOM     61  C   UNL A   1      46.377  25.182  29.106  1.00  0.00     0.031 C 
ATOM     62  C   UNL A   1      46.786  27.445  30.028  1.00  0.00     0.037 A 
BRANCH  49  63
ATOM     63  C   UNL A   1      44.063  32.864  31.229  1.00  0.00     0.058 A 
ATOM     64  C   UNL A   1      44.418  33.915  30.368  1.00  0.00     0.135 A 
ATOM     65  C   UNL A   1      43.811  33.177  32.574  1.00  0.00     0.135 A 
ATOM     66  F   UNL A   1      44.684  33.670  29.075  1.00  0.00    -0.206 F 
ATOM     67  C   UNL A   1      44.550  35.221  30.831  1.00  0.00     0.059 A 
ATOM     68  C   UNL A   1      43.909  34.481  33.053  1.00  0.00     0.059 A 
ATOM     69  F   UNL A   1      43.467  32.212  33.442  1.00  0.00    -0.206 F 
ATOM     70  C   UNL A   1      44.295  35.493  32.175  1.00  0.00     0.060 A 
BRANCH  70  71
ATOM     71  S   UNL A   1      44.470  37.192  32.760  1.00  0.00     0.124 S 
ATOM     72  O   UNL A   1      43.756  37.931  31.722  1.00  0.00    -0.237 OA
ATOM     73  O   UNL A   1      43.813  37.142  34.065  1.00  0.00    -0.237 OA
ATOM     74  O   UNL A   1      45.913  37.394  32.797  1.00  0.00    -0.744 OA
ENDBRANCH  70  71
ENDBRANCH  49  63
BRANCH  50  75
ATOM     75  C   UNL A   1      42.718  23.605  27.700  1.00  0.00     0.058 A 
ATOM     76  C   UNL A   1      42.800  23.367  26.320  1.00  0.00     0.135 A 
ATOM     77  C   UNL A   1      42.465  22.508  28.538  1.00  0.00     0.135 A 
ATOM     78  F   UNL A   1      43.032  24.384  25.477  1.00  0.00    -0.206 F 
ATOM     79  C   UNL A   1      42.619  22.094  25.787  1.00  0.00     0.059 A 
ATOM     80  C   UNL A   1      42.305  21.221  28.031  1.00  0.00     0.059 A 
ATOM     81  F   UNL A   1      42.393  22.678  29.868  1.00  0.00    -0.206 F 
ATOM     82  C   UNL A   1      42.373  21.027  26.651  1.00  0.00     0.060 A 
BRANCH  82  83
ATOM     83  S   UNL A   1      42.180  19.372  25.955  1.00  0.00     0.124 S 
ATOM     84  O   UNL A   1      40.738  19.309  25.743  1.00  0.00    -0.237 OA
ATOM     85  O   UNL A   1      43.000  19.447  24.750  1.00  0.00    -0.237 OA
ATOM     86  O   UNL A   1      42.702  18.504  27.006  1.00  0.00    -0.744 OA
ENDBRANCH  82  83
ENDBRANCH  50  75
BRANCH  62  87
ATOM     87  C   UNL A   1      48.215  27.055  30.279  1.00  0.00     0.058 A 
ATOM     88  C   UNL A   1      49.220  27.280  29.327  1.00  0.00     0.135 A 
ATOM     89  C   UNL A   1      48.597  26.533  31.526  1.00  0.00     0.135 A 
ATOM     90  F   UNL A   1      48.907  27.770  28.117  1.00  0.00    -0.206 F 
ATOM     91  C   UNL A   1      50.555  26.997  29.600  1.00  0.00     0.059 A 
ATOM     92  C   UNL A   1      49.927  26.265  31.830  1.00  0.00     0.059 A 
ATOM     93  F   UNL A   1      47.673  26.307  32.475  1.00  0.00    -0.206 F 
ATOM     94  C   UNL A   1      50.899  26.498  30.858  1.00  0.00     0.060 A 
BRANCH  94  95
ATOM     95  S   UNL A   1      52.642  26.201  31.224  1.00  0.00     0.124 S 
ATOM     96  O   UNL A   1      53.231  26.223  29.889  1.00  0.00    -0.237 OA
ATOM     97  O   UNL A   1      52.978  27.333  32.083  1.00  0.00    -0.237 OA
ATOM     98  O   UNL A   1      52.635  24.900  31.886  1.00  0.00    -0.744 OA
ENDBRANCH  94  95
ENDBRANCH  62  87
ENDBRANCH  36  37
ENDBRANCH  28  31
ENDBRANCH  26  27
ENDBRANCH  25  26
ENDBRANCH   1  25
TORSDOF 18
ENDMDL
MODEL 2
REMARK VINA RESULT:     -10.8      5.007     10.660
REMARK SMILES CC[C@H](NC(=O)N1CCO[C@@H](CC(=O)NCCCNC(=O)c2ccc(-c3c4nc(c(-c5c(F)cc(S(=O)(=O)[O-])cc5F)c5ccc([nH]5)c(-c5c(F)cc(S(=O)(=O)[O-])cc5F)c5nc(c(-c6c(F)cc(S(=O)(=O)[O-])cc6F)c6ccc3[nH]6)C=C5)C=C4)cc2)C1)c1cccs1
REMARK SMILES IDX 16 1 15 2 13 3 14 4 12 6 11 7 7 8 8 9 88 10 9 11 10 12 5 13
REMARK SMILES IDX 4 14 6 16 3 17 2 18 1 19 89 20 90 21 93 22 91 23 92 24 17 25
REMARK SMILES IDX 18 26 19 27 20 28 21 30 22 31 23 32 87 33 24 34 86 35 25 36
REMARK SMILES IDX 26 37 27 38 80 39 28 40 85 41 79 42 81 43 29 44 84 45 78 46
REMARK SMILES IDX 77 47 30 49 64 50 43 51 63 52 44 53 47 54 62 55 82 56 45 57
REMARK SMILES IDX 46 58 61 60 83 61 48 62 31 63 32 64 41 65 33 66 34 67 40 68
REMARK SMILES IDX 42 69 35 70 36 71 37 72 38 73 39 74 65 75 66 76 75 77 67 78
REMARK SMILES IDX 68 79 74 80 76 81 69 82 70 83 71 84 72 85 73 86 49 87 50 88
REMARK SMILES IDX 59 89 51 90 52 91 58 92 60 93 53 94 54 95 55 96 56 97 57 98
REMARK H PARENT 15 5 4 15 19 29 81 48 47 59
REMARK Flexibility Score: inf
ROOT
ATOM      1  C   UNL A   1      37.776  22.587  25.481  1.00  0.00     0.117 C 
ENDROOT
BRANCH   1   2
ATOM      2  N   UNL A   1      36.661  21.916  26.144  1.00  0.00    -0.356 N 
ATOM      3  C   UNL A   1      35.364  21.738  25.750  1.00  0.00     0.222 C 
ATOM      4  O   UNL A   1      34.574  21.231  26.548  1.00  0.00    -0.275 OA
ATOM      5  H   UNL A   1      36.880  21.527  27.022  1.00  0.00     0.163 HD
BRANCH   3   6
ATOM      6  C   UNL A   1      34.907  22.158  24.371  1.00  0.00     0.133 C 
BRANCH   6   7
ATOM      7  C   UNL A   1      33.803  23.222  24.366  1.00  0.00     0.147 C 
ATOM      8  N   UNL A   1      32.705  24.906  22.845  1.00  0.00    -0.320 N 
ATOM      9  C   UNL A   1      31.499  24.096  22.897  1.00  0.00     0.150 C 
ATOM     10  C   UNL A   1      33.879  24.097  23.110  1.00  0.00     0.154 C 
ATOM     11  C   UNL A   1      31.420  23.370  24.238  1.00  0.00     0.182 C 
ATOM     12  O   UNL A   1      32.549  22.497  24.414  1.00  0.00    -0.374 OA
BRANCH   8  13
ATOM     13  C   UNL A   1      32.862  25.771  21.789  1.00  0.00     0.318 C 
ATOM     14  N   UNL A   1      32.837  27.098  22.044  1.00  0.00    -0.330 N 
ATOM     15  H   UNL A   1      33.273  27.638  21.345  1.00  0.00     0.166 HD
ATOM     16  O   UNL A   1      33.173  25.377  20.666  1.00  0.00    -0.249 OA
BRANCH  14  17
ATOM     17  C   UNL A   1      32.297  27.900  23.140  1.00  0.00     0.124 C 
BRANCH  17  18
ATOM     18  C   UNL A   1      33.306  28.960  23.621  1.00  0.00     0.027 C 
ATOM     19  C   UNL A   1      33.890  28.760  25.011  1.00  0.00     0.006 C 
ENDBRANCH  17  18
BRANCH  17  20
ATOM     20  C   UNL A   1      30.852  28.307  22.940  1.00  0.00     0.027 A 
ATOM     21  C   UNL A   1      30.391  29.401  22.221  1.00  0.00     0.017 A 
ATOM     22  S   UNL A   1      29.527  27.384  23.526  1.00  0.00    -0.147 S 
ATOM     23  C   UNL A   1      28.972  29.521  22.230  1.00  0.00     0.012 A 
ATOM     24  C   UNL A   1      28.379  28.491  22.922  1.00  0.00     0.065 A 
ENDBRANCH  17  20
ENDBRANCH  14  17
ENDBRANCH   8  13
ENDBRANCH   6   7
ENDBRANCH   3   6
ENDBRANCH   1   2
BRANCH   1  25
ATOM     25  C   UNL A   1      38.288  23.773  26.300  1.00  0.00     0.042 C 
BRANCH  25  26
ATOM     26  C   UNL A   1      39.660  23.564  26.917  1.00  0.00     0.118 C 
BRANCH  26  27
ATOM     27  N   UNL A   1      40.724  24.058  26.059  1.00  0.00    -0.352 N 
ATOM     28  C   UNL A   1      41.357  25.278  26.065  1.00  0.00     0.251 C 
ATOM     29  H   UNL A   1      41.037  23.426  25.373  1.00  0.00     0.163 HD
ATOM     30  O   UNL A   1      42.060  25.586  25.100  1.00  0.00    -0.269 OA
BRANCH  28  31
ATOM     31  C   UNL A   1      41.205  26.225  27.198  1.00  0.00     0.039 A 
ATOM     32  C   UNL A   1      40.272  25.941  28.201  1.00  0.00     0.014 A 
ATOM     33  C   UNL A   1      41.924  27.422  27.252  1.00  0.00     0.014 A 
ATOM     34  C   UNL A   1      40.096  26.826  29.272  1.00  0.00     0.010 A 
ATOM     35  C   UNL A   1      41.816  28.257  28.362  1.00  0.00     0.010 A 
ATOM     36  C   UNL A   1      40.886  27.983  29.375  1.00  0.00    -0.014 A 
BRANCH  36  37
ATOM     37  C   UNL A   1      40.724  28.952  30.493  1.00  0.00     0.031 A 
ATOM     38  C   UNL A   1      41.588  28.821  31.722  1.00  0.00     0.074 A 
ATOM     39  C   UNL A   1      39.765  29.898  30.443  1.00  0.00     0.049 A 
ATOM     40  N   UNL A   1      41.515  29.462  32.860  1.00  0.00    -0.248 NA
ATOM     41  C   UNL A   1      42.658  27.809  31.674  1.00  0.00     0.031 C 
ATOM     42  C   UNL A   1      38.845  30.117  29.325  1.00  0.00     0.029 A 
ATOM     43  N   UNL A   1      39.393  30.845  31.367  1.00  0.00    -0.354 N 
ATOM     44  C   UNL A   1      42.506  28.914  33.669  1.00  0.00     0.074 A 
ATOM     45  C   UNL A   1      43.134  27.856  32.909  1.00  0.00     0.031 C 
ATOM     46  C   UNL A   1      38.030  31.142  29.620  1.00  0.00     0.029 A 
ATOM     47  C   UNL A   1      38.334  31.625  30.965  1.00  0.00     0.049 A 
ATOM     48  H   UNL A   1      39.844  30.956  32.235  1.00  0.00     0.167 HD
ATOM     49  C   UNL A   1      42.876  29.274  34.921  1.00  0.00     0.037 A 
ATOM     50  C   UNL A   1      37.671  32.604  31.612  1.00  0.00     0.037 A 
ATOM     51  C   UNL A   1      42.277  30.356  35.658  1.00  0.00     0.049 A 
ATOM     52  C   UNL A   1      38.096  32.985  33.006  1.00  0.00     0.074 A 
ATOM     53  C   UNL A   1      42.611  30.830  36.914  1.00  0.00     0.029 A 
ATOM     54  N   UNL A   1      41.226  31.137  35.201  1.00  0.00    -0.354 N 
ATOM     55  N   UNL A   1      39.056  32.478  33.741  1.00  0.00    -0.248 NA
ATOM     56  C   UNL A   1      37.349  34.071  33.658  1.00  0.00     0.031 C 
ATOM     57  C   UNL A   1      41.739  31.876  37.232  1.00  0.00     0.029 A 
ATOM     58  C   UNL A   1      40.892  32.082  36.155  1.00  0.00     0.049 A 
ATOM     59  H   UNL A   1      40.784  31.035  34.327  1.00  0.00     0.167 HD
ATOM     60  C   UNL A   1      39.051  33.205  34.928  1.00  0.00     0.074 A 
ATOM     61  C   UNL A   1      37.993  34.187  34.813  1.00  0.00     0.031 C 
ATOM     62  C   UNL A   1      39.852  33.071  36.014  1.00  0.00     0.037 A 
BRANCH  49  63
ATOM     63  C   UNL A   1      43.985  28.495  35.574  1.00  0.00     0.058 A 
ATOM     64  C   UNL A   1      43.722  27.395  36.407  1.00  0.00     0.135 A 
ATOM     65  C   UNL A   1      45.328  28.831  35.339  1.00  0.00     0.135 A 
ATOM     66  F   UNL A   1      42.456  27.039  36.677  1.00  0.00    -0.206 F 
ATOM     67  C   UNL A   1      44.750  26.677  37.010  1.00  0.00     0.059 A 
ATOM     68  C   UNL A   1      46.373  28.108  35.909  1.00  0.00     0.059 A 
ATOM     69  F   UNL A   1      45.638  29.872  34.550  1.00  0.00    -0.206 F 
ATOM     70  C   UNL A   1      46.072  27.042  36.756  1.00  0.00     0.060 A 
BRANCH  70  71
ATOM     71  S   UNL A   1      47.395  26.101  37.545  1.00  0.00     0.124 S 
ATOM     72  O   UNL A   1      48.492  26.295  36.600  1.00  0.00    -0.237 OA
ATOM     73  O   UNL A   1      47.541  26.783  38.830  1.00  0.00    -0.237 OA
ATOM     74  O   UNL A   1      46.858  24.748  37.615  1.00  0.00    -0.744 OA
ENDBRANCH  70  71
ENDBRANCH  49  63
BRANCH  50  75
ATOM     75  C   UNL A   1      36.543  33.307  30.944  1.00  0.00     0.058 A 
ATOM     76  C   UNL A   1      36.781  34.260  29.941  1.00  0.00     0.135 A 
ATOM     77  C   UNL A   1      35.208  33.038  31.285  1.00  0.00     0.135 A 
ATOM     78  F   UNL A   1      38.040  34.557  29.585  1.00  0.00    -0.206 F 
ATOM     79  C   UNL A   1      35.738  34.935  29.315  1.00  0.00     0.059 A 
ATOM     80  C   UNL A   1      34.148  33.683  30.655  1.00  0.00     0.059 A 
ATOM     81  F   UNL A   1      34.925  32.124  32.226  1.00  0.00    -0.206 F 
ATOM     82  C   UNL A   1      34.424  34.639  29.678  1.00  0.00     0.060 A 
BRANCH  82  83
ATOM     83  S   UNL A   1      33.076  35.491  28.831  1.00  0.00     0.124 S 
ATOM     84  O   UNL A   1      32.445  34.394  28.107  1.00  0.00    -0.237 OA
ATOM     85  O   UNL A   1      32.312  36.044  29.945  1.00  0.00    -0.237 OA
ATOM     86  O   UNL A   1      33.769  36.477  28.007  1.00  0.00    -0.744 OA
ENDBRANCH  82  83
ENDBRANCH  50  75
BRANCH  62  87
ATOM     87  C   UNL A   1      39.661  34.036  37.150  1.00  0.00     0.058 A 
ATOM     88  C   UNL A   1      38.952  33.683  38.307  1.00  0.00     0.135 A 
ATOM     89  C   UNL A   1      40.276  35.299  37.115  1.00  0.00     0.135 A 
ATOM     90  F   UNL A   1      38.339  32.492  38.387  1.00  0.00    -0.206 F 
ATOM     91  C   UNL A   1      38.854  34.551  39.391  1.00  0.00     0.059 A 
ATOM     92  C   UNL A   1      40.212  36.173  38.195  1.00  0.00     0.059 A 
ATOM     93  F   UNL A   1      40.973  35.681  36.032  1.00  0.00    -0.206 F 
ATOM     94  C   UNL A   1      39.495  35.790  39.328  1.00  0.00     0.060 A 
BRANCH  94  95
ATOM     95  S   UNL A   1      39.420  36.877  40.767  1.00  0.00     0.124 S 
ATOM     96  O   UNL A   1      40.822  36.936  41.166  1.00  0.00    -0.237 OA
ATOM     97  O   UNL A   1      38.870  38.106  40.202  1.00  0.00    -0.237 OA
ATOM     98  O   UNL A   1      38.535  36.166  41.686  1.00  0.00    -0.744 OA
ENDBRANCH  94  95
ENDBRANCH  62  87
ENDBRANCH  36  37
ENDBRANCH  28  31
ENDBRANCH  26  27
ENDBRANCH  25  26
ENDBRANCH   1  25
TORSDOF 18
ENDMDL
MODEL 3
REMARK VINA RESULT:     -10.8      2.518      3.367
REMARK SMILES CC[C@H](NC(=O)N1CCO[C@@H](CC(=O)NCCCNC(=O)c2ccc(-c3c4nc(c(-c5c(F)cc(S(=O)(=O)[O-])cc5F)c5ccc([nH]5)c(-c5c(F)cc(S(=O)(=O)[O-])cc5F)c5nc(c(-c6c(F)cc(S(=O)(=O)[O-])cc6F)c6ccc3[nH]6)C=C5)C=C4)cc2)C1)c1cccs1
REMARK SMILES IDX 16 1 15 2 13 3 14 4 12 6 11 7 7 8 8 9 88 10 9 11 10 12 5 13
REMARK SMILES IDX 4 14 6 16 3 17 2 18 1 19 89 20 90 21 93 22 91 23 92 24 17 25
REMARK SMILES IDX 18 26 19 27 20 28 21 30 22 31 23 32 87 33 24 34 86 35 25 36
REMARK SMILES IDX 26 37 27 38 80 39 28 40 85 41 79 42 81 43 29 44 84 45 78 46
REMARK SMILES IDX 77 47 30 49 64 50 43 51 63 52 44 53 47 54 62 55 82 56 45 57
REMARK SMILES IDX 46 58 61 60 83 61 48 62 31 63 32 64 41 65 33 66 34 67 40 68
REMARK SMILES IDX 42 69 35 70 36 71 37 72 38 73 39 74 65 75 66 76 75 77 67 78
REMARK SMILES IDX 68 79 74 80 76 81 69 82 70 83 71 84 72 85 73 86 49 87 50 88
REMARK SMILES IDX 59 89 51 90 52 91 58 92 60 93 53 94 54 95 55 96 56 97 57 98
REMARK H PARENT 15 5 4 15 19 29 81 48 47 59
REMARK Flexibility Score: inf
ROOT
ATOM      1  C   UNL A   1      33.379  30.075  26.742  1.00  0.00     0.117 C 
ENDROOT
BRANCH   1   2
ATOM      2  N   UNL A   1      33.594  29.693  25.349  1.00  0.00    -0.356 N 
ATOM      3  C   UNL A   1      33.085  28.656  24.618  1.00  0.00     0.222 C 
ATOM      4  O   UNL A   1      33.514  28.476  23.477  1.00  0.00    -0.275 OA
ATOM      5  H   UNL A   1      34.208  30.282  24.852  1.00  0.00     0.163 HD
BRANCH   3   6
ATOM      6  C   UNL A   1      32.026  27.745  25.198  1.00  0.00     0.133 C 
BRANCH   6   7
ATOM      7  C   UNL A   1      32.159  26.273  24.784  1.00  0.00     0.147 C 
ATOM      8  N   UNL A   1      31.521  23.955  25.539  1.00  0.00    -0.320 N 
ATOM      9  C   UNL A   1      30.630  23.878  24.392  1.00  0.00     0.150 C 
ATOM     10  C   UNL A   1      31.746  25.335  25.923  1.00  0.00     0.154 C 
ATOM     11  C   UNL A   1      31.185  24.722  23.247  1.00  0.00     0.182 C 
ATOM     12  O   UNL A   1      31.293  26.102  23.635  1.00  0.00    -0.374 OA
BRANCH   8  13
ATOM     13  C   UNL A   1      31.282  23.122  26.605  1.00  0.00     0.318 C 
ATOM     14  N   UNL A   1      32.130  22.088  26.808  1.00  0.00    -0.330 N 
ATOM     15  H   UNL A   1      32.114  21.747  27.731  1.00  0.00     0.166 HD
ATOM     16  O   UNL A   1      30.426  23.376  27.451  1.00  0.00    -0.249 OA
BRANCH  14  17
ATOM     17  C   UNL A   1      33.066  21.373  25.943  1.00  0.00     0.124 C 
BRANCH  17  18
ATOM     18  C   UNL A   1      32.360  20.775  24.711  1.00  0.00     0.027 C 
ATOM     19  C   UNL A   1      32.716  19.342  24.353  1.00  0.00     0.006 C 
ENDBRANCH  17  18
BRANCH  17  20
ATOM     20  C   UNL A   1      34.386  22.090  25.750  1.00  0.00     0.027 A 
ATOM     21  C   UNL A   1      34.867  23.154  26.500  1.00  0.00     0.017 A 
ATOM     22  S   UNL A   1      35.555  21.610  24.588  1.00  0.00    -0.147 S 
ATOM     23  C   UNL A   1      36.140  23.619  26.063  1.00  0.00     0.012 A 
ATOM     24  C   UNL A   1      36.621  22.872  25.014  1.00  0.00     0.065 A 
ENDBRANCH  17  20
ENDBRANCH  14  17
ENDBRANCH   8  13
ENDBRANCH   6   7
ENDBRANCH   3   6
ENDBRANCH   1   2
BRANCH   1  25
ATOM     25  C   UNL A   1      34.577  29.706  27.619  1.00  0.00     0.042 C 
BRANCH  25  26
ATOM     26  C   UNL A   1      35.427  30.889  28.050  1.00  0.00     0.118 C 
BRANCH  26  27
ATOM     27  N   UNL A   1      35.388  31.092  29.488  1.00  0.00    -0.352 N 
ATOM     28  C   UNL A   1      36.313  30.751  30.445  1.00  0.00     0.251 C 
ATOM     29  H   UNL A   1      34.579  31.539  29.826  1.00  0.00     0.163 HD
ATOM     30  O   UNL A   1      35.982  30.790  31.631  1.00  0.00    -0.269 OA
BRANCH  28  31
ATOM     31  C   UNL A   1      37.690  30.334  30.079  1.00  0.00     0.039 A 
ATOM     32  C   UNL A   1      38.074  30.363  28.733  1.00  0.00     0.014 A 
ATOM     33  C   UNL A   1      38.588  29.854  31.036  1.00  0.00     0.014 A 
ATOM     34  C   UNL A   1      39.362  29.959  28.359  1.00  0.00     0.010 A 
ATOM     35  C   UNL A   1      39.897  29.539  30.676  1.00  0.00     0.010 A 
ATOM     36  C   UNL A   1      40.294  29.566  29.331  1.00  0.00    -0.014 A 
BRANCH  36  37
ATOM     37  C   UNL A   1      41.669  29.121  28.972  1.00  0.00     0.031 A 
ATOM     38  C   UNL A   1      42.795  30.124  28.959  1.00  0.00     0.074 A 
ATOM     39  C   UNL A   1      41.898  27.849  28.593  1.00  0.00     0.049 A 
ATOM     40  N   UNL A   1      44.027  29.984  28.541  1.00  0.00    -0.248 NA
ATOM     41  C   UNL A   1      42.482  31.477  29.452  1.00  0.00     0.031 C 
ATOM     42  C   UNL A   1      40.893  26.785  28.538  1.00  0.00     0.029 A 
ATOM     43  N   UNL A   1      43.051  27.236  28.165  1.00  0.00    -0.354 N 
ATOM     44  C   UNL A   1      44.624  31.231  28.694  1.00  0.00     0.074 A 
ATOM     45  C   UNL A   1      43.607  32.128  29.197  1.00  0.00     0.031 C 
ATOM     46  C   UNL A   1      41.476  25.650  28.119  1.00  0.00     0.029 A 
ATOM     47  C   UNL A   1      42.884  25.913  27.830  1.00  0.00     0.049 A 
ATOM     48  H   UNL A   1      43.917  27.701  28.103  1.00  0.00     0.167 HD
ATOM     49  C   UNL A   1      45.909  31.593  28.461  1.00  0.00     0.037 A 
ATOM     50  C   UNL A   1      43.759  25.017  27.330  1.00  0.00     0.037 A 
ATOM     51  C   UNL A   1      46.928  30.687  28.001  1.00  0.00     0.049 A 
ATOM     52  C   UNL A   1      45.182  25.441  27.074  1.00  0.00     0.074 A 
ATOM     53  C   UNL A   1      48.270  30.943  27.778  1.00  0.00     0.029 A 
ATOM     54  N   UNL A   1      46.722  29.348  27.702  1.00  0.00    -0.354 N 
ATOM     55  N   UNL A   1      45.736  26.616  27.256  1.00  0.00    -0.248 NA
ATOM     56  C   UNL A   1      46.098  24.420  26.544  1.00  0.00     0.031 C 
ATOM     57  C   UNL A   1      48.867  29.768  27.311  1.00  0.00     0.029 A 
ATOM     58  C   UNL A   1      47.907  28.769  27.286  1.00  0.00     0.049 A 
ATOM     59  H   UNL A   1      45.858  28.879  27.776  1.00  0.00     0.167 HD
ATOM     60  C   UNL A   1      47.072  26.465  26.896  1.00  0.00     0.074 A 
ATOM     61  C   UNL A   1      47.243  25.088  26.487  1.00  0.00     0.031 C 
ATOM     62  C   UNL A   1      48.067  27.387  26.907  1.00  0.00     0.037 A 
BRANCH  49  63
ATOM     63  C   UNL A   1      46.287  33.028  28.704  1.00  0.00     0.058 A 
ATOM     64  C   UNL A   1      46.195  33.997  27.691  1.00  0.00     0.135 A 
ATOM     65  C   UNL A   1      46.716  33.449  29.973  1.00  0.00     0.135 A 
ATOM     66  F   UNL A   1      45.805  33.647  26.455  1.00  0.00    -0.206 F 
ATOM     67  C   UNL A   1      46.546  35.323  27.919  1.00  0.00     0.059 A 
ATOM     68  C   UNL A   1      47.044  34.777  30.231  1.00  0.00     0.059 A 
ATOM     69  F   UNL A   1      46.821  32.567  30.980  1.00  0.00    -0.206 F 
ATOM     70  C   UNL A   1      46.971  35.704  29.192  1.00  0.00     0.060 A 
BRANCH  70  71
ATOM     71  S   UNL A   1      47.423  37.429  29.472  1.00  0.00     0.124 S 
ATOM     72  O   UNL A   1      46.428  38.124  28.660  1.00  0.00    -0.237 OA
ATOM     73  O   UNL A   1      47.263  37.562  30.919  1.00  0.00    -0.237 OA
ATOM     74  O   UNL A   1      48.795  37.506  28.988  1.00  0.00    -0.744 OA
ENDBRANCH  70  71
ENDBRANCH  49  63
BRANCH  50  75
ATOM     75  C   UNL A   1      43.321  23.622  27.054  1.00  0.00     0.058 A 
ATOM     76  C   UNL A   1      43.072  23.193  25.741  1.00  0.00     0.135 A 
ATOM     77  C   UNL A   1      43.149  22.691  28.089  1.00  0.00     0.135 A 
ATOM     78  F   UNL A   1      43.215  24.048  24.718  1.00  0.00    -0.206 F 
ATOM     79  C   UNL A   1      42.651  21.896  25.466  1.00  0.00     0.059 A 
ATOM     80  C   UNL A   1      42.752  21.381  27.837  1.00  0.00     0.059 A 
ATOM     81  F   UNL A   1      43.389  23.046  29.361  1.00  0.00    -0.206 F 
ATOM     82  C   UNL A   1      42.494  20.996  26.521  1.00  0.00     0.060 A 
BRANCH  82  83
ATOM     83  S   UNL A   1      41.986  19.303  26.151  1.00  0.00     0.124 S 
ATOM     84  O   UNL A   1      42.775  19.014  24.959  1.00  0.00    -0.237 OA
ATOM     85  O   UNL A   1      42.376  18.592  27.364  1.00  0.00    -0.237 OA
ATOM     86  O   UNL A   1      40.546  19.425  25.941  1.00  0.00    -0.744 OA
ENDBRANCH  82  83
ENDBRANCH  50  75
BRANCH  62  87
ATOM     87  C   UNL A   1      49.445  26.935  26.515  1.00  0.00     0.058 A 
ATOM     88  C   UNL A   1      50.357  26.445  27.460  1.00  0.00     0.135 A 
ATOM     89  C   UNL A   1      49.822  26.909  25.162  1.00  0.00     0.135 A 
ATOM     90  F   UNL A   1      50.049  26.455  28.766  1.00  0.00    -0.206 F 
ATOM     91  C   UNL A   1      51.600  25.946  27.078  1.00  0.00     0.059 A 
ATOM     92  C   UNL A   1      51.048  26.394  24.754  1.00  0.00     0.059 A 
ATOM     93  F   UNL A   1      48.980  27.361  24.217  1.00  0.00    -0.206 F 
ATOM     94  C   UNL A   1      51.932  25.917  25.722  1.00  0.00     0.060 A 
BRANCH  94  95
ATOM     95  S   UNL A   1      53.517  25.204  25.234  1.00  0.00     0.124 S 
ATOM     96  O   UNL A   1      54.404  25.721  26.270  1.00  0.00    -0.237 OA
ATOM     97  O   UNL A   1      53.245  23.771  25.289  1.00  0.00    -0.237 OA
ATOM     98  O   UNL A   1      53.736  25.743  23.895  1.00  0.00    -0.744 OA
ENDBRANCH  94  95
ENDBRANCH  62  87
ENDBRANCH  36  37
ENDBRANCH  28  31
ENDBRANCH  26  27
ENDBRANCH  25  26
ENDBRANCH   1  25
TORSDOF 18
ENDMDL
