MODEL 1
REMARK VINA RESULT:     -14.3      0.000      0.000
REMARK SMILES Cc1ccc(Nc2c(Cl)cc(Cl)cc2Cl)c(CC(=O)NCCCNC(=O)c2ccc(-c3c4nc(c(-c5c(F)cc(S(=O)(=O)[O-])cc5F)c5ccc([nH]5)c(-c5c(F)cc(S(=O)(=O)[O-])cc5F)c5nc(c(-c6c(F)cc(S(=O)(=O)[O-])cc6F)c6ccc3[nH]6)C=C5)C=C4)cc2)c1
REMARK SMILES IDX 22 1 21 2 20 3 18 4 19 5 17 7 16 8 1 9 2 10 3 11 93 12 4 13
REMARK SMILES IDX 5 14 6 15 7 17 8 18 14 19 9 20 10 21 13 22 15 23 11 24 12 25
REMARK SMILES IDX 23 26 24 27 25 28 26 30 27 31 28 32 92 33 29 34 91 35 30 36
REMARK SMILES IDX 31 37 32 38 85 39 33 40 90 41 84 42 86 43 34 44 89 45 83 46
REMARK SMILES IDX 82 47 35 49 69 50 48 51 68 52 49 53 52 54 67 55 87 56 50 57
REMARK SMILES IDX 51 58 66 60 88 61 53 62 36 63 37 64 46 65 38 66 39 67 45 68
REMARK SMILES IDX 47 69 40 70 41 71 42 72 43 73 44 74 70 75 71 76 80 77 72 78
REMARK SMILES IDX 73 79 79 80 81 81 74 82 75 83 76 84 77 85 78 86 54 87 55 88
REMARK SMILES IDX 64 89 56 90 57 91 63 92 65 93 58 94 59 95 60 96 61 97 62 98
REMARK H PARENT 20 6 6 16 24 29 86 48 52 59
REMARK Flexibility Score: inf
ROOT
ATOM      1  C   UNL A   1      32.988  29.845  27.324  1.00  0.00     0.042 C 
ENDROOT
BRANCH   1   2
ATOM      2  C   UNL A   1      32.204  29.161  26.208  1.00  0.00     0.117 C 
BRANCH   2   3
ATOM      3  N   UNL A   1      31.679  27.861  26.603  1.00  0.00    -0.356 N 
ATOM      4  C   UNL A   1      32.228  26.623  26.441  1.00  0.00     0.224 C 
ATOM      5  O   UNL A   1      31.580  25.628  26.779  1.00  0.00    -0.275 OA
ATOM      6  H   UNL A   1      30.802  27.878  27.051  1.00  0.00     0.163 HD
BRANCH   4   7
ATOM      7  C   UNL A   1      33.605  26.450  25.821  1.00  0.00     0.137 C 
BRANCH   7   8
ATOM      8  C   UNL A   1      33.799  25.101  25.163  1.00  0.00    -0.015 A 
ATOM      9  C   UNL A   1      35.088  21.688  26.314  1.00  0.00     0.044 C 
ATOM     10  C   UNL A   1      34.544  22.784  25.448  1.00  0.00    -0.051 A 
ATOM     11  C   UNL A   1      34.425  22.595  24.074  1.00  0.00     0.005 A 
ATOM     12  C   UNL A   1      34.199  24.026  25.987  1.00  0.00     0.009 A 
ATOM     13  C   UNL A   1      33.976  23.634  23.254  1.00  0.00     0.026 A 
ATOM     14  C   UNL A   1      33.664  24.904  23.769  1.00  0.00     0.042 A 
BRANCH  14  15
ATOM     15  N   UNL A   1      33.194  25.937  22.924  1.00  0.00    -0.353 N 
ATOM     16  H   UNL A   1      33.774  26.156  22.159  1.00  0.00     0.167 HD
BRANCH  15  17
ATOM     17  C   UNL A   1      32.004  26.700  23.025  1.00  0.00     0.076 A 
ATOM     18  C   UNL A   1      30.734  26.120  23.223  1.00  0.00     0.067 A 
ATOM     19  C   UNL A   1      32.055  28.100  22.831  1.00  0.00     0.067 A 
ATOM     20  Cl  UNL A   1      30.534  24.435  23.577  1.00  0.00    -0.082 Cl
ATOM     21  C   UNL A   1      29.571  26.898  23.201  1.00  0.00     0.043 A 
ATOM     22  C   UNL A   1      30.896  28.880  22.818  1.00  0.00     0.043 A 
ATOM     23  Cl  UNL A   1      33.564  28.905  22.564  1.00  0.00    -0.082 Cl
ATOM     24  C   UNL A   1      29.660  28.271  22.993  1.00  0.00     0.044 A 
ATOM     25  Cl  UNL A   1      28.223  29.217  22.955  1.00  0.00    -0.084 Cl
ENDBRANCH  15  17
ENDBRANCH  14  15
ENDBRANCH   7   8
ENDBRANCH   4   7
ENDBRANCH   2   3
ENDBRANCH   1   2
BRANCH   1  26
ATOM     26  C   UNL A   1      34.496  29.812  27.126  1.00  0.00     0.118 C 
BRANCH  26  27
ATOM     27  N   UNL A   1      35.146  31.016  27.636  1.00  0.00    -0.352 N 
ATOM     28  C   UNL A   1      36.349  31.113  28.316  1.00  0.00     0.251 C 
ATOM     29  H   UNL A   1      34.671  31.863  27.476  1.00  0.00     0.163 HD
ATOM     30  O   UNL A   1      36.731  32.142  28.835  1.00  0.00    -0.269 OA
BRANCH  28  31
ATOM     31  C   UNL A   1      37.208  29.915  28.282  1.00  0.00     0.039 A 
ATOM     32  C   UNL A   1      37.308  29.176  29.466  1.00  0.00     0.014 A 
ATOM     33  C   UNL A   1      38.114  29.750  27.238  1.00  0.00     0.014 A 
ATOM     34  C   UNL A   1      38.438  28.396  29.685  1.00  0.00     0.010 A 
ATOM     35  C   UNL A   1      39.271  29.042  27.492  1.00  0.00     0.010 A 
ATOM     36  C   UNL A   1      39.457  28.412  28.735  1.00  0.00    -0.014 A 
BRANCH  36  37
ATOM     37  C   UNL A   1      40.786  27.858  28.969  1.00  0.00     0.031 A 
ATOM     38  C   UNL A   1      41.072  26.456  28.600  1.00  0.00     0.074 A 
ATOM     39  C   UNL A   1      41.783  28.658  29.405  1.00  0.00     0.049 A 
ATOM     40  N   UNL A   1      42.133  25.805  28.935  1.00  0.00    -0.248 NA
ATOM     41  C   UNL A   1      40.120  25.652  27.849  1.00  0.00     0.031 C 
ATOM     42  C   UNL A   1      43.217  28.392  29.351  1.00  0.00     0.029 A 
ATOM     43  N   UNL A   1      41.670  29.798  30.207  1.00  0.00    -0.354 N 
ATOM     44  C   UNL A   1      42.144  24.618  28.234  1.00  0.00     0.074 A 
ATOM     45  C   UNL A   1      40.834  24.545  27.632  1.00  0.00     0.031 C 
ATOM     46  C   UNL A   1      43.830  29.140  30.279  1.00  0.00     0.029 A 
ATOM     47  C   UNL A   1      42.795  29.789  31.063  1.00  0.00     0.049 A 
ATOM     48  H   UNL A   1      40.951  30.470  30.181  1.00  0.00     0.167 HD
ATOM     49  C   UNL A   1      43.309  23.906  28.160  1.00  0.00     0.037 A 
ATOM     50  C   UNL A   1      42.633  29.648  32.413  1.00  0.00     0.037 A 
ATOM     51  C   UNL A   1      44.308  24.436  29.094  1.00  0.00     0.049 A 
ATOM     52  C   UNL A   1      43.226  28.378  32.994  1.00  0.00     0.074 A 
ATOM     53  C   UNL A   1      45.422  25.256  28.989  1.00  0.00     0.029 A 
ATOM     54  N   UNL A   1      44.043  24.341  30.449  1.00  0.00    -0.354 N 
ATOM     55  N   UNL A   1      43.849  27.466  32.299  1.00  0.00    -0.248 NA
ATOM     56  C   UNL A   1      43.103  28.003  34.405  1.00  0.00     0.031 C 
ATOM     57  C   UNL A   1      45.782  25.691  30.301  1.00  0.00     0.029 A 
ATOM     58  C   UNL A   1      44.893  25.129  31.199  1.00  0.00     0.049 A 
ATOM     59  H   UNL A   1      43.332  23.777  30.833  1.00  0.00     0.167 HD
ATOM     60  C   UNL A   1      44.128  26.391  33.100  1.00  0.00     0.074 A 
ATOM     61  C   UNL A   1      43.671  26.785  34.419  1.00  0.00     0.031 C 
ATOM     62  C   UNL A   1      44.665  25.228  32.632  1.00  0.00     0.037 A 
BRANCH  49  63
ATOM     63  C   UNL A   1      43.619  22.877  27.085  1.00  0.00     0.058 A 
ATOM     64  C   UNL A   1      42.888  21.669  27.018  1.00  0.00     0.135 A 
ATOM     65  C   UNL A   1      44.665  22.968  26.144  1.00  0.00     0.135 A 
ATOM     66  F   UNL A   1      41.801  21.465  27.773  1.00  0.00    -0.206 F 
ATOM     67  C   UNL A   1      43.241  20.606  26.179  1.00  0.00     0.059 A 
ATOM     68  C   UNL A   1      45.074  21.902  25.338  1.00  0.00     0.059 A 
ATOM     69  F   UNL A   1      45.305  24.116  25.907  1.00  0.00    -0.206 F 
ATOM     70  C   UNL A   1      44.363  20.716  25.370  1.00  0.00     0.060 A 
BRANCH  70  71
ATOM     71  S   UNL A   1      44.867  19.311  24.361  1.00  0.00     0.124 S 
ATOM     72  O   UNL A   1      46.316  19.306  24.544  1.00  0.00    -0.237 OA
ATOM     73  O   UNL A   1      44.141  18.211  24.985  1.00  0.00    -0.237 OA
ATOM     74  O   UNL A   1      44.416  19.676  23.020  1.00  0.00    -0.744 OA
ENDBRANCH  70  71
ENDBRANCH  49  63
BRANCH  50  75
ATOM     75  C   UNL A   1      41.425  30.364  32.911  1.00  0.00     0.058 A 
ATOM     76  C   UNL A   1      40.269  29.594  33.155  1.00  0.00     0.135 A 
ATOM     77  C   UNL A   1      41.519  31.608  33.547  1.00  0.00     0.135 A 
ATOM     78  F   UNL A   1      40.121  28.399  32.559  1.00  0.00    -0.206 F 
ATOM     79  C   UNL A   1      39.338  29.956  34.120  1.00  0.00     0.059 A 
ATOM     80  C   UNL A   1      40.586  32.000  34.510  1.00  0.00     0.059 A 
ATOM     81  F   UNL A   1      42.593  32.389  33.351  1.00  0.00    -0.206 F 
ATOM     82  C   UNL A   1      39.544  31.131  34.839  1.00  0.00     0.060 A 
BRANCH  82  83
ATOM     83  S   UNL A   1      38.541  31.392  36.322  1.00  0.00     0.124 S 
ATOM     84  O   UNL A   1      38.214  30.024  36.709  1.00  0.00    -0.237 OA
ATOM     85  O   UNL A   1      39.480  32.086  37.202  1.00  0.00    -0.237 OA
ATOM     86  O   UNL A   1      37.425  32.195  35.836  1.00  0.00    -0.744 OA
ENDBRANCH  82  83
ENDBRANCH  50  75
BRANCH  62  87
ATOM     87  C   UNL A   1      44.998  24.068  33.522  1.00  0.00     0.058 A 
ATOM     88  C   UNL A   1      46.303  23.851  33.994  1.00  0.00     0.135 A 
ATOM     89  C   UNL A   1      44.050  23.067  33.811  1.00  0.00     0.135 A 
ATOM     90  F   UNL A   1      47.276  24.742  33.744  1.00  0.00    -0.206 F 
ATOM     91  C   UNL A   1      46.644  22.711  34.721  1.00  0.00     0.059 A 
ATOM     92  C   UNL A   1      44.376  21.902  34.495  1.00  0.00     0.059 A 
ATOM     93  F   UNL A   1      42.764  23.209  33.452  1.00  0.00    -0.206 F 
ATOM     94  C   UNL A   1      45.675  21.738  34.961  1.00  0.00     0.060 A 
BRANCH  94  95
ATOM     95  S   UNL A   1      46.120  20.237  35.858  1.00  0.00     0.124 S 
ATOM     96  O   UNL A   1      45.313  19.215  35.197  1.00  0.00    -0.237 OA
ATOM     97  O   UNL A   1      47.555  20.165  35.609  1.00  0.00    -0.237 OA
ATOM     98  O   UNL A   1      45.730  20.540  37.231  1.00  0.00    -0.744 OA
ENDBRANCH  94  95
ENDBRANCH  62  87
ENDBRANCH  36  37
ENDBRANCH  28  31
ENDBRANCH  26  27
ENDBRANCH   1  26
TORSDOF 16
ENDMDL
MODEL 2
REMARK VINA RESULT:     -14.1      1.538      3.020
REMARK SMILES Cc1ccc(Nc2c(Cl)cc(Cl)cc2Cl)c(CC(=O)NCCCNC(=O)c2ccc(-c3c4nc(c(-c5c(F)cc(S(=O)(=O)[O-])cc5F)c5ccc([nH]5)c(-c5c(F)cc(S(=O)(=O)[O-])cc5F)c5nc(c(-c6c(F)cc(S(=O)(=O)[O-])cc6F)c6ccc3[nH]6)C=C5)C=C4)cc2)c1
REMARK SMILES IDX 22 1 21 2 20 3 18 4 19 5 17 7 16 8 1 9 2 10 3 11 93 12 4 13
REMARK SMILES IDX 5 14 6 15 7 17 8 18 14 19 9 20 10 21 13 22 15 23 11 24 12 25
REMARK SMILES IDX 23 26 24 27 25 28 26 30 27 31 28 32 92 33 29 34 91 35 30 36
REMARK SMILES IDX 31 37 32 38 85 39 33 40 90 41 84 42 86 43 34 44 89 45 83 46
REMARK SMILES IDX 82 47 35 49 69 50 48 51 68 52 49 53 52 54 67 55 87 56 50 57
REMARK SMILES IDX 51 58 66 60 88 61 53 62 36 63 37 64 46 65 38 66 39 67 45 68
REMARK SMILES IDX 47 69 40 70 41 71 42 72 43 73 44 74 70 75 71 76 80 77 72 78
REMARK SMILES IDX 73 79 79 80 81 81 74 82 75 83 76 84 77 85 78 86 54 87 55 88
REMARK SMILES IDX 64 89 56 90 57 91 63 92 65 93 58 94 59 95 60 96 61 97 62 98
REMARK H PARENT 20 6 6 16 24 29 86 48 52 59
REMARK Flexibility Score: inf
ROOT
ATOM      1  C   UNL A   1      33.644  29.683  26.167  1.00  0.00     0.042 C 
ENDROOT
BRANCH   1   2
ATOM      2  C   UNL A   1      33.833  28.444  25.297  1.00  0.00     0.117 C 
BRANCH   2   3
ATOM      3  N   UNL A   1      34.022  28.768  23.889  1.00  0.00    -0.356 N 
ATOM      4  C   UNL A   1      33.958  27.950  22.800  1.00  0.00     0.224 C 
ATOM      5  O   UNL A   1      34.230  28.409  21.686  1.00  0.00    -0.275 OA
ATOM      6  H   UNL A   1      34.225  29.712  23.697  1.00  0.00     0.163 HD
BRANCH   4   7
ATOM      7  C   UNL A   1      33.593  26.482  22.940  1.00  0.00     0.137 C 
BRANCH   7   8
ATOM      8  C   UNL A   1      32.177  26.262  23.429  1.00  0.00    -0.015 A 
ATOM      9  C   UNL A   1      28.865  28.139  23.060  1.00  0.00     0.044 C 
ATOM     10  C   UNL A   1      29.880  27.116  23.468  1.00  0.00    -0.051 A 
ATOM     11  C   UNL A   1      29.554  26.143  24.409  1.00  0.00     0.005 A 
ATOM     12  C   UNL A   1      31.182  27.148  22.961  1.00  0.00     0.009 A 
ATOM     13  C   UNL A   1      30.515  25.225  24.838  1.00  0.00     0.026 A 
ATOM     14  C   UNL A   1      31.841  25.265  24.374  1.00  0.00     0.042 A 
BRANCH  14  15
ATOM     15  N   UNL A   1      32.794  24.314  24.809  1.00  0.00    -0.353 N 
ATOM     16  H   UNL A   1      33.581  24.683  25.272  1.00  0.00     0.167 HD
BRANCH  15  17
ATOM     17  C   UNL A   1      32.775  22.904  24.669  1.00  0.00     0.076 A 
ATOM     18  C   UNL A   1      32.804  22.256  23.416  1.00  0.00     0.067 A 
ATOM     19  C   UNL A   1      32.626  22.091  25.816  1.00  0.00     0.067 A 
ATOM     20  Cl  UNL A   1      33.087  23.116  21.938  1.00  0.00    -0.082 Cl
ATOM     21  C   UNL A   1      32.665  20.867  23.317  1.00  0.00     0.043 A 
ATOM     22  C   UNL A   1      32.496  20.703  25.720  1.00  0.00     0.043 A 
ATOM     23  Cl  UNL A   1      32.561  22.792  27.398  1.00  0.00    -0.082 Cl
ATOM     24  C   UNL A   1      32.507  20.102  24.468  1.00  0.00     0.044 A 
ATOM     25  Cl  UNL A   1      32.324  18.396  24.333  1.00  0.00    -0.084 Cl
ENDBRANCH  15  17
ENDBRANCH  14  15
ENDBRANCH   7   8
ENDBRANCH   4   7
ENDBRANCH   2   3
ENDBRANCH   1   2
BRANCH   1  26
ATOM     26  C   UNL A   1      34.368  29.614  27.504  1.00  0.00     0.118 C 
BRANCH  26  27
ATOM     27  N   UNL A   1      35.051  30.862  27.827  1.00  0.00    -0.352 N 
ATOM     28  C   UNL A   1      36.327  31.029  28.339  1.00  0.00     0.251 C 
ATOM     29  H   UNL A   1      34.542  31.689  27.662  1.00  0.00     0.163 HD
ATOM     30  O   UNL A   1      36.750  32.102  28.720  1.00  0.00    -0.269 OA
BRANCH  28  31
ATOM     31  C   UNL A   1      37.200  29.841  28.293  1.00  0.00     0.039 A 
ATOM     32  C   UNL A   1      37.300  29.085  29.466  1.00  0.00     0.014 A 
ATOM     33  C   UNL A   1      38.115  29.703  27.254  1.00  0.00     0.014 A 
ATOM     34  C   UNL A   1      38.438  28.315  29.682  1.00  0.00     0.010 A 
ATOM     35  C   UNL A   1      39.279  29.003  27.505  1.00  0.00     0.010 A 
ATOM     36  C   UNL A   1      39.464  28.357  28.740  1.00  0.00    -0.014 A 
BRANCH  36  37
ATOM     37  C   UNL A   1      40.797  27.815  28.974  1.00  0.00     0.031 A 
ATOM     38  C   UNL A   1      41.096  26.416  28.605  1.00  0.00     0.074 A 
ATOM     39  C   UNL A   1      41.786  28.623  29.413  1.00  0.00     0.049 A 
ATOM     40  N   UNL A   1      42.163  25.774  28.940  1.00  0.00    -0.248 NA
ATOM     41  C   UNL A   1      40.153  25.604  27.851  1.00  0.00     0.031 C 
ATOM     42  C   UNL A   1      43.222  28.371  29.361  1.00  0.00     0.029 A 
ATOM     43  N   UNL A   1      41.662  29.761  30.217  1.00  0.00    -0.354 N 
ATOM     44  C   UNL A   1      42.185  24.588  28.238  1.00  0.00     0.074 A 
ATOM     45  C   UNL A   1      40.877  24.504  27.634  1.00  0.00     0.031 C 
ATOM     46  C   UNL A   1      43.828  29.123  30.291  1.00  0.00     0.029 A 
ATOM     47  C   UNL A   1      42.785  29.762  31.074  1.00  0.00     0.049 A 
ATOM     48  H   UNL A   1      40.937  30.427  30.190  1.00  0.00     0.167 HD
ATOM     49  C   UNL A   1      43.357  23.887  28.165  1.00  0.00     0.037 A 
ATOM     50  C   UNL A   1      42.623  29.617  32.424  1.00  0.00     0.037 A 
ATOM     51  C   UNL A   1      44.350  24.425  29.101  1.00  0.00     0.049 A 
ATOM     52  C   UNL A   1      43.226  28.352  33.004  1.00  0.00     0.074 A 
ATOM     53  C   UNL A   1      45.456  25.255  28.998  1.00  0.00     0.029 A 
ATOM     54  N   UNL A   1      44.084  24.325  30.455  1.00  0.00    -0.354 N 
ATOM     55  N   UNL A   1      43.858  27.446  32.308  1.00  0.00    -0.248 NA
ATOM     56  C   UNL A   1      43.105  27.974  34.415  1.00  0.00     0.031 C 
ATOM     57  C   UNL A   1      45.810  25.691  30.311  1.00  0.00     0.029 A 
ATOM     58  C   UNL A   1      44.925  25.120  31.207  1.00  0.00     0.049 A 
ATOM     59  H   UNL A   1      43.377  23.755  30.837  1.00  0.00     0.167 HD
ATOM     60  C   UNL A   1      44.146  26.373  33.109  1.00  0.00     0.074 A 
ATOM     61  C   UNL A   1      43.684  26.761  34.428  1.00  0.00     0.031 C 
ATOM     62  C   UNL A   1      44.695  25.215  32.640  1.00  0.00     0.037 A 
BRANCH  49  63
ATOM     63  C   UNL A   1      43.678  22.862  27.088  1.00  0.00     0.058 A 
ATOM     64  C   UNL A   1      42.934  21.663  26.997  1.00  0.00     0.135 A 
ATOM     65  C   UNL A   1      44.745  22.947  26.171  1.00  0.00     0.135 A 
ATOM     66  F   UNL A   1      41.829  21.467  27.727  1.00  0.00    -0.206 F 
ATOM     67  C   UNL A   1      43.293  20.602  26.157  1.00  0.00     0.059 A 
ATOM     68  C   UNL A   1      45.158  21.882  25.365  1.00  0.00     0.059 A 
ATOM     69  F   UNL A   1      45.403  24.089  25.956  1.00  0.00    -0.206 F 
ATOM     70  C   UNL A   1      44.433  20.705  25.374  1.00  0.00     0.060 A 
BRANCH  70  71
ATOM     71  S   UNL A   1      44.941  19.302  24.365  1.00  0.00     0.124 S 
ATOM     72  O   UNL A   1      44.494  19.704  23.034  1.00  0.00    -0.237 OA
ATOM     73  O   UNL A   1      46.385  19.284  24.573  1.00  0.00    -0.237 OA
ATOM     74  O   UNL A   1      44.212  18.180  24.948  1.00  0.00    -0.744 OA
ENDBRANCH  70  71
ENDBRANCH  49  63
BRANCH  50  75
ATOM     75  C   UNL A   1      41.407  30.322  32.921  1.00  0.00     0.058 A 
ATOM     76  C   UNL A   1      40.277  29.533  33.219  1.00  0.00     0.135 A 
ATOM     77  C   UNL A   1      41.483  31.591  33.508  1.00  0.00     0.135 A 
ATOM     78  F   UNL A   1      40.146  28.313  32.672  1.00  0.00    -0.206 F 
ATOM     79  C   UNL A   1      39.357  29.909  34.190  1.00  0.00     0.059 A 
ATOM     80  C   UNL A   1      40.561  31.996  34.475  1.00  0.00     0.059 A 
ATOM     81  F   UNL A   1      42.532  32.390  33.259  1.00  0.00    -0.206 F 
ATOM     82  C   UNL A   1      39.548  31.115  34.859  1.00  0.00     0.060 A 
BRANCH  82  83
ATOM     83  S   UNL A   1      38.570  31.407  36.354  1.00  0.00     0.124 S 
ATOM     84  O   UNL A   1      39.550  32.024  37.240  1.00  0.00    -0.237 OA
ATOM     85  O   UNL A   1      37.522  32.298  35.858  1.00  0.00    -0.237 OA
ATOM     86  O   UNL A   1      38.130  30.070  36.733  1.00  0.00    -0.744 OA
ENDBRANCH  82  83
ENDBRANCH  50  75
BRANCH  62  87
ATOM     87  C   UNL A   1      45.037  24.058  33.529  1.00  0.00     0.058 A 
ATOM     88  C   UNL A   1      46.363  23.772  33.891  1.00  0.00     0.135 A 
ATOM     89  C   UNL A   1      44.060  23.123  33.927  1.00  0.00     0.135 A 
ATOM     90  F   UNL A   1      47.361  24.596  33.533  1.00  0.00    -0.206 F 
ATOM     91  C   UNL A   1      46.700  22.629  34.617  1.00  0.00     0.059 A 
ATOM     92  C   UNL A   1      44.377  21.955  34.613  1.00  0.00     0.059 A 
ATOM     93  F   UNL A   1      42.758  23.334  33.679  1.00  0.00    -0.206 F 
ATOM     94  C   UNL A   1      45.700  21.723  34.967  1.00  0.00     0.060 A 
BRANCH  94  95
ATOM     95  S   UNL A   1      46.134  20.217  35.863  1.00  0.00     0.124 S 
ATOM     96  O   UNL A   1      45.364  19.192  35.164  1.00  0.00    -0.237 OA
ATOM     97  O   UNL A   1      47.578  20.167  35.662  1.00  0.00    -0.237 OA
ATOM     98  O   UNL A   1      45.694  20.501  37.225  1.00  0.00    -0.744 OA
ENDBRANCH  94  95
ENDBRANCH  62  87
ENDBRANCH  36  37
ENDBRANCH  28  31
ENDBRANCH  26  27
ENDBRANCH   1  26
TORSDOF 16
ENDMDL
MODEL 3
REMARK VINA RESULT:     -14.0      1.994      3.620
REMARK SMILES Cc1ccc(Nc2c(Cl)cc(Cl)cc2Cl)c(CC(=O)NCCCNC(=O)c2ccc(-c3c4nc(c(-c5c(F)cc(S(=O)(=O)[O-])cc5F)c5ccc([nH]5)c(-c5c(F)cc(S(=O)(=O)[O-])cc5F)c5nc(c(-c6c(F)cc(S(=O)(=O)[O-])cc6F)c6ccc3[nH]6)C=C5)C=C4)cc2)c1
REMARK SMILES IDX 22 1 21 2 20 3 18 4 19 5 17 7 16 8 1 9 2 10 3 11 93 12 4 13
REMARK SMILES IDX 5 14 6 15 7 17 8 18 14 19 9 20 10 21 13 22 15 23 11 24 12 25
REMARK SMILES IDX 23 26 24 27 25 28 26 30 27 31 28 32 92 33 29 34 91 35 30 36
REMARK SMILES IDX 31 37 32 38 85 39 33 40 90 41 84 42 86 43 34 44 89 45 83 46
REMARK SMILES IDX 82 47 35 49 69 50 48 51 68 52 49 53 52 54 67 55 87 56 50 57
REMARK SMILES IDX 51 58 66 60 88 61 53 62 36 63 37 64 46 65 38 66 39 67 45 68
REMARK SMILES IDX 47 69 40 70 41 71 42 72 43 73 44 74 70 75 71 76 80 77 72 78
REMARK SMILES IDX 73 79 79 80 81 81 74 82 75 83 76 84 77 85 78 86 54 87 55 88
REMARK SMILES IDX 64 89 56 90 57 91 63 92 65 93 58 94 59 95 60 96 61 97 62 98
REMARK H PARENT 20 6 6 16 24 29 86 48 52 59
REMARK Flexibility Score: inf
ROOT
ATOM      1  C   UNL A   1      34.352  28.944  26.426  1.00  0.00     0.042 C 
ENDROOT
BRANCH   1   2
ATOM      2  C   UNL A   1      33.024  28.720  25.709  1.00  0.00     0.117 C 
BRANCH   2   3
ATOM      3  N   UNL A   1      32.276  27.593  26.250  1.00  0.00    -0.356 N 
ATOM      4  C   UNL A   1      32.592  26.266  26.247  1.00  0.00     0.224 C 
ATOM      5  O   UNL A   1      31.777  25.452  26.692  1.00  0.00    -0.275 OA
ATOM      6  H   UNL A   1      31.419  27.822  26.679  1.00  0.00     0.163 HD
BRANCH   4   7
ATOM      7  C   UNL A   1      33.911  25.775  25.675  1.00  0.00     0.137 C 
BRANCH   7   8
ATOM      8  C   UNL A   1      33.755  25.028  24.367  1.00  0.00    -0.015 A 
ATOM      9  C   UNL A   1      32.430  25.909  20.889  1.00  0.00     0.044 C 
ATOM     10  C   UNL A   1      33.008  25.137  22.036  1.00  0.00    -0.051 A 
ATOM     11  C   UNL A   1      33.192  23.761  21.931  1.00  0.00     0.005 A 
ATOM     12  C   UNL A   1      33.322  25.766  23.244  1.00  0.00     0.009 A 
ATOM     13  C   UNL A   1      33.674  23.028  23.018  1.00  0.00     0.026 A 
ATOM     14  C   UNL A   1      33.955  23.632  24.255  1.00  0.00     0.042 A 
BRANCH  14  15
ATOM     15  N   UNL A   1      34.459  22.874  25.339  1.00  0.00    -0.353 N 
ATOM     16  H   UNL A   1      33.933  22.921  26.171  1.00  0.00     0.167 HD
BRANCH  15  17
ATOM     17  C   UNL A   1      35.615  22.056  25.393  1.00  0.00     0.076 A 
ATOM     18  C   UNL A   1      36.907  22.568  25.639  1.00  0.00     0.067 A 
ATOM     19  C   UNL A   1      35.509  20.677  25.099  1.00  0.00     0.067 A 
ATOM     20  Cl  UNL A   1      37.172  24.213  26.114  1.00  0.00    -0.082 Cl
ATOM     21  C   UNL A   1      38.036  21.745  25.569  1.00  0.00     0.043 A 
ATOM     22  C   UNL A   1      36.635  19.852  25.038  1.00  0.00     0.043 A 
ATOM     23  Cl  UNL A   1      33.971  19.957  24.766  1.00  0.00    -0.082 Cl
ATOM     24  C   UNL A   1      37.893  20.395  25.263  1.00  0.00     0.044 A 
ATOM     25  Cl  UNL A   1      39.290  19.396  25.167  1.00  0.00    -0.084 Cl
ENDBRANCH  15  17
ENDBRANCH  14  15
ENDBRANCH   7   8
ENDBRANCH   4   7
ENDBRANCH   2   3
ENDBRANCH   1   2
BRANCH   1  26
ATOM     26  C   UNL A   1      34.203  29.453  27.853  1.00  0.00     0.118 C 
BRANCH  26  27
ATOM     27  N   UNL A   1      34.923  30.705  28.070  1.00  0.00    -0.352 N 
ATOM     28  C   UNL A   1      36.219  30.875  28.527  1.00  0.00     0.251 C 
ATOM     29  H   UNL A   1      34.425  31.530  27.867  1.00  0.00     0.163 HD
ATOM     30  O   UNL A   1      36.677  31.961  28.822  1.00  0.00    -0.269 OA
BRANCH  28  31
ATOM     31  C   UNL A   1      37.065  29.667  28.531  1.00  0.00     0.039 A 
ATOM     32  C   UNL A   1      37.236  29.020  29.760  1.00  0.00     0.014 A 
ATOM     33  C   UNL A   1      37.901  29.412  27.449  1.00  0.00     0.014 A 
ATOM     34  C   UNL A   1      38.372  28.246  29.967  1.00  0.00     0.010 A 
ATOM     35  C   UNL A   1      39.068  28.711  27.683  1.00  0.00     0.010 A 
ATOM     36  C   UNL A   1      39.329  28.176  28.956  1.00  0.00    -0.014 A 
BRANCH  36  37
ATOM     37  C   UNL A   1      40.666  27.626  29.147  1.00  0.00     0.031 A 
ATOM     38  C   UNL A   1      40.941  26.222  28.779  1.00  0.00     0.074 A 
ATOM     39  C   UNL A   1      41.675  28.430  29.542  1.00  0.00     0.049 A 
ATOM     40  N   UNL A   1      42.013  25.574  29.081  1.00  0.00    -0.248 NA
ATOM     41  C   UNL A   1      39.964  25.410  28.068  1.00  0.00     0.031 C 
ATOM     42  C   UNL A   1      43.107  28.166  29.440  1.00  0.00     0.029 A 
ATOM     43  N   UNL A   1      41.590  29.577  30.339  1.00  0.00    -0.354 N 
ATOM     44  C   UNL A   1      42.002  24.382  28.390  1.00  0.00     0.074 A 
ATOM     45  C   UNL A   1      40.672  24.303  27.834  1.00  0.00     0.031 C 
ATOM     46  C   UNL A   1      43.752  28.922  30.340  1.00  0.00     0.029 A 
ATOM     47  C   UNL A   1      42.744  29.576  31.155  1.00  0.00     0.049 A 
ATOM     48  H   UNL A   1      40.869  30.247  30.333  1.00  0.00     0.167 HD
ATOM     49  C   UNL A   1      43.164  23.671  28.280  1.00  0.00     0.037 A 
ATOM     50  C   UNL A   1      42.630  29.444  32.511  1.00  0.00     0.037 A 
ATOM     51  C   UNL A   1      44.195  24.210  29.174  1.00  0.00     0.049 A 
ATOM     52  C   UNL A   1      43.245  28.179  33.080  1.00  0.00     0.074 A 
ATOM     53  C   UNL A   1      45.303  25.029  29.024  1.00  0.00     0.029 A 
ATOM     54  N   UNL A   1      43.978  24.124  30.538  1.00  0.00    -0.354 N 
ATOM     55  N   UNL A   1      43.844  27.262  32.370  1.00  0.00    -0.248 NA
ATOM     56  C   UNL A   1      43.172  27.815  34.497  1.00  0.00     0.031 C 
ATOM     57  C   UNL A   1      45.708  25.475  30.319  1.00  0.00     0.029 A 
ATOM     58  C   UNL A   1      44.853  24.918  31.252  1.00  0.00     0.049 A 
ATOM     59  H   UNL A   1      43.281  23.562  30.951  1.00  0.00     0.167 HD
ATOM     60  C   UNL A   1      44.153  26.194  33.169  1.00  0.00     0.074 A 
ATOM     61  C   UNL A   1      43.742  26.598  34.501  1.00  0.00     0.031 C 
ATOM     62  C   UNL A   1      44.675  25.028  32.691  1.00  0.00     0.037 A 
BRANCH  49  63
ATOM     63  C   UNL A   1      43.438  22.634  27.202  1.00  0.00     0.058 A 
ATOM     64  C   UNL A   1      42.681  21.442  27.147  1.00  0.00     0.135 A 
ATOM     65  C   UNL A   1      44.473  22.701  26.247  1.00  0.00     0.135 A 
ATOM     66  F   UNL A   1      41.600  21.262  27.916  1.00  0.00    -0.206 F 
ATOM     67  C   UNL A   1      43.000  20.370  26.305  1.00  0.00     0.059 A 
ATOM     68  C   UNL A   1      44.848  21.626  25.437  1.00  0.00     0.059 A 
ATOM     69  F   UNL A   1      45.134  23.835  26.000  1.00  0.00    -0.206 F 
ATOM     70  C   UNL A   1      44.113  20.455  25.481  1.00  0.00     0.060 A 
BRANCH  70  71
ATOM     71  S   UNL A   1      44.572  19.039  24.467  1.00  0.00     0.124 S 
ATOM     72  O   UNL A   1      44.442  19.576  23.115  1.00  0.00    -0.237 OA
ATOM     73  O   UNL A   1      45.933  18.771  24.917  1.00  0.00    -0.237 OA
ATOM     74  O   UNL A   1      43.584  18.027  24.827  1.00  0.00    -0.744 OA
ENDBRANCH  70  71
ENDBRANCH  49  63
BRANCH  50  75
ATOM     75  C   UNL A   1      41.439  30.163  33.045  1.00  0.00     0.058 A 
ATOM     76  C   UNL A   1      41.515  31.568  33.133  1.00  0.00     0.135 A 
ATOM     77  C   UNL A   1      40.164  29.584  33.028  1.00  0.00     0.135 A 
ATOM     78  F   UNL A   1      42.713  32.175  33.168  1.00  0.00    -0.206 F 
ATOM     79  C   UNL A   1      40.386  32.371  33.028  1.00  0.00     0.059 A 
ATOM     80  C   UNL A   1      39.014  30.371  32.938  1.00  0.00     0.059 A 
ATOM     81  F   UNL A   1      40.027  28.251  32.951  1.00  0.00    -0.206 F 
ATOM     82  C   UNL A   1      39.145  31.760  32.863  1.00  0.00     0.060 A 
BRANCH  82  83
ATOM     83  S   UNL A   1      37.757  32.806  32.361  1.00  0.00     0.124 S 
ATOM     84  O   UNL A   1      37.532  33.605  33.560  1.00  0.00    -0.237 OA
ATOM     85  O   UNL A   1      38.321  33.528  31.221  1.00  0.00    -0.237 OA
ATOM     86  O   UNL A   1      36.711  31.842  32.038  1.00  0.00    -0.744 OA
ENDBRANCH  82  83
ENDBRANCH  50  75
BRANCH  62  87
ATOM     87  C   UNL A   1      45.041  23.876  33.578  1.00  0.00     0.058 A 
ATOM     88  C   UNL A   1      46.357  23.678  34.026  1.00  0.00     0.135 A 
ATOM     89  C   UNL A   1      44.112  22.863  33.887  1.00  0.00     0.135 A 
ATOM     90  F   UNL A   1      47.313  24.582  33.755  1.00  0.00    -0.206 F 
ATOM     91  C   UNL A   1      46.727  22.545  34.749  1.00  0.00     0.059 A 
ATOM     92  C   UNL A   1      44.467  21.704  34.568  1.00  0.00     0.059 A 
ATOM     93  F   UNL A   1      42.818  22.985  33.552  1.00  0.00    -0.206 F 
ATOM     94  C   UNL A   1      45.777  21.559  35.010  1.00  0.00     0.060 A 
BRANCH  94  95
ATOM     95  S   UNL A   1      46.259  20.067  35.902  1.00  0.00     0.124 S 
ATOM     96  O   UNL A   1      47.715  20.084  35.797  1.00  0.00    -0.237 OA
ATOM     97  O   UNL A   1      45.720  20.336  37.230  1.00  0.00    -0.237 OA
ATOM     98  O   UNL A   1      45.598  19.002  35.155  1.00  0.00    -0.744 OA
ENDBRANCH  94  95
ENDBRANCH  62  87
ENDBRANCH  36  37
ENDBRANCH  28  31
ENDBRANCH  26  27
ENDBRANCH   1  26
TORSDOF 16
ENDMDL
