MODEL 1
REMARK VINA RESULT:     -12.0      0.000      0.000
REMARK SMILES O=C(/C=C/c1ccc(O)cc1)NC[C@@H]1CC[C@H](C(=O)NCCCNC(=O)c2ccc(-c3c4nc(c(-c5c(F)cc(S(=O)(=O)[O-])cc5F)c5ccc([nH]5)c(-c5c(F)cc(S(=O)(=O)[O-])cc5F)c5nc(c(-c6c(F)cc(S(=O)(=O)[O-])cc6F)c6ccc3[nH]6)C=C5)C=C4)cc2)O1
REMARK SMILES IDX 21 1 20 2 18 3 19 4 17 6 14 7 15 8 93 9 16 10 13 11 12 12
REMARK SMILES IDX 1 13 2 14 3 16 4 17 5 18 6 19 11 20 7 21 10 22 8 23 9 24
REMARK SMILES IDX 22 26 23 27 24 28 25 29 26 31 27 32 28 33 92 34 29 35 91 36
REMARK SMILES IDX 30 37 31 38 32 39 85 40 33 41 90 42 84 43 86 44 34 45 89 46
REMARK SMILES IDX 83 47 82 48 35 50 69 51 48 52 68 53 49 54 52 55 67 56 87 57
REMARK SMILES IDX 50 58 51 59 66 61 88 62 53 63 36 64 37 65 46 66 38 67 39 68
REMARK SMILES IDX 45 69 47 70 40 71 41 72 42 73 43 74 44 75 70 76 71 77 80 78
REMARK SMILES IDX 72 79 73 80 79 81 81 82 74 83 75 84 76 85 77 86 78 87 54 88
REMARK SMILES IDX 55 89 64 90 56 91 57 92 63 93 65 94 58 95 59 96 60 97 61 98
REMARK SMILES IDX 62 99
REMARK H PARENT 20 5 12 15 9 25 24 30 86 49 52 60
REMARK Flexibility Score: inf
ROOT
ATOM      1  C   UNL A   1      44.834  22.459  23.798  1.00  0.00     0.117 C 
ENDROOT
BRANCH   1   2
ATOM      2  N   UNL A   1      45.853  21.672  24.447  1.00  0.00    -0.354 N 
ATOM      3  C   UNL A   1      45.771  20.377  24.871  1.00  0.00     0.249 C 
ATOM      4  O   UNL A   1      46.769  19.878  25.396  1.00  0.00    -0.272 OA
ATOM      5  H   UNL A   1      46.712  22.124  24.605  1.00  0.00     0.163 HD
BRANCH   3   6
ATOM      6  C   UNL A   1      44.450  19.581  24.748  1.00  0.00     0.207 C 
ATOM      7  C   UNL A   1      42.350  19.446  25.751  1.00  0.00     0.138 C 
ATOM      8  C   UNL A   1      43.212  18.415  26.462  1.00  0.00     0.037 C 
ATOM      9  O   UNL A   1      43.267  20.320  25.071  1.00  0.00    -0.363 OA
ATOM     10  C   UNL A   1      44.438  18.302  25.578  1.00  0.00     0.045 C 
BRANCH   7  11
ATOM     11  C   UNL A   1      41.347  20.237  26.626  1.00  0.00     0.148 C 
BRANCH  11  12
ATOM     12  N   UNL A   1      39.992  20.351  26.089  1.00  0.00    -0.350 N 
ATOM     13  O   UNL A   1      39.752  22.624  26.368  1.00  0.00    -0.270 OA
ATOM     14  C   UNL A   1      39.304  21.540  26.016  1.00  0.00     0.244 C 
ATOM     15  H   UNL A   1      39.549  19.535  25.763  1.00  0.00     0.163 HD
BRANCH  14  16
ATOM     16  C   UNL A   1      37.873  21.426  25.616  1.00  0.00     0.072 C 
ATOM     17  C   UNL A   1      37.041  22.453  25.396  1.00  0.00     0.014 C 
BRANCH  17  18
ATOM     18  C   UNL A   1      35.795  22.250  24.649  1.00  0.00    -0.025 A 
ATOM     19  C   UNL A   1      35.328  23.276  23.274  1.00  0.00     0.012 A 
ATOM     20  C   UNL A   1      34.754  21.010  25.322  1.00  0.00     0.012 A 
ATOM     21  C   UNL A   1      33.750  23.184  22.474  1.00  0.00     0.047 A 
ATOM     22  C   UNL A   1      33.123  20.791  24.617  1.00  0.00     0.047 A 
ATOM     23  C   UNL A   1      32.561  21.966  23.071  1.00  0.00     0.115 A 
BRANCH  23  24
ATOM     24  O   UNL A   1      31.405  22.062  22.306  1.00  0.00    -0.508 OA
ATOM     25  H   UNL A   1      30.866  22.826  22.366  1.00  0.00     0.293 HD
ENDBRANCH  23  24
ENDBRANCH  17  18
ENDBRANCH  14  16
ENDBRANCH  11  12
ENDBRANCH   7  11
ENDBRANCH   3   6
ENDBRANCH   1   2
BRANCH   1  26
ATOM     26  C   UNL A   1      44.307  23.568  24.692  1.00  0.00     0.042 C 
BRANCH  26  27
ATOM     27  C   UNL A   1      45.407  24.262  25.480  1.00  0.00     0.118 C 
BRANCH  27  28
ATOM     28  N   UNL A   1      45.717  25.576  24.940  1.00  0.00    -0.352 N 
ATOM     29  C   UNL A   1      45.280  26.841  25.260  1.00  0.00     0.251 C 
ATOM     30  H   UNL A   1      46.367  25.557  24.200  1.00  0.00     0.163 HD
ATOM     31  O   UNL A   1      45.712  27.754  24.559  1.00  0.00    -0.269 OA
BRANCH  29  32
ATOM     32  C   UNL A   1      44.438  27.046  26.555  1.00  0.00     0.039 A 
ATOM     33  C   UNL A   1      43.099  26.095  27.743  1.00  0.00     0.014 A 
ATOM     34  C   UNL A   1      44.774  28.784  26.931  1.00  0.00     0.014 A 
ATOM     35  C   UNL A   1      42.328  27.014  29.086  1.00  0.00     0.010 A 
ATOM     36  C   UNL A   1      43.995  29.531  28.308  1.00  0.00     0.010 A 
ATOM     37  C   UNL A   1      42.816  28.691  29.348  1.00  0.00    -0.014 A 
BRANCH  37  38
ATOM     38  C   UNL A   1      42.346  29.403  30.566  1.00  0.00     0.031 A 
ATOM     39  C   UNL A   1      43.111  29.274  31.857  1.00  0.00     0.074 A 
ATOM     40  C   UNL A   1      41.186  30.093  30.506  1.00  0.00     0.049 A 
ATOM     41  N   UNL A   1      42.832  29.770  33.034  1.00  0.00    -0.248 NA
ATOM     42  C   UNL A   1      44.332  28.453  31.846  1.00  0.00     0.031 C 
ATOM     43  C   UNL A   1      40.310  30.194  29.331  1.00  0.00     0.029 A 
ATOM     44  N   UNL A   1      40.530  30.844  31.449  1.00  0.00    -0.354 N 
ATOM     45  C   UNL A   1      43.827  29.304  33.889  1.00  0.00     0.074 A 
ATOM     46  C   UNL A   1      44.686  28.442  33.120  1.00  0.00     0.031 C 
ATOM     47  C   UNL A   1      39.281  31.010  29.600  1.00  0.00     0.029 A 
ATOM     48  C   UNL A   1      39.374  31.438  30.986  1.00  0.00     0.049 A 
ATOM     49  H   UNL A   1      40.854  30.948  32.372  1.00  0.00     0.167 HD
ATOM     50  C   UNL A   1      44.020  29.584  35.198  1.00  0.00     0.037 A 
ATOM     51  C   UNL A   1      38.482  32.227  31.617  1.00  0.00     0.037 A 
ATOM     52  C   UNL A   1      43.159  30.455  35.944  1.00  0.00     0.049 A 
ATOM     53  C   UNL A   1      38.736  32.543  33.066  1.00  0.00     0.074 A 
ATOM     54  C   UNL A   1      43.256  30.838  37.267  1.00  0.00     0.029 A 
ATOM     55  N   UNL A   1      42.033  31.075  35.420  1.00  0.00    -0.354 N 
ATOM     56  N   UNL A   1      39.729  32.149  33.830  1.00  0.00    -0.248 NA
ATOM     57  C   UNL A   1      37.757  33.401  33.744  1.00  0.00     0.031 C 
ATOM     58  C   UNL A   1      42.156  31.652  37.558  1.00  0.00     0.029 A 
ATOM     59  C   UNL A   1      41.412  31.824  36.400  1.00  0.00     0.049 A 
ATOM     60  H   UNL A   1      41.723  30.992  34.490  1.00  0.00     0.167 HD
ATOM     61  C   UNL A   1      39.508  32.732  35.070  1.00  0.00     0.074 A 
ATOM     62  C   UNL A   1      38.300  33.524  34.946  1.00  0.00     0.031 C 
ATOM     63  C   UNL A   1      40.226  32.620  36.215  1.00  0.00     0.037 A 
BRANCH  50  64
ATOM     64  C   UNL A   1      45.189  28.937  35.892  1.00  0.00     0.058 A 
ATOM     65  C   UNL A   1      46.449  29.555  35.952  1.00  0.00     0.135 A 
ATOM     66  C   UNL A   1      45.044  27.691  36.521  1.00  0.00     0.135 A 
ATOM     67  F   UNL A   1      46.656  30.734  35.343  1.00  0.00    -0.206 F 
ATOM     68  C   UNL A   1      47.527  28.953  36.596  1.00  0.00     0.059 A 
ATOM     69  C   UNL A   1      46.100  27.081  37.193  1.00  0.00     0.059 A 
ATOM     70  F   UNL A   1      43.866  27.047  36.481  1.00  0.00    -0.206 F 
ATOM     71  C   UNL A   1      47.340  27.718  37.220  1.00  0.00     0.060 A 
BRANCH  71  72
ATOM     72  S   UNL A   1      48.738  26.970  38.084  1.00  0.00     0.124 S 
ATOM     73  O   UNL A   1      49.810  27.135  37.106  1.00  0.00    -0.237 OA
ATOM     74  O   UNL A   1      48.841  27.798  39.281  1.00  0.00    -0.237 OA
ATOM     75  O   UNL A   1      48.303  25.596  38.311  1.00  0.00    -0.744 OA
ENDBRANCH  71  72
ENDBRANCH  50  64
BRANCH  51  76
ATOM     76  C   UNL A   1      37.280  32.761  30.908  1.00  0.00     0.058 A 
ATOM     77  C   UNL A   1      37.339  33.953  30.167  1.00  0.00     0.135 A 
ATOM     78  C   UNL A   1      36.036  32.112  30.984  1.00  0.00     0.135 A 
ATOM     79  F   UNL A   1      38.500  34.614  30.052  1.00  0.00    -0.206 F 
ATOM     80  C   UNL A   1      36.205  34.507  29.574  1.00  0.00     0.059 A 
ATOM     81  C   UNL A   1      34.896  32.628  30.371  1.00  0.00     0.059 A 
ATOM     82  F   UNL A   1      35.919  30.955  31.653  1.00  0.00    -0.206 F 
ATOM     83  C   UNL A   1      34.986  33.840  29.690  1.00  0.00     0.060 A 
BRANCH  83  84
ATOM     84  S   UNL A   1      33.516  34.572  28.934  1.00  0.00     0.124 S 
ATOM     85  O   UNL A   1      34.079  35.748  28.281  1.00  0.00    -0.237 OA
ATOM     86  O   UNL A   1      33.061  33.505  28.049  1.00  0.00    -0.237 OA
ATOM     87  O   UNL A   1      32.650  34.840  30.079  1.00  0.00    -0.744 OA
ENDBRANCH  83  84
ENDBRANCH  51  76
BRANCH  63  88
ATOM     88  C   UNL A   1      39.751  33.408  37.397  1.00  0.00     0.058 A 
ATOM     89  C   UNL A   1      38.781  32.906  38.274  1.00  0.00     0.135 A 
ATOM     90  C   UNL A   1      40.342  34.646  37.696  1.00  0.00     0.135 A 
ATOM     91  F   UNL A   1      38.185  31.729  38.025  1.00  0.00    -0.206 F 
ATOM     92  C   UNL A   1      38.395  33.617  39.404  1.00  0.00     0.059 A 
ATOM     93  C   UNL A   1      39.997  35.357  38.837  1.00  0.00     0.059 A 
ATOM     94  F   UNL A   1      41.286  35.158  36.888  1.00  0.00    -0.206 F 
ATOM     95  C   UNL A   1      39.015  34.837  39.679  1.00  0.00     0.060 A 
BRANCH  95  96
ATOM     96  S   UNL A   1      38.546  35.722  41.179  1.00  0.00     0.124 S 
ATOM     97  O   UNL A   1      38.455  37.094  40.691  1.00  0.00    -0.237 OA
ATOM     98  O   UNL A   1      37.279  35.087  41.530  1.00  0.00    -0.237 OA
ATOM     99  O   UNL A   1      39.651  35.450  42.093  1.00  0.00    -0.744 OA
ENDBRANCH  95  96
ENDBRANCH  63  88
ENDBRANCH  37  38
ENDBRANCH  29  32
ENDBRANCH  27  28
ENDBRANCH  26  27
ENDBRANCH   1  26
TORSDOF 18
ENDMDL
MODEL 2
REMARK VINA RESULT:     -11.6      5.777     11.520
REMARK SMILES O=C(/C=C/c1ccc(O)cc1)NC[C@@H]1CC[C@H](C(=O)NCCCNC(=O)c2ccc(-c3c4nc(c(-c5c(F)cc(S(=O)(=O)[O-])cc5F)c5ccc([nH]5)c(-c5c(F)cc(S(=O)(=O)[O-])cc5F)c5nc(c(-c6c(F)cc(S(=O)(=O)[O-])cc6F)c6ccc3[nH]6)C=C5)C=C4)cc2)O1
REMARK SMILES IDX 21 1 20 2 18 3 19 4 17 6 14 7 15 8 93 9 16 10 13 11 12 12
REMARK SMILES IDX 1 13 2 14 3 16 4 17 5 18 6 19 11 20 7 21 10 22 8 23 9 24
REMARK SMILES IDX 22 26 23 27 24 28 25 29 26 31 27 32 28 33 92 34 29 35 91 36
REMARK SMILES IDX 30 37 31 38 32 39 85 40 33 41 90 42 84 43 86 44 34 45 89 46
REMARK SMILES IDX 83 47 82 48 35 50 69 51 48 52 68 53 49 54 52 55 67 56 87 57
REMARK SMILES IDX 50 58 51 59 66 61 88 62 53 63 36 64 37 65 46 66 38 67 39 68
REMARK SMILES IDX 45 69 47 70 40 71 41 72 42 73 43 74 44 75 70 76 71 77 80 78
REMARK SMILES IDX 72 79 73 80 79 81 81 82 74 83 75 84 76 85 77 86 78 87 54 88
REMARK SMILES IDX 55 89 64 90 56 91 57 92 63 93 65 94 58 95 59 96 60 97 61 98
REMARK SMILES IDX 62 99
REMARK H PARENT 20 5 12 15 9 25 24 30 86 49 52 60
REMARK Flexibility Score: inf
ROOT
ATOM      1  C   UNL A   1      48.641  23.446  34.901  1.00  0.00     0.117 C 
ENDROOT
BRANCH   1   2
ATOM      2  N   UNL A   1      48.806  22.127  34.342  1.00  0.00    -0.354 N 
ATOM      3  C   UNL A   1      48.135  20.985  34.671  1.00  0.00     0.249 C 
ATOM      4  O   UNL A   1      48.419  19.952  34.058  1.00  0.00    -0.272 OA
ATOM      5  H   UNL A   1      49.486  22.040  33.636  1.00  0.00     0.163 HD
BRANCH   3   6
ATOM      6  C   UNL A   1      47.095  20.974  35.816  1.00  0.00     0.207 C 
ATOM      7  C   UNL A   1      46.644  19.842  37.804  1.00  0.00     0.138 C 
ATOM      8  C   UNL A   1      45.856  19.113  36.727  1.00  0.00     0.037 C 
ATOM      9  O   UNL A   1      47.620  20.635  37.105  1.00  0.00    -0.363 OA
ATOM     10  C   UNL A   1      45.907  20.058  35.543  1.00  0.00     0.045 C 
BRANCH   7  11
ATOM     11  C   UNL A   1      47.297  18.967  38.901  1.00  0.00     0.148 C 
BRANCH  11  12
ATOM     12  N   UNL A   1      46.402  18.031  39.580  1.00  0.00    -0.350 N 
ATOM     13  O   UNL A   1      46.087  19.260  41.501  1.00  0.00    -0.270 OA
ATOM     14  C   UNL A   1      45.880  18.254  40.832  1.00  0.00     0.244 C 
ATOM     15  H   UNL A   1      46.161  17.196  39.116  1.00  0.00     0.163 HD
BRANCH  14  16
ATOM     16  C   UNL A   1      45.144  17.105  41.432  1.00  0.00     0.072 C 
ATOM     17  C   UNL A   1      43.915  17.160  41.963  1.00  0.00     0.014 C 
BRANCH  17  18
ATOM     18  C   UNL A   1      43.143  15.929  42.169  1.00  0.00    -0.025 A 
ATOM     19  C   UNL A   1      43.132  15.058  43.719  1.00  0.00     0.012 A 
ATOM     20  C   UNL A   1      42.361  15.326  40.721  1.00  0.00     0.012 A 
ATOM     21  C   UNL A   1      42.372  13.475  43.948  1.00  0.00     0.047 A 
ATOM     22  C   UNL A   1      41.543  13.736  40.792  1.00  0.00     0.047 A 
ATOM     23  C   UNL A   1      41.542  12.716  42.537  1.00  0.00     0.115 A 
BRANCH  23  24
ATOM     24  O   UNL A   1      41.017  11.492  42.937  1.00  0.00    -0.508 OA
ATOM     25  H   UNL A   1      40.339  11.087  42.434  1.00  0.00     0.293 HD
ENDBRANCH  23  24
ENDBRANCH  17  18
ENDBRANCH  14  16
ENDBRANCH  11  12
ENDBRANCH   7  11
ENDBRANCH   3   6
ENDBRANCH   1   2
BRANCH   1  26
ATOM     26  C   UNL A   1      49.522  23.668  36.119  1.00  0.00     0.042 C 
BRANCH  26  27
ATOM     27  C   UNL A   1      49.231  24.984  36.824  1.00  0.00     0.118 C 
BRANCH  27  28
ATOM     28  N   UNL A   1      48.370  24.802  37.982  1.00  0.00    -0.352 N 
ATOM     29  C   UNL A   1      47.271  25.490  38.442  1.00  0.00     0.251 C 
ATOM     30  H   UNL A   1      48.624  24.037  38.548  1.00  0.00     0.163 HD
ATOM     31  O   UNL A   1      46.794  25.096  39.503  1.00  0.00    -0.269 OA
BRANCH  29  32
ATOM     32  C   UNL A   1      46.617  26.570  37.528  1.00  0.00     0.039 A 
ATOM     33  C   UNL A   1      47.077  28.223  36.449  1.00  0.00     0.014 A 
ATOM     34  C   UNL A   1      44.862  26.155  37.679  1.00  0.00     0.014 A 
ATOM     35  C   UNL A   1      45.738  29.176  35.711  1.00  0.00     0.010 A 
ATOM     36  C   UNL A   1      43.674  27.139  36.855  1.00  0.00     0.010 A 
ATOM     37  C   UNL A   1      44.083  28.594  35.910  1.00  0.00    -0.014 A 
BRANCH  37  38
ATOM     38  C   UNL A   1      42.987  29.247  35.146  1.00  0.00     0.031 A 
ATOM     39  C   UNL A   1      42.669  28.791  33.746  1.00  0.00     0.074 A 
ATOM     40  C   UNL A   1      42.346  30.297  35.702  1.00  0.00     0.049 A 
ATOM     41  N   UNL A   1      41.792  29.269  32.902  1.00  0.00    -0.248 NA
ATOM     42  C   UNL A   1      43.459  27.677  33.196  1.00  0.00     0.031 C 
ATOM     43  C   UNL A   1      42.648  30.888  37.013  1.00  0.00     0.029 A 
ATOM     44  N   UNL A   1      41.307  31.069  35.246  1.00  0.00    -0.354 N 
ATOM     45  C   UNL A   1      41.945  28.528  31.733  1.00  0.00     0.074 A 
ATOM     46  C   UNL A   1      43.031  27.608  31.947  1.00  0.00     0.031 C 
ATOM     47  C   UNL A   1      41.776  31.871  37.280  1.00  0.00     0.029 A 
ATOM     48  C   UNL A   1      40.895  32.038  36.137  1.00  0.00     0.049 A 
ATOM     49  H   UNL A   1      40.892  30.942  34.362  1.00  0.00     0.167 HD
ATOM     50  C   UNL A   1      41.231  28.595  30.587  1.00  0.00     0.037 A 
ATOM     51  C   UNL A   1      39.925  32.968  36.033  1.00  0.00     0.037 A 
ATOM     52  C   UNL A   1      40.145  29.512  30.398  1.00  0.00     0.049 A 
ATOM     53  C   UNL A   1      39.129  33.002  34.756  1.00  0.00     0.074 A 
ATOM     54  C   UNL A   1      39.327  29.667  29.296  1.00  0.00     0.029 A 
ATOM     55  N   UNL A   1      39.731  30.438  31.346  1.00  0.00    -0.354 N 
ATOM     56  N   UNL A   1      39.246  32.237  33.695  1.00  0.00    -0.248 NA
ATOM     57  C   UNL A   1      38.077  34.020  34.653  1.00  0.00     0.031 C 
ATOM     58  C   UNL A   1      38.449  30.723  29.559  1.00  0.00     0.029 A 
ATOM     59  C   UNL A   1      38.681  31.182  30.848  1.00  0.00     0.049 A 
ATOM     60  H   UNL A   1      40.127  30.547  32.241  1.00  0.00     0.167 HD
ATOM     61  C   UNL A   1      38.266  32.665  32.809  1.00  0.00     0.074 A 
ATOM     62  C   UNL A   1      37.552  33.739  33.469  1.00  0.00     0.031 C 
ATOM     63  C   UNL A   1      37.983  32.223  31.559  1.00  0.00     0.037 A 
BRANCH  50  64
ATOM     64  C   UNL A   1      41.611  27.668  29.464  1.00  0.00     0.058 A 
ATOM     65  C   UNL A   1      42.833  27.793  28.781  1.00  0.00     0.135 A 
ATOM     66  C   UNL A   1      40.752  26.629  29.075  1.00  0.00     0.135 A 
ATOM     67  F   UNL A   1      43.683  28.787  29.089  1.00  0.00    -0.206 F 
ATOM     68  C   UNL A   1      43.181  26.933  27.744  1.00  0.00     0.059 A 
ATOM     69  C   UNL A   1      41.090  25.739  28.059  1.00  0.00     0.059 A 
ATOM     70  F   UNL A   1      39.564  26.472  29.682  1.00  0.00    -0.206 F 
ATOM     71  C   UNL A   1      42.304  25.904  27.394  1.00  0.00     0.060 A 
BRANCH  71  72
ATOM     72  S   UNL A   1      42.789  24.773  26.073  1.00  0.00     0.124 S 
ATOM     73  O   UNL A   1      42.027  23.575  26.417  1.00  0.00    -0.237 OA
ATOM     74  O   UNL A   1      42.346  25.483  24.879  1.00  0.00    -0.237 OA
ATOM     75  O   UNL A   1      44.235  24.661  26.233  1.00  0.00    -0.744 OA
ENDBRANCH  71  72
ENDBRANCH  50  64
BRANCH  51  76
ATOM     76  C   UNL A   1      39.655  33.935  37.139  1.00  0.00     0.058 A 
ATOM     77  C   UNL A   1      40.277  35.194  37.177  1.00  0.00     0.135 A 
ATOM     78  C   UNL A   1      38.798  33.610  38.204  1.00  0.00     0.135 A 
ATOM     79  F   UNL A   1      41.100  35.565  36.185  1.00  0.00    -0.206 F 
ATOM     80  C   UNL A   1      40.102  36.070  38.248  1.00  0.00     0.059 A 
ATOM     81  C   UNL A   1      38.580  34.482  39.268  1.00  0.00     0.059 A 
ATOM     82  F   UNL A   1      38.152  32.434  38.215  1.00  0.00    -0.206 F 
ATOM     83  C   UNL A   1      39.257  35.699  39.294  1.00  0.00     0.060 A 
BRANCH  83  84
ATOM     84  S   UNL A   1      39.047  36.830  40.688  1.00  0.00     0.124 S 
ATOM     85  O   UNL A   1      38.281  37.909  40.075  1.00  0.00    -0.237 OA
ATOM     86  O   UNL A   1      38.329  36.002  41.650  1.00  0.00    -0.237 OA
ATOM     87  O   UNL A   1      40.420  37.162  41.059  1.00  0.00    -0.744 OA
ENDBRANCH  83  84
ENDBRANCH  51  76
BRANCH  63  88
ATOM     88  C   UNL A   1      36.828  32.865  30.854  1.00  0.00     0.058 A 
ATOM     89  C   UNL A   1      35.502  32.544  31.173  1.00  0.00     0.135 A 
ATOM     90  C   UNL A   1      37.060  33.874  29.907  1.00  0.00     0.135 A 
ATOM     91  F   UNL A   1      35.234  31.580  32.069  1.00  0.00    -0.206 F 
ATOM     92  C   UNL A   1      34.438  33.192  30.559  1.00  0.00     0.059 A 
ATOM     93  C   UNL A   1      36.012  34.559  29.307  1.00  0.00     0.059 A 
ATOM     94  F   UNL A   1      38.316  34.222  29.581  1.00  0.00    -0.206 F 
ATOM     95  C   UNL A   1      34.704  34.202  29.633  1.00  0.00     0.060 A 
BRANCH  95  96
ATOM     96  S   UNL A   1      33.314  35.074  28.886  1.00  0.00     0.124 S 
ATOM     97  O   UNL A   1      33.987  36.187  28.227  1.00  0.00    -0.237 OA
ATOM     98  O   UNL A   1      32.750  34.059  28.002  1.00  0.00    -0.237 OA
ATOM     99  O   UNL A   1      32.482  35.431  30.031  1.00  0.00    -0.744 OA
ENDBRANCH  95  96
ENDBRANCH  63  88
ENDBRANCH  37  38
ENDBRANCH  29  32
ENDBRANCH  27  28
ENDBRANCH  26  27
ENDBRANCH   1  26
TORSDOF 18
ENDMDL
MODEL 3
REMARK VINA RESULT:     -11.6      5.970     13.513
REMARK SMILES O=C(/C=C/c1ccc(O)cc1)NC[C@@H]1CC[C@H](C(=O)NCCCNC(=O)c2ccc(-c3c4nc(c(-c5c(F)cc(S(=O)(=O)[O-])cc5F)c5ccc([nH]5)c(-c5c(F)cc(S(=O)(=O)[O-])cc5F)c5nc(c(-c6c(F)cc(S(=O)(=O)[O-])cc6F)c6ccc3[nH]6)C=C5)C=C4)cc2)O1
REMARK SMILES IDX 21 1 20 2 18 3 19 4 17 6 14 7 15 8 93 9 16 10 13 11 12 12
REMARK SMILES IDX 1 13 2 14 3 16 4 17 5 18 6 19 11 20 7 21 10 22 8 23 9 24
REMARK SMILES IDX 22 26 23 27 24 28 25 29 26 31 27 32 28 33 92 34 29 35 91 36
REMARK SMILES IDX 30 37 31 38 32 39 85 40 33 41 90 42 84 43 86 44 34 45 89 46
REMARK SMILES IDX 83 47 82 48 35 50 69 51 48 52 68 53 49 54 52 55 67 56 87 57
REMARK SMILES IDX 50 58 51 59 66 61 88 62 53 63 36 64 37 65 46 66 38 67 39 68
REMARK SMILES IDX 45 69 47 70 40 71 41 72 42 73 43 74 44 75 70 76 71 77 80 78
REMARK SMILES IDX 72 79 73 80 79 81 81 82 74 83 75 84 76 85 77 86 78 87 54 88
REMARK SMILES IDX 55 89 64 90 56 91 57 92 63 93 65 94 58 95 59 96 60 97 61 98
REMARK SMILES IDX 62 99
REMARK H PARENT 20 5 12 15 9 25 24 30 86 49 52 60
REMARK Flexibility Score: inf
ROOT
ATOM      1  C   UNL A   1      34.914  33.184  33.542  1.00  0.00     0.117 C 
ENDROOT
BRANCH   1   2
ATOM      2  N   UNL A   1      34.988  34.621  33.630  1.00  0.00    -0.354 N 
ATOM      3  C   UNL A   1      34.355  35.543  32.848  1.00  0.00     0.249 C 
ATOM      4  O   UNL A   1      34.541  36.737  33.099  1.00  0.00    -0.272 OA
ATOM      5  H   UNL A   1      35.566  34.981  34.340  1.00  0.00     0.163 HD
BRANCH   3   6
ATOM      6  C   UNL A   1      33.477  35.106  31.652  1.00  0.00     0.207 C 
ATOM      7  C   UNL A   1      33.622  34.832  29.341  1.00  0.00     0.138 C 
ATOM      8  C   UNL A   1      33.090  36.240  29.556  1.00  0.00     0.037 C 
ATOM      9  O   UNL A   1      34.180  34.428  30.604  1.00  0.00    -0.363 OA
ATOM     10  C   UNL A   1      32.701  36.258  31.021  1.00  0.00     0.045 C 
BRANCH   7  11
ATOM     11  C   UNL A   1      34.631  34.639  28.182  1.00  0.00     0.148 C 
BRANCH  11  12
ATOM     12  N   UNL A   1      35.391  33.391  28.207  1.00  0.00    -0.350 N 
ATOM     13  O   UNL A   1      37.228  34.184  29.346  1.00  0.00    -0.270 OA
ATOM     14  C   UNL A   1      36.636  33.274  28.780  1.00  0.00     0.244 C 
ATOM     15  H   UNL A   1      34.992  32.592  27.791  1.00  0.00     0.163 HD
BRANCH  14  16
ATOM     16  C   UNL A   1      37.330  31.976  28.541  1.00  0.00     0.072 C 
ATOM     17  C   UNL A   1      38.353  31.496  29.261  1.00  0.00     0.014 C 
BRANCH  17  18
ATOM     18  C   UNL A   1      38.703  30.073  29.191  1.00  0.00    -0.025 A 
ATOM     19  C   UNL A   1      39.169  29.279  27.671  1.00  0.00     0.012 A 
ATOM     20  C   UNL A   1      38.481  29.209  30.700  1.00  0.00     0.012 A 
ATOM     21  C   UNL A   1      39.410  27.531  27.512  1.00  0.00     0.047 A 
ATOM     22  C   UNL A   1      38.693  27.431  30.704  1.00  0.00     0.047 A 
ATOM     23  C   UNL A   1      39.195  26.504  28.979  1.00  0.00     0.115 A 
BRANCH  23  24
ATOM     24  O   UNL A   1      39.435  25.180  28.633  1.00  0.00    -0.508 OA
ATOM     25  H   UNL A   1      39.862  24.976  27.824  1.00  0.00     0.293 HD
ENDBRANCH  23  24
ENDBRANCH  17  18
ENDBRANCH  14  16
ENDBRANCH  11  12
ENDBRANCH   7  11
ENDBRANCH   3   6
ENDBRANCH   1   2
BRANCH   1  26
ATOM     26  C   UNL A   1      36.131  32.587  32.853  1.00  0.00     0.042 C 
BRANCH  26  27
ATOM     27  C   UNL A   1      37.141  32.016  33.835  1.00  0.00     0.118 C 
BRANCH  27  28
ATOM     28  N   UNL A   1      37.801  33.059  34.605  1.00  0.00    -0.352 N 
ATOM     29  C   UNL A   1      39.070  33.590  34.556  1.00  0.00     0.251 C 
ATOM     30  H   UNL A   1      37.228  33.464  35.296  1.00  0.00     0.163 HD
ATOM     31  O   UNL A   1      39.328  34.446  35.400  1.00  0.00    -0.269 OA
BRANCH  29  32
ATOM     32  C   UNL A   1      40.003  33.216  33.365  1.00  0.00     0.039 A 
ATOM     33  C   UNL A   1      40.323  33.640  31.409  1.00  0.00     0.014 A 
ATOM     34  C   UNL A   1      40.975  31.868  34.079  1.00  0.00     0.014 A 
ATOM     35  C   UNL A   1      41.537  32.669  30.500  1.00  0.00     0.010 A 
ATOM     36  C   UNL A   1      42.165  31.051  33.090  1.00  0.00     0.010 A 
ATOM     37  C   UNL A   1      42.441  31.425  31.370  1.00  0.00    -0.014 A 
BRANCH  37  38
ATOM     38  C   UNL A   1      43.582  30.752  30.695  1.00  0.00     0.031 A 
ATOM     39  C   UNL A   1      44.917  31.443  30.604  1.00  0.00     0.074 A 
ATOM     40  C   UNL A   1      43.372  29.556  30.104  1.00  0.00     0.049 A 
ATOM     41  N   UNL A   1      46.013  31.046  30.011  1.00  0.00    -0.248 NA
ATOM     42  C   UNL A   1      45.041  32.772  31.225  1.00  0.00     0.031 C 
ATOM     43  C   UNL A   1      42.087  28.846  30.041  1.00  0.00     0.029 A 
ATOM     44  N   UNL A   1      44.225  28.714  29.436  1.00  0.00    -0.354 N 
ATOM     45  C   UNL A   1      46.931  32.080  30.175  1.00  0.00     0.074 A 
ATOM     46  C   UNL A   1      46.259  33.146  30.871  1.00  0.00     0.031 C 
ATOM     47  C   UNL A   1      42.253  27.659  29.441  1.00  0.00     0.029 A 
ATOM     48  C   UNL A   1      43.635  27.544  29.007  1.00  0.00     0.049 A 
ATOM     49  H   UNL A   1      45.173  28.926  29.277  1.00  0.00     0.167 HD
ATOM     50  C   UNL A   1      48.228  32.130  29.797  1.00  0.00     0.037 A 
ATOM     51  C   UNL A   1      44.150  26.502  28.324  1.00  0.00     0.037 A 
ATOM     52  C   UNL A   1      48.883  31.052  29.115  1.00  0.00     0.049 A 
ATOM     53  C   UNL A   1      45.603  26.574  27.938  1.00  0.00     0.074 A 
ATOM     54  C   UNL A   1      50.197  30.967  28.696  1.00  0.00     0.029 A 
ATOM     55  N   UNL A   1      48.260  29.867  28.748  1.00  0.00    -0.354 N 
ATOM     56  N   UNL A   1      46.468  27.533  28.175  1.00  0.00    -0.248 NA
ATOM     57  C   UNL A   1      46.152  25.435  27.193  1.00  0.00     0.031 C 
ATOM     58  C   UNL A   1      50.355  29.748  28.029  1.00  0.00     0.029 A 
ATOM     59  C   UNL A   1      49.157  29.051  28.089  1.00  0.00     0.049 A 
ATOM     60  H   UNL A   1      47.319  29.643  28.931  1.00  0.00     0.167 HD
ATOM     61  C   UNL A   1      47.670  27.102  27.630  1.00  0.00     0.074 A 
ATOM     62  C   UNL A   1      47.425  25.786  27.074  1.00  0.00     0.031 C 
ATOM     63  C   UNL A   1      48.868  27.734  27.580  1.00  0.00     0.037 A 
BRANCH  50  64
ATOM     64  C   UNL A   1      49.003  33.384  30.102  1.00  0.00     0.058 A 
ATOM     65  C   UNL A   1      49.720  33.539  31.300  1.00  0.00     0.135 A 
ATOM     66  C   UNL A   1      49.045  34.439  29.177  1.00  0.00     0.135 A 
ATOM     67  F   UNL A   1      49.693  32.575  32.236  1.00  0.00    -0.206 F 
ATOM     68  C   UNL A   1      50.436  34.700  31.577  1.00  0.00     0.059 A 
ATOM     69  C   UNL A   1      49.776  35.599  29.421  1.00  0.00     0.059 A 
ATOM     70  F   UNL A   1      48.365  34.353  28.023  1.00  0.00    -0.206 F 
ATOM     71  C   UNL A   1      50.463  35.722  30.627  1.00  0.00     0.060 A 
BRANCH  71  72
ATOM     72  S   UNL A   1      51.429  37.205  30.987  1.00  0.00     0.124 S 
ATOM     73  O   UNL A   1      50.618  37.840  32.022  1.00  0.00    -0.237 OA
ATOM     74  O   UNL A   1      52.700  36.646  31.433  1.00  0.00    -0.237 OA
ATOM     75  O   UNL A   1      51.469  37.905  29.707  1.00  0.00    -0.744 OA
ENDBRANCH  71  72
ENDBRANCH  50  64
BRANCH  51  76
ATOM     76  C   UNL A   1      43.309  25.323  27.955  1.00  0.00     0.058 A 
ATOM     77  C   UNL A   1      43.153  24.235  28.829  1.00  0.00     0.135 A 
ATOM     78  C   UNL A   1      42.670  25.240  26.706  1.00  0.00     0.135 A 
ATOM     79  F   UNL A   1      43.733  24.259  30.038  1.00  0.00    -0.206 F 
ATOM     80  C   UNL A   1      42.444  23.092  28.462  1.00  0.00     0.059 A 
ATOM     81  C   UNL A   1      41.927  24.124  26.330  1.00  0.00     0.059 A 
ATOM     82  F   UNL A   1      42.757  26.258  25.836  1.00  0.00    -0.206 F 
ATOM     83  C   UNL A   1      41.841  23.044  27.205  1.00  0.00     0.060 A 
BRANCH  83  84
ATOM     84  S   UNL A   1      40.938  21.553  26.728  1.00  0.00     0.124 S 
ATOM     85  O   UNL A   1      39.704  22.118  26.194  1.00  0.00    -0.237 OA
ATOM     86  O   UNL A   1      41.838  20.947  25.753  1.00  0.00    -0.237 OA
ATOM     87  O   UNL A   1      40.806  20.824  27.986  1.00  0.00    -0.744 OA
ENDBRANCH  83  84
ENDBRANCH  51  76
BRANCH  63  88
ATOM     88  C   UNL A   1      50.006  26.990  26.951  1.00  0.00     0.058 A 
ATOM     89  C   UNL A   1      50.247  27.044  25.572  1.00  0.00     0.135 A 
ATOM     90  C   UNL A   1      50.911  26.282  27.758  1.00  0.00     0.135 A 
ATOM     91  F   UNL A   1      49.404  27.704  24.761  1.00  0.00    -0.206 F 
ATOM     92  C   UNL A   1      51.343  26.403  25.007  1.00  0.00     0.059 A 
ATOM     93  C   UNL A   1      52.031  25.664  27.219  1.00  0.00     0.059 A 
ATOM     94  F   UNL A   1      50.725  26.215  29.086  1.00  0.00    -0.206 F 
ATOM     95  C   UNL A   1      52.232  25.723  25.841  1.00  0.00     0.060 A 
BRANCH  95  96
ATOM     96  S   UNL A   1      53.680  24.944  25.102  1.00  0.00     0.124 S 
ATOM     97  O   UNL A   1      53.758  25.632  23.818  1.00  0.00    -0.237 OA
ATOM     98  O   UNL A   1      54.731  25.268  26.061  1.00  0.00    -0.237 OA
ATOM     99  O   UNL A   1      53.311  23.533  25.038  1.00  0.00    -0.744 OA
ENDBRANCH  95  96
ENDBRANCH  63  88
ENDBRANCH  37  38
ENDBRANCH  29  32
ENDBRANCH  27  28
ENDBRANCH  26  27
ENDBRANCH   1  26
TORSDOF 18
ENDMDL
