MODEL 1
REMARK VINA RESULT:     -12.4      0.000      0.000
REMARK SMILES O=C(NCCCNC(=O)[C@@H]1CCCN(C(=O)Nc2ccccc2)C1)c1ccc(-c2c3nc(c(-c4c(F)cc(S(=O)(=O)[O-])cc4F)c4ccc([nH]4)c(-c4c(F)cc(S(=O)(=O)[O-])cc4F)c4nc(c(-c5c(F)cc(S(=O)(=O)[O-])cc5F)c5ccc2[nH]5)C=C4)C=C3)cc1
REMARK SMILES IDX 4 1 3 2 1 3 2 4 25 6 26 7 90 8 27 9 89 10 28 11 29 12 30 13
REMARK SMILES IDX 83 14 31 15 88 16 82 17 84 18 32 19 87 20 81 21 80 22 33 24
REMARK SMILES IDX 67 25 46 26 66 27 47 28 50 29 65 30 85 31 48 32 49 33 64 35
REMARK SMILES IDX 86 36 51 37 34 38 35 39 44 40 36 41 37 42 43 43 45 44 38 45
REMARK SMILES IDX 39 46 40 47 41 48 42 49 68 50 69 51 78 52 70 53 71 54 77 55
REMARK SMILES IDX 79 56 72 57 73 58 74 59 75 60 76 61 52 62 53 63 62 64 54 65
REMARK SMILES IDX 55 66 61 67 63 68 56 69 57 70 58 71 59 72 60 73 5 74 6 75
REMARK SMILES IDX 7 76 8 77 9 79 10 80 11 81 24 82 12 83 14 84 13 85 15 86
REMARK SMILES IDX 16 87 17 88 18 90 19 91 23 92 20 93 22 94 21 95
REMARK H PARENT 3 5 84 23 50 34 7 78 17 89
REMARK Flexibility Score: inf
ROOT
ATOM      1  C   UNL A   1      38.323  23.953  26.517  1.00  0.00     0.118 C 
ENDROOT
BRANCH   1   2
ATOM      2  N   UNL A   1      39.718  23.822  26.135  1.00  0.00    -0.352 N 
ATOM      3  O   UNL A   1      41.892  24.381  25.971  1.00  0.00    -0.269 OA
ATOM      4  C   UNL A   1      40.812  24.575  26.513  1.00  0.00     0.251 C 
ATOM      5  H   UNL A   1      39.913  23.086  25.512  1.00  0.00     0.163 HD
BRANCH   4   6
ATOM      6  C   UNL A   1      40.689  25.632  27.551  1.00  0.00     0.039 A 
ATOM      7  C   UNL A   1      41.535  26.738  27.558  1.00  0.00     0.014 A 
ATOM      8  C   UNL A   1      39.680  25.540  28.514  1.00  0.00     0.014 A 
ATOM      9  C   UNL A   1      41.472  27.658  28.608  1.00  0.00     0.010 A 
ATOM     10  C   UNL A   1      39.567  26.515  29.521  1.00  0.00     0.010 A 
ATOM     11  C   UNL A   1      40.487  27.571  29.610  1.00  0.00    -0.014 A 
BRANCH  11  12
ATOM     12  C   UNL A   1      40.421  28.598  30.703  1.00  0.00     0.031 A 
ATOM     13  C   UNL A   1      41.366  28.567  31.889  1.00  0.00     0.074 A 
ATOM     14  C   UNL A   1      39.511  29.594  30.633  1.00  0.00     0.049 A 
ATOM     15  N   UNL A   1      41.391  29.343  32.947  1.00  0.00    -0.248 NA
ATOM     16  C   UNL A   1      42.410  27.532  31.894  1.00  0.00     0.031 C 
ATOM     17  C   UNL A   1      38.531  29.767  29.559  1.00  0.00     0.029 A 
ATOM     18  N   UNL A   1      39.266  30.658  31.469  1.00  0.00    -0.354 N 
ATOM     19  C   UNL A   1      42.417  28.867  33.760  1.00  0.00     0.074 A 
ATOM     20  C   UNL A   1      42.983  27.723  33.076  1.00  0.00     0.031 C 
ATOM     21  C   UNL A   1      37.842  30.898  29.763  1.00  0.00     0.029 A 
ATOM     22  C   UNL A   1      38.250  31.479  31.036  1.00  0.00     0.049 A 
ATOM     23  H   UNL A   1      39.770  30.817  32.300  1.00  0.00     0.167 HD
ATOM     24  C   UNL A   1      42.849  29.334  34.961  1.00  0.00     0.037 A 
ATOM     25  C   UNL A   1      37.672  32.558  31.601  1.00  0.00     0.037 A 
ATOM     26  C   UNL A   1      42.310  30.494  35.632  1.00  0.00     0.049 A 
ATOM     27  C   UNL A   1      38.144  33.033  32.944  1.00  0.00     0.074 A 
ATOM     28  C   UNL A   1      42.715  31.058  36.831  1.00  0.00     0.029 A 
ATOM     29  N   UNL A   1      41.254  31.267  35.172  1.00  0.00    -0.354 N 
ATOM     30  N   UNL A   1      39.111  32.562  33.693  1.00  0.00    -0.248 NA
ATOM     31  C   UNL A   1      37.435  34.181  33.528  1.00  0.00     0.031 C 
ATOM     32  C   UNL A   1      41.872  32.135  37.123  1.00  0.00     0.029 A 
ATOM     33  C   UNL A   1      40.980  32.285  36.075  1.00  0.00     0.049 A 
ATOM     34  H   UNL A   1      40.770  31.117  34.328  1.00  0.00     0.167 HD
ATOM     35  C   UNL A   1      39.139  33.368  34.826  1.00  0.00     0.074 A 
ATOM     36  C   UNL A   1      38.106  34.368  34.656  1.00  0.00     0.031 C 
ATOM     37  C   UNL A   1      39.951  33.282  35.908  1.00  0.00     0.037 A 
BRANCH  24  38
ATOM     38  C   UNL A   1      43.954  28.579  35.660  1.00  0.00     0.058 A 
ATOM     39  C   UNL A   1      43.691  27.536  36.562  1.00  0.00     0.135 A 
ATOM     40  C   UNL A   1      45.301  28.861  35.369  1.00  0.00     0.135 A 
ATOM     41  F   UNL A   1      42.426  27.223  36.885  1.00  0.00    -0.206 F 
ATOM     42  C   UNL A   1      44.720  26.826  37.175  1.00  0.00     0.059 A 
ATOM     43  C   UNL A   1      46.345  28.143  35.947  1.00  0.00     0.059 A 
ATOM     44  F   UNL A   1      45.615  29.840  34.506  1.00  0.00    -0.206 F 
ATOM     45  C   UNL A   1      46.044  27.137  36.862  1.00  0.00     0.060 A 
BRANCH  45  46
ATOM     46  S   UNL A   1      47.366  26.211  37.674  1.00  0.00     0.124 S 
ATOM     47  O   UNL A   1      47.956  25.500  36.543  1.00  0.00    -0.237 OA
ATOM     48  O   UNL A   1      48.184  27.274  38.248  1.00  0.00    -0.237 OA
ATOM     49  O   UNL A   1      46.657  25.376  38.638  1.00  0.00    -0.744 OA
ENDBRANCH  45  46
ENDBRANCH  24  38
BRANCH  25  50
ATOM     50  C   UNL A   1      36.554  33.247  30.900  1.00  0.00     0.058 A 
ATOM     51  C   UNL A   1      35.229  33.106  31.337  1.00  0.00     0.135 A 
ATOM     52  C   UNL A   1      36.793  34.078  29.793  1.00  0.00     0.135 A 
ATOM     53  F   UNL A   1      34.948  32.313  32.381  1.00  0.00    -0.206 F 
ATOM     54  C   UNL A   1      34.180  33.758  30.698  1.00  0.00     0.059 A 
ATOM     55  C   UNL A   1      35.766  34.768  29.161  1.00  0.00     0.059 A 
ATOM     56  F   UNL A   1      38.046  34.256  29.342  1.00  0.00    -0.206 F 
ATOM     57  C   UNL A   1      34.460  34.594  29.616  1.00  0.00     0.060 A 
BRANCH  57  58
ATOM     58  S   UNL A   1      33.099  35.487  28.834  1.00  0.00     0.124 S 
ATOM     59  O   UNL A   1      33.817  36.500  28.069  1.00  0.00    -0.237 OA
ATOM     60  O   UNL A   1      32.452  34.436  28.055  1.00  0.00    -0.237 OA
ATOM     61  O   UNL A   1      32.326  35.980  29.970  1.00  0.00    -0.744 OA
ENDBRANCH  57  58
ENDBRANCH  25  50
BRANCH  37  62
ATOM     62  C   UNL A   1      39.785  34.326  36.981  1.00  0.00     0.058 A 
ATOM     63  C   UNL A   1      38.981  34.108  38.113  1.00  0.00     0.135 A 
ATOM     64  C   UNL A   1      40.455  35.557  36.886  1.00  0.00     0.135 A 
ATOM     65  F   UNL A   1      38.309  32.954  38.252  1.00  0.00    -0.206 F 
ATOM     66  C   UNL A   1      38.820  35.085  39.092  1.00  0.00     0.059 A 
ATOM     67  C   UNL A   1      40.334  36.536  37.868  1.00  0.00     0.059 A 
ATOM     68  F   UNL A   1      41.244  35.817  35.831  1.00  0.00    -0.206 F 
ATOM     69  C   UNL A   1      39.502  36.297  38.960  1.00  0.00     0.060 A 
BRANCH  69  70
ATOM     70  S   UNL A   1      39.298  37.549  40.245  1.00  0.00     0.124 S 
ATOM     71  O   UNL A   1      38.285  38.417  39.653  1.00  0.00    -0.237 OA
ATOM     72  O   UNL A   1      38.863  36.754  41.389  1.00  0.00    -0.237 OA
ATOM     73  O   UNL A   1      40.632  38.132  40.366  1.00  0.00    -0.744 OA
ENDBRANCH  69  70
ENDBRANCH  37  62
ENDBRANCH  11  12
ENDBRANCH   4   6
ENDBRANCH   1   2
BRANCH   1  74
ATOM     74  C   UNL A   1      37.341  23.667  25.389  1.00  0.00     0.042 C 
BRANCH  74  75
ATOM     75  C   UNL A   1      36.303  22.579  25.646  1.00  0.00     0.117 C 
BRANCH  75  76
ATOM     76  N   UNL A   1      35.062  23.040  26.243  1.00  0.00    -0.356 N 
ATOM     77  C   UNL A   1      33.880  22.387  26.410  1.00  0.00     0.224 C 
ATOM     78  H   UNL A   1      35.078  23.966  26.577  1.00  0.00     0.163 HD
ATOM     79  O   UNL A   1      33.346  22.509  27.520  1.00  0.00    -0.275 OA
BRANCH  77  80
ATOM     80  C   UNL A   1      33.099  21.682  25.295  1.00  0.00     0.098 C 
ATOM     81  C   UNL A   1      33.300  22.033  23.829  1.00  0.00     0.017 C 
ATOM     82  C   UNL A   1      31.610  21.696  25.637  1.00  0.00     0.134 C 
ATOM     83  C   UNL A   1      32.438  23.170  23.295  1.00  0.00     0.022 C 
ATOM     84  N   UNL A   1      31.054  23.026  25.423  1.00  0.00    -0.324 N 
ATOM     85  C   UNL A   1      31.125  23.468  24.029  1.00  0.00     0.121 C 
BRANCH  84  86
ATOM     86  C   UNL A   1      30.636  23.712  26.543  1.00  0.00     0.321 C 
ATOM     87  O   UNL A   1      29.849  23.208  27.353  1.00  0.00    -0.248 OA
ATOM     88  N   UNL A   1      31.149  24.909  26.913  1.00  0.00    -0.308 N 
ATOM     89  H   UNL A   1      31.026  25.100  27.871  1.00  0.00     0.171 HD
BRANCH  88  90
ATOM     90  C   UNL A   1      31.812  25.929  26.233  1.00  0.00     0.042 A 
ATOM     91  C   UNL A   1      31.025  26.947  25.698  1.00  0.00     0.026 A 
ATOM     92  C   UNL A   1      33.198  25.994  26.109  1.00  0.00     0.026 A 
ATOM     93  C   UNL A   1      31.621  28.118  25.237  1.00  0.00     0.002 A 
ATOM     94  C   UNL A   1      33.795  27.156  25.621  1.00  0.00     0.002 A 
ATOM     95  C   UNL A   1      33.006  28.234  25.225  1.00  0.00     0.000 A 
ENDBRANCH  88  90
ENDBRANCH  84  86
ENDBRANCH  77  80
ENDBRANCH  75  76
ENDBRANCH  74  75
ENDBRANCH   1  74
TORSDOF 15
ENDMDL
MODEL 2
REMARK VINA RESULT:     -12.3      4.868     10.472
REMARK SMILES O=C(NCCCNC(=O)[C@@H]1CCCN(C(=O)Nc2ccccc2)C1)c1ccc(-c2c3nc(c(-c4c(F)cc(S(=O)(=O)[O-])cc4F)c4ccc([nH]4)c(-c4c(F)cc(S(=O)(=O)[O-])cc4F)c4nc(c(-c5c(F)cc(S(=O)(=O)[O-])cc5F)c5ccc2[nH]5)C=C4)C=C3)cc1
REMARK SMILES IDX 4 1 3 2 1 3 2 4 25 6 26 7 90 8 27 9 89 10 28 11 29 12 30 13
REMARK SMILES IDX 83 14 31 15 88 16 82 17 84 18 32 19 87 20 81 21 80 22 33 24
REMARK SMILES IDX 67 25 46 26 66 27 47 28 50 29 65 30 85 31 48 32 49 33 64 35
REMARK SMILES IDX 86 36 51 37 34 38 35 39 44 40 36 41 37 42 43 43 45 44 38 45
REMARK SMILES IDX 39 46 40 47 41 48 42 49 68 50 69 51 78 52 70 53 71 54 77 55
REMARK SMILES IDX 79 56 72 57 73 58 74 59 75 60 76 61 52 62 53 63 62 64 54 65
REMARK SMILES IDX 55 66 61 67 63 68 56 69 57 70 58 71 59 72 60 73 5 74 6 75
REMARK SMILES IDX 7 76 8 77 9 79 10 80 11 81 24 82 12 83 14 84 13 85 15 86
REMARK SMILES IDX 16 87 17 88 18 90 19 91 23 92 20 93 22 94 21 95
REMARK H PARENT 3 5 84 23 50 34 7 78 17 89
REMARK Flexibility Score: inf
ROOT
ATOM      1  C   UNL A   1      33.897  27.727  26.487  1.00  0.00     0.118 C 
ENDROOT
BRANCH   1   2
ATOM      2  N   UNL A   1      33.492  29.058  26.902  1.00  0.00    -0.352 N 
ATOM      3  O   UNL A   1      33.619  31.034  27.975  1.00  0.00    -0.269 OA
ATOM      4  C   UNL A   1      34.192  30.015  27.610  1.00  0.00     0.251 C 
ATOM      5  H   UNL A   1      32.579  29.318  26.640  1.00  0.00     0.163 HD
BRANCH   4   6
ATOM      6  C   UNL A   1      35.624  29.815  27.953  1.00  0.00     0.039 A 
ATOM      7  C   UNL A   1      36.631  30.080  27.029  1.00  0.00     0.014 A 
ATOM      8  C   UNL A   1      35.974  29.395  29.240  1.00  0.00     0.014 A 
ATOM      9  C   UNL A   1      37.960  29.777  27.339  1.00  0.00     0.010 A 
ATOM     10  C   UNL A   1      37.321  29.173  29.575  1.00  0.00     0.010 A 
ATOM     11  C   UNL A   1      38.336  29.322  28.617  1.00  0.00    -0.014 A 
BRANCH  11  12
ATOM     12  C   UNL A   1      39.778  29.042  28.931  1.00  0.00     0.031 A 
ATOM     13  C   UNL A   1      40.665  30.072  29.605  1.00  0.00     0.074 A 
ATOM     14  C   UNL A   1      40.308  27.838  28.627  1.00  0.00     0.049 A 
ATOM     15  N   UNL A   1      41.946  30.005  29.881  1.00  0.00    -0.248 NA
ATOM     16  C   UNL A   1      40.040  31.338  30.013  1.00  0.00     0.031 C 
ATOM     17  C   UNL A   1      39.590  26.739  27.978  1.00  0.00     0.029 A 
ATOM     18  N   UNL A   1      41.568  27.325  28.832  1.00  0.00    -0.354 N 
ATOM     19  C   UNL A   1      42.289  31.229  30.453  1.00  0.00     0.074 A 
ATOM     20  C   UNL A   1      41.080  32.024  30.472  1.00  0.00     0.031 C 
ATOM     21  C   UNL A   1      40.392  25.668  27.900  1.00  0.00     0.029 A 
ATOM     22  C   UNL A   1      41.715  26.029  28.393  1.00  0.00     0.049 A 
ATOM     23  H   UNL A   1      42.296  27.837  29.254  1.00  0.00     0.167 HD
ATOM     24  C   UNL A   1      43.493  31.652  30.919  1.00  0.00     0.037 A 
ATOM     25  C   UNL A   1      42.792  25.220  28.346  1.00  0.00     0.037 A 
ATOM     26  C   UNL A   1      44.695  30.850  30.933  1.00  0.00     0.049 A 
ATOM     27  C   UNL A   1      44.120  25.723  28.834  1.00  0.00     0.074 A 
ATOM     28  C   UNL A   1      45.947  31.188  31.422  1.00  0.00     0.029 A 
ATOM     29  N   UNL A   1      44.803  29.559  30.438  1.00  0.00    -0.354 N 
ATOM     30  N   UNL A   1      44.418  26.884  29.363  1.00  0.00    -0.248 NA
ATOM     31  C   UNL A   1      45.263  24.809  28.704  1.00  0.00     0.031 C 
ATOM     32  C   UNL A   1      46.823  30.126  31.174  1.00  0.00     0.029 A 
ATOM     33  C   UNL A   1      46.104  29.098  30.588  1.00  0.00     0.049 A 
ATOM     34  H   UNL A   1      44.064  29.043  30.039  1.00  0.00     0.167 HD
ATOM     35  C   UNL A   1      45.778  26.832  29.649  1.00  0.00     0.074 A 
ATOM     36  C   UNL A   1      46.240  25.519  29.251  1.00  0.00     0.031 C 
ATOM     37  C   UNL A   1      46.567  27.791  30.192  1.00  0.00     0.037 A 
BRANCH  24  38
ATOM     38  C   UNL A   1      43.596  33.066  31.437  1.00  0.00     0.058 A 
ATOM     39  C   UNL A   1      43.409  33.381  32.792  1.00  0.00     0.135 A 
ATOM     40  C   UNL A   1      43.954  34.115  30.571  1.00  0.00     0.135 A 
ATOM     41  F   UNL A   1      43.058  32.424  33.667  1.00  0.00    -0.206 F 
ATOM     42  C   UNL A   1      43.538  34.685  33.263  1.00  0.00     0.059 A 
ATOM     43  C   UNL A   1      44.120  35.421  31.025  1.00  0.00     0.059 A 
ATOM     44  F   UNL A   1      44.157  33.874  29.266  1.00  0.00    -0.206 F 
ATOM     45  C   UNL A   1      43.893  35.699  32.371  1.00  0.00     0.060 A 
BRANCH  45  46
ATOM     46  S   UNL A   1      44.048  37.386  32.998  1.00  0.00     0.124 S 
ATOM     47  O   UNL A   1      43.907  38.164  31.770  1.00  0.00    -0.237 OA
ATOM     48  O   UNL A   1      42.932  37.475  33.933  1.00  0.00    -0.237 OA
ATOM     49  O   UNL A   1      45.376  37.406  33.603  1.00  0.00    -0.744 OA
ENDBRANCH  45  46
ENDBRANCH  24  38
BRANCH  25  50
ATOM     50  C   UNL A   1      42.659  23.847  27.784  1.00  0.00     0.058 A 
ATOM     51  C   UNL A   1      42.550  22.729  28.623  1.00  0.00     0.135 A 
ATOM     52  C   UNL A   1      42.615  23.631  26.397  1.00  0.00     0.135 A 
ATOM     53  F   UNL A   1      42.600  22.882  29.954  1.00  0.00    -0.206 F 
ATOM     54  C   UNL A   1      42.409  21.445  28.108  1.00  0.00     0.059 A 
ATOM     55  C   UNL A   1      42.439  22.362  25.859  1.00  0.00     0.059 A 
ATOM     56  F   UNL A   1      42.704  24.670  25.551  1.00  0.00    -0.206 F 
ATOM     57  C   UNL A   1      42.347  21.273  26.724  1.00  0.00     0.060 A 
BRANCH  57  58
ATOM     58  S   UNL A   1      42.098  19.610  26.067  1.00  0.00     0.124 S 
ATOM     59  O   UNL A   1      43.030  19.597  24.945  1.00  0.00    -0.237 OA
ATOM     60  O   UNL A   1      42.459  18.773  27.207  1.00  0.00    -0.237 OA
ATOM     61  O   UNL A   1      40.682  19.597  25.714  1.00  0.00    -0.744 OA
ENDBRANCH  57  58
ENDBRANCH  25  50
BRANCH  37  62
ATOM     62  C   UNL A   1      48.013  27.442  30.429  1.00  0.00     0.058 A 
ATOM     63  C   UNL A   1      49.013  27.729  29.484  1.00  0.00     0.135 A 
ATOM     64  C   UNL A   1      48.409  26.827  31.629  1.00  0.00     0.135 A 
ATOM     65  F   UNL A   1      48.691  28.307  28.316  1.00  0.00    -0.206 F 
ATOM     66  C   UNL A   1      50.344  27.388  29.705  1.00  0.00     0.059 A 
ATOM     67  C   UNL A   1      49.739  26.506  31.885  1.00  0.00     0.059 A 
ATOM     68  F   UNL A   1      47.498  26.538  32.573  1.00  0.00    -0.206 F 
ATOM     69  C   UNL A   1      50.698  26.776  30.910  1.00  0.00     0.060 A 
BRANCH  69  70
ATOM     70  S   UNL A   1      52.431  26.355  31.192  1.00  0.00     0.124 S 
ATOM     71  O   UNL A   1      52.936  26.258  29.826  1.00  0.00    -0.237 OA
ATOM     72  O   UNL A   1      52.908  27.497  31.965  1.00  0.00    -0.237 OA
ATOM     73  O   UNL A   1      52.359  25.094  31.926  1.00  0.00    -0.744 OA
ENDBRANCH  69  70
ENDBRANCH  37  62
ENDBRANCH  11  12
ENDBRANCH   4   6
ENDBRANCH   1   2
BRANCH   1  74
ATOM     74  C   UNL A   1      32.739  26.760  26.285  1.00  0.00     0.042 C 
BRANCH  74  75
ATOM     75  C   UNL A   1      33.036  25.495  25.485  1.00  0.00     0.117 C 
BRANCH  75  76
ATOM     76  N   UNL A   1      32.262  24.328  25.868  1.00  0.00    -0.356 N 
ATOM     77  C   UNL A   1      32.491  23.414  26.850  1.00  0.00     0.224 C 
ATOM     78  H   UNL A   1      31.448  24.174  25.336  1.00  0.00     0.163 HD
ATOM     79  O   UNL A   1      31.513  23.107  27.544  1.00  0.00    -0.275 OA
BRANCH  77  80
ATOM     80  C   UNL A   1      33.795  22.629  27.035  1.00  0.00     0.098 C 
ATOM     81  C   UNL A   1      35.145  23.213  26.652  1.00  0.00     0.017 C 
ATOM     82  C   UNL A   1      33.634  21.238  26.424  1.00  0.00     0.134 C 
ATOM     83  C   UNL A   1      35.576  22.996  25.207  1.00  0.00     0.022 C 
ATOM     84  N   UNL A   1      33.684  21.315  24.969  1.00  0.00    -0.324 N 
ATOM     85  C   UNL A   1      34.963  21.807  24.456  1.00  0.00     0.121 C 
BRANCH  84  86
ATOM     86  C   UNL A   1      32.521  21.017  24.291  1.00  0.00     0.321 C 
ATOM     87  O   UNL A   1      31.714  21.900  23.975  1.00  0.00    -0.248 OA
ATOM     88  N   UNL A   1      32.241  19.786  23.804  1.00  0.00    -0.308 N 
ATOM     89  H   UNL A   1      31.585  19.802  23.071  1.00  0.00     0.171 HD
BRANCH  88  90
ATOM     90  C   UNL A   1      32.680  18.500  24.117  1.00  0.00     0.042 A 
ATOM     91  C   UNL A   1      33.345  17.798  23.113  1.00  0.00     0.026 A 
ATOM     92  C   UNL A   1      32.522  17.920  25.373  1.00  0.00     0.026 A 
ATOM     93  C   UNL A   1      34.033  16.627  23.422  1.00  0.00     0.002 A 
ATOM     94  C   UNL A   1      33.187  16.732  25.675  1.00  0.00     0.002 A 
ATOM     95  C   UNL A   1      33.977  16.108  24.711  1.00  0.00     0.000 A 
ENDBRANCH  88  90
ENDBRANCH  84  86
ENDBRANCH  77  80
ENDBRANCH  75  76
ENDBRANCH  74  75
ENDBRANCH   1  74
TORSDOF 15
ENDMDL
MODEL 3
REMARK VINA RESULT:     -12.1      4.772     10.479
REMARK SMILES O=C(NCCCNC(=O)[C@@H]1CCCN(C(=O)Nc2ccccc2)C1)c1ccc(-c2c3nc(c(-c4c(F)cc(S(=O)(=O)[O-])cc4F)c4ccc([nH]4)c(-c4c(F)cc(S(=O)(=O)[O-])cc4F)c4nc(c(-c5c(F)cc(S(=O)(=O)[O-])cc5F)c5ccc2[nH]5)C=C4)C=C3)cc1
REMARK SMILES IDX 4 1 3 2 1 3 2 4 25 6 26 7 90 8 27 9 89 10 28 11 29 12 30 13
REMARK SMILES IDX 83 14 31 15 88 16 82 17 84 18 32 19 87 20 81 21 80 22 33 24
REMARK SMILES IDX 67 25 46 26 66 27 47 28 50 29 65 30 85 31 48 32 49 33 64 35
REMARK SMILES IDX 86 36 51 37 34 38 35 39 44 40 36 41 37 42 43 43 45 44 38 45
REMARK SMILES IDX 39 46 40 47 41 48 42 49 68 50 69 51 78 52 70 53 71 54 77 55
REMARK SMILES IDX 79 56 72 57 73 58 74 59 75 60 76 61 52 62 53 63 62 64 54 65
REMARK SMILES IDX 55 66 61 67 63 68 56 69 57 70 58 71 59 72 60 73 5 74 6 75
REMARK SMILES IDX 7 76 8 77 9 79 10 80 11 81 24 82 12 83 14 84 13 85 15 86
REMARK SMILES IDX 16 87 17 88 18 90 19 91 23 92 20 93 22 94 21 95
REMARK H PARENT 3 5 84 23 50 34 7 78 17 89
REMARK Flexibility Score: inf
ROOT
ATOM      1  C   UNL A   1      33.912  27.753  26.553  1.00  0.00     0.118 C 
ENDROOT
BRANCH   1   2
ATOM      2  N   UNL A   1      33.543  29.112  26.908  1.00  0.00    -0.352 N 
ATOM      3  O   UNL A   1      33.720  31.126  27.899  1.00  0.00    -0.269 OA
ATOM      4  C   UNL A   1      34.266  30.076  27.582  1.00  0.00     0.251 C 
ATOM      5  H   UNL A   1      32.641  29.387  26.626  1.00  0.00     0.163 HD
BRANCH   4   6
ATOM      6  C   UNL A   1      35.688  29.848  27.947  1.00  0.00     0.039 A 
ATOM      7  C   UNL A   1      36.714  30.094  27.039  1.00  0.00     0.014 A 
ATOM      8  C   UNL A   1      36.010  29.422  29.239  1.00  0.00     0.014 A 
ATOM      9  C   UNL A   1      38.032  29.765  27.369  1.00  0.00     0.010 A 
ATOM     10  C   UNL A   1      37.348  29.174  29.594  1.00  0.00     0.010 A 
ATOM     11  C   UNL A   1      38.380  29.303  28.652  1.00  0.00    -0.014 A 
BRANCH  11  12
ATOM     12  C   UNL A   1      39.811  28.996  28.988  1.00  0.00     0.031 A 
ATOM     13  C   UNL A   1      40.696  29.993  29.710  1.00  0.00     0.074 A 
ATOM     14  C   UNL A   1      40.333  27.794  28.660  1.00  0.00     0.049 A 
ATOM     15  N   UNL A   1      41.970  29.902  30.012  1.00  0.00    -0.248 NA
ATOM     16  C   UNL A   1      40.078  31.256  30.143  1.00  0.00     0.031 C 
ATOM     17  C   UNL A   1      39.615  26.723  27.965  1.00  0.00     0.029 A 
ATOM     18  N   UNL A   1      41.581  27.259  28.877  1.00  0.00    -0.354 N 
ATOM     19  C   UNL A   1      42.316  31.104  30.625  1.00  0.00     0.074 A 
ATOM     20  C   UNL A   1      41.117  31.914  30.642  1.00  0.00     0.031 C 
ATOM     21  C   UNL A   1      40.405  25.645  27.872  1.00  0.00     0.029 A 
ATOM     22  C   UNL A   1      41.722  25.974  28.403  1.00  0.00     0.049 A 
ATOM     23  H   UNL A   1      42.306  27.748  29.328  1.00  0.00     0.167 HD
ATOM     24  C   UNL A   1      43.515  31.498  31.129  1.00  0.00     0.037 A 
ATOM     25  C   UNL A   1      42.789  25.153  28.355  1.00  0.00     0.037 A 
ATOM     26  C   UNL A   1      44.706  30.680  31.145  1.00  0.00     0.049 A 
ATOM     27  C   UNL A   1      44.112  25.624  28.885  1.00  0.00     0.074 A 
ATOM     28  C   UNL A   1      45.952  30.987  31.669  1.00  0.00     0.029 A 
ATOM     29  N   UNL A   1      44.809  29.402  30.615  1.00  0.00    -0.354 N 
ATOM     30  N   UNL A   1      44.413  26.765  29.455  1.00  0.00    -0.248 NA
ATOM     31  C   UNL A   1      45.247  24.699  28.753  1.00  0.00     0.031 C 
ATOM     32  C   UNL A   1      46.819  29.921  31.409  1.00  0.00     0.029 A 
ATOM     33  C   UNL A   1      46.100  28.920  30.779  1.00  0.00     0.049 A 
ATOM     34  H   UNL A   1      44.072  28.909  30.186  1.00  0.00     0.167 HD
ATOM     35  C   UNL A   1      45.766  26.687  29.767  1.00  0.00     0.074 A 
ATOM     36  C   UNL A   1      46.220  25.381  29.340  1.00  0.00     0.031 C 
ATOM     37  C   UNL A   1      46.556  27.620  30.354  1.00  0.00     0.037 A 
BRANCH  24  38
ATOM     38  C   UNL A   1      43.624  32.895  31.691  1.00  0.00     0.058 A 
ATOM     39  C   UNL A   1      43.873  34.010  30.876  1.00  0.00     0.135 A 
ATOM     40  C   UNL A   1      43.410  33.128  33.061  1.00  0.00     0.135 A 
ATOM     41  F   UNL A   1      44.093  33.852  29.560  1.00  0.00    -0.206 F 
ATOM     42  C   UNL A   1      43.939  35.298  31.402  1.00  0.00     0.059 A 
ATOM     43  C   UNL A   1      43.440  34.410  33.604  1.00  0.00     0.059 A 
ATOM     44  F   UNL A   1      43.157  32.101  33.889  1.00  0.00    -0.206 F 
ATOM     45  C   UNL A   1      43.722  35.488  32.768  1.00  0.00     0.060 A 
BRANCH  45  46
ATOM     46  S   UNL A   1      43.820  37.164  33.435  1.00  0.00     0.124 S 
ATOM     47  O   UNL A   1      45.083  37.110  34.167  1.00  0.00    -0.237 OA
ATOM     48  O   UNL A   1      43.826  37.980  32.225  1.00  0.00    -0.237 OA
ATOM     49  O   UNL A   1      42.622  37.276  34.259  1.00  0.00    -0.744 OA
ENDBRANCH  45  46
ENDBRANCH  24  38
BRANCH  25  50
ATOM     50  C   UNL A   1      42.651  23.799  27.750  1.00  0.00     0.058 A 
ATOM     51  C   UNL A   1      42.751  23.611  26.364  1.00  0.00     0.135 A 
ATOM     52  C   UNL A   1      42.438  22.665  28.550  1.00  0.00     0.135 A 
ATOM     53  F   UNL A   1      42.941  24.665  25.557  1.00  0.00    -0.206 F 
ATOM     54  C   UNL A   1      42.640  22.349  25.792  1.00  0.00     0.059 A 
ATOM     55  C   UNL A   1      42.359  21.389  28.005  1.00  0.00     0.059 A 
ATOM     56  F   UNL A   1      42.346  22.789  29.884  1.00  0.00    -0.206 F 
ATOM     57  C   UNL A   1      42.451  21.242  26.622  1.00  0.00     0.060 A 
BRANCH  57  58
ATOM     58  S   UNL A   1      42.372  19.601  25.875  1.00  0.00     0.124 S 
ATOM     59  O   UNL A   1      42.718  18.748  27.007  1.00  0.00    -0.237 OA
ATOM     60  O   UNL A   1      40.985  19.536  25.426  1.00  0.00    -0.237 OA
ATOM     61  O   UNL A   1      43.365  19.670  24.807  1.00  0.00    -0.744 OA
ENDBRANCH  57  58
ENDBRANCH  25  50
BRANCH  37  62
ATOM     62  C   UNL A   1      47.992  27.245  30.612  1.00  0.00     0.058 A 
ATOM     63  C   UNL A   1      48.387  26.567  31.777  1.00  0.00     0.135 A 
ATOM     64  C   UNL A   1      48.988  27.554  29.669  1.00  0.00     0.135 A 
ATOM     65  F   UNL A   1      47.480  26.256  32.717  1.00  0.00    -0.206 F 
ATOM     66  C   UNL A   1      49.719  26.239  32.014  1.00  0.00     0.059 A 
ATOM     67  C   UNL A   1      50.320  27.207  29.871  1.00  0.00     0.059 A 
ATOM     68  F   UNL A   1      48.667  28.193  28.532  1.00  0.00    -0.206 F 
ATOM     69  C   UNL A   1      50.679  26.564  31.054  1.00  0.00     0.060 A 
BRANCH  69  70
ATOM     70  S   UNL A   1      52.401  26.119  31.366  1.00  0.00     0.124 S 
ATOM     71  O   UNL A   1      52.835  27.208  32.234  1.00  0.00    -0.237 OA
ATOM     72  O   UNL A   1      52.274  24.812  32.003  1.00  0.00    -0.237 OA
ATOM     73  O   UNL A   1      52.995  26.104  30.032  1.00  0.00    -0.744 OA
ENDBRANCH  69  70
ENDBRANCH  37  62
ENDBRANCH  11  12
ENDBRANCH   4   6
ENDBRANCH   1   2
BRANCH   1  74
ATOM     74  C   UNL A   1      33.396  27.305  25.192  1.00  0.00     0.042 C 
BRANCH  74  75
ATOM     75  C   UNL A   1      33.783  25.899  24.743  1.00  0.00     0.117 C 
BRANCH  75  76
ATOM     76  N   UNL A   1      32.936  24.835  25.251  1.00  0.00    -0.356 N 
ATOM     77  C   UNL A   1      33.106  24.026  26.332  1.00  0.00     0.224 C 
ATOM     78  H   UNL A   1      32.112  24.675  24.735  1.00  0.00     0.163 HD
ATOM     79  O   UNL A   1      32.111  23.863  27.049  1.00  0.00    -0.275 OA
BRANCH  77  80
ATOM     80  C   UNL A   1      34.356  23.184  26.611  1.00  0.00     0.098 C 
ATOM     81  C   UNL A   1      35.714  23.544  26.029  1.00  0.00     0.017 C 
ATOM     82  C   UNL A   1      34.043  21.713  26.338  1.00  0.00     0.134 C 
ATOM     83  C   UNL A   1      36.014  22.978  24.647  1.00  0.00     0.022 C 
ATOM     84  N   UNL A   1      33.987  21.466  24.903  1.00  0.00    -0.324 N 
ATOM     85  C   UNL A   1      35.257  21.715  24.219  1.00  0.00     0.121 C 
BRANCH  84  86
ATOM     86  C   UNL A   1      32.755  21.135  24.378  1.00  0.00     0.321 C 
ATOM     87  O   UNL A   1      31.907  21.999  24.127  1.00  0.00    -0.248 OA
ATOM     88  N   UNL A   1      32.435  19.884  23.972  1.00  0.00    -0.308 N 
ATOM     89  H   UNL A   1      31.697  19.868  23.322  1.00  0.00     0.171 HD
BRANCH  88  90
ATOM     90  C   UNL A   1      32.922  18.614  24.277  1.00  0.00     0.042 A 
ATOM     91  C   UNL A   1      32.626  18.111  25.542  1.00  0.00     0.026 A 
ATOM     92  C   UNL A   1      33.635  17.829  23.374  1.00  0.00     0.026 A 
ATOM     93  C   UNL A   1      32.849  16.765  25.826  1.00  0.00     0.002 A 
ATOM     94  C   UNL A   1      33.885  16.489  23.669  1.00  0.00     0.002 A 
ATOM     95  C   UNL A   1      33.454  15.947  24.878  1.00  0.00     0.000 A 
ENDBRANCH  88  90
ENDBRANCH  84  86
ENDBRANCH  77  80
ENDBRANCH  75  76
ENDBRANCH  74  75
ENDBRANCH   1  74
TORSDOF 15
ENDMDL
