MODEL 1
REMARK VINA RESULT:     -11.3      0.000      0.000
REMARK SMILES CC(C)Cn1c([C@@H](O)[C@@H](O)C(=O)NCCCNC(=O)c2ccc(-c3c4nc(c(-c5c(F)cc(S(=O)(=O)[O-])cc5F)c5ccc([nH]5)c(-c5c(F)cc(S(=O)(=O)[O-])cc5F)c5nc(c(-c6c(F)cc(S(=O)(=O)[O-])cc6F)c6ccc3[nH]6)C=C5)C=C4)cc2)nc2cc(Cl)ccc21
REMARK SMILES IDX 14 1 13 2 11 3 12 4 9 6 7 7 6 8 5 9 93 10 86 11 87 12 92 13
REMARK SMILES IDX 88 14 91 15 89 16 90 17 4 18 2 19 1 20 3 21 8 22 10 24 15 26
REMARK SMILES IDX 16 27 17 28 18 29 19 31 20 32 21 33 85 34 22 35 84 36 23 37
REMARK SMILES IDX 24 38 25 39 78 40 26 41 83 42 77 43 79 44 27 45 82 46 76 47
REMARK SMILES IDX 75 48 28 50 62 51 41 52 61 53 42 54 45 55 60 56 80 57 43 58
REMARK SMILES IDX 44 59 59 61 81 62 46 63 29 64 30 65 39 66 31 67 32 68 38 69
REMARK SMILES IDX 40 70 33 71 34 72 35 73 36 74 37 75 63 76 64 77 73 78 65 79
REMARK SMILES IDX 66 80 72 81 74 82 67 83 68 84 69 85 70 86 71 87 47 88 48 89
REMARK SMILES IDX 57 90 49 91 50 92 56 93 58 94 51 95 52 96 53 97 54 98 55 99
REMARK H PARENT 13 5 8 23 10 25 17 30 79 49 45 60
REMARK Flexibility Score: inf
ROOT
ATOM      1  C   UNL A   1      33.117  35.322  30.289  1.00  0.00     0.117 C 
ENDROOT
BRANCH   1   2
ATOM      2  N   UNL A   1      33.663  35.903  31.500  1.00  0.00    -0.354 N 
ATOM      3  C   UNL A   1      34.066  35.321  32.666  1.00  0.00     0.252 C 
ATOM      4  O   UNL A   1      34.547  36.073  33.524  1.00  0.00    -0.272 OA
ATOM      5  H   UNL A   1      33.759  36.883  31.477  1.00  0.00     0.163 HD
BRANCH   3   6
ATOM      6  C   UNL A   1      33.986  33.802  32.898  1.00  0.00     0.239 C 
BRANCH   6   7
ATOM      7  C   UNL A   1      35.191  33.241  33.676  1.00  0.00     0.219 C 
BRANCH   7   8
ATOM      8  C   UNL A   1      36.466  33.405  32.884  1.00  0.00     0.142 A 
ATOM      9  N   UNL A   1      37.598  32.625  33.032  1.00  0.00    -0.325 N 
ATOM     10  C   UNL A   1      38.564  33.111  32.176  1.00  0.00     0.068 A 
ATOM     11  N   UNL A   1      36.650  34.321  31.948  1.00  0.00    -0.230 NA
ATOM     12  C   UNL A   1      37.930  34.139  31.487  1.00  0.00     0.090 A 
ATOM     13  C   UNL A   1      39.893  32.742  31.927  1.00  0.00     0.030 A 
ATOM     14  C   UNL A   1      38.616  34.823  30.474  1.00  0.00     0.051 A 
ATOM     15  C   UNL A   1      40.569  33.439  30.921  1.00  0.00     0.023 A 
ATOM     16  C   UNL A   1      39.936  34.453  30.202  1.00  0.00     0.043 A 
ATOM     17  Cl  UNL A   1      40.797  35.267  28.950  1.00  0.00    -0.084 Cl
BRANCH   9  18
ATOM     18  C   UNL A   1      37.765  31.465  33.895  1.00  0.00     0.127 C 
BRANCH  18  19
ATOM     19  C   UNL A   1      38.693  31.725  35.093  1.00  0.00     0.003 C 
ATOM     20  C   UNL A   1      38.661  33.174  35.577  1.00  0.00     0.009 C 
ATOM     21  C   UNL A   1      38.362  30.771  36.239  1.00  0.00     0.009 C 
ENDBRANCH  18  19
ENDBRANCH   9  18
ENDBRANCH   7   8
BRANCH   7  22
ATOM     22  O   UNL A   1      35.371  33.940  34.915  1.00  0.00    -0.382 OA
ATOM     23  H   UNL A   1      34.505  34.158  35.293  1.00  0.00     0.211 HD
ENDBRANCH   7  22
ENDBRANCH   6   7
BRANCH   6  24
ATOM     24  O   UNL A   1      32.739  33.483  33.529  1.00  0.00    -0.380 OA
ATOM     25  H   UNL A   1      32.780  32.584  33.890  1.00  0.00     0.211 HD
ENDBRANCH   6  24
ENDBRANCH   3   6
ENDBRANCH   1   2
BRANCH   1  26
ATOM     26  C   UNL A   1      34.191  35.096  29.226  1.00  0.00     0.042 C 
BRANCH  26  27
ATOM     27  C   UNL A   1      34.881  33.737  29.337  1.00  0.00     0.118 C 
BRANCH  27  28
ATOM     28  N   UNL A   1      34.221  32.675  28.606  1.00  0.00    -0.352 N 
ATOM     29  C   UNL A   1      34.591  31.436  28.163  1.00  0.00     0.251 C 
ATOM     30  H   UNL A   1      33.291  32.898  28.373  1.00  0.00     0.163 HD
ATOM     31  O   UNL A   1      33.694  30.754  27.660  1.00  0.00    -0.269 OA
BRANCH  29  32
ATOM     32  C   UNL A   1      35.980  30.900  28.179  1.00  0.00     0.039 A 
ATOM     33  C   UNL A   1      36.357  29.606  27.819  1.00  0.00     0.014 A 
ATOM     34  C   UNL A   1      36.968  31.778  28.664  1.00  0.00     0.014 A 
ATOM     35  C   UNL A   1      37.650  29.156  28.062  1.00  0.00     0.010 A 
ATOM     36  C   UNL A   1      38.269  31.344  28.878  1.00  0.00     0.010 A 
ATOM     37  C   UNL A   1      38.590  30.012  28.635  1.00  0.00    -0.014 A 
BRANCH  37  38
ATOM     38  C   UNL A   1      39.923  29.482  28.905  1.00  0.00     0.031 A 
ATOM     39  C   UNL A   1      40.301  29.405  30.348  1.00  0.00     0.074 A 
ATOM     40  C   UNL A   1      40.704  28.977  27.929  1.00  0.00     0.049 A 
ATOM     41  N   UNL A   1      41.306  29.948  30.957  1.00  0.00    -0.248 NA
ATOM     42  C   UNL A   1      39.368  28.705  31.246  1.00  0.00     0.031 C 
ATOM     43  C   UNL A   1      40.345  28.726  26.530  1.00  0.00     0.029 A 
ATOM     44  N   UNL A   1      41.965  28.471  28.015  1.00  0.00    -0.354 N 
ATOM     45  C   UNL A   1      41.242  29.501  32.276  1.00  0.00     0.074 A 
ATOM     46  C   UNL A   1      39.960  28.862  32.430  1.00  0.00     0.031 C 
ATOM     47  C   UNL A   1      41.269  27.911  25.973  1.00  0.00     0.029 A 
ATOM     48  C   UNL A   1      42.341  27.692  26.927  1.00  0.00     0.049 A 
ATOM     49  H   UNL A   1      42.559  28.643  28.781  1.00  0.00     0.167 HD
ATOM     50  C   UNL A   1      42.320  29.504  33.110  1.00  0.00     0.037 A 
ATOM     51  C   UNL A   1      43.414  26.863  26.860  1.00  0.00     0.037 A 
ATOM     52  C   UNL A   1      43.352  30.392  32.653  1.00  0.00     0.049 A 
ATOM     53  C   UNL A   1      44.360  27.279  27.929  1.00  0.00     0.074 A 
ATOM     54  C   UNL A   1      43.439  31.754  32.443  1.00  0.00     0.029 A 
ATOM     55  N   UNL A   1      44.436  29.848  32.011  1.00  0.00    -0.354 N 
ATOM     56  N   UNL A   1      45.008  28.412  27.937  1.00  0.00    -0.248 NA
ATOM     57  C   UNL A   1      44.270  26.604  29.214  1.00  0.00     0.031 C 
ATOM     58  C   UNL A   1      44.276  31.901  31.299  1.00  0.00     0.029 A 
ATOM     59  C   UNL A   1      44.681  30.624  30.907  1.00  0.00     0.049 A 
ATOM     60  H   UNL A   1      44.943  29.051  32.290  1.00  0.00     0.167 HD
ATOM     61  C   UNL A   1      45.050  28.789  29.271  1.00  0.00     0.074 A 
ATOM     62  C   UNL A   1      44.665  27.595  30.016  1.00  0.00     0.031 C 
ATOM     63  C   UNL A   1      45.129  30.104  29.633  1.00  0.00     0.037 A 
BRANCH  50  64
ATOM     64  C   UNL A   1      42.555  28.463  34.178  1.00  0.00     0.058 A 
ATOM     65  C   UNL A   1      42.453  28.805  35.541  1.00  0.00     0.135 A 
ATOM     66  C   UNL A   1      43.139  27.205  33.906  1.00  0.00     0.135 A 
ATOM     67  F   UNL A   1      41.939  29.989  35.911  1.00  0.00    -0.206 F 
ATOM     68  C   UNL A   1      42.936  27.976  36.556  1.00  0.00     0.059 A 
ATOM     69  C   UNL A   1      43.574  26.340  34.903  1.00  0.00     0.059 A 
ATOM     70  F   UNL A   1      43.400  26.800  32.657  1.00  0.00    -0.206 F 
ATOM     71  C   UNL A   1      43.506  26.749  36.225  1.00  0.00     0.060 A 
BRANCH  71  72
ATOM     72  S   UNL A   1      44.227  25.725  37.520  1.00  0.00     0.124 S 
ATOM     73  O   UNL A   1      45.650  25.835  37.220  1.00  0.00    -0.237 OA
ATOM     74  O   UNL A   1      43.772  26.402  38.730  1.00  0.00    -0.237 OA
ATOM     75  O   UNL A   1      43.630  24.414  37.282  1.00  0.00    -0.744 OA
ENDBRANCH  71  72
ENDBRANCH  50  64
BRANCH  51  76
ATOM     76  C   UNL A   1      43.505  25.534  26.197  1.00  0.00     0.058 A 
ATOM     77  C   UNL A   1      44.518  25.263  25.259  1.00  0.00     0.135 A 
ATOM     78  C   UNL A   1      42.795  24.416  26.680  1.00  0.00     0.135 A 
ATOM     79  F   UNL A   1      45.257  26.265  24.757  1.00  0.00    -0.206 F 
ATOM     80  C   UNL A   1      44.851  23.961  24.874  1.00  0.00     0.059 A 
ATOM     81  C   UNL A   1      43.098  23.110  26.300  1.00  0.00     0.059 A 
ATOM     82  F   UNL A   1      41.844  24.547  27.617  1.00  0.00    -0.206 F 
ATOM     83  C   UNL A   1      44.152  22.887  25.422  1.00  0.00     0.060 A 
BRANCH  83  84
ATOM     84  S   UNL A   1      44.706  21.200  25.084  1.00  0.00     0.124 S 
ATOM     85  O   UNL A   1      43.727  20.407  25.819  1.00  0.00    -0.237 OA
ATOM     86  O   UNL A   1      44.619  21.136  23.629  1.00  0.00    -0.237 OA
ATOM     87  O   UNL A   1      46.063  21.174  25.626  1.00  0.00    -0.744 OA
ENDBRANCH  83  84
ENDBRANCH  51  76
BRANCH  63  88
ATOM     88  C   UNL A   1      45.453  31.117  28.563  1.00  0.00     0.058 A 
ATOM     89  C   UNL A   1      44.487  31.741  27.754  1.00  0.00     0.135 A 
ATOM     90  C   UNL A   1      46.770  31.594  28.467  1.00  0.00     0.135 A 
ATOM     91  F   UNL A   1      43.189  31.422  27.857  1.00  0.00    -0.206 F 
ATOM     92  C   UNL A   1      44.818  32.768  26.869  1.00  0.00     0.059 A 
ATOM     93  C   UNL A   1      47.117  32.641  27.615  1.00  0.00     0.059 A 
ATOM     94  F   UNL A   1      47.728  31.081  29.257  1.00  0.00    -0.206 F 
ATOM     95  C   UNL A   1      46.135  33.219  26.813  1.00  0.00     0.060 A 
BRANCH  95  96
ATOM     96  S   UNL A   1      46.531  34.630  25.756  1.00  0.00     0.124 S 
ATOM     97  O   UNL A   1      45.579  34.468  24.657  1.00  0.00    -0.237 OA
ATOM     98  O   UNL A   1      46.278  35.771  26.640  1.00  0.00    -0.237 OA
ATOM     99  O   UNL A   1      47.928  34.420  25.411  1.00  0.00    -0.744 OA
ENDBRANCH  95  96
ENDBRANCH  63  88
ENDBRANCH  37  38
ENDBRANCH  29  32
ENDBRANCH  27  28
ENDBRANCH  26  27
ENDBRANCH   1  26
TORSDOF 19
ENDMDL
MODEL 2
REMARK VINA RESULT:     -11.3      5.197     11.730
REMARK SMILES CC(C)Cn1c([C@@H](O)[C@@H](O)C(=O)NCCCNC(=O)c2ccc(-c3c4nc(c(-c5c(F)cc(S(=O)(=O)[O-])cc5F)c5ccc([nH]5)c(-c5c(F)cc(S(=O)(=O)[O-])cc5F)c5nc(c(-c6c(F)cc(S(=O)(=O)[O-])cc6F)c6ccc3[nH]6)C=C5)C=C4)cc2)nc2cc(Cl)ccc21
REMARK SMILES IDX 14 1 13 2 11 3 12 4 9 6 7 7 6 8 5 9 93 10 86 11 87 12 92 13
REMARK SMILES IDX 88 14 91 15 89 16 90 17 4 18 2 19 1 20 3 21 8 22 10 24 15 26
REMARK SMILES IDX 16 27 17 28 18 29 19 31 20 32 21 33 85 34 22 35 84 36 23 37
REMARK SMILES IDX 24 38 25 39 78 40 26 41 83 42 77 43 79 44 27 45 82 46 76 47
REMARK SMILES IDX 75 48 28 50 62 51 41 52 61 53 42 54 45 55 60 56 80 57 43 58
REMARK SMILES IDX 44 59 59 61 81 62 46 63 29 64 30 65 39 66 31 67 32 68 38 69
REMARK SMILES IDX 40 70 33 71 34 72 35 73 36 74 37 75 63 76 64 77 73 78 65 79
REMARK SMILES IDX 66 80 72 81 74 82 67 83 68 84 69 85 70 86 71 87 47 88 48 89
REMARK SMILES IDX 57 90 49 91 50 92 56 93 58 94 51 95 52 96 53 97 54 98 55 99
REMARK H PARENT 13 5 8 23 10 25 17 30 79 49 45 60
REMARK Flexibility Score: inf
ROOT
ATOM      1  C   UNL A   1      39.852  21.692  26.565  1.00  0.00     0.117 C 
ENDROOT
BRANCH   1   2
ATOM      2  N   UNL A   1      39.341  23.034  26.757  1.00  0.00    -0.354 N 
ATOM      3  C   UNL A   1      38.246  23.657  26.233  1.00  0.00     0.252 C 
ATOM      4  O   UNL A   1      38.024  24.811  26.622  1.00  0.00    -0.272 OA
ATOM      5  H   UNL A   1      39.874  23.591  27.369  1.00  0.00     0.163 HD
BRANCH   3   6
ATOM      6  C   UNL A   1      37.292  22.954  25.250  1.00  0.00     0.239 C 
BRANCH   6   7
ATOM      7  C   UNL A   1      35.822  22.978  25.707  1.00  0.00     0.219 C 
BRANCH   7   8
ATOM      8  C   UNL A   1      35.107  21.716  25.283  1.00  0.00     0.142 A 
ATOM      9  N   UNL A   1      33.765  21.634  24.964  1.00  0.00    -0.325 N 
ATOM     10  C   UNL A   1      33.475  20.317  24.678  1.00  0.00     0.068 A 
ATOM     11  N   UNL A   1      35.687  20.534  25.165  1.00  0.00    -0.230 NA
ATOM     12  C   UNL A   1      34.700  19.665  24.773  1.00  0.00     0.090 A 
ATOM     13  C   UNL A   1      32.291  19.653  24.331  1.00  0.00     0.030 A 
ATOM     14  C   UNL A   1      34.784  18.297  24.478  1.00  0.00     0.051 A 
ATOM     15  C   UNL A   1      32.387  18.286  24.050  1.00  0.00     0.023 A 
ATOM     16  C   UNL A   1      33.614  17.626  24.112  1.00  0.00     0.043 A 
ATOM     17  Cl  UNL A   1      33.693  15.947  23.728  1.00  0.00    -0.084 Cl
BRANCH   9  18
ATOM     18  C   UNL A   1      32.806  22.727  24.889  1.00  0.00     0.127 C 
BRANCH  18  19
ATOM     19  C   UNL A   1      32.343  23.036  23.455  1.00  0.00     0.003 C 
ATOM     20  C   UNL A   1      31.021  23.800  23.400  1.00  0.00     0.009 C 
ATOM     21  C   UNL A   1      33.430  23.794  22.697  1.00  0.00     0.009 C 
ENDBRANCH  18  19
ENDBRANCH   9  18
ENDBRANCH   7   8
BRANCH   7  22
ATOM     22  O   UNL A   1      35.730  23.054  27.135  1.00  0.00    -0.382 OA
ATOM     23  H   UNL A   1      36.149  23.872  27.444  1.00  0.00     0.211 HD
ENDBRANCH   7  22
ENDBRANCH   6   7
BRANCH   6  24
ATOM     24  O   UNL A   1      37.462  23.516  23.942  1.00  0.00    -0.380 OA
ATOM     25  H   UNL A   1      37.985  22.909  23.395  1.00  0.00     0.211 HD
ENDBRANCH   6  24
ENDBRANCH   3   6
ENDBRANCH   1   2
BRANCH   1  26
ATOM     26  C   UNL A   1      40.776  21.261  27.703  1.00  0.00     0.042 C 
BRANCH  26  27
ATOM     27  C   UNL A   1      41.717  20.118  27.323  1.00  0.00     0.118 C 
BRANCH  27  28
ATOM     28  N   UNL A   1      42.568  20.402  26.186  1.00  0.00    -0.352 N 
ATOM     29  C   UNL A   1      43.348  21.458  25.806  1.00  0.00     0.251 C 
ATOM     30  H   UNL A   1      42.589  19.663  25.535  1.00  0.00     0.163 HD
ATOM     31  O   UNL A   1      44.036  21.284  24.796  1.00  0.00    -0.269 OA
BRANCH  29  32
ATOM     32  C   UNL A   1      43.365  22.791  26.467  1.00  0.00     0.039 A 
ATOM     33  C   UNL A   1      43.887  23.067  27.731  1.00  0.00     0.014 A 
ATOM     34  C   UNL A   1      42.738  23.833  25.757  1.00  0.00     0.014 A 
ATOM     35  C   UNL A   1      43.670  24.303  28.329  1.00  0.00     0.010 A 
ATOM     36  C   UNL A   1      42.548  25.080  26.336  1.00  0.00     0.010 A 
ATOM     37  C   UNL A   1      42.960  25.291  27.648  1.00  0.00    -0.014 A 
BRANCH  37  38
ATOM     38  C   UNL A   1      42.726  26.559  28.333  1.00  0.00     0.031 A 
ATOM     39  C   UNL A   1      43.825  27.563  28.213  1.00  0.00     0.074 A 
ATOM     40  C   UNL A   1      41.548  26.849  28.920  1.00  0.00     0.049 A 
ATOM     41  N   UNL A   1      44.506  28.141  29.151  1.00  0.00    -0.248 NA
ATOM     42  C   UNL A   1      44.290  27.886  26.854  1.00  0.00     0.031 C 
ATOM     43  C   UNL A   1      40.300  26.082  28.861  1.00  0.00     0.029 A 
ATOM     44  N   UNL A   1      41.186  27.966  29.609  1.00  0.00    -0.354 N 
ATOM     45  C   UNL A   1      45.352  29.045  28.507  1.00  0.00     0.074 A 
ATOM     46  C   UNL A   1      45.280  28.743  27.100  1.00  0.00     0.031 C 
ATOM     47  C   UNL A   1      39.278  26.862  29.279  1.00  0.00     0.029 A 
ATOM     48  C   UNL A   1      39.812  28.125  29.754  1.00  0.00     0.049 A 
ATOM     49  H   UNL A   1      41.839  28.605  29.975  1.00  0.00     0.167 HD
ATOM     50  C   UNL A   1      45.910  30.113  29.142  1.00  0.00     0.037 A 
ATOM     51  C   UNL A   1      39.167  29.251  30.154  1.00  0.00     0.037 A 
ATOM     52  C   UNL A   1      45.900  29.958  30.570  1.00  0.00     0.049 A 
ATOM     53  C   UNL A   1      40.163  30.104  30.855  1.00  0.00     0.074 A 
ATOM     54  C   UNL A   1      46.472  29.063  31.453  1.00  0.00     0.029 A 
ATOM     55  N   UNL A   1      44.939  30.624  31.288  1.00  0.00    -0.354 N 
ATOM     56  N   UNL A   1      40.719  29.800  31.995  1.00  0.00    -0.248 NA
ATOM     57  C   UNL A   1      40.859  31.115  30.073  1.00  0.00     0.031 C 
ATOM     58  C   UNL A   1      45.510  28.901  32.492  1.00  0.00     0.029 A 
ATOM     59  C   UNL A   1      44.431  29.736  32.201  1.00  0.00     0.049 A 
ATOM     60  H   UNL A   1      44.665  31.563  31.170  1.00  0.00     0.167 HD
ATOM     61  C   UNL A   1      42.022  30.265  31.893  1.00  0.00     0.074 A 
ATOM     62  C   UNL A   1      42.020  31.146  30.729  1.00  0.00     0.031 C 
ATOM     63  C   UNL A   1      43.039  29.684  32.594  1.00  0.00     0.037 A 
BRANCH  50  64
ATOM     64  C   UNL A   1      46.183  31.437  28.469  1.00  0.00     0.058 A 
ATOM     65  C   UNL A   1      45.126  32.188  27.918  1.00  0.00     0.135 A 
ATOM     66  C   UNL A   1      47.484  31.862  28.114  1.00  0.00     0.135 A 
ATOM     67  F   UNL A   1      43.850  31.856  28.168  1.00  0.00    -0.206 F 
ATOM     68  C   UNL A   1      45.346  33.256  27.044  1.00  0.00     0.059 A 
ATOM     69  C   UNL A   1      47.727  32.955  27.291  1.00  0.00     0.059 A 
ATOM     70  F   UNL A   1      48.577  31.175  28.473  1.00  0.00    -0.206 F 
ATOM     71  C   UNL A   1      46.652  33.624  26.728  1.00  0.00     0.060 A 
BRANCH  71  72
ATOM     72  S   UNL A   1      46.940  34.929  25.519  1.00  0.00     0.124 S 
ATOM     73  O   UNL A   1      46.866  36.121  26.355  1.00  0.00    -0.237 OA
ATOM     74  O   UNL A   1      48.263  34.584  25.010  1.00  0.00    -0.237 OA
ATOM     75  O   UNL A   1      45.845  34.753  24.569  1.00  0.00    -0.744 OA
ENDBRANCH  71  72
ENDBRANCH  50  64
BRANCH  51  76
ATOM     76  C   UNL A   1      37.873  29.792  29.657  1.00  0.00     0.058 A 
ATOM     77  C   UNL A   1      36.881  30.228  30.553  1.00  0.00     0.135 A 
ATOM     78  C   UNL A   1      37.698  30.168  28.309  1.00  0.00     0.135 A 
ATOM     79  F   UNL A   1      36.974  29.930  31.859  1.00  0.00    -0.206 F 
ATOM     80  C   UNL A   1      35.817  31.042  30.152  1.00  0.00     0.059 A 
ATOM     81  C   UNL A   1      36.638  30.965  27.883  1.00  0.00     0.059 A 
ATOM     82  F   UNL A   1      38.608  29.854  27.375  1.00  0.00    -0.206 F 
ATOM     83  C   UNL A   1      35.719  31.428  28.816  1.00  0.00     0.060 A 
BRANCH  83  84
ATOM     84  S   UNL A   1      34.467  32.637  28.331  1.00  0.00     0.124 S 
ATOM     85  O   UNL A   1      33.998  33.123  29.625  1.00  0.00    -0.237 OA
ATOM     86  O   UNL A   1      35.246  33.583  27.539  1.00  0.00    -0.237 OA
ATOM     87  O   UNL A   1      33.502  31.843  27.576  1.00  0.00    -0.744 OA
ENDBRANCH  83  84
ENDBRANCH  51  76
BRANCH  63  88
ATOM     88  C   UNL A   1      42.681  28.714  33.693  1.00  0.00     0.058 A 
ATOM     89  C   UNL A   1      42.706  27.316  33.545  1.00  0.00     0.135 A 
ATOM     90  C   UNL A   1      42.466  29.215  34.986  1.00  0.00     0.135 A 
ATOM     91  F   UNL A   1      43.008  26.751  32.368  1.00  0.00    -0.206 F 
ATOM     92  C   UNL A   1      42.495  26.456  34.624  1.00  0.00     0.059 A 
ATOM     93  C   UNL A   1      42.286  28.376  36.084  1.00  0.00     0.059 A 
ATOM     94  F   UNL A   1      42.490  30.540  35.205  1.00  0.00    -0.206 F 
ATOM     95  C   UNL A   1      42.296  26.995  35.893  1.00  0.00     0.060 A 
BRANCH  95  96
ATOM     96  S   UNL A   1      42.147  25.875  37.304  1.00  0.00     0.124 S 
ATOM     97  O   UNL A   1      40.733  26.006  37.652  1.00  0.00    -0.237 OA
ATOM     98  O   UNL A   1      42.532  24.585  36.727  1.00  0.00    -0.237 OA
ATOM     99  O   UNL A   1      43.085  26.417  38.274  1.00  0.00    -0.744 OA
ENDBRANCH  95  96
ENDBRANCH  63  88
ENDBRANCH  37  38
ENDBRANCH  29  32
ENDBRANCH  27  28
ENDBRANCH  26  27
ENDBRANCH   1  26
TORSDOF 19
ENDMDL
MODEL 3
REMARK VINA RESULT:     -11.0      4.497     11.317
REMARK SMILES CC(C)Cn1c([C@@H](O)[C@@H](O)C(=O)NCCCNC(=O)c2ccc(-c3c4nc(c(-c5c(F)cc(S(=O)(=O)[O-])cc5F)c5ccc([nH]5)c(-c5c(F)cc(S(=O)(=O)[O-])cc5F)c5nc(c(-c6c(F)cc(S(=O)(=O)[O-])cc6F)c6ccc3[nH]6)C=C5)C=C4)cc2)nc2cc(Cl)ccc21
REMARK SMILES IDX 14 1 13 2 11 3 12 4 9 6 7 7 6 8 5 9 93 10 86 11 87 12 92 13
REMARK SMILES IDX 88 14 91 15 89 16 90 17 4 18 2 19 1 20 3 21 8 22 10 24 15 26
REMARK SMILES IDX 16 27 17 28 18 29 19 31 20 32 21 33 85 34 22 35 84 36 23 37
REMARK SMILES IDX 24 38 25 39 78 40 26 41 83 42 77 43 79 44 27 45 82 46 76 47
REMARK SMILES IDX 75 48 28 50 62 51 41 52 61 53 42 54 45 55 60 56 80 57 43 58
REMARK SMILES IDX 44 59 59 61 81 62 46 63 29 64 30 65 39 66 31 67 32 68 38 69
REMARK SMILES IDX 40 70 33 71 34 72 35 73 36 74 37 75 63 76 64 77 73 78 65 79
REMARK SMILES IDX 66 80 72 81 74 82 67 83 68 84 69 85 70 86 71 87 47 88 48 89
REMARK SMILES IDX 57 90 49 91 50 92 56 93 58 94 51 95 52 96 53 97 54 98 55 99
REMARK H PARENT 13 5 8 23 10 25 17 30 79 49 45 60
REMARK Flexibility Score: inf
ROOT
ATOM      1  C   UNL A   1      39.831  22.385  26.386  1.00  0.00     0.117 C 
ENDROOT
BRANCH   1   2
ATOM      2  N   UNL A   1      39.095  21.302  25.766  1.00  0.00    -0.354 N 
ATOM      3  C   UNL A   1      37.814  21.244  25.300  1.00  0.00     0.252 C 
ATOM      4  O   UNL A   1      37.465  20.185  24.764  1.00  0.00    -0.272 OA
ATOM      5  H   UNL A   1      39.606  20.466  25.663  1.00  0.00     0.163 HD
BRANCH   3   6
ATOM      6  C   UNL A   1      36.855  22.446  25.379  1.00  0.00     0.239 C 
BRANCH   6   7
ATOM      7  C   UNL A   1      36.127  22.731  24.052  1.00  0.00     0.219 C 
BRANCH   7   8
ATOM      8  C   UNL A   1      35.040  23.762  24.247  1.00  0.00     0.142 A 
ATOM      9  N   UNL A   1      33.865  23.822  23.522  1.00  0.00    -0.325 N 
ATOM     10  C   UNL A   1      33.156  24.923  23.951  1.00  0.00     0.068 A 
ATOM     11  N   UNL A   1      35.085  24.734  25.141  1.00  0.00    -0.230 NA
ATOM     12  C   UNL A   1      33.923  25.446  24.986  1.00  0.00     0.090 A 
ATOM     13  C   UNL A   1      31.934  25.485  23.558  1.00  0.00     0.030 A 
ATOM     14  C   UNL A   1      33.457  26.557  25.704  1.00  0.00     0.051 A 
ATOM     15  C   UNL A   1      31.486  26.599  24.275  1.00  0.00     0.023 A 
ATOM     16  C   UNL A   1      32.230  27.116  25.334  1.00  0.00     0.043 A 
ATOM     17  Cl  UNL A   1      31.627  28.472  26.211  1.00  0.00    -0.084 Cl
BRANCH   9  18
ATOM     18  C   UNL A   1      33.403  22.884  22.508  1.00  0.00     0.127 C 
BRANCH  18  19
ATOM     19  C   UNL A   1      32.323  21.916  23.020  1.00  0.00     0.003 C 
ATOM     20  C   UNL A   1      31.844  20.930  21.955  1.00  0.00     0.009 C 
ATOM     21  C   UNL A   1      32.822  21.167  24.254  1.00  0.00     0.009 C 
ENDBRANCH  18  19
ENDBRANCH   9  18
ENDBRANCH   7   8
BRANCH   7  22
ATOM     22  O   UNL A   1      37.034  23.255  23.073  1.00  0.00    -0.382 OA
ATOM     23  H   UNL A   1      36.839  22.861  22.208  1.00  0.00     0.211 HD
ENDBRANCH   7  22
ENDBRANCH   6   7
BRANCH   6  24
ATOM     24  O   UNL A   1      35.942  22.254  26.467  1.00  0.00    -0.380 OA
ATOM     25  H   UNL A   1      35.060  22.564  26.207  1.00  0.00     0.211 HD
ENDBRANCH   6  24
ENDBRANCH   3   6
ENDBRANCH   1   2
BRANCH   1  26
ATOM     26  C   UNL A   1      40.734  21.893  27.516  1.00  0.00     0.042 C 
BRANCH  26  27
ATOM     27  C   UNL A   1      41.899  21.031  27.033  1.00  0.00     0.118 C 
BRANCH  27  28
ATOM     28  N   UNL A   1      42.491  21.476  25.787  1.00  0.00    -0.352 N 
ATOM     29  C   UNL A   1      43.062  22.639  25.353  1.00  0.00     0.251 C 
ATOM     30  H   UNL A   1      42.477  20.779  25.092  1.00  0.00     0.163 HD
ATOM     31  O   UNL A   1      43.569  22.604  24.229  1.00  0.00    -0.269 OA
BRANCH  29  32
ATOM     32  C   UNL A   1      43.046  23.930  26.095  1.00  0.00     0.039 A 
ATOM     33  C   UNL A   1      43.632  24.161  27.340  1.00  0.00     0.014 A 
ATOM     34  C   UNL A   1      42.316  24.972  25.492  1.00  0.00     0.014 A 
ATOM     35  C   UNL A   1      43.385  25.344  28.026  1.00  0.00     0.010 A 
ATOM     36  C   UNL A   1      42.093  26.169  26.159  1.00  0.00     0.010 A 
ATOM     37  C   UNL A   1      42.577  26.326  27.454  1.00  0.00    -0.014 A 
BRANCH  37  38
ATOM     38  C   UNL A   1      42.317  27.534  28.230  1.00  0.00     0.031 A 
ATOM     39  C   UNL A   1      43.394  28.567  28.187  1.00  0.00     0.074 A 
ATOM     40  C   UNL A   1      41.133  27.755  28.837  1.00  0.00     0.049 A 
ATOM     41  N   UNL A   1      44.063  29.089  29.165  1.00  0.00    -0.248 NA
ATOM     42  C   UNL A   1      43.851  29.000  26.855  1.00  0.00     0.031 C 
ATOM     43  C   UNL A   1      39.902  26.967  28.720  1.00  0.00     0.029 A 
ATOM     44  N   UNL A   1      40.748  28.809  29.607  1.00  0.00    -0.354 N 
ATOM     45  C   UNL A   1      44.890  30.056  28.591  1.00  0.00     0.074 A 
ATOM     46  C   UNL A   1      44.822  29.857  27.166  1.00  0.00     0.031 C 
ATOM     47  C   UNL A   1      38.864  27.692  29.194  1.00  0.00     0.029 A 
ATOM     48  C   UNL A   1      39.371  28.928  29.762  1.00  0.00     0.049 A 
ATOM     49  H   UNL A   1      41.387  29.434  30.019  1.00  0.00     0.167 HD
ATOM     50  C   UNL A   1      45.424  31.086  29.304  1.00  0.00     0.037 A 
ATOM     51  C   UNL A   1      38.703  30.007  30.243  1.00  0.00     0.037 A 
ATOM     52  C   UNL A   1      45.419  30.825  30.716  1.00  0.00     0.049 A 
ATOM     53  C   UNL A   1      39.680  30.827  31.006  1.00  0.00     0.074 A 
ATOM     54  C   UNL A   1      46.011  29.880  31.531  1.00  0.00     0.029 A 
ATOM     55  N   UNL A   1      44.444  31.416  31.480  1.00  0.00    -0.354 N 
ATOM     56  N   UNL A   1      40.243  30.451  32.121  1.00  0.00    -0.248 NA
ATOM     57  C   UNL A   1      40.353  31.907  30.302  1.00  0.00     0.031 C 
ATOM     58  C   UNL A   1      45.053  29.620  32.554  1.00  0.00     0.029 A 
ATOM     59  C   UNL A   1      43.956  30.451  32.325  1.00  0.00     0.049 A 
ATOM     60  H   UNL A   1      44.151  32.355  31.432  1.00  0.00     0.167 HD
ATOM     61  C   UNL A   1      41.536  30.951  32.055  1.00  0.00     0.074 A 
ATOM     62  C   UNL A   1      41.514  31.915  30.959  1.00  0.00     0.031 C 
ATOM     63  C   UNL A   1      42.566  30.341  32.712  1.00  0.00     0.037 A 
BRANCH  50  64
ATOM     64  C   UNL A   1      45.669  32.462  28.731  1.00  0.00     0.058 A 
ATOM     65  C   UNL A   1      46.955  33.035  28.779  1.00  0.00     0.135 A 
ATOM     66  C   UNL A   1      44.621  33.342  28.375  1.00  0.00     0.135 A 
ATOM     67  F   UNL A   1      48.019  32.296  29.132  1.00  0.00    -0.206 F 
ATOM     68  C   UNL A   1      47.176  34.393  28.535  1.00  0.00     0.059 A 
ATOM     69  C   UNL A   1      44.827  34.682  28.074  1.00  0.00     0.059 A 
ATOM     70  F   UNL A   1      43.337  32.961  28.399  1.00  0.00    -0.206 F 
ATOM     71  C   UNL A   1      46.101  35.211  28.194  1.00  0.00     0.060 A 
BRANCH  71  72
ATOM     72  S   UNL A   1      46.363  36.981  27.984  1.00  0.00     0.124 S 
ATOM     73  O   UNL A   1      45.962  37.491  29.290  1.00  0.00    -0.237 OA
ATOM     74  O   UNL A   1      47.789  37.043  27.683  1.00  0.00    -0.237 OA
ATOM     75  O   UNL A   1      45.479  37.321  26.873  1.00  0.00    -0.744 OA
ENDBRANCH  71  72
ENDBRANCH  50  64
BRANCH  51  76
ATOM     76  C   UNL A   1      37.397  30.555  29.787  1.00  0.00     0.058 A 
ATOM     77  C   UNL A   1      36.513  31.166  30.694  1.00  0.00     0.135 A 
ATOM     78  C   UNL A   1      37.118  30.760  28.420  1.00  0.00     0.135 A 
ATOM     79  F   UNL A   1      36.710  31.039  32.016  1.00  0.00    -0.206 F 
ATOM     80  C   UNL A   1      35.458  31.983  30.276  1.00  0.00     0.059 A 
ATOM     81  C   UNL A   1      36.065  31.557  27.977  1.00  0.00     0.059 A 
ATOM     82  F   UNL A   1      37.923  30.269  27.464  1.00  0.00    -0.206 F 
ATOM     83  C   UNL A   1      35.258  32.194  28.912  1.00  0.00     0.060 A 
BRANCH  83  84
ATOM     84  S   UNL A   1      34.028  33.403  28.372  1.00  0.00     0.124 S 
ATOM     85  O   UNL A   1      34.830  34.305  27.553  1.00  0.00    -0.237 OA
ATOM     86  O   UNL A   1      33.073  32.566  27.652  1.00  0.00    -0.237 OA
ATOM     87  O   UNL A   1      33.535  33.969  29.624  1.00  0.00    -0.744 OA
ENDBRANCH  83  84
ENDBRANCH  51  76
BRANCH  63  88
ATOM     88  C   UNL A   1      42.229  29.285  33.736  1.00  0.00     0.058 A 
ATOM     89  C   UNL A   1      42.199  27.906  33.460  1.00  0.00     0.135 A 
ATOM     90  C   UNL A   1      42.095  29.671  35.078  1.00  0.00     0.135 A 
ATOM     91  F   UNL A   1      42.424  27.444  32.223  1.00  0.00    -0.206 F 
ATOM     92  C   UNL A   1      42.013  26.957  34.467  1.00  0.00     0.059 A 
ATOM     93  C   UNL A   1      41.941  28.739  36.104  1.00  0.00     0.059 A 
ATOM     94  F   UNL A   1      42.176  30.969  35.415  1.00  0.00    -0.206 F 
ATOM     95  C   UNL A   1      41.895  27.382  35.788  1.00  0.00     0.060 A 
BRANCH  95  96
ATOM     96  S   UNL A   1      41.778  26.142  37.097  1.00  0.00     0.124 S 
ATOM     97  O   UNL A   1      41.809  24.892  36.340  1.00  0.00    -0.237 OA
ATOM     98  O   UNL A   1      42.970  26.416  37.903  1.00  0.00    -0.237 OA
ATOM     99  O   UNL A   1      40.514  26.449  37.749  1.00  0.00    -0.744 OA
ENDBRANCH  95  96
ENDBRANCH  63  88
ENDBRANCH  37  38
ENDBRANCH  29  32
ENDBRANCH  27  28
ENDBRANCH  26  27
ENDBRANCH   1  26
TORSDOF 19
ENDMDL
