MODEL 1
REMARK VINA RESULT:     -10.8      0.000      0.000
REMARK SMILES CCCCCCNC(=O)Oc1cccc(-c2ccc([C@@H](C)C(=O)NCCCNC(=O)c3ccc(-c4c5nc(c(-c6c(F)cc(S(=O)(=O)[O-])cc6F)c6ccc([nH]6)c(-c6c(F)cc(S(=O)(=O)[O-])cc6F)c6nc(c(-c7c(F)cc(S(=O)(=O)[O-])cc7F)c7ccc4[nH]7)C=C6)C=C5)cc3)cc2)c1
REMARK SMILES IDX 20 1 21 2 19 3 16 4 17 5 98 6 18 7 97 8 15 9 11 10 12 11
REMARK SMILES IDX 99 12 13 13 14 14 10 15 8 16 7 17 9 19 6 20 5 21 4 22 3 23
REMARK SMILES IDX 2 24 1 25 22 26 23 27 24 28 25 30 26 31 27 32 28 33 29 34
REMARK SMILES IDX 30 36 31 37 32 38 96 39 33 40 95 41 34 42 35 43 36 44 89 45
REMARK SMILES IDX 37 46 94 47 88 48 90 49 38 50 93 51 87 52 86 53 39 55 73 56
REMARK SMILES IDX 52 57 72 58 53 59 56 60 71 61 91 62 54 63 55 64 70 66 92 67
REMARK SMILES IDX 57 68 40 69 41 70 50 71 42 72 43 73 49 74 51 75 44 76 45 77
REMARK SMILES IDX 46 78 47 79 48 80 74 81 75 82 84 83 76 84 77 85 83 86 85 87
REMARK SMILES IDX 78 88 79 89 80 90 81 91 82 92 58 93 59 94 68 95 60 96 61 97
REMARK SMILES IDX 67 98 69 99 62 100 63 101 64 102 65 103 66 104
REMARK H PARENT 7 18 24 29 28 35 90 54 56 65
REMARK Flexibility Score: inf
ROOT
ATOM      1  C   UNL A   1      34.692  34.371  28.816  1.00  0.00     0.105 C 
ATOM      2  C   UNL A   1      34.405  35.622  27.987  1.00  0.00     0.023 C 
ENDROOT
BRANCH   1   3
ATOM      3  C   UNL A   1      34.278  33.052  28.187  1.00  0.00    -0.036 A 
ATOM      4  C   UNL A   1      33.515  30.471  27.229  1.00  0.00    -0.018 A 
ATOM      5  C   UNL A   1      32.612  31.543  27.251  1.00  0.00     0.009 A 
ATOM      6  C   UNL A   1      34.827  30.737  27.650  1.00  0.00     0.009 A 
ATOM      7  C   UNL A   1      32.995  32.817  27.686  1.00  0.00     0.005 A 
ATOM      8  C   UNL A   1      35.198  31.995  28.140  1.00  0.00     0.005 A 
BRANCH   4   9
ATOM      9  C   UNL A   1      33.091  29.120  26.802  1.00  0.00    -0.015 A 
ATOM     10  C   UNL A   1      33.353  27.164  25.377  1.00  0.00     0.133 A 
ATOM     11  C   UNL A   1      32.294  26.518  26.008  1.00  0.00     0.047 A 
ATOM     12  C   UNL A   1      33.749  28.447  25.759  1.00  0.00     0.056 A 
ATOM     13  C   UNL A   1      31.634  27.161  27.047  1.00  0.00     0.004 A 
ATOM     14  C   UNL A   1      32.024  28.449  27.433  1.00  0.00     0.009 A 
BRANCH  10  15
ATOM     15  O   UNL A   1      33.911  26.523  24.260  1.00  0.00    -0.410 OA
BRANCH  15  16
ATOM     16  C   UNL A   1      33.157  25.576  23.584  1.00  0.00     0.412 C 
ATOM     17  N   UNL A   1      32.272  26.135  22.703  1.00  0.00    -0.321 N 
ATOM     18  H   UNL A   1      31.674  25.517  22.225  1.00  0.00     0.167 HD
ATOM     19  O   UNL A   1      33.233  24.362  23.714  1.00  0.00    -0.224 OA
BRANCH  17  20
ATOM     20  C   UNL A   1      32.128  27.545  22.402  1.00  0.00     0.119 C 
BRANCH  20  21
ATOM     21  C   UNL A   1      30.956  28.166  23.162  1.00  0.00     0.021 C 
BRANCH  21  22
ATOM     22  C   UNL A   1      30.272  29.334  22.441  1.00  0.00     0.002 C 
BRANCH  22  23
ATOM     23  C   UNL A   1      28.743  29.367  22.553  1.00  0.00    -0.000 C 
BRANCH  23  24
ATOM     24  C   UNL A   1      28.148  30.709  22.988  1.00  0.00    -0.003 C 
ATOM     25  C   UNL A   1      28.022  31.708  21.848  1.00  0.00     0.004 C 
ENDBRANCH  23  24
ENDBRANCH  22  23
ENDBRANCH  21  22
ENDBRANCH  20  21
ENDBRANCH  17  20
ENDBRANCH  15  16
ENDBRANCH  10  15
ENDBRANCH   4   9
ENDBRANCH   1   3
BRANCH   1  26
ATOM     26  C   UNL A   1      34.311  34.489  30.301  1.00  0.00     0.227 C 
ATOM     27  O   UNL A   1      33.149  34.775  30.616  1.00  0.00    -0.274 OA
ATOM     28  N   UNL A   1      35.178  34.282  31.329  1.00  0.00    -0.356 N 
ATOM     29  H   UNL A   1      34.769  34.361  32.221  1.00  0.00     0.163 HD
BRANCH  28  30
ATOM     30  C   UNL A   1      36.592  33.967  31.353  1.00  0.00     0.117 C 
BRANCH  30  31
ATOM     31  C   UNL A   1      37.075  33.528  32.734  1.00  0.00     0.042 C 
BRANCH  31  32
ATOM     32  C   UNL A   1      37.611  32.103  32.786  1.00  0.00     0.118 C 
BRANCH  32  33
ATOM     33  N   UNL A   1      36.681  31.146  32.205  1.00  0.00    -0.352 N 
ATOM     34  C   UNL A   1      36.837  30.225  31.202  1.00  0.00     0.251 C 
ATOM     35  H   UNL A   1      35.780  31.164  32.603  1.00  0.00     0.163 HD
ATOM     36  O   UNL A   1      35.831  29.693  30.739  1.00  0.00    -0.269 OA
BRANCH  34  37
ATOM     37  C   UNL A   1      38.172  29.861  30.670  1.00  0.00     0.039 A 
ATOM     38  C   UNL A   1      38.445  30.139  29.326  1.00  0.00     0.014 A 
ATOM     39  C   UNL A   1      39.127  29.187  31.436  1.00  0.00     0.014 A 
ATOM     40  C   UNL A   1      39.672  29.774  28.770  1.00  0.00     0.010 A 
ATOM     41  C   UNL A   1      40.387  28.904  30.906  1.00  0.00     0.010 A 
ATOM     42  C   UNL A   1      40.668  29.176  29.561  1.00  0.00    -0.014 A 
BRANCH  42  43
ATOM     43  C   UNL A   1      41.991  28.838  28.975  1.00  0.00     0.031 A 
ATOM     44  C   UNL A   1      43.087  29.867  28.895  1.00  0.00     0.074 A 
ATOM     45  C   UNL A   1      42.200  27.591  28.506  1.00  0.00     0.049 A 
ATOM     46  N   UNL A   1      44.320  29.729  28.474  1.00  0.00    -0.248 NA
ATOM     47  C   UNL A   1      42.755  31.236  29.321  1.00  0.00     0.031 C 
ATOM     48  C   UNL A   1      41.193  26.527  28.464  1.00  0.00     0.029 A 
ATOM     49  N   UNL A   1      43.325  27.001  27.987  1.00  0.00    -0.354 N 
ATOM     50  C   UNL A   1      44.904  30.987  28.580  1.00  0.00     0.074 A 
ATOM     51  C   UNL A   1      43.875  31.889  29.047  1.00  0.00     0.031 C 
ATOM     52  C   UNL A   1      41.758  25.405  27.992  1.00  0.00     0.029 A 
ATOM     53  C   UNL A   1      43.155  25.675  27.668  1.00  0.00     0.049 A 
ATOM     54  H   UNL A   1      44.174  27.483  27.857  1.00  0.00     0.167 HD
ATOM     55  C   UNL A   1      46.187  31.351  28.336  1.00  0.00     0.037 A 
ATOM     56  C   UNL A   1      44.028  24.773  27.182  1.00  0.00     0.037 A 
ATOM     57  C   UNL A   1      47.209  30.442  27.883  1.00  0.00     0.049 A 
ATOM     58  C   UNL A   1      45.453  25.194  26.948  1.00  0.00     0.074 A 
ATOM     59  C   UNL A   1      48.550  30.696  27.655  1.00  0.00     0.029 A 
ATOM     60  N   UNL A   1      47.002  29.101  27.587  1.00  0.00    -0.354 N 
ATOM     61  N   UNL A   1      46.006  26.370  27.125  1.00  0.00    -0.248 NA
ATOM     62  C   UNL A   1      46.377  24.160  26.465  1.00  0.00     0.031 C 
ATOM     63  C   UNL A   1      49.145  29.521  27.178  1.00  0.00     0.029 A 
ATOM     64  C   UNL A   1      48.187  28.520  27.161  1.00  0.00     0.049 A 
ATOM     65  H   UNL A   1      46.141  28.632  27.666  1.00  0.00     0.167 HD
ATOM     66  C   UNL A   1      47.348  26.212  26.797  1.00  0.00     0.074 A 
ATOM     67  C   UNL A   1      47.526  24.820  26.436  1.00  0.00     0.031 C 
ATOM     68  C   UNL A   1      48.344  27.134  26.795  1.00  0.00     0.037 A 
BRANCH  55  69
ATOM     69  C   UNL A   1      46.559  32.794  28.559  1.00  0.00     0.058 A 
ATOM     70  C   UNL A   1      46.462  33.750  27.533  1.00  0.00     0.135 A 
ATOM     71  C   UNL A   1      46.982  33.239  29.823  1.00  0.00     0.135 A 
ATOM     72  F   UNL A   1      46.078  33.381  26.300  1.00  0.00    -0.206 F 
ATOM     73  C   UNL A   1      46.799  35.083  27.742  1.00  0.00     0.059 A 
ATOM     74  C   UNL A   1      47.295  34.574  30.063  1.00  0.00     0.059 A 
ATOM     75  F   UNL A   1      47.093  32.372  30.842  1.00  0.00    -0.206 F 
ATOM     76  C   UNL A   1      47.214  35.487  29.013  1.00  0.00     0.060 A 
BRANCH  76  77
ATOM     77  S   UNL A   1      47.637  37.223  29.270  1.00  0.00     0.124 S 
ATOM     78  O   UNL A   1      47.455  37.770  27.929  1.00  0.00    -0.237 OA
ATOM     79  O   UNL A   1      46.651  37.641  30.262  1.00  0.00    -0.237 OA
ATOM     80  O   UNL A   1      49.016  37.172  29.744  1.00  0.00    -0.744 OA
ENDBRANCH  76  77
ENDBRANCH  55  69
BRANCH  56  81
ATOM     81  C   UNL A   1      43.587  23.375  26.926  1.00  0.00     0.058 A 
ATOM     82  C   UNL A   1      43.417  22.896  25.618  1.00  0.00     0.135 A 
ATOM     83  C   UNL A   1      43.345  22.485  27.983  1.00  0.00     0.135 A 
ATOM     84  F   UNL A   1      43.633  23.709  24.573  1.00  0.00    -0.206 F 
ATOM     85  C   UNL A   1      43.004  21.591  25.366  1.00  0.00     0.059 A 
ATOM     86  C   UNL A   1      42.959  21.167  27.757  1.00  0.00     0.059 A 
ATOM     87  F   UNL A   1      43.511  22.886  29.253  1.00  0.00    -0.206 F 
ATOM     88  C   UNL A   1      42.780  20.733  26.443  1.00  0.00     0.060 A 
BRANCH  88  89
ATOM     89  S   UNL A   1      42.292  19.027  26.108  1.00  0.00     0.124 S 
ATOM     90  O   UNL A   1      40.885  19.186  25.761  1.00  0.00    -0.237 OA
ATOM     91  O   UNL A   1      43.183  18.664  25.010  1.00  0.00    -0.237 OA
ATOM     92  O   UNL A   1      42.559  18.347  27.372  1.00  0.00    -0.744 OA
ENDBRANCH  88  89
ENDBRANCH  56  81
BRANCH  68  93
ATOM     93  C   UNL A   1      49.718  26.650  26.417  1.00  0.00     0.058 A 
ATOM     94  C   UNL A   1      50.129  26.560  25.077  1.00  0.00     0.135 A 
ATOM     95  C   UNL A   1      50.635  26.266  27.410  1.00  0.00     0.135 A 
ATOM     96  F   UNL A   1      49.293  26.913  24.088  1.00  0.00    -0.206 F 
ATOM     97  C   UNL A   1      51.378  26.053  24.732  1.00  0.00     0.059 A 
ATOM     98  C   UNL A   1      51.900  25.787  27.088  1.00  0.00     0.059 A 
ATOM     99  F   UNL A   1      50.302  26.348  28.707  1.00  0.00    -0.206 F 
ATOM    100  C   UNL A   1      52.253  25.661  25.745  1.00  0.00     0.060 A 
BRANCH 100 101
ATOM    101  S   UNL A   1      53.861  24.980  25.287  1.00  0.00     0.124 S 
ATOM    102  O   UNL A   1      54.372  26.013  24.394  1.00  0.00    -0.237 OA
ATOM    103  O   UNL A   1      54.533  24.867  26.578  1.00  0.00    -0.237 OA
ATOM    104  O   UNL A   1      53.523  23.709  24.652  1.00  0.00    -0.744 OA
ENDBRANCH 100 101
ENDBRANCH  68  93
ENDBRANCH  42  43
ENDBRANCH  34  37
ENDBRANCH  32  33
ENDBRANCH  31  32
ENDBRANCH  30  31
ENDBRANCH  28  30
ENDBRANCH   1  26
TORSDOF 22
ENDMDL
MODEL 2
REMARK VINA RESULT:     -10.5      3.372     10.492
REMARK SMILES CCCCCCNC(=O)Oc1cccc(-c2ccc([C@@H](C)C(=O)NCCCNC(=O)c3ccc(-c4c5nc(c(-c6c(F)cc(S(=O)(=O)[O-])cc6F)c6ccc([nH]6)c(-c6c(F)cc(S(=O)(=O)[O-])cc6F)c6nc(c(-c7c(F)cc(S(=O)(=O)[O-])cc7F)c7ccc4[nH]7)C=C6)C=C5)cc3)cc2)c1
REMARK SMILES IDX 20 1 21 2 19 3 16 4 17 5 98 6 18 7 97 8 15 9 11 10 12 11
REMARK SMILES IDX 99 12 13 13 14 14 10 15 8 16 7 17 9 19 6 20 5 21 4 22 3 23
REMARK SMILES IDX 2 24 1 25 22 26 23 27 24 28 25 30 26 31 27 32 28 33 29 34
REMARK SMILES IDX 30 36 31 37 32 38 96 39 33 40 95 41 34 42 35 43 36 44 89 45
REMARK SMILES IDX 37 46 94 47 88 48 90 49 38 50 93 51 87 52 86 53 39 55 73 56
REMARK SMILES IDX 52 57 72 58 53 59 56 60 71 61 91 62 54 63 55 64 70 66 92 67
REMARK SMILES IDX 57 68 40 69 41 70 50 71 42 72 43 73 49 74 51 75 44 76 45 77
REMARK SMILES IDX 46 78 47 79 48 80 74 81 75 82 84 83 76 84 77 85 83 86 85 87
REMARK SMILES IDX 78 88 79 89 80 90 81 91 82 92 58 93 59 94 68 95 60 96 61 97
REMARK SMILES IDX 67 98 69 99 62 100 63 101 64 102 65 103 66 104
REMARK H PARENT 7 18 24 29 28 35 90 54 56 65
REMARK Flexibility Score: inf
ROOT
ATOM      1  C   UNL A   1      33.103  35.166  31.530  1.00  0.00     0.105 C 
ATOM      2  C   UNL A   1      32.002  35.556  32.514  1.00  0.00     0.023 C 
ENDROOT
BRANCH   1   3
ATOM      3  C   UNL A   1      34.437  34.782  32.148  1.00  0.00    -0.036 A 
ATOM      4  C   UNL A   1      37.028  34.282  33.240  1.00  0.00    -0.018 A 
ATOM      5  C   UNL A   1      35.901  34.432  34.061  1.00  0.00     0.009 A 
ATOM      6  C   UNL A   1      36.817  34.336  31.854  1.00  0.00     0.009 A 
ATOM      7  C   UNL A   1      34.626  34.641  33.524  1.00  0.00     0.005 A 
ATOM      8  C   UNL A   1      35.551  34.603  31.317  1.00  0.00     0.005 A 
BRANCH   4   9
ATOM      9  C   UNL A   1      38.378  34.099  33.817  1.00  0.00    -0.015 A 
ATOM     10  C   UNL A   1      40.111  32.668  34.751  1.00  0.00     0.133 A 
ATOM     11  C   UNL A   1      40.975  33.748  34.896  1.00  0.00     0.047 A 
ATOM     12  C   UNL A   1      38.829  32.832  34.225  1.00  0.00     0.056 A 
ATOM     13  C   UNL A   1      40.554  35.009  34.492  1.00  0.00     0.004 A 
ATOM     14  C   UNL A   1      39.268  35.182  33.967  1.00  0.00     0.009 A 
BRANCH  10  15
ATOM     15  O   UNL A   1      40.538  31.440  35.278  1.00  0.00    -0.410 OA
BRANCH  15  16
ATOM     16  C   UNL A   1      39.622  30.405  35.393  1.00  0.00     0.412 C 
ATOM     17  N   UNL A   1      40.165  29.183  35.103  1.00  0.00    -0.321 N 
ATOM     18  H   UNL A   1      39.554  28.412  35.120  1.00  0.00     0.167 HD
ATOM     19  O   UNL A   1      38.447  30.509  35.718  1.00  0.00    -0.224 OA
BRANCH  17  20
ATOM     20  C   UNL A   1      41.550  28.909  34.774  1.00  0.00     0.119 C 
BRANCH  20  21
ATOM     21  C   UNL A   1      41.765  28.831  33.263  1.00  0.00     0.021 C 
BRANCH  21  22
ATOM     22  C   UNL A   1      43.041  28.096  32.835  1.00  0.00     0.002 C 
BRANCH  22  23
ATOM     23  C   UNL A   1      44.335  28.598  33.485  1.00  0.00    -0.000 C 
BRANCH  23  24
ATOM     24  C   UNL A   1      45.540  27.664  33.352  1.00  0.00    -0.003 C 
ATOM     25  C   UNL A   1      45.205  26.344  32.674  1.00  0.00     0.004 C 
ENDBRANCH  23  24
ENDBRANCH  22  23
ENDBRANCH  21  22
ENDBRANCH  20  21
ENDBRANCH  17  20
ENDBRANCH  15  16
ENDBRANCH  10  15
ENDBRANCH   4   9
ENDBRANCH   1   3
BRANCH   1  26
ATOM     26  C   UNL A   1      33.235  36.101  30.317  1.00  0.00     0.227 C 
ATOM     27  O   UNL A   1      33.416  37.313  30.493  1.00  0.00    -0.274 OA
ATOM     28  N   UNL A   1      33.181  35.684  29.023  1.00  0.00    -0.356 N 
ATOM     29  H   UNL A   1      33.319  36.401  28.364  1.00  0.00     0.163 HD
BRANCH  28  30
ATOM     30  C   UNL A   1      32.959  34.378  28.437  1.00  0.00     0.117 C 
BRANCH  30  31
ATOM     31  C   UNL A   1      34.257  33.688  28.025  1.00  0.00     0.042 C 
BRANCH  31  32
ATOM     32  C   UNL A   1      34.637  32.497  28.895  1.00  0.00     0.118 C 
BRANCH  32  33
ATOM     33  N   UNL A   1      34.080  31.250  28.392  1.00  0.00    -0.352 N 
ATOM     34  C   UNL A   1      34.679  30.076  28.019  1.00  0.00     0.251 C 
ATOM     35  H   UNL A   1      33.099  31.251  28.304  1.00  0.00     0.163 HD
ATOM     36  O   UNL A   1      34.007  29.248  27.408  1.00  0.00    -0.269 OA
BRANCH  34  37
ATOM     37  C   UNL A   1      36.100  29.784  28.329  1.00  0.00     0.039 A 
ATOM     38  C   UNL A   1      37.037  29.901  27.297  1.00  0.00     0.014 A 
ATOM     39  C   UNL A   1      36.515  29.327  29.583  1.00  0.00     0.014 A 
ATOM     40  C   UNL A   1      38.379  29.593  27.532  1.00  0.00     0.010 A 
ATOM     41  C   UNL A   1      37.869  29.108  29.841  1.00  0.00     0.010 A 
ATOM     42  C   UNL A   1      38.814  29.219  28.814  1.00  0.00    -0.014 A 
BRANCH  42  43
ATOM     43  C   UNL A   1      40.253  28.944  29.068  1.00  0.00     0.031 A 
ATOM     44  C   UNL A   1      40.865  27.619  28.696  1.00  0.00     0.074 A 
ATOM     45  C   UNL A   1      41.009  29.899  29.646  1.00  0.00     0.049 A 
ATOM     46  N   UNL A   1      42.113  27.232  28.789  1.00  0.00    -0.248 NA
ATOM     47  C   UNL A   1      39.958  26.584  28.174  1.00  0.00     0.031 C 
ATOM     48  C   UNL A   1      40.515  31.196  30.116  1.00  0.00     0.029 A 
ATOM     49  N   UNL A   1      42.351  29.936  29.928  1.00  0.00    -0.354 N 
ATOM     50  C   UNL A   1      42.139  25.915  28.342  1.00  0.00     0.074 A 
ATOM     51  C   UNL A   1      40.774  25.549  28.038  1.00  0.00     0.031 C 
ATOM     52  C   UNL A   1      41.546  31.918  30.583  1.00  0.00     0.029 A 
ATOM     53  C   UNL A   1      42.767  31.127  30.476  1.00  0.00     0.049 A 
ATOM     54  H   UNL A   1      42.959  29.181  29.753  1.00  0.00     0.167 HD
ATOM     55  C   UNL A   1      43.206  25.095  28.177  1.00  0.00     0.037 A 
ATOM     56  C   UNL A   1      43.995  31.541  30.842  1.00  0.00     0.037 A 
ATOM     57  C   UNL A   1      44.565  25.474  28.471  1.00  0.00     0.049 A 
ATOM     58  C   UNL A   1      45.166  30.624  30.620  1.00  0.00     0.074 A 
ATOM     59  C   UNL A   1      45.724  24.739  28.291  1.00  0.00     0.029 A 
ATOM     60  N   UNL A   1      44.948  26.695  29.010  1.00  0.00    -0.354 N 
ATOM     61  N   UNL A   1      45.182  29.408  30.126  1.00  0.00    -0.248 NA
ATOM     62  C   UNL A   1      46.490  31.142  30.987  1.00  0.00     0.031 C 
ATOM     63  C   UNL A   1      46.802  25.497  28.763  1.00  0.00     0.029 A 
ATOM     64  C   UNL A   1      46.323  26.727  29.186  1.00  0.00     0.049 A 
ATOM     65  H   UNL A   1      44.334  27.430  29.236  1.00  0.00     0.167 HD
ATOM     66  C   UNL A   1      46.519  29.024  30.103  1.00  0.00     0.074 A 
ATOM     67  C   UNL A   1      47.281  30.149  30.608  1.00  0.00     0.031 C 
ATOM     68  C   UNL A   1      47.066  27.850  29.700  1.00  0.00     0.037 A 
BRANCH  55  69
ATOM     69  C   UNL A   1      42.947  23.708  27.648  1.00  0.00     0.058 A 
ATOM     70  C   UNL A   1      42.670  22.630  28.506  1.00  0.00     0.135 A 
ATOM     71  C   UNL A   1      42.937  23.458  26.265  1.00  0.00     0.135 A 
ATOM     72  F   UNL A   1      42.680  22.805  29.837  1.00  0.00    -0.206 F 
ATOM     73  C   UNL A   1      42.424  21.351  28.016  1.00  0.00     0.059 A 
ATOM     74  C   UNL A   1      42.663  22.193  25.751  1.00  0.00     0.059 A 
ATOM     75  F   UNL A   1      43.194  24.449  25.397  1.00  0.00    -0.206 F 
ATOM     76  C   UNL A   1      42.422  21.142  26.635  1.00  0.00     0.060 A 
BRANCH  76  77
ATOM     77  S   UNL A   1      42.090  19.479  26.016  1.00  0.00     0.124 S 
ATOM     78  O   UNL A   1      40.665  19.562  25.708  1.00  0.00    -0.237 OA
ATOM     79  O   UNL A   1      42.982  19.391  24.864  1.00  0.00    -0.237 OA
ATOM     80  O   UNL A   1      42.439  18.619  27.142  1.00  0.00    -0.744 OA
ENDBRANCH  76  77
ENDBRANCH  55  69
BRANCH  56  81
ATOM     81  C   UNL A   1      44.181  32.902  31.413  1.00  0.00     0.058 A 
ATOM     82  C   UNL A   1      44.460  34.002  30.588  1.00  0.00     0.135 A 
ATOM     83  C   UNL A   1      44.063  33.133  32.792  1.00  0.00     0.135 A 
ATOM     84  F   UNL A   1      44.585  33.833  29.263  1.00  0.00    -0.206 F 
ATOM     85  C   UNL A   1      44.636  35.280  31.111  1.00  0.00     0.059 A 
ATOM     86  C   UNL A   1      44.207  34.406  33.336  1.00  0.00     0.059 A 
ATOM     87  F   UNL A   1      43.778  32.118  33.622  1.00  0.00    -0.206 F 
ATOM     88  C   UNL A   1      44.504  35.472  32.487  1.00  0.00     0.060 A 
BRANCH  88  89
ATOM     89  S   UNL A   1      44.685  37.141  33.153  1.00  0.00     0.124 S 
ATOM     90  O   UNL A   1      43.295  37.562  33.272  1.00  0.00    -0.237 OA
ATOM     91  O   UNL A   1      45.388  36.895  34.408  1.00  0.00    -0.237 OA
ATOM     92  O   UNL A   1      45.468  37.827  32.130  1.00  0.00    -0.744 OA
ENDBRANCH  88  89
ENDBRANCH  56  81
BRANCH  68  93
ATOM     93  C   UNL A   1      48.566  27.741  29.765  1.00  0.00     0.058 A 
ATOM     94  C   UNL A   1      49.224  27.252  30.905  1.00  0.00     0.135 A 
ATOM     95  C   UNL A   1      49.355  28.137  28.673  1.00  0.00     0.135 A 
ATOM     96  F   UNL A   1      48.518  26.861  31.977  1.00  0.00    -0.206 F 
ATOM     97  C   UNL A   1      50.613  27.213  30.982  1.00  0.00     0.059 A 
ATOM     98  C   UNL A   1      50.744  28.075  28.716  1.00  0.00     0.059 A 
ATOM     99  F   UNL A   1      48.779  28.596  27.551  1.00  0.00    -0.206 F 
ATOM    100  C   UNL A   1      51.364  27.635  29.885  1.00  0.00     0.060 A 
BRANCH 100 101
ATOM    101  S   UNL A   1      53.165  27.605  30.003  1.00  0.00     0.124 S 
ATOM    102  O   UNL A   1      53.449  28.950  30.489  1.00  0.00    -0.237 OA
ATOM    103  O   UNL A   1      53.399  26.524  30.956  1.00  0.00    -0.237 OA
ATOM    104  O   UNL A   1      53.591  27.327  28.634  1.00  0.00    -0.744 OA
ENDBRANCH 100 101
ENDBRANCH  68  93
ENDBRANCH  42  43
ENDBRANCH  34  37
ENDBRANCH  32  33
ENDBRANCH  31  32
ENDBRANCH  30  31
ENDBRANCH  28  30
ENDBRANCH   1  26
TORSDOF 22
ENDMDL
MODEL 3
REMARK VINA RESULT:     -10.2      1.820      3.183
REMARK SMILES CCCCCCNC(=O)Oc1cccc(-c2ccc([C@@H](C)C(=O)NCCCNC(=O)c3ccc(-c4c5nc(c(-c6c(F)cc(S(=O)(=O)[O-])cc6F)c6ccc([nH]6)c(-c6c(F)cc(S(=O)(=O)[O-])cc6F)c6nc(c(-c7c(F)cc(S(=O)(=O)[O-])cc7F)c7ccc4[nH]7)C=C6)C=C5)cc3)cc2)c1
REMARK SMILES IDX 20 1 21 2 19 3 16 4 17 5 98 6 18 7 97 8 15 9 11 10 12 11
REMARK SMILES IDX 99 12 13 13 14 14 10 15 8 16 7 17 9 19 6 20 5 21 4 22 3 23
REMARK SMILES IDX 2 24 1 25 22 26 23 27 24 28 25 30 26 31 27 32 28 33 29 34
REMARK SMILES IDX 30 36 31 37 32 38 96 39 33 40 95 41 34 42 35 43 36 44 89 45
REMARK SMILES IDX 37 46 94 47 88 48 90 49 38 50 93 51 87 52 86 53 39 55 73 56
REMARK SMILES IDX 52 57 72 58 53 59 56 60 71 61 91 62 54 63 55 64 70 66 92 67
REMARK SMILES IDX 57 68 40 69 41 70 50 71 42 72 43 73 49 74 51 75 44 76 45 77
REMARK SMILES IDX 46 78 47 79 48 80 74 81 75 82 84 83 76 84 77 85 83 86 85 87
REMARK SMILES IDX 78 88 79 89 80 90 81 91 82 92 58 93 59 94 68 95 60 96 61 97
REMARK SMILES IDX 67 98 69 99 62 100 63 101 64 102 65 103 66 104
REMARK H PARENT 7 18 24 29 28 35 90 54 56 65
REMARK Flexibility Score: inf
ROOT
ATOM      1  C   UNL A   1      34.874  33.414  28.601  1.00  0.00     0.105 C 
ATOM      2  C   UNL A   1      34.047  34.105  29.683  1.00  0.00     0.023 C 
ENDROOT
BRANCH   1   3
ATOM      3  C   UNL A   1      34.388  32.039  28.174  1.00  0.00    -0.036 A 
ATOM      4  C   UNL A   1      33.487  29.535  27.137  1.00  0.00    -0.018 A 
ATOM      5  C   UNL A   1      34.742  29.669  27.748  1.00  0.00     0.009 A 
ATOM      6  C   UNL A   1      32.671  30.676  27.104  1.00  0.00     0.009 A 
ATOM      7  C   UNL A   1      35.169  30.887  28.289  1.00  0.00     0.005 A 
ATOM      8  C   UNL A   1      33.120  31.910  27.592  1.00  0.00     0.005 A 
BRANCH   4   9
ATOM      9  C   UNL A   1      33.060  28.253  26.535  1.00  0.00    -0.015 A 
ATOM     10  C   UNL A   1      33.576  26.039  25.667  1.00  0.00     0.133 A 
ATOM     11  C   UNL A   1      32.233  25.787  25.409  1.00  0.00     0.047 A 
ATOM     12  C   UNL A   1      33.993  27.253  26.217  1.00  0.00     0.056 A 
ATOM     13  C   UNL A   1      31.291  26.760  25.722  1.00  0.00     0.004 A 
ATOM     14  C   UNL A   1      31.702  27.980  26.271  1.00  0.00     0.009 A 
BRANCH  10  15
ATOM     15  O   UNL A   1      34.498  25.076  25.227  1.00  0.00    -0.410 OA
BRANCH  15  16
ATOM     16  C   UNL A   1      34.167  24.278  24.142  1.00  0.00     0.412 C 
ATOM     17  N   UNL A   1      33.973  22.969  24.487  1.00  0.00    -0.321 N 
ATOM     18  H   UNL A   1      33.781  22.341  23.753  1.00  0.00     0.167 HD
ATOM     19  O   UNL A   1      34.043  24.648  22.982  1.00  0.00    -0.224 OA
BRANCH  17  20
ATOM     20  C   UNL A   1      34.020  22.412  25.824  1.00  0.00     0.119 C 
BRANCH  20  21
ATOM     21  C   UNL A   1      33.623  20.936  25.834  1.00  0.00     0.021 C 
BRANCH  21  22
ATOM     22  C   UNL A   1      32.388  20.599  24.989  1.00  0.00     0.002 C 
BRANCH  22  23
ATOM     23  C   UNL A   1      32.604  19.531  23.911  1.00  0.00    -0.000 C 
BRANCH  23  24
ATOM     24  C   UNL A   1      33.338  18.271  24.374  1.00  0.00    -0.003 C 
ATOM     25  C   UNL A   1      32.489  17.374  25.262  1.00  0.00     0.004 C 
ENDBRANCH  23  24
ENDBRANCH  22  23
ENDBRANCH  21  22
ENDBRANCH  20  21
ENDBRANCH  17  20
ENDBRANCH  15  16
ENDBRANCH  10  15
ENDBRANCH   4   9
ENDBRANCH   1   3
BRANCH   1  26
ATOM     26  C   UNL A   1      36.395  33.487  28.817  1.00  0.00     0.227 C 
ATOM     27  O   UNL A   1      37.158  33.376  27.850  1.00  0.00    -0.274 OA
ATOM     28  N   UNL A   1      36.984  33.687  30.028  1.00  0.00    -0.356 N 
ATOM     29  H   UNL A   1      37.966  33.744  29.991  1.00  0.00     0.163 HD
BRANCH  28  30
ATOM     30  C   UNL A   1      36.433  33.830  31.360  1.00  0.00     0.117 C 
BRANCH  30  31
ATOM     31  C   UNL A   1      37.511  33.993  32.429  1.00  0.00     0.042 C 
BRANCH  31  32
ATOM     32  C   UNL A   1      37.820  32.719  33.205  1.00  0.00     0.118 C 
BRANCH  32  33
ATOM     33  N   UNL A   1      36.911  31.635  32.864  1.00  0.00    -0.352 N 
ATOM     34  C   UNL A   1      37.032  30.596  31.978  1.00  0.00     0.251 C 
ATOM     35  H   UNL A   1      36.058  31.651  33.357  1.00  0.00     0.163 HD
ATOM     36  O   UNL A   1      36.026  29.944  31.706  1.00  0.00    -0.269 OA
BRANCH  34  37
ATOM     37  C   UNL A   1      38.328  30.247  31.348  1.00  0.00     0.039 A 
ATOM     38  C   UNL A   1      38.462  30.431  29.968  1.00  0.00     0.014 A 
ATOM     39  C   UNL A   1      39.381  29.673  32.067  1.00  0.00     0.014 A 
ATOM     40  C   UNL A   1      39.649  30.074  29.325  1.00  0.00     0.010 A 
ATOM     41  C   UNL A   1      40.598  29.401  31.441  1.00  0.00     0.010 A 
ATOM     42  C   UNL A   1      40.740  29.579  30.059  1.00  0.00    -0.014 A 
BRANCH  42  43
ATOM     43  C   UNL A   1      42.018  29.251  29.375  1.00  0.00     0.031 A 
ATOM     44  C   UNL A   1      43.119  30.273  29.260  1.00  0.00     0.074 A 
ATOM     45  C   UNL A   1      42.182  28.020  28.849  1.00  0.00     0.049 A 
ATOM     46  N   UNL A   1      44.319  30.139  28.754  1.00  0.00    -0.248 NA
ATOM     47  C   UNL A   1      42.830  31.628  29.756  1.00  0.00     0.031 C 
ATOM     48  C   UNL A   1      41.162  26.968  28.835  1.00  0.00     0.029 A 
ATOM     49  N   UNL A   1      43.263  27.440  28.236  1.00  0.00    -0.354 N 
ATOM     50  C   UNL A   1      44.923  31.386  28.866  1.00  0.00     0.074 A 
ATOM     51  C   UNL A   1      43.937  32.280  29.432  1.00  0.00     0.031 C 
ATOM     52  C   UNL A   1      41.682  25.858  28.287  1.00  0.00     0.029 A 
ATOM     53  C   UNL A   1      43.058  26.127  27.882  1.00  0.00     0.049 A 
ATOM     54  H   UNL A   1      44.107  27.919  28.067  1.00  0.00     0.167 HD
ATOM     55  C   UNL A   1      46.191  31.748  28.551  1.00  0.00     0.037 A 
ATOM     56  C   UNL A   1      43.887  25.236  27.307  1.00  0.00     0.037 A 
ATOM     57  C   UNL A   1      47.171  30.847  28.000  1.00  0.00     0.049 A 
ATOM     58  C   UNL A   1      45.298  25.652  26.995  1.00  0.00     0.074 A 
ATOM     59  C   UNL A   1      48.498  31.097  27.693  1.00  0.00     0.029 A 
ATOM     60  N   UNL A   1      46.930  29.519  27.670  1.00  0.00    -0.354 N 
ATOM     61  N   UNL A   1      45.875  26.817  27.177  1.00  0.00    -0.248 NA
ATOM     62  C   UNL A   1      46.176  24.628  26.415  1.00  0.00     0.031 C 
ATOM     63  C   UNL A   1      49.046  29.935  27.136  1.00  0.00     0.029 A 
ATOM     64  C   UNL A   1      48.078  28.944  27.146  1.00  0.00     0.049 A 
ATOM     65  H   UNL A   1      46.070  29.055  27.788  1.00  0.00     0.167 HD
ATOM     66  C   UNL A   1      47.191  26.659  26.756  1.00  0.00     0.074 A 
ATOM     67  C   UNL A   1      47.328  25.279  26.335  1.00  0.00     0.031 C 
ATOM     68  C   UNL A   1      48.195  27.571  26.721  1.00  0.00     0.037 A 
BRANCH  55  69
ATOM     69  C   UNL A   1      46.594  33.178  28.801  1.00  0.00     0.058 A 
ATOM     70  C   UNL A   1      47.031  33.613  30.065  1.00  0.00     0.135 A 
ATOM     71  C   UNL A   1      46.582  34.120  27.759  1.00  0.00     0.135 A 
ATOM     72  F   UNL A   1      47.050  32.762  31.103  1.00  0.00    -0.206 F 
ATOM     73  C   UNL A   1      47.410  34.932  30.293  1.00  0.00     0.059 A 
ATOM     74  C   UNL A   1      46.985  35.438  27.957  1.00  0.00     0.059 A 
ATOM     75  F   UNL A   1      46.176  33.763  26.531  1.00  0.00    -0.206 F 
ATOM     76  C   UNL A   1      47.384  35.839  29.232  1.00  0.00     0.060 A 
BRANCH  76  77
ATOM     77  S   UNL A   1      47.890  37.544  29.542  1.00  0.00     0.124 S 
ATOM     78  O   UNL A   1      47.824  38.116  28.201  1.00  0.00    -0.237 OA
ATOM     79  O   UNL A   1      46.869  38.006  30.477  1.00  0.00    -0.237 OA
ATOM     80  O   UNL A   1      49.231  37.406  30.100  1.00  0.00    -0.744 OA
ENDBRANCH  76  77
ENDBRANCH  55  69
BRANCH  56  81
ATOM     81  C   UNL A   1      43.414  23.853  27.031  1.00  0.00     0.058 A 
ATOM     82  C   UNL A   1      43.300  22.906  28.061  1.00  0.00     0.135 A 
ATOM     83  C   UNL A   1      43.049  23.454  25.736  1.00  0.00     0.135 A 
ATOM     84  F   UNL A   1      43.639  23.237  29.316  1.00  0.00    -0.206 F 
ATOM     85  C   UNL A   1      42.859  21.610  27.815  1.00  0.00     0.059 A 
ATOM     86  C   UNL A   1      42.578  22.172  25.469  1.00  0.00     0.059 A 
ATOM     87  F   UNL A   1      43.121  24.326  24.718  1.00  0.00    -0.206 F 
ATOM     88  C   UNL A   1      42.498  21.253  26.515  1.00  0.00     0.060 A 
BRANCH  88  89
ATOM     89  S   UNL A   1      41.880  19.583  26.212  1.00  0.00     0.124 S 
ATOM     90  O   UNL A   1      40.455  19.826  26.026  1.00  0.00    -0.237 OA
ATOM     91  O   UNL A   1      42.623  19.193  25.018  1.00  0.00    -0.237 OA
ATOM     92  O   UNL A   1      42.245  18.865  27.429  1.00  0.00    -0.744 OA
ENDBRANCH  88  89
ENDBRANCH  56  81
BRANCH  68  93
ATOM     93  C   UNL A   1      49.535  27.088  26.236  1.00  0.00     0.058 A 
ATOM     94  C   UNL A   1      49.907  27.168  24.884  1.00  0.00     0.135 A 
ATOM     95  C   UNL A   1      50.460  26.534  27.137  1.00  0.00     0.135 A 
ATOM     96  F   UNL A   1      49.061  27.688  23.981  1.00  0.00    -0.206 F 
ATOM     97  C   UNL A   1      51.122  26.663  24.433  1.00  0.00     0.059 A 
ATOM     98  C   UNL A   1      51.694  26.054  26.713  1.00  0.00     0.059 A 
ATOM     99  F   UNL A   1      50.165  26.449  28.443  1.00  0.00    -0.206 F 
ATOM    100  C   UNL A   1      52.006  26.100  25.354  1.00  0.00     0.060 A 
BRANCH 100 101
ATOM    101  S   UNL A   1      53.568  25.424  24.756  1.00  0.00     0.124 S 
ATOM    102  O   UNL A   1      53.363  25.447  23.312  1.00  0.00    -0.237 OA
ATOM    103  O   UNL A   1      54.543  26.381  25.273  1.00  0.00    -0.237 OA
ATOM    104  O   UNL A   1      53.620  24.097  25.363  1.00  0.00    -0.744 OA
ENDBRANCH 100 101
ENDBRANCH  68  93
ENDBRANCH  42  43
ENDBRANCH  34  37
ENDBRANCH  32  33
ENDBRANCH  31  32
ENDBRANCH  30  31
ENDBRANCH  28  30
ENDBRANCH   1  26
TORSDOF 22
ENDMDL
