MODEL 1
REMARK VINA RESULT:     -12.5      0.000      0.000
REMARK SMILES Cc1cc(N2CCC[C@H]2C2CCCC2)cc(C(=O)NCCCNC(=O)c2ccc(-c3c4nc(c(-c5c(F)cc(S(=O)(=O)[O-])cc5F)c5ccc([nH]5)c(-c5c(F)cc(S(=O)(=O)[O-])cc5F)c5nc(c(-c6c(F)cc(S(=O)(=O)[O-])cc6F)c6ccc3[nH]6)C=C5)C=C4)cc2)c1N
REMARK SMILES IDX 21 1 20 2 19 3 17 4 18 5 16 7 1 8 2 9 3 10 92 11 4 12 15 13
REMARK SMILES IDX 93 14 5 17 6 18 9 19 7 20 8 21 10 22 11 23 14 24 12 25 13 26
REMARK SMILES IDX 22 27 23 28 24 29 25 31 26 32 27 33 91 34 28 35 90 36 29 37
REMARK SMILES IDX 30 38 31 39 84 40 32 41 89 42 83 43 85 44 33 45 88 46 82 47
REMARK SMILES IDX 81 48 34 50 68 51 47 52 67 53 48 54 51 55 66 56 86 57 49 58
REMARK SMILES IDX 50 59 65 61 87 62 52 63 35 64 36 65 45 66 37 67 38 68 44 69
REMARK SMILES IDX 46 70 39 71 40 72 41 73 42 74 43 75 69 76 70 77 79 78 71 79
REMARK SMILES IDX 72 80 78 81 80 82 73 83 74 84 75 85 76 86 77 87 53 88 54 89
REMARK SMILES IDX 63 90 55 91 56 92 62 93 64 94 57 95 58 96 59 97 60 98 61 99
REMARK H PARENT 19 6 93 15 93 16 23 30 85 49 51 60
REMARK Flexibility Score: inf
ROOT
ATOM      1  C   UNL A   1      39.421  22.431  26.841  1.00  0.00     0.042 C 
ENDROOT
BRANCH   1   2
ATOM      2  C   UNL A   1      38.453  23.472  26.279  1.00  0.00     0.118 C 
BRANCH   2   3
ATOM      3  N   UNL A   1      37.958  23.057  24.981  1.00  0.00    -0.352 N 
ATOM      4  C   UNL A   1      36.717  23.017  24.399  1.00  0.00     0.253 C 
ATOM      5  O   UNL A   1      36.699  22.588  23.239  1.00  0.00    -0.269 OA
ATOM      6  H   UNL A   1      38.672  22.732  24.385  1.00  0.00     0.163 HD
BRANCH   4   7
ATOM      7  C   UNL A   1      35.436  23.489  25.035  1.00  0.00     0.065 A 
ATOM      8  C   UNL A   1      33.137  22.422  27.907  1.00  0.00     0.046 C 
ATOM      9  C   UNL A   1      33.696  23.154  26.715  1.00  0.00    -0.025 A 
ATOM     10  C   UNL A   1      33.046  24.316  26.254  1.00  0.00     0.031 A 
ATOM     11  C   UNL A   1      34.887  22.720  26.095  1.00  0.00     0.047 A 
ATOM     12  C   UNL A   1      33.593  25.118  25.245  1.00  0.00     0.038 A 
ATOM     13  C   UNL A   1      34.828  24.711  24.705  1.00  0.00     0.042 A 
BRANCH  11  14
ATOM     14  N   UNL A   1      35.424  21.469  26.443  1.00  0.00    -0.398 N 
ATOM     15  H   UNL A   1      36.033  21.007  25.824  1.00  0.00     0.156 HD
ATOM     16  H   UNL A   1      35.191  21.057  27.306  1.00  0.00     0.156 HD
ENDBRANCH  11  14
BRANCH  12  17
ATOM     17  N   UNL A   1      32.983  26.308  24.814  1.00  0.00    -0.368 N 
ATOM     18  C   UNL A   1      32.308  26.251  23.506  1.00  0.00     0.117 C 
ATOM     19  C   UNL A   1      33.754  27.584  24.918  1.00  0.00     0.085 C 
ATOM     20  C   UNL A   1      33.110  27.186  22.609  1.00  0.00     0.024 C 
ATOM     21  C   UNL A   1      33.546  28.286  23.555  1.00  0.00     0.027 C 
BRANCH  19  22
ATOM     22  C   UNL A   1      33.322  28.519  26.078  1.00  0.00     0.011 C 
ATOM     23  C   UNL A   1      34.443  29.264  26.816  1.00  0.00     0.006 C 
ATOM     24  C   UNL A   1      32.405  29.657  25.669  1.00  0.00     0.006 C 
ATOM     25  C   UNL A   1      33.761  30.433  27.524  1.00  0.00     0.000 C 
ATOM     26  C   UNL A   1      32.441  30.666  26.803  1.00  0.00     0.000 C 
ENDBRANCH  19  22
ENDBRANCH  12  17
ENDBRANCH   4   7
ENDBRANCH   2   3
ENDBRANCH   1   2
BRANCH   1  27
ATOM     27  C   UNL A   1      40.825  22.969  27.113  1.00  0.00     0.118 C 
BRANCH  27  28
ATOM     28  N   UNL A   1      41.345  23.841  26.068  1.00  0.00    -0.352 N 
ATOM     29  C   UNL A   1      41.669  25.178  26.073  1.00  0.00     0.251 C 
ATOM     30  H   UNL A   1      41.489  23.394  25.203  1.00  0.00     0.163 HD
ATOM     31  O   UNL A   1      42.024  25.699  25.015  1.00  0.00    -0.269 OA
BRANCH  29  32
ATOM     32  C   UNL A   1      41.562  26.012  27.297  1.00  0.00     0.039 A 
ATOM     33  C   UNL A   1      42.580  26.934  27.572  1.00  0.00     0.014 A 
ATOM     34  C   UNL A   1      40.494  25.898  28.186  1.00  0.00     0.014 A 
ATOM     35  C   UNL A   1      42.477  27.794  28.672  1.00  0.00     0.010 A 
ATOM     36  C   UNL A   1      40.340  26.822  29.219  1.00  0.00     0.010 A 
ATOM     37  C   UNL A   1      41.327  27.785  29.476  1.00  0.00    -0.014 A 
BRANCH  37  38
ATOM     38  C   UNL A   1      41.121  28.766  30.579  1.00  0.00     0.031 A 
ATOM     39  C   UNL A   1      41.935  28.662  31.844  1.00  0.00     0.074 A 
ATOM     40  C   UNL A   1      40.135  29.683  30.491  1.00  0.00     0.049 A 
ATOM     41  N   UNL A   1      41.791  29.301  32.977  1.00  0.00    -0.248 NA
ATOM     42  C   UNL A   1      43.032  27.680  31.847  1.00  0.00     0.031 C 
ATOM     43  C   UNL A   1      39.239  29.858  29.346  1.00  0.00     0.029 A 
ATOM     44  N   UNL A   1      39.703  30.626  31.393  1.00  0.00    -0.354 N 
ATOM     45  C   UNL A   1      42.748  28.772  33.836  1.00  0.00     0.074 A 
ATOM     46  C   UNL A   1      43.437  27.729  33.108  1.00  0.00     0.031 C 
ATOM     47  C   UNL A   1      38.379  30.857  29.605  1.00  0.00     0.029 A 
ATOM     48  C   UNL A   1      38.626  31.361  30.952  1.00  0.00     0.049 A 
ATOM     49  H   UNL A   1      40.125  30.764  32.271  1.00  0.00     0.167 HD
ATOM     50  C   UNL A   1      43.042  29.135  35.108  1.00  0.00     0.037 A 
ATOM     51  C   UNL A   1      37.904  32.318  31.567  1.00  0.00     0.037 A 
ATOM     52  C   UNL A   1      42.391  30.211  35.809  1.00  0.00     0.049 A 
ATOM     53  C   UNL A   1      38.268  32.727  32.968  1.00  0.00     0.074 A 
ATOM     54  C   UNL A   1      42.668  30.706  37.072  1.00  0.00     0.029 A 
ATOM     55  N   UNL A   1      41.340  30.963  35.307  1.00  0.00    -0.354 N 
ATOM     56  N   UNL A   1      39.209  32.248  33.747  1.00  0.00    -0.248 NA
ATOM     57  C   UNL A   1      37.477  33.808  33.575  1.00  0.00     0.031 C 
ATOM     58  C   UNL A   1      41.761  31.736  37.346  1.00  0.00     0.029 A 
ATOM     59  C   UNL A   1      40.948  31.911  36.238  1.00  0.00     0.049 A 
ATOM     60  H   UNL A   1      40.933  30.842  34.418  1.00  0.00     0.167 HD
ATOM     61  C   UNL A   1      39.139  32.985  34.925  1.00  0.00     0.074 A 
ATOM     62  C   UNL A   1      38.071  33.949  34.752  1.00  0.00     0.031 C 
ATOM     63  C   UNL A   1      39.892  32.873  36.046  1.00  0.00     0.037 A 
BRANCH  50  64
ATOM     64  C   UNL A   1      44.124  28.370  35.823  1.00  0.00     0.058 A 
ATOM     65  C   UNL A   1      45.469  28.768  35.768  1.00  0.00     0.135 A 
ATOM     66  C   UNL A   1      43.807  27.246  36.604  1.00  0.00     0.135 A 
ATOM     67  F   UNL A   1      45.831  29.827  35.025  1.00  0.00    -0.206 F 
ATOM     68  C   UNL A   1      46.465  28.061  36.432  1.00  0.00     0.059 A 
ATOM     69  C   UNL A   1      44.783  26.541  37.302  1.00  0.00     0.059 A 
ATOM     70  F   UNL A   1      42.536  26.823  36.696  1.00  0.00    -0.206 F 
ATOM     71  C   UNL A   1      46.113  26.949  37.197  1.00  0.00     0.060 A 
BRANCH  71  72
ATOM     72  S   UNL A   1      47.418  26.046  38.057  1.00  0.00     0.124 S 
ATOM     73  O   UNL A   1      47.075  26.299  39.453  1.00  0.00    -0.237 OA
ATOM     74  O   UNL A   1      47.212  24.678  37.592  1.00  0.00    -0.237 OA
ATOM     75  O   UNL A   1      48.643  26.686  37.587  1.00  0.00    -0.744 OA
ENDBRANCH  71  72
ENDBRANCH  50  64
BRANCH  51  76
ATOM     76  C   UNL A   1      36.773  32.971  30.852  1.00  0.00     0.058 A 
ATOM     77  C   UNL A   1      35.444  32.673  31.185  1.00  0.00     0.135 A 
ATOM     78  C   UNL A   1      36.997  33.919  29.841  1.00  0.00     0.135 A 
ATOM     79  F   UNL A   1      35.179  31.767  32.139  1.00  0.00    -0.206 F 
ATOM     80  C   UNL A   1      34.375  33.280  30.533  1.00  0.00     0.059 A 
ATOM     81  C   UNL A   1      35.944  34.558  29.192  1.00  0.00     0.059 A 
ATOM     82  F   UNL A   1      38.250  34.252  29.496  1.00  0.00    -0.206 F 
ATOM     83  C   UNL A   1      34.636  34.225  29.539  1.00  0.00     0.060 A 
BRANCH  83  84
ATOM     84  S   UNL A   1      33.241  35.049  28.741  1.00  0.00     0.124 S 
ATOM     85  O   UNL A   1      32.453  35.473  29.892  1.00  0.00    -0.237 OA
ATOM     86  O   UNL A   1      33.901  36.114  27.992  1.00  0.00    -0.237 OA
ATOM     87  O   UNL A   1      32.651  33.993  27.924  1.00  0.00    -0.744 OA
ENDBRANCH  83  84
ENDBRANCH  51  76
BRANCH  63  88
ATOM     88  C   UNL A   1      39.621  33.838  37.165  1.00  0.00     0.058 A 
ATOM     89  C   UNL A   1      38.772  33.509  38.233  1.00  0.00     0.135 A 
ATOM     90  C   UNL A   1      40.273  35.082  37.203  1.00  0.00     0.135 A 
ATOM     91  F   UNL A   1      38.120  32.336  38.241  1.00  0.00    -0.206 F 
ATOM     92  C   UNL A   1      38.567  34.385  39.293  1.00  0.00     0.059 A 
ATOM     93  C   UNL A   1      40.102  35.963  38.265  1.00  0.00     0.059 A 
ATOM     94  F   UNL A   1      41.102  35.440  36.210  1.00  0.00    -0.206 F 
ATOM     95  C   UNL A   1      39.241  35.609  39.303  1.00  0.00     0.060 A 
BRANCH  95  96
ATOM     96  S   UNL A   1      39.004  36.718  40.708  1.00  0.00     0.124 S 
ATOM     97  O   UNL A   1      38.101  35.938  41.549  1.00  0.00    -0.237 OA
ATOM     98  O   UNL A   1      40.364  36.875  41.214  1.00  0.00    -0.237 OA
ATOM     99  O   UNL A   1      38.426  37.913  40.103  1.00  0.00    -0.744 OA
ENDBRANCH  95  96
ENDBRANCH  63  88
ENDBRANCH  37  38
ENDBRANCH  29  32
ENDBRANCH  27  28
ENDBRANCH   1  27
TORSDOF 16
ENDMDL
MODEL 2
REMARK VINA RESULT:     -12.5      0.407      8.216
REMARK SMILES Cc1cc(N2CCC[C@H]2C2CCCC2)cc(C(=O)NCCCNC(=O)c2ccc(-c3c4nc(c(-c5c(F)cc(S(=O)(=O)[O-])cc5F)c5ccc([nH]5)c(-c5c(F)cc(S(=O)(=O)[O-])cc5F)c5nc(c(-c6c(F)cc(S(=O)(=O)[O-])cc6F)c6ccc3[nH]6)C=C5)C=C4)cc2)c1N
REMARK SMILES IDX 21 1 20 2 19 3 17 4 18 5 16 7 1 8 2 9 3 10 92 11 4 12 15 13
REMARK SMILES IDX 93 14 5 17 6 18 9 19 7 20 8 21 10 22 11 23 14 24 12 25 13 26
REMARK SMILES IDX 22 27 23 28 24 29 25 31 26 32 27 33 91 34 28 35 90 36 29 37
REMARK SMILES IDX 30 38 31 39 84 40 32 41 89 42 83 43 85 44 33 45 88 46 82 47
REMARK SMILES IDX 81 48 34 50 68 51 47 52 67 53 48 54 51 55 66 56 86 57 49 58
REMARK SMILES IDX 50 59 65 61 87 62 52 63 35 64 36 65 45 66 37 67 38 68 44 69
REMARK SMILES IDX 46 70 39 71 40 72 41 73 42 74 43 75 69 76 70 77 79 78 71 79
REMARK SMILES IDX 72 80 78 81 80 82 73 83 74 84 75 85 76 86 77 87 53 88 54 89
REMARK SMILES IDX 63 90 55 91 56 92 62 93 64 94 57 95 58 96 59 97 60 98 61 99
REMARK H PARENT 19 6 93 15 93 16 23 30 85 49 51 60
REMARK Flexibility Score: inf
ROOT
ATOM      1  C   UNL A   1      39.660  22.408  26.701  1.00  0.00     0.042 C 
ENDROOT
BRANCH   1   2
ATOM      2  C   UNL A   1      38.502  23.310  26.273  1.00  0.00     0.118 C 
BRANCH   2   3
ATOM      3  N   UNL A   1      38.002  22.911  24.973  1.00  0.00    -0.352 N 
ATOM      4  C   UNL A   1      36.761  22.904  24.387  1.00  0.00     0.253 C 
ATOM      5  O   UNL A   1      36.736  22.480  23.225  1.00  0.00    -0.269 OA
ATOM      6  H   UNL A   1      38.708  22.570  24.378  1.00  0.00     0.163 HD
BRANCH   4   7
ATOM      7  C   UNL A   1      35.491  23.407  25.020  1.00  0.00     0.065 A 
ATOM      8  C   UNL A   1      33.156  22.388  27.880  1.00  0.00     0.046 C 
ATOM      9  C   UNL A   1      33.737  23.109  26.693  1.00  0.00    -0.025 A 
ATOM     10  C   UNL A   1      33.118  24.290  26.234  1.00  0.00     0.031 A 
ATOM     11  C   UNL A   1      34.919  22.648  26.075  1.00  0.00     0.047 A 
ATOM     12  C   UNL A   1      33.689  25.081  25.230  1.00  0.00     0.038 A 
ATOM     13  C   UNL A   1      34.915  24.646  24.693  1.00  0.00     0.042 A 
BRANCH  11  14
ATOM     14  N   UNL A   1      35.422  21.383  26.420  1.00  0.00    -0.398 N 
ATOM     15  H   UNL A   1      34.826  20.710  26.821  1.00  0.00     0.156 HD
ATOM     16  H   UNL A   1      36.369  21.169  26.260  1.00  0.00     0.156 HD
ENDBRANCH  11  14
BRANCH  12  17
ATOM     17  N   UNL A   1      33.111  26.288  24.802  1.00  0.00    -0.368 N 
ATOM     18  C   UNL A   1      32.464  26.261  23.479  1.00  0.00     0.117 C 
ATOM     19  C   UNL A   1      33.904  27.548  24.940  1.00  0.00     0.085 C 
ATOM     20  C   UNL A   1      33.304  27.192  22.612  1.00  0.00     0.024 C 
ATOM     21  C   UNL A   1      33.738  28.272  23.582  1.00  0.00     0.027 C 
BRANCH  19  22
ATOM     22  C   UNL A   1      33.464  28.476  26.103  1.00  0.00     0.011 C 
ATOM     23  C   UNL A   1      34.573  29.264  26.812  1.00  0.00     0.006 C 
ATOM     24  C   UNL A   1      32.500  29.580  25.705  1.00  0.00     0.006 C 
ATOM     25  C   UNL A   1      33.866  30.414  27.526  1.00  0.00     0.000 C 
ATOM     26  C   UNL A   1      32.525  30.597  26.831  1.00  0.00     0.000 C 
ENDBRANCH  19  22
ENDBRANCH  12  17
ENDBRANCH   4   7
ENDBRANCH   2   3
ENDBRANCH   1   2
BRANCH   1  27
ATOM     27  C   UNL A   1      40.979  23.147  26.919  1.00  0.00     0.118 C 
BRANCH  27  28
ATOM     28  N   UNL A   1      41.253  24.184  25.933  1.00  0.00    -0.352 N 
ATOM     29  C   UNL A   1      41.364  25.551  26.052  1.00  0.00     0.251 C 
ATOM     30  H   UNL A   1      41.382  23.847  25.016  1.00  0.00     0.163 HD
ATOM     31  O   UNL A   1      41.530  26.217  25.029  1.00  0.00    -0.269 OA
BRANCH  29  32
ATOM     32  C   UNL A   1      41.246  26.241  27.361  1.00  0.00     0.039 A 
ATOM     33  C   UNL A   1      42.264  27.122  27.749  1.00  0.00     0.014 A 
ATOM     34  C   UNL A   1      40.169  26.031  28.221  1.00  0.00     0.014 A 
ATOM     35  C   UNL A   1      42.153  27.853  28.938  1.00  0.00     0.010 A 
ATOM     36  C   UNL A   1      40.007  26.833  29.350  1.00  0.00     0.010 A 
ATOM     37  C   UNL A   1      40.994  27.757  29.724  1.00  0.00    -0.014 A 
BRANCH  37  38
ATOM     38  C   UNL A   1      40.780  28.608  30.929  1.00  0.00     0.031 A 
ATOM     39  C   UNL A   1      39.707  29.667  30.925  1.00  0.00     0.074 A 
ATOM     40  C   UNL A   1      41.613  28.502  31.985  1.00  0.00     0.049 A 
ATOM     41  N   UNL A   1      39.476  30.616  31.797  1.00  0.00    -0.248 NA
ATOM     42  C   UNL A   1      38.797  29.685  29.768  1.00  0.00     0.031 C 
ATOM     43  C   UNL A   1      42.725  27.557  32.098  1.00  0.00     0.029 A 
ATOM     44  N   UNL A   1      41.671  29.217  33.158  1.00  0.00    -0.354 N 
ATOM     45  C   UNL A   1      38.427  31.364  31.275  1.00  0.00     0.074 A 
ATOM     46  C   UNL A   1      38.096  30.787  29.991  1.00  0.00     0.031 C 
ATOM     47  C   UNL A   1      43.341  27.735  33.278  1.00  0.00     0.029 A 
ATOM     48  C   UNL A   1      42.703  28.840  33.986  1.00  0.00     0.049 A 
ATOM     49  H   UNL A   1      41.032  29.930  33.385  1.00  0.00     0.167 HD
ATOM     50  C   UNL A   1      37.782  32.423  31.823  1.00  0.00     0.037 A 
ATOM     51  C   UNL A   1      43.106  29.338  35.172  1.00  0.00     0.037 A 
ATOM     52  C   UNL A   1      38.079  32.959  33.126  1.00  0.00     0.049 A 
ATOM     53  C   UNL A   1      42.356  30.494  35.777  1.00  0.00     0.074 A 
ATOM     54  C   UNL A   1      37.434  33.980  33.803  1.00  0.00     0.029 A 
ATOM     55  N   UNL A   1      39.099  32.514  33.953  1.00  0.00    -0.354 N 
ATOM     56  N   UNL A   1      41.335  31.156  35.290  1.00  0.00    -0.248 NA
ATOM     57  C   UNL A   1      42.810  30.968  37.092  1.00  0.00     0.031 C 
ATOM     58  C   UNL A   1      38.086  34.175  35.025  1.00  0.00     0.029 A 
ATOM     59  C   UNL A   1      39.110  33.246  35.129  1.00  0.00     0.049 A 
ATOM     60  H   UNL A   1      39.724  31.784  33.737  1.00  0.00     0.167 HD
ATOM     61  C   UNL A   1      41.008  32.109  36.249  1.00  0.00     0.074 A 
ATOM     62  C   UNL A   1      41.933  31.929  37.349  1.00  0.00     0.031 C 
ATOM     63  C   UNL A   1      40.029  33.046  36.221  1.00  0.00     0.037 A 
BRANCH  50  64
ATOM     64  C   UNL A   1      36.683  33.066  31.021  1.00  0.00     0.058 A 
ATOM     65  C   UNL A   1      35.328  32.812  31.289  1.00  0.00     0.135 A 
ATOM     66  C   UNL A   1      36.986  33.977  29.996  1.00  0.00     0.135 A 
ATOM     67  F   UNL A   1      34.980  31.940  32.249  1.00  0.00    -0.206 F 
ATOM     68  C   UNL A   1      34.315  33.411  30.548  1.00  0.00     0.059 A 
ATOM     69  C   UNL A   1      35.988  34.612  29.262  1.00  0.00     0.059 A 
ATOM     70  F   UNL A   1      38.264  34.260  29.699  1.00  0.00    -0.206 F 
ATOM     71  C   UNL A   1      34.654  34.309  29.536  1.00  0.00     0.060 A 
BRANCH  71  72
ATOM     72  S   UNL A   1      33.326  35.081  28.588  1.00  0.00     0.124 S 
ATOM     73  O   UNL A   1      34.076  35.978  27.714  1.00  0.00    -0.237 OA
ATOM     74  O   UNL A   1      32.700  33.936  27.935  1.00  0.00    -0.237 OA
ATOM     75  O   UNL A   1      32.514  35.736  29.610  1.00  0.00    -0.744 OA
ENDBRANCH  71  72
ENDBRANCH  50  64
BRANCH  51  76
ATOM     76  C   UNL A   1      44.269  28.731  35.876  1.00  0.00     0.058 A 
ATOM     77  C   UNL A   1      44.094  27.662  36.765  1.00  0.00     0.135 A 
ATOM     78  C   UNL A   1      45.577  29.192  35.657  1.00  0.00     0.135 A 
ATOM     79  F   UNL A   1      42.862  27.191  37.012  1.00  0.00    -0.206 F 
ATOM     80  C   UNL A   1      45.171  27.077  37.424  1.00  0.00     0.059 A 
ATOM     81  C   UNL A   1      46.673  28.607  36.286  1.00  0.00     0.059 A 
ATOM     82  F   UNL A   1      45.801  30.203  34.803  1.00  0.00    -0.206 F 
ATOM     83  C   UNL A   1      46.458  27.556  37.176  1.00  0.00     0.060 A 
BRANCH  83  84
ATOM     84  S   UNL A   1      47.854  26.751  37.993  1.00  0.00     0.124 S 
ATOM     85  O   UNL A   1      47.175  25.815  38.881  1.00  0.00    -0.237 OA
ATOM     86  O   UNL A   1      48.570  26.159  36.867  1.00  0.00    -0.237 OA
ATOM     87  O   UNL A   1      48.542  27.859  38.648  1.00  0.00    -0.744 OA
ENDBRANCH  83  84
ENDBRANCH  51  76
BRANCH  63  88
ATOM     88  C   UNL A   1      39.876  33.929  37.427  1.00  0.00     0.058 A 
ATOM     89  C   UNL A   1      40.479  35.193  37.497  1.00  0.00     0.135 A 
ATOM     90  C   UNL A   1      39.059  33.531  38.498  1.00  0.00     0.135 A 
ATOM     91  F   UNL A   1      41.275  35.618  36.502  1.00  0.00    -0.206 F 
ATOM     92  C   UNL A   1      40.290  36.028  38.593  1.00  0.00     0.059 A 
ATOM     93  C   UNL A   1      38.836  34.359  39.592  1.00  0.00     0.059 A 
ATOM     94  F   UNL A   1      38.452  32.334  38.476  1.00  0.00    -0.206 F 
ATOM     95  C   UNL A   1      39.462  35.604  39.634  1.00  0.00     0.060 A 
BRANCH  95  96
ATOM     96  S   UNL A   1      39.185  36.716  41.030  1.00  0.00     0.124 S 
ATOM     97  O   UNL A   1      38.412  35.869  41.932  1.00  0.00    -0.237 OA
ATOM     98  O   UNL A   1      40.546  37.023  41.459  1.00  0.00    -0.237 OA
ATOM     99  O   UNL A   1      38.456  37.832  40.435  1.00  0.00    -0.744 OA
ENDBRANCH  95  96
ENDBRANCH  63  88
ENDBRANCH  37  38
ENDBRANCH  29  32
ENDBRANCH  27  28
ENDBRANCH   1  27
TORSDOF 16
ENDMDL
MODEL 3
REMARK VINA RESULT:     -12.5      4.997     10.669
REMARK SMILES Cc1cc(N2CCC[C@H]2C2CCCC2)cc(C(=O)NCCCNC(=O)c2ccc(-c3c4nc(c(-c5c(F)cc(S(=O)(=O)[O-])cc5F)c5ccc([nH]5)c(-c5c(F)cc(S(=O)(=O)[O-])cc5F)c5nc(c(-c6c(F)cc(S(=O)(=O)[O-])cc6F)c6ccc3[nH]6)C=C5)C=C4)cc2)c1N
REMARK SMILES IDX 21 1 20 2 19 3 17 4 18 5 16 7 1 8 2 9 3 10 92 11 4 12 15 13
REMARK SMILES IDX 93 14 5 17 6 18 9 19 7 20 8 21 10 22 11 23 14 24 12 25 13 26
REMARK SMILES IDX 22 27 23 28 24 29 25 31 26 32 27 33 91 34 28 35 90 36 29 37
REMARK SMILES IDX 30 38 31 39 84 40 32 41 89 42 83 43 85 44 33 45 88 46 82 47
REMARK SMILES IDX 81 48 34 50 68 51 47 52 67 53 48 54 51 55 66 56 86 57 49 58
REMARK SMILES IDX 50 59 65 61 87 62 52 63 35 64 36 65 45 66 37 67 38 68 44 69
REMARK SMILES IDX 46 70 39 71 40 72 41 73 42 74 43 75 69 76 70 77 79 78 71 79
REMARK SMILES IDX 72 80 78 81 80 82 73 83 74 84 75 85 76 86 77 87 53 88 54 89
REMARK SMILES IDX 63 90 55 91 56 92 62 93 64 94 57 95 58 96 59 97 60 98 61 99
REMARK H PARENT 19 6 93 15 93 16 23 30 85 49 51 60
REMARK Flexibility Score: inf
ROOT
ATOM      1  C   UNL A   1      31.891  27.944  27.095  1.00  0.00     0.042 C 
ENDROOT
BRANCH   1   2
ATOM      2  C   UNL A   1      31.610  27.482  25.665  1.00  0.00     0.118 C 
BRANCH   2   3
ATOM      3  N   UNL A   1      32.589  28.036  24.751  1.00  0.00    -0.352 N 
ATOM      4  C   UNL A   1      33.467  27.494  23.847  1.00  0.00     0.253 C 
ATOM      5  O   UNL A   1      34.157  28.317  23.233  1.00  0.00    -0.269 OA
ATOM      6  H   UNL A   1      32.634  29.019  24.787  1.00  0.00     0.163 HD
BRANCH   4   7
ATOM      7  C   UNL A   1      33.602  26.029  23.528  1.00  0.00     0.065 A 
ATOM      8  C   UNL A   1      33.095  23.728  20.508  1.00  0.00     0.046 C 
ATOM      9  C   UNL A   1      33.373  24.219  21.904  1.00  0.00    -0.025 A 
ATOM     10  C   UNL A   1      33.825  23.306  22.878  1.00  0.00     0.031 A 
ATOM     11  C   UNL A   1      33.239  25.586  22.229  1.00  0.00     0.047 A 
ATOM     12  C   UNL A   1      34.236  23.724  24.149  1.00  0.00     0.038 A 
ATOM     13  C   UNL A   1      34.177  25.105  24.417  1.00  0.00     0.042 A 
BRANCH  11  14
ATOM     14  N   UNL A   1      32.620  26.450  21.310  1.00  0.00    -0.398 N 
ATOM     15  H   UNL A   1      32.514  27.404  21.527  1.00  0.00     0.156 HD
ATOM     16  H   UNL A   1      32.294  26.101  20.449  1.00  0.00     0.156 HD
ENDBRANCH  11  14
BRANCH  12  17
ATOM     17  N   UNL A   1      34.739  22.832  25.110  1.00  0.00    -0.368 N 
ATOM     18  C   UNL A   1      35.693  23.397  26.080  1.00  0.00     0.117 C 
ATOM     19  C   UNL A   1      35.229  21.494  24.656  1.00  0.00     0.085 C 
ATOM     20  C   UNL A   1      37.013  22.695  25.787  1.00  0.00     0.024 C 
ATOM     21  C   UNL A   1      36.583  21.301  25.380  1.00  0.00     0.027 C 
BRANCH  19  22
ATOM     22  C   UNL A   1      34.278  20.309  24.964  1.00  0.00     0.011 C 
ATOM     23  C   UNL A   1      32.939  20.287  24.215  1.00  0.00     0.006 C 
ATOM     24  C   UNL A   1      34.844  18.938  24.635  1.00  0.00     0.006 C 
ATOM     25  C   UNL A   1      32.444  18.845  24.302  1.00  0.00     0.000 C 
ATOM     26  C   UNL A   1      33.663  17.985  24.597  1.00  0.00     0.000 C 
ENDBRANCH  19  22
ENDBRANCH  12  17
ENDBRANCH   4   7
ENDBRANCH   2   3
ENDBRANCH   1   2
BRANCH   1  27
ATOM     27  C   UNL A   1      33.302  28.490  27.308  1.00  0.00     0.118 C 
BRANCH  27  28
ATOM     28  N   UNL A   1      33.347  29.890  27.710  1.00  0.00    -0.352 N 
ATOM     29  C   UNL A   1      34.362  30.657  28.235  1.00  0.00     0.251 C 
ATOM     30  H   UNL A   1      32.499  30.375  27.584  1.00  0.00     0.163 HD
ATOM     31  O   UNL A   1      34.111  31.817  28.563  1.00  0.00    -0.269 OA
BRANCH  29  32
ATOM     32  C   UNL A   1      35.727  30.115  28.455  1.00  0.00     0.039 A 
ATOM     33  C   UNL A   1      36.624  30.099  27.379  1.00  0.00     0.014 A 
ATOM     34  C   UNL A   1      36.139  29.610  29.688  1.00  0.00     0.014 A 
ATOM     35  C   UNL A   1      37.944  29.671  27.565  1.00  0.00     0.010 A 
ATOM     36  C   UNL A   1      37.479  29.284  29.899  1.00  0.00     0.010 A 
ATOM     37  C   UNL A   1      38.401  29.312  28.842  1.00  0.00    -0.014 A 
BRANCH  37  38
ATOM     38  C   UNL A   1      39.827  28.970  29.108  1.00  0.00     0.031 A 
ATOM     39  C   UNL A   1      40.771  30.022  29.634  1.00  0.00     0.074 A 
ATOM     40  C   UNL A   1      40.300  27.749  28.781  1.00  0.00     0.049 A 
ATOM     41  N   UNL A   1      42.072  29.977  29.765  1.00  0.00    -0.248 NA
ATOM     42  C   UNL A   1      40.176  31.310  30.026  1.00  0.00     0.031 C 
ATOM     43  C   UNL A   1      39.508  26.656  28.215  1.00  0.00     0.029 A 
ATOM     44  N   UNL A   1      41.571  27.230  28.853  1.00  0.00    -0.354 N 
ATOM     45  C   UNL A   1      42.453  31.236  30.215  1.00  0.00     0.074 A 
ATOM     46  C   UNL A   1      41.251  32.037  30.290  1.00  0.00     0.031 C 
ATOM     47  C   UNL A   1      40.303  25.593  28.009  1.00  0.00     0.029 A 
ATOM     48  C   UNL A   1      41.670  25.942  28.379  1.00  0.00     0.049 A 
ATOM     49  H   UNL A   1      42.338  27.732  29.211  1.00  0.00     0.167 HD
ATOM     50  C   UNL A   1      43.688  31.680  30.555  1.00  0.00     0.037 A 
ATOM     51  C   UNL A   1      42.742  25.136  28.239  1.00  0.00     0.037 A 
ATOM     52  C   UNL A   1      44.872  30.862  30.530  1.00  0.00     0.049 A 
ATOM     53  C   UNL A   1      44.098  25.640  28.652  1.00  0.00     0.074 A 
ATOM     54  C   UNL A   1      46.156  31.196  30.928  1.00  0.00     0.029 A 
ATOM     55  N   UNL A   1      44.918  29.547  30.094  1.00  0.00    -0.354 N 
ATOM     56  N   UNL A   1      44.430  26.818  29.122  1.00  0.00    -0.248 NA
ATOM     57  C   UNL A   1      45.225  24.705  28.520  1.00  0.00     0.031 C 
ATOM     58  C   UNL A   1      46.985  30.093  30.699  1.00  0.00     0.029 A 
ATOM     59  C   UNL A   1      46.210  29.058  30.200  1.00  0.00     0.049 A 
ATOM     60  H   UNL A   1      44.147  29.035  29.758  1.00  0.00     0.167 HD
ATOM     61  C   UNL A   1      45.799  26.759  29.364  1.00  0.00     0.074 A 
ATOM     62  C   UNL A   1      46.230  25.425  29.000  1.00  0.00     0.031 C 
ATOM     63  C   UNL A   1      46.621  27.722  29.846  1.00  0.00     0.037 A 
BRANCH  50  64
ATOM     64  C   UNL A   1      43.820  33.114  30.994  1.00  0.00     0.058 A 
ATOM     65  C   UNL A   1      43.809  33.474  32.351  1.00  0.00     0.135 A 
ATOM     66  C   UNL A   1      43.999  34.136  30.048  1.00  0.00     0.135 A 
ATOM     67  F   UNL A   1      43.628  32.540  33.298  1.00  0.00    -0.206 F 
ATOM     68  C   UNL A   1      43.935  34.800  32.753  1.00  0.00     0.059 A 
ATOM     69  C   UNL A   1      44.158  35.466  30.428  1.00  0.00     0.059 A 
ATOM     70  F   UNL A   1      44.021  33.849  28.736  1.00  0.00    -0.206 F 
ATOM     71  C   UNL A   1      44.109  35.789  31.785  1.00  0.00     0.060 A 
BRANCH  71  72
ATOM     72  S   UNL A   1      44.277  37.503  32.325  1.00  0.00     0.124 S 
ATOM     73  O   UNL A   1      43.378  37.535  33.475  1.00  0.00    -0.237 OA
ATOM     74  O   UNL A   1      45.701  37.597  32.630  1.00  0.00    -0.237 OA
ATOM     75  O   UNL A   1      43.837  38.271  31.164  1.00  0.00    -0.744 OA
ENDBRANCH  71  72
ENDBRANCH  50  64
BRANCH  51  76
ATOM     76  C   UNL A   1      42.571  23.760  27.699  1.00  0.00     0.058 A 
ATOM     77  C   UNL A   1      42.418  22.663  28.559  1.00  0.00     0.135 A 
ATOM     78  C   UNL A   1      42.535  23.517  26.317  1.00  0.00     0.135 A 
ATOM     79  F   UNL A   1      42.453  22.844  29.888  1.00  0.00    -0.206 F 
ATOM     80  C   UNL A   1      42.248  21.371  28.070  1.00  0.00     0.059 A 
ATOM     81  C   UNL A   1      42.342  22.237  25.804  1.00  0.00     0.059 A 
ATOM     82  F   UNL A   1      42.661  24.534  25.450  1.00  0.00    -0.206 F 
ATOM     83  C   UNL A   1      42.209  21.169  26.690  1.00  0.00     0.060 A 
BRANCH  83  84
ATOM     84  S   UNL A   1      41.930  19.496  26.068  1.00  0.00     0.124 S 
ATOM     85  O   UNL A   1      40.497  19.516  25.803  1.00  0.00    -0.237 OA
ATOM     86  O   UNL A   1      42.797  19.456  24.894  1.00  0.00    -0.237 OA
ATOM     87  O   UNL A   1      42.356  18.650  27.179  1.00  0.00    -0.744 OA
ENDBRANCH  83  84
ENDBRANCH  51  76
BRANCH  63  88
ATOM     88  C   UNL A   1      48.067  27.365  30.047  1.00  0.00     0.058 A 
ATOM     89  C   UNL A   1      49.040  27.659  29.081  1.00  0.00     0.135 A 
ATOM     90  C   UNL A   1      48.492  26.783  31.253  1.00  0.00     0.135 A 
ATOM     91  F   UNL A   1      48.685  28.210  27.909  1.00  0.00    -0.206 F 
ATOM     92  C   UNL A   1      50.385  27.375  29.296  1.00  0.00     0.059 A 
ATOM     93  C   UNL A   1      49.834  26.513  31.499  1.00  0.00     0.059 A 
ATOM     94  F   UNL A   1      47.602  26.490  32.213  1.00  0.00    -0.206 F 
ATOM     95  C   UNL A   1      50.773  26.806  30.511  1.00  0.00     0.060 A 
BRANCH  95  96
ATOM     96  S   UNL A   1      52.527  26.486  30.797  1.00  0.00     0.124 S 
ATOM     97  O   UNL A   1      52.955  27.732  31.425  1.00  0.00    -0.237 OA
ATOM     98  O   UNL A   1      52.492  25.317  31.669  1.00  0.00    -0.237 OA
ATOM     99  O   UNL A   1      53.052  26.245  29.457  1.00  0.00    -0.744 OA
ENDBRANCH  95  96
ENDBRANCH  63  88
ENDBRANCH  37  38
ENDBRANCH  29  32
ENDBRANCH  27  28
ENDBRANCH   1  27
TORSDOF 16
ENDMDL
