MODEL 1
REMARK VINA RESULT:     -12.2      0.000      0.000
REMARK SMILES Cc1nc(N[C@@H](C(=O)NCCCNC(=O)c2ccc(-c3c4nc(c(-c5c(F)cc(S(=O)(=O)[O-])cc5F)c5ccc([nH]5)c(-c5c(F)cc(S(=O)(=O)[O-])cc5F)c5nc(c(-c6c(F)cc(S(=O)(=O)[O-])cc6F)c6ccc3[nH]6)C=C5)C=C4)cc2)C(C)C)c2c3c(sc2n1)CCCC3
REMARK SMILES IDX 11 1 10 2 9 3 7 4 8 5 6 7 5 8 4 10 1 11 2 12 3 13 90 14
REMARK SMILES IDX 89 15 85 16 88 17 86 18 87 19 94 20 91 21 93 22 92 23 82 24
REMARK SMILES IDX 83 25 84 26 12 27 13 28 14 29 15 31 16 32 17 33 81 34 18 35
REMARK SMILES IDX 80 36 19 37 20 38 21 39 74 40 22 41 79 42 73 43 75 44 23 45
REMARK SMILES IDX 78 46 72 47 71 48 24 50 58 51 37 52 57 53 38 54 41 55 56 56
REMARK SMILES IDX 76 57 39 58 40 59 55 61 77 62 42 63 25 64 26 65 35 66 27 67
REMARK SMILES IDX 28 68 34 69 36 70 29 71 30 72 31 73 32 74 33 75 59 76 60 77
REMARK SMILES IDX 69 78 61 79 62 80 68 81 70 82 63 83 64 84 65 85 66 86 67 87
REMARK SMILES IDX 43 88 44 89 53 90 45 91 46 92 52 93 54 94 47 95 48 96 49 97
REMARK SMILES IDX 50 98 51 99
REMARK H PARENT 9 6 5 9 13 30 75 49 41 60
REMARK Flexibility Score: inf
ROOT
ATOM      1  C   UNL A   1      37.782  20.860  24.987  1.00  0.00     0.042 C 
ENDROOT
BRANCH   1   2
ATOM      2  C   UNL A   1      36.482  21.501  24.490  1.00  0.00     0.117 C 
BRANCH   2   3
ATOM      3  N   UNL A   1      35.795  22.207  25.557  1.00  0.00    -0.354 N 
ATOM      4  C   UNL A   1      34.636  22.938  25.521  1.00  0.00     0.242 C 
ATOM      5  O   UNL A   1      34.310  23.536  26.548  1.00  0.00    -0.273 OA
ATOM      6  H   UNL A   1      36.227  22.153  26.440  1.00  0.00     0.163 HD
BRANCH   4   7
ATOM      7  C   UNL A   1      33.738  22.908  24.251  1.00  0.00     0.172 C 
BRANCH   7   8
ATOM      8  N   UNL A   1      32.828  24.034  24.235  1.00  0.00    -0.358 N 
ATOM      9  H   UNL A   1      32.121  23.981  24.918  1.00  0.00     0.162 HD
BRANCH   8  10
ATOM     10  C   UNL A   1      32.759  25.159  23.456  1.00  0.00     0.139 A 
ATOM     11  C   UNL A   1      32.615  25.232  19.759  1.00  0.00     0.090 C 
ATOM     12  C   UNL A   1      32.646  25.722  21.174  1.00  0.00     0.129 A 
ATOM     13  N   UNL A   1      32.776  24.807  22.143  1.00  0.00    -0.216 NA
ATOM     14  N   UNL A   1      32.475  27.024  21.367  1.00  0.00    -0.222 NA
ATOM     15  C   UNL A   1      32.464  27.371  22.661  1.00  0.00     0.129 A 
ATOM     16  C   UNL A   1      32.617  26.545  23.777  1.00  0.00     0.057 A 
ATOM     17  S   UNL A   1      32.201  29.011  23.024  1.00  0.00    -0.120 S 
ATOM     18  C   UNL A   1      32.565  27.389  24.984  1.00  0.00    -0.021 A 
ATOM     19  C   UNL A   1      32.279  28.714  24.684  1.00  0.00     0.011 A 
ATOM     20  C   UNL A   1      32.725  27.003  26.428  1.00  0.00     0.037 C 
ATOM     21  C   UNL A   1      32.092  29.830  25.672  1.00  0.00     0.047 C 
ATOM     22  C   UNL A   1      32.896  28.187  27.387  1.00  0.00     0.005 C 
ATOM     23  C   UNL A   1      31.871  29.276  27.082  1.00  0.00     0.006 C 
ENDBRANCH   8  10
ENDBRANCH   7   8
BRANCH   7  24
ATOM     24  C   UNL A   1      32.957  21.568  24.129  1.00  0.00     0.015 C 
ATOM     25  C   UNL A   1      32.039  21.265  25.322  1.00  0.00     0.010 C 
ATOM     26  C   UNL A   1      32.115  21.552  22.844  1.00  0.00     0.010 C 
ENDBRANCH   7  24
ENDBRANCH   4   7
ENDBRANCH   2   3
ENDBRANCH   1   2
BRANCH   1  27
ATOM     27  C   UNL A   1      38.706  21.856  25.701  1.00  0.00     0.118 C 
BRANCH  27  28
ATOM     28  N   UNL A   1      39.698  21.143  26.491  1.00  0.00    -0.352 N 
ATOM     29  C   UNL A   1      40.875  21.562  27.046  1.00  0.00     0.251 C 
ATOM     30  H   UNL A   1      39.487  20.195  26.654  1.00  0.00     0.163 HD
ATOM     31  O   UNL A   1      41.686  20.703  27.391  1.00  0.00    -0.269 OA
BRANCH  29  32
ATOM     32  C   UNL A   1      41.199  22.992  27.244  1.00  0.00     0.039 A 
ATOM     33  C   UNL A   1      42.455  23.429  26.807  1.00  0.00     0.014 A 
ATOM     34  C   UNL A   1      40.375  23.857  27.972  1.00  0.00     0.014 A 
ATOM     35  C   UNL A   1      42.879  24.727  27.079  1.00  0.00     0.010 A 
ATOM     36  C   UNL A   1      40.801  25.163  28.240  1.00  0.00     0.010 A 
ATOM     37  C   UNL A   1      42.052  25.607  27.792  1.00  0.00    -0.014 A 
BRANCH  37  38
ATOM     38  C   UNL A   1      42.533  26.992  27.969  1.00  0.00     0.031 A 
ATOM     39  C   UNL A   1      41.503  28.066  27.829  1.00  0.00     0.074 A 
ATOM     40  C   UNL A   1      43.615  27.249  28.735  1.00  0.00     0.049 A 
ATOM     41  N   UNL A   1      40.712  28.424  28.798  1.00  0.00    -0.248 NA
ATOM     42  C   UNL A   1      41.123  28.619  26.529  1.00  0.00     0.031 C 
ATOM     43  C   UNL A   1      43.919  26.531  29.980  1.00  0.00     0.029 A 
ATOM     44  N   UNL A   1      44.500  28.303  28.724  1.00  0.00    -0.354 N 
ATOM     45  C   UNL A   1      39.710  29.209  28.249  1.00  0.00     0.074 A 
ATOM     46  C   UNL A   1      40.012  29.307  26.839  1.00  0.00     0.031 C 
ATOM     47  C   UNL A   1      44.807  27.256  30.690  1.00  0.00     0.029 A 
ATOM     48  C   UNL A   1      45.244  28.402  29.898  1.00  0.00     0.049 A 
ATOM     49  H   UNL A   1      44.596  28.923  27.965  1.00  0.00     0.167 HD
ATOM     50  C   UNL A   1      38.689  29.717  28.988  1.00  0.00     0.037 A 
ATOM     51  C   UNL A   1      45.728  29.567  30.415  1.00  0.00     0.037 A 
ATOM     52  C   UNL A   1      38.750  29.418  30.388  1.00  0.00     0.049 A 
ATOM     53  C   UNL A   1      44.455  30.181  30.940  1.00  0.00     0.074 A 
ATOM     54  C   UNL A   1      38.220  28.481  31.245  1.00  0.00     0.029 A 
ATOM     55  N   UNL A   1      39.586  30.184  31.168  1.00  0.00    -0.354 N 
ATOM     56  N   UNL A   1      43.856  29.845  32.052  1.00  0.00    -0.248 NA
ATOM     57  C   UNL A   1      43.611  30.924  30.000  1.00  0.00     0.031 C 
ATOM     58  C   UNL A   1      39.105  28.450  32.367  1.00  0.00     0.029 A 
ATOM     59  C   UNL A   1      40.139  29.347  32.103  1.00  0.00     0.049 A 
ATOM     60  H   UNL A   1      39.754  31.149  31.073  1.00  0.00     0.167 HD
ATOM     61  C   UNL A   1      42.497  30.057  31.819  1.00  0.00     0.074 A 
ATOM     62  C   UNL A   1      42.417  30.766  30.556  1.00  0.00     0.031 C 
ATOM     63  C   UNL A   1      41.508  29.468  32.552  1.00  0.00     0.037 A 
BRANCH  50  64
ATOM     64  C   UNL A   1      37.621  30.622  28.508  1.00  0.00     0.058 A 
ATOM     65  C   UNL A   1      37.744  31.992  28.787  1.00  0.00     0.135 A 
ATOM     66  C   UNL A   1      36.389  30.151  28.043  1.00  0.00     0.135 A 
ATOM     67  F   UNL A   1      38.910  32.483  29.239  1.00  0.00    -0.206 F 
ATOM     68  C   UNL A   1      36.664  32.857  28.680  1.00  0.00     0.059 A 
ATOM     69  C   UNL A   1      35.290  31.003  27.918  1.00  0.00     0.059 A 
ATOM     70  F   UNL A   1      36.220  28.847  27.772  1.00  0.00    -0.206 F 
ATOM     71  C   UNL A   1      35.433  32.348  28.271  1.00  0.00     0.060 A 
BRANCH  71  72
ATOM     72  S   UNL A   1      34.013  33.467  28.275  1.00  0.00     0.124 S 
ATOM     73  O   UNL A   1      34.527  34.608  27.525  1.00  0.00    -0.237 OA
ATOM     74  O   UNL A   1      32.997  32.667  27.598  1.00  0.00    -0.237 OA
ATOM     75  O   UNL A   1      33.773  33.706  29.695  1.00  0.00    -0.744 OA
ENDBRANCH  71  72
ENDBRANCH  50  64
BRANCH  51  76
ATOM     76  C   UNL A   1      46.728  30.267  29.550  1.00  0.00     0.058 A 
ATOM     77  C   UNL A   1      48.061  30.336  30.014  1.00  0.00     0.135 A 
ATOM     78  C   UNL A   1      46.486  30.843  28.295  1.00  0.00     0.135 A 
ATOM     79  F   UNL A   1      48.362  29.942  31.262  1.00  0.00    -0.206 F 
ATOM     80  C   UNL A   1      49.111  30.772  29.215  1.00  0.00     0.059 A 
ATOM     81  C   UNL A   1      47.525  31.269  27.462  1.00  0.00     0.059 A 
ATOM     82  F   UNL A   1      45.240  30.987  27.825  1.00  0.00    -0.206 F 
ATOM     83  C   UNL A   1      48.839  31.183  27.916  1.00  0.00     0.060 A 
BRANCH  83  84
ATOM     84  S   UNL A   1      50.227  31.518  26.812  1.00  0.00     0.124 S 
ATOM     85  O   UNL A   1      51.313  31.772  27.757  1.00  0.00    -0.237 OA
ATOM     86  O   UNL A   1      50.318  30.263  26.067  1.00  0.00    -0.237 OA
ATOM     87  O   UNL A   1      49.781  32.668  26.042  1.00  0.00    -0.744 OA
ENDBRANCH  83  84
ENDBRANCH  51  76
BRANCH  63  88
ATOM     88  C   UNL A   1      41.955  28.696  33.748  1.00  0.00     0.058 A 
ATOM     89  C   UNL A   1      41.827  29.242  35.030  1.00  0.00     0.135 A 
ATOM     90  C   UNL A   1      42.441  27.382  33.636  1.00  0.00     0.135 A 
ATOM     91  F   UNL A   1      41.363  30.492  35.192  1.00  0.00    -0.206 F 
ATOM     92  C   UNL A   1      42.125  28.496  36.166  1.00  0.00     0.059 A 
ATOM     93  C   UNL A   1      42.723  26.611  34.759  1.00  0.00     0.059 A 
ATOM     94  F   UNL A   1      42.606  26.812  32.431  1.00  0.00    -0.206 F 
ATOM     95  C   UNL A   1      42.551  27.174  36.022  1.00  0.00     0.060 A 
BRANCH  95  96
ATOM     96  S   UNL A   1      42.792  26.179  37.507  1.00  0.00     0.124 S 
ATOM     97  O   UNL A   1      41.434  26.078  38.031  1.00  0.00    -0.237 OA
ATOM     98  O   UNL A   1      43.355  24.946  36.965  1.00  0.00    -0.237 OA
ATOM     99  O   UNL A   1      43.715  26.977  38.310  1.00  0.00    -0.744 OA
ENDBRANCH  95  96
ENDBRANCH  63  88
ENDBRANCH  37  38
ENDBRANCH  29  32
ENDBRANCH  27  28
ENDBRANCH   1  27
TORSDOF 16
ENDMDL
MODEL 2
REMARK VINA RESULT:     -11.8      6.115     13.125
REMARK SMILES Cc1nc(N[C@@H](C(=O)NCCCNC(=O)c2ccc(-c3c4nc(c(-c5c(F)cc(S(=O)(=O)[O-])cc5F)c5ccc([nH]5)c(-c5c(F)cc(S(=O)(=O)[O-])cc5F)c5nc(c(-c6c(F)cc(S(=O)(=O)[O-])cc6F)c6ccc3[nH]6)C=C5)C=C4)cc2)C(C)C)c2c3c(sc2n1)CCCC3
REMARK SMILES IDX 11 1 10 2 9 3 7 4 8 5 6 7 5 8 4 10 1 11 2 12 3 13 90 14
REMARK SMILES IDX 89 15 85 16 88 17 86 18 87 19 94 20 91 21 93 22 92 23 82 24
REMARK SMILES IDX 83 25 84 26 12 27 13 28 14 29 15 31 16 32 17 33 81 34 18 35
REMARK SMILES IDX 80 36 19 37 20 38 21 39 74 40 22 41 79 42 73 43 75 44 23 45
REMARK SMILES IDX 78 46 72 47 71 48 24 50 58 51 37 52 57 53 38 54 41 55 56 56
REMARK SMILES IDX 76 57 39 58 40 59 55 61 77 62 42 63 25 64 26 65 35 66 27 67
REMARK SMILES IDX 28 68 34 69 36 70 29 71 30 72 31 73 32 74 33 75 59 76 60 77
REMARK SMILES IDX 69 78 61 79 62 80 68 81 70 82 63 83 64 84 65 85 66 86 67 87
REMARK SMILES IDX 43 88 44 89 53 90 45 91 46 92 52 93 54 94 47 95 48 96 49 97
REMARK SMILES IDX 50 98 51 99
REMARK H PARENT 9 6 5 9 13 30 75 49 41 60
REMARK Flexibility Score: inf
ROOT
ATOM      1  C   UNL A   1      47.228  24.024  37.827  1.00  0.00     0.042 C 
ENDROOT
BRANCH   1   2
ATOM      2  C   UNL A   1      47.681  22.655  38.346  1.00  0.00     0.117 C 
BRANCH   2   3
ATOM      3  N   UNL A   1      48.319  21.875  37.300  1.00  0.00    -0.354 N 
ATOM      4  C   UNL A   1      47.923  20.698  36.720  1.00  0.00     0.242 C 
ATOM      5  O   UNL A   1      48.698  20.172  35.918  1.00  0.00    -0.273 OA
ATOM      6  H   UNL A   1      49.162  22.248  36.956  1.00  0.00     0.163 HD
BRANCH   4   7
ATOM      7  C   UNL A   1      46.503  20.130  37.005  1.00  0.00     0.172 C 
BRANCH   7   8
ATOM      8  N   UNL A   1      46.584  18.863  37.701  1.00  0.00    -0.358 N 
ATOM      9  H   UNL A   1      46.421  18.083  37.123  1.00  0.00     0.162 HD
BRANCH   8  10
ATOM     10  C   UNL A   1      46.843  18.537  39.006  1.00  0.00     0.139 A 
ATOM     11  C   UNL A   1      49.642  19.835  41.051  1.00  0.00     0.090 C 
ATOM     12  C   UNL A   1      48.414  19.063  40.678  1.00  0.00     0.129 A 
ATOM     13  N   UNL A   1      47.980  19.160  39.415  1.00  0.00    -0.216 NA
ATOM     14  N   UNL A   1      47.805  18.391  41.647  1.00  0.00    -0.222 NA
ATOM     15  C   UNL A   1      46.687  17.773  41.243  1.00  0.00     0.129 A 
ATOM     16  C   UNL A   1      46.127  17.752  39.964  1.00  0.00     0.057 A 
ATOM     17  S   UNL A   1      45.801  16.922  42.418  1.00  0.00    -0.120 S 
ATOM     18  C   UNL A   1      44.917  16.913  40.004  1.00  0.00    -0.021 A 
ATOM     19  C   UNL A   1      44.626  16.479  41.290  1.00  0.00     0.011 A 
ATOM     20  C   UNL A   1      43.982  16.529  38.892  1.00  0.00     0.037 C 
ATOM     21  C   UNL A   1      43.437  15.659  41.704  1.00  0.00     0.047 C 
ATOM     22  C   UNL A   1      42.995  15.412  39.249  1.00  0.00     0.005 C 
ATOM     23  C   UNL A   1      42.362  15.670  40.613  1.00  0.00     0.006 C 
ENDBRANCH   8  10
ENDBRANCH   7   8
BRANCH   7  24
ATOM     24  C   UNL A   1      45.666  19.989  35.702  1.00  0.00     0.015 C 
ATOM     25  C   UNL A   1      46.176  20.843  34.531  1.00  0.00     0.010 C 
ATOM     26  C   UNL A   1      45.614  18.521  35.252  1.00  0.00     0.010 C 
ENDBRANCH   7  24
ENDBRANCH   4   7
ENDBRANCH   2   3
ENDBRANCH   1   2
BRANCH   1  27
ATOM     27  C   UNL A   1      46.738  23.983  36.374  1.00  0.00     0.118 C 
BRANCH  27  28
ATOM     28  N   UNL A   1      45.335  23.601  36.326  1.00  0.00    -0.352 N 
ATOM     29  C   UNL A   1      44.301  24.072  35.567  1.00  0.00     0.251 C 
ATOM     30  H   UNL A   1      45.086  22.880  36.949  1.00  0.00     0.163 HD
ATOM     31  O   UNL A   1      43.154  23.814  35.933  1.00  0.00    -0.269 OA
BRANCH  29  32
ATOM     32  C   UNL A   1      44.511  24.867  34.337  1.00  0.00     0.039 A 
ATOM     33  C   UNL A   1      44.298  24.220  33.115  1.00  0.00     0.014 A 
ATOM     34  C   UNL A   1      45.049  26.158  34.357  1.00  0.00     0.014 A 
ATOM     35  C   UNL A   1      44.603  24.864  31.918  1.00  0.00     0.010 A 
ATOM     36  C   UNL A   1      45.350  26.806  33.153  1.00  0.00     0.010 A 
ATOM     37  C   UNL A   1      45.125  26.165  31.928  1.00  0.00    -0.014 A 
BRANCH  37  38
ATOM     38  C   UNL A   1      45.344  26.814  30.620  1.00  0.00     0.031 A 
ATOM     39  C   UNL A   1      45.237  25.925  29.423  1.00  0.00     0.074 A 
ATOM     40  C   UNL A   1      45.090  28.130  30.455  1.00  0.00     0.049 A 
ATOM     41  N   UNL A   1      44.104  25.620  28.861  1.00  0.00    -0.248 NA
ATOM     42  C   UNL A   1      46.362  25.122  28.944  1.00  0.00     0.031 C 
ATOM     43  C   UNL A   1      43.964  28.825  31.091  1.00  0.00     0.029 A 
ATOM     44  N   UNL A   1      45.587  29.040  29.550  1.00  0.00    -0.354 N 
ATOM     45  C   UNL A   1      44.340  24.567  27.992  1.00  0.00     0.074 A 
ATOM     46  C   UNL A   1      45.758  24.298  28.072  1.00  0.00     0.031 C 
ATOM     47  C   UNL A   1      43.754  29.990  30.442  1.00  0.00     0.029 A 
ATOM     48  C   UNL A   1      44.810  30.192  29.453  1.00  0.00     0.049 A 
ATOM     49  H   UNL A   1      46.407  28.891  29.025  1.00  0.00     0.167 HD
ATOM     50  C   UNL A   1      43.351  23.976  27.271  1.00  0.00     0.037 A 
ATOM     51  C   UNL A   1      44.687  30.955  28.330  1.00  0.00     0.037 A 
ATOM     52  C   UNL A   1      42.050  24.553  27.443  1.00  0.00     0.049 A 
ATOM     53  C   UNL A   1      43.815  30.060  27.487  1.00  0.00     0.074 A 
ATOM     54  C   UNL A   1      40.932  24.313  28.207  1.00  0.00     0.029 A 
ATOM     55  N   UNL A   1      41.764  25.701  26.740  1.00  0.00    -0.354 N 
ATOM     56  N   UNL A   1      42.523  29.917  27.625  1.00  0.00    -0.248 NA
ATOM     57  C   UNL A   1      44.462  28.993  26.718  1.00  0.00     0.031 C 
ATOM     58  C   UNL A   1      40.236  25.560  28.263  1.00  0.00     0.029 A 
ATOM     59  C   UNL A   1      40.998  26.490  27.558  1.00  0.00     0.049 A 
ATOM     60  H   UNL A   1      42.053  25.914  25.824  1.00  0.00     0.167 HD
ATOM     61  C   UNL A   1      42.252  28.604  27.236  1.00  0.00     0.074 A 
ATOM     62  C   UNL A   1      43.478  28.105  26.645  1.00  0.00     0.031 C 
ATOM     63  C   UNL A   1      41.123  27.931  27.601  1.00  0.00     0.037 A 
BRANCH  50  64
ATOM     64  C   UNL A   1      43.517  22.902  26.266  1.00  0.00     0.058 A 
ATOM     65  C   UNL A   1      43.151  21.597  26.630  1.00  0.00     0.135 A 
ATOM     66  C   UNL A   1      44.264  23.077  25.096  1.00  0.00     0.135 A 
ATOM     67  F   UNL A   1      42.438  21.387  27.749  1.00  0.00    -0.206 F 
ATOM     68  C   UNL A   1      43.570  20.493  25.900  1.00  0.00     0.059 A 
ATOM     69  C   UNL A   1      44.688  21.983  24.340  1.00  0.00     0.059 A 
ATOM     70  F   UNL A   1      44.645  24.305  24.713  1.00  0.00    -0.206 F 
ATOM     71  C   UNL A   1      44.363  20.694  24.771  1.00  0.00     0.060 A 
BRANCH  71  72
ATOM     72  S   UNL A   1      45.009  19.235  23.923  1.00  0.00     0.124 S 
ATOM     73  O   UNL A   1      46.450  19.410  24.079  1.00  0.00    -0.237 OA
ATOM     74  O   UNL A   1      44.413  18.149  24.693  1.00  0.00    -0.237 OA
ATOM     75  O   UNL A   1      44.505  19.384  22.561  1.00  0.00    -0.744 OA
ENDBRANCH  71  72
ENDBRANCH  50  64
BRANCH  51  76
ATOM     76  C   UNL A   1      45.958  31.598  27.870  1.00  0.00     0.058 A 
ATOM     77  C   UNL A   1      45.998  33.010  27.828  1.00  0.00     0.135 A 
ATOM     78  C   UNL A   1      47.140  30.940  27.501  1.00  0.00     0.135 A 
ATOM     79  F   UNL A   1      44.878  33.724  28.024  1.00  0.00    -0.206 F 
ATOM     80  C   UNL A   1      47.176  33.719  27.620  1.00  0.00     0.059 A 
ATOM     81  C   UNL A   1      48.341  31.627  27.308  1.00  0.00     0.059 A 
ATOM     82  F   UNL A   1      47.173  29.610  27.342  1.00  0.00    -0.206 F 
ATOM     83  C   UNL A   1      48.356  33.016  27.418  1.00  0.00     0.060 A 
BRANCH  83  84
ATOM     84  S   UNL A   1      49.909  33.933  27.388  1.00  0.00     0.124 S 
ATOM     85  O   UNL A   1      49.497  35.246  27.879  1.00  0.00    -0.237 OA
ATOM     86  O   UNL A   1      50.733  33.145  28.305  1.00  0.00    -0.237 OA
ATOM     87  O   UNL A   1      50.310  33.881  25.992  1.00  0.00    -0.744 OA
ENDBRANCH  83  84
ENDBRANCH  51  76
BRANCH  63  88
ATOM     88  C   UNL A   1      40.087  28.732  28.315  1.00  0.00     0.058 A 
ATOM     89  C   UNL A   1      39.138  29.465  27.593  1.00  0.00     0.135 A 
ATOM     90  C   UNL A   1      39.982  28.716  29.716  1.00  0.00     0.135 A 
ATOM     91  F   UNL A   1      39.192  29.510  26.252  1.00  0.00    -0.206 F 
ATOM     92  C   UNL A   1      38.093  30.123  28.234  1.00  0.00     0.059 A 
ATOM     93  C   UNL A   1      38.931  29.347  30.375  1.00  0.00     0.059 A 
ATOM     94  F   UNL A   1      40.876  28.048  30.464  1.00  0.00    -0.206 F 
ATOM     95  C   UNL A   1      37.984  30.039  29.623  1.00  0.00     0.060 A 
BRANCH  95  96
ATOM     96  S   UNL A   1      36.543  30.774  30.421  1.00  0.00     0.124 S 
ATOM     97  O   UNL A   1      35.603  30.885  29.311  1.00  0.00    -0.237 OA
ATOM     98  O   UNL A   1      36.210  29.779  31.436  1.00  0.00    -0.237 OA
ATOM     99  O   UNL A   1      37.047  32.042  30.944  1.00  0.00    -0.744 OA
ENDBRANCH  95  96
ENDBRANCH  63  88
ENDBRANCH  37  38
ENDBRANCH  29  32
ENDBRANCH  27  28
ENDBRANCH   1  27
TORSDOF 16
ENDMDL
MODEL 3
REMARK VINA RESULT:     -11.5      6.354     13.354
REMARK SMILES Cc1nc(N[C@@H](C(=O)NCCCNC(=O)c2ccc(-c3c4nc(c(-c5c(F)cc(S(=O)(=O)[O-])cc5F)c5ccc([nH]5)c(-c5c(F)cc(S(=O)(=O)[O-])cc5F)c5nc(c(-c6c(F)cc(S(=O)(=O)[O-])cc6F)c6ccc3[nH]6)C=C5)C=C4)cc2)C(C)C)c2c3c(sc2n1)CCCC3
REMARK SMILES IDX 11 1 10 2 9 3 7 4 8 5 6 7 5 8 4 10 1 11 2 12 3 13 90 14
REMARK SMILES IDX 89 15 85 16 88 17 86 18 87 19 94 20 91 21 93 22 92 23 82 24
REMARK SMILES IDX 83 25 84 26 12 27 13 28 14 29 15 31 16 32 17 33 81 34 18 35
REMARK SMILES IDX 80 36 19 37 20 38 21 39 74 40 22 41 79 42 73 43 75 44 23 45
REMARK SMILES IDX 78 46 72 47 71 48 24 50 58 51 37 52 57 53 38 54 41 55 56 56
REMARK SMILES IDX 76 57 39 58 40 59 55 61 77 62 42 63 25 64 26 65 35 66 27 67
REMARK SMILES IDX 28 68 34 69 36 70 29 71 30 72 31 73 32 74 33 75 59 76 60 77
REMARK SMILES IDX 69 78 61 79 62 80 68 81 70 82 63 83 64 84 65 85 66 86 67 87
REMARK SMILES IDX 43 88 44 89 53 90 45 91 46 92 52 93 54 94 47 95 48 96 49 97
REMARK SMILES IDX 50 98 51 99
REMARK H PARENT 9 6 5 9 13 30 75 49 41 60
REMARK Flexibility Score: inf
ROOT
ATOM      1  C   UNL A   1      47.093  22.955  37.236  1.00  0.00     0.042 C 
ENDROOT
BRANCH   1   2
ATOM      2  C   UNL A   1      48.116  21.848  37.517  1.00  0.00     0.117 C 
BRANCH   2   3
ATOM      3  N   UNL A   1      48.801  22.065  38.779  1.00  0.00    -0.354 N 
ATOM      4  C   UNL A   1      48.992  21.208  39.832  1.00  0.00     0.242 C 
ATOM      5  O   UNL A   1      49.520  21.666  40.847  1.00  0.00    -0.273 OA
ATOM      6  H   UNL A   1      49.185  22.964  38.897  1.00  0.00     0.163 HD
BRANCH   4   7
ATOM      7  C   UNL A   1      48.642  19.700  39.678  1.00  0.00     0.172 C 
BRANCH   7   8
ATOM      8  N   UNL A   1      47.262  19.451  40.042  1.00  0.00    -0.358 N 
ATOM      9  H   UNL A   1      47.004  19.841  40.908  1.00  0.00     0.162 HD
BRANCH   8  10
ATOM     10  C   UNL A   1      46.246  18.779  39.415  1.00  0.00     0.139 A 
ATOM     11  C   UNL A   1      45.506  18.854  35.789  1.00  0.00     0.090 C 
ATOM     12  C   UNL A   1      45.390  18.500  37.240  1.00  0.00     0.129 A 
ATOM     13  N   UNL A   1      46.245  19.084  38.091  1.00  0.00    -0.216 NA
ATOM     14  N   UNL A   1      44.492  17.580  37.569  1.00  0.00    -0.222 NA
ATOM     15  C   UNL A   1      44.490  17.284  38.875  1.00  0.00     0.129 A 
ATOM     16  C   UNL A   1      45.289  17.825  39.884  1.00  0.00     0.057 A 
ATOM     17  S   UNL A   1      43.410  16.078  39.397  1.00  0.00    -0.120 S 
ATOM     18  C   UNL A   1      44.897  17.207  41.164  1.00  0.00    -0.021 A 
ATOM     19  C   UNL A   1      43.944  16.213  40.993  1.00  0.00     0.011 A 
ATOM     20  C   UNL A   1      45.411  17.473  42.551  1.00  0.00     0.037 C 
ATOM     21  C   UNL A   1      43.367  15.339  42.070  1.00  0.00     0.047 C 
ATOM     22  C   UNL A   1      44.570  16.849  43.670  1.00  0.00     0.005 C 
ATOM     23  C   UNL A   1      44.225  15.400  43.338  1.00  0.00     0.006 C 
ENDBRANCH   8  10
ENDBRANCH   7   8
BRANCH   7  24
ATOM     24  C   UNL A   1      49.600  18.798  40.508  1.00  0.00     0.015 C 
ATOM     25  C   UNL A   1      48.939  17.533  41.076  1.00  0.00     0.010 C 
ATOM     26  C   UNL A   1      50.813  18.380  39.662  1.00  0.00     0.010 C 
ENDBRANCH   7  24
ENDBRANCH   4   7
ENDBRANCH   2   3
ENDBRANCH   1   2
BRANCH   1  27
ATOM     27  C   UNL A   1      46.354  22.764  35.905  1.00  0.00     0.118 C 
BRANCH  27  28
ATOM     28  N   UNL A   1      44.918  22.871  36.107  1.00  0.00    -0.352 N 
ATOM     29  C   UNL A   1      44.000  23.744  35.594  1.00  0.00     0.251 C 
ATOM     30  H   UNL A   1      44.541  22.199  36.721  1.00  0.00     0.163 HD
ATOM     31  O   UNL A   1      42.910  23.831  36.159  1.00  0.00    -0.269 OA
BRANCH  29  32
ATOM     32  C   UNL A   1      44.268  24.571  34.397  1.00  0.00     0.039 A 
ATOM     33  C   UNL A   1      44.095  23.963  33.148  1.00  0.00     0.014 A 
ATOM     34  C   UNL A   1      44.821  25.854  34.477  1.00  0.00     0.014 A 
ATOM     35  C   UNL A   1      44.455  24.638  31.984  1.00  0.00     0.010 A 
ATOM     36  C   UNL A   1      45.177  26.533  33.305  1.00  0.00     0.010 A 
ATOM     37  C   UNL A   1      44.992  25.932  32.053  1.00  0.00    -0.014 A 
BRANCH  37  38
ATOM     38  C   UNL A   1      45.271  26.616  30.775  1.00  0.00     0.031 A 
ATOM     39  C   UNL A   1      45.192  25.765  29.547  1.00  0.00     0.074 A 
ATOM     40  C   UNL A   1      45.046  27.940  30.642  1.00  0.00     0.049 A 
ATOM     41  N   UNL A   1      44.075  25.498  28.936  1.00  0.00    -0.248 NA
ATOM     42  C   UNL A   1      46.319  24.956  29.085  1.00  0.00     0.031 C 
ATOM     43  C   UNL A   1      43.909  28.637  31.257  1.00  0.00     0.029 A 
ATOM     44  N   UNL A   1      45.591  28.868  29.784  1.00  0.00    -0.354 N 
ATOM     45  C   UNL A   1      44.324  24.469  28.044  1.00  0.00     0.074 A 
ATOM     46  C   UNL A   1      45.733  24.170  28.166  1.00  0.00     0.031 C 
ATOM     47  C   UNL A   1      43.744  29.824  30.638  1.00  0.00     0.029 A 
ATOM     48  C   UNL A   1      44.838  30.037  29.694  1.00  0.00     0.049 A 
ATOM     49  H   UNL A   1      46.427  28.720  29.284  1.00  0.00     0.167 HD
ATOM     50  C   UNL A   1      43.352  23.918  27.270  1.00  0.00     0.037 A 
ATOM     51  C   UNL A   1      44.771  30.835  28.592  1.00  0.00     0.037 A 
ATOM     52  C   UNL A   1      42.057  24.514  27.412  1.00  0.00     0.049 A 
ATOM     53  C   UNL A   1      43.914  29.982  27.691  1.00  0.00     0.074 A 
ATOM     54  C   UNL A   1      40.907  24.271  28.127  1.00  0.00     0.029 A 
ATOM     55  N   UNL A   1      41.817  25.687  26.736  1.00  0.00    -0.354 N 
ATOM     56  N   UNL A   1      42.616  29.859  27.777  1.00  0.00    -0.248 NA
ATOM     57  C   UNL A   1      44.570  28.928  26.913  1.00  0.00     0.031 C 
ATOM     58  C   UNL A   1      40.231  25.528  28.197  1.00  0.00     0.029 A 
ATOM     59  C   UNL A   1      41.034  26.466  27.549  1.00  0.00     0.049 A 
ATOM     60  H   UNL A   1      42.143  25.923  25.837  1.00  0.00     0.167 HD
ATOM     61  C   UNL A   1      42.336  28.565  27.338  1.00  0.00     0.074 A 
ATOM     62  C   UNL A   1      43.575  28.061  26.777  1.00  0.00     0.031 C 
ATOM     63  C   UNL A   1      41.183  27.901  27.641  1.00  0.00     0.037 A 
BRANCH  50  64
ATOM     64  C   UNL A   1      43.536  22.872  26.239  1.00  0.00     0.058 A 
ATOM     65  C   UNL A   1      43.101  21.571  26.534  1.00  0.00     0.135 A 
ATOM     66  C   UNL A   1      44.356  23.056  25.120  1.00  0.00     0.135 A 
ATOM     67  F   UNL A   1      42.315  21.353  27.603  1.00  0.00    -0.206 F 
ATOM     68  C   UNL A   1      43.520  20.476  25.792  1.00  0.00     0.059 A 
ATOM     69  C   UNL A   1      44.783  21.971  24.352  1.00  0.00     0.059 A 
ATOM     70  F   UNL A   1      44.806  24.280  24.803  1.00  0.00    -0.206 F 
ATOM     71  C   UNL A   1      44.384  20.683  24.718  1.00  0.00     0.060 A 
BRANCH  71  72
ATOM     72  S   UNL A   1      45.024  19.228  23.857  1.00  0.00     0.124 S 
ATOM     73  O   UNL A   1      46.466  19.409  23.991  1.00  0.00    -0.237 OA
ATOM     74  O   UNL A   1      44.444  18.138  24.634  1.00  0.00    -0.237 OA
ATOM     75  O   UNL A   1      44.497  19.377  22.503  1.00  0.00    -0.744 OA
ENDBRANCH  71  72
ENDBRANCH  50  64
BRANCH  51  76
ATOM     76  C   UNL A   1      46.068  31.468  28.198  1.00  0.00     0.058 A 
ATOM     77  C   UNL A   1      46.134  32.092  26.931  1.00  0.00     0.135 A 
ATOM     78  C   UNL A   1      47.233  31.537  28.976  1.00  0.00     0.135 A 
ATOM     79  F   UNL A   1      45.122  31.956  26.059  1.00  0.00    -0.206 F 
ATOM     80  C   UNL A   1      47.207  32.886  26.543  1.00  0.00     0.059 A 
ATOM     81  C   UNL A   1      48.315  32.345  28.619  1.00  0.00     0.059 A 
ATOM     82  F   UNL A   1      47.347  30.845  30.118  1.00  0.00    -0.206 F 
ATOM     83  C   UNL A   1      48.270  33.054  27.421  1.00  0.00     0.060 A 
BRANCH  83  84
ATOM     84  S   UNL A   1      49.539  34.269  27.011  1.00  0.00     0.124 S 
ATOM     85  O   UNL A   1      49.072  34.775  25.722  1.00  0.00    -0.237 OA
ATOM     86  O   UNL A   1      49.426  35.200  28.134  1.00  0.00    -0.237 OA
ATOM     87  O   UNL A   1      50.763  33.486  26.974  1.00  0.00    -0.744 OA
ENDBRANCH  83  84
ENDBRANCH  51  76
BRANCH  63  88
ATOM     88  C   UNL A   1      40.136  28.700  28.342  1.00  0.00     0.058 A 
ATOM     89  C   UNL A   1      39.196  29.433  27.608  1.00  0.00     0.135 A 
ATOM     90  C   UNL A   1      40.011  28.681  29.742  1.00  0.00     0.135 A 
ATOM     91  F   UNL A   1      39.269  29.480  26.267  1.00  0.00    -0.206 F 
ATOM     92  C   UNL A   1      38.142  30.088  28.234  1.00  0.00     0.059 A 
ATOM     93  C   UNL A   1      38.950  29.310  30.387  1.00  0.00     0.059 A 
ATOM     94  F   UNL A   1      40.895  28.013  30.501  1.00  0.00    -0.206 F 
ATOM     95  C   UNL A   1      38.013  30.002  29.622  1.00  0.00     0.060 A 
BRANCH  95  96
ATOM     96  S   UNL A   1      36.559  30.733  30.401  1.00  0.00     0.124 S 
ATOM     97  O   UNL A   1      36.205  29.726  31.394  1.00  0.00    -0.237 OA
ATOM     98  O   UNL A   1      37.090  31.986  30.931  1.00  0.00    -0.237 OA
ATOM     99  O   UNL A   1      35.616  30.883  29.295  1.00  0.00    -0.744 OA
ENDBRANCH  95  96
ENDBRANCH  63  88
ENDBRANCH  37  38
ENDBRANCH  29  32
ENDBRANCH  27  28
ENDBRANCH   1  27
TORSDOF 16
ENDMDL
