MODEL 1
REMARK VINA RESULT:     -10.2      0.000      0.000
REMARK SMILES C[C@@H](CNC(=O)N(C)CC(C)(C)O)C(=O)NCCCNC(=O)c1ccc(-c2c3nc(c(-c4c(F)cc(S(=O)(=O)[O-])cc4F)c4ccc([nH]4)c(-c4c(F)cc(S(=O)(=O)[O-])cc4F)c4nc(c(-c5c(F)cc(S(=O)(=O)[O-])cc5F)c5ccc2[nH]5)C=C4)C=C3)cc1
REMARK SMILES IDX 14 1 15 2 16 3 2 5 1 6 3 7 4 8 5 9 6 11 7 12 8 13 9 14 10 15
REMARK SMILES IDX 11 16 12 17 13 18 17 20 18 21 19 22 20 23 21 24 22 26 23 27
REMARK SMILES IDX 24 28 88 29 25 30 87 31 26 32 27 33 28 34 81 35 29 36 86 37
REMARK SMILES IDX 80 38 82 39 30 40 85 41 79 42 78 43 31 45 65 46 44 47 64 48
REMARK SMILES IDX 45 49 48 50 63 51 83 52 46 53 47 54 62 56 84 57 49 58 32 59
REMARK SMILES IDX 33 60 42 61 34 62 35 63 41 64 43 65 36 66 37 67 38 68 39 69
REMARK SMILES IDX 40 70 66 71 67 72 76 73 68 74 69 75 75 76 77 77 70 78 71 79
REMARK SMILES IDX 72 80 73 81 74 82 50 83 51 84 60 85 52 86 53 87 59 88 61 89
REMARK SMILES IDX 54 90 55 91 56 92 57 93 58 94
REMARK H PARENT 16 4 4 10 13 19 20 25 82 44 48 55
REMARK Flexibility Score: inf
ROOT
ATOM      1  C   UNL A   1      32.712  30.542  26.730  1.00  0.00     0.224 C 
ATOM      2  O   UNL A   1      31.500  30.761  26.638  1.00  0.00    -0.275 OA
ATOM      3  N   UNL A   1      33.472  31.464  27.382  1.00  0.00    -0.356 N 
ATOM      4  H   UNL A   1      33.061  32.353  27.484  1.00  0.00     0.163 HD
ENDROOT
BRANCH   1   5
ATOM      5  C   UNL A   1      33.304  29.289  26.091  1.00  0.00     0.094 C 
ATOM      6  C   UNL A   1      32.976  28.008  26.867  1.00  0.00     0.020 C 
BRANCH   5   7
ATOM      7  C   UNL A   1      33.163  29.170  24.561  1.00  0.00     0.130 C 
BRANCH   7   8
ATOM      8  N   UNL A   1      31.824  29.311  24.028  1.00  0.00    -0.337 N 
ATOM      9  C   UNL A   1      30.848  28.525  23.551  1.00  0.00     0.317 C 
ATOM     10  H   UNL A   1      31.551  30.258  24.012  1.00  0.00     0.165 HD
ATOM     11  O   UNL A   1      30.022  29.144  22.870  1.00  0.00    -0.249 OA
BRANCH   9  12
ATOM     12  N   UNL A   1      30.753  27.183  23.743  1.00  0.00    -0.325 N 
ATOM     13  C   UNL A   1      30.315  26.491  24.943  1.00  0.00     0.148 C 
BRANCH  12  14
ATOM     14  C   UNL A   1      31.053  26.301  22.589  1.00  0.00     0.155 C 
BRANCH  14  15
ATOM     15  C   UNL A   1      32.509  26.304  22.020  1.00  0.00     0.077 C 
ATOM     16  C   UNL A   1      33.563  25.766  22.997  1.00  0.00     0.043 C 
ATOM     17  C   UNL A   1      32.550  25.418  20.763  1.00  0.00     0.043 C 
BRANCH  15  18
ATOM     18  O   UNL A   1      32.867  27.626  21.592  1.00  0.00    -0.389 OA
ATOM     19  H   UNL A   1      33.812  27.652  21.377  1.00  0.00     0.211 HD
ENDBRANCH  15  18
ENDBRANCH  14  15
ENDBRANCH  12  14
ENDBRANCH   9  12
ENDBRANCH   7   8
ENDBRANCH   5   7
ENDBRANCH   1   5
BRANCH   3  20
ATOM     20  C   UNL A   1      34.799  31.325  27.948  1.00  0.00     0.117 C 
BRANCH  20  21
ATOM     21  C   UNL A   1      35.594  32.609  28.030  1.00  0.00     0.042 C 
BRANCH  21  22
ATOM     22  C   UNL A   1      36.604  32.620  29.164  1.00  0.00     0.118 C 
BRANCH  22  23
ATOM     23  N   UNL A   1      36.207  31.794  30.302  1.00  0.00    -0.352 N 
ATOM     24  C   UNL A   1      36.766  30.654  30.829  1.00  0.00     0.251 C 
ATOM     25  H   UNL A   1      35.400  32.108  30.770  1.00  0.00     0.163 HD
ATOM     26  O   UNL A   1      36.180  30.049  31.718  1.00  0.00    -0.269 OA
BRANCH  24  27
ATOM     27  C   UNL A   1      38.055  30.147  30.311  1.00  0.00     0.039 A 
ATOM     28  C   UNL A   1      38.247  30.072  28.930  1.00  0.00     0.014 A 
ATOM     29  C   UNL A   1      39.070  29.744  31.179  1.00  0.00     0.014 A 
ATOM     30  C   UNL A   1      39.482  29.656  28.428  1.00  0.00     0.010 A 
ATOM     31  C   UNL A   1      40.333  29.461  30.683  1.00  0.00     0.010 A 
ATOM     32  C   UNL A   1      40.549  29.385  29.301  1.00  0.00    -0.014 A 
BRANCH  32  33
ATOM     33  C   UNL A   1      41.883  28.977  28.792  1.00  0.00     0.031 A 
ATOM     34  C   UNL A   1      42.986  29.998  28.679  1.00  0.00     0.074 A 
ATOM     35  C   UNL A   1      42.082  27.708  28.384  1.00  0.00     0.049 A 
ATOM     36  N   UNL A   1      44.202  29.852  28.220  1.00  0.00    -0.248 NA
ATOM     37  C   UNL A   1      42.671  31.374  29.100  1.00  0.00     0.031 C 
ATOM     38  C   UNL A   1      41.070  26.648  28.381  1.00  0.00     0.029 A 
ATOM     39  N   UNL A   1      43.204  27.092  27.892  1.00  0.00    -0.354 N 
ATOM     40  C   UNL A   1      44.784  31.113  28.284  1.00  0.00     0.074 A 
ATOM     41  C   UNL A   1      43.768  32.027  28.751  1.00  0.00     0.031 C 
ATOM     42  C   UNL A   1      41.629  25.506  27.949  1.00  0.00     0.029 A 
ATOM     43  C   UNL A   1      43.024  25.758  27.610  1.00  0.00     0.049 A 
ATOM     44  H   UNL A   1      44.059  27.561  27.754  1.00  0.00     0.167 HD
ATOM     45  C   UNL A   1      46.062  31.473  28.014  1.00  0.00     0.037 A 
ATOM     46  C   UNL A   1      43.891  24.843  27.134  1.00  0.00     0.037 A 
ATOM     47  C   UNL A   1      47.077  30.548  27.584  1.00  0.00     0.049 A 
ATOM     48  C   UNL A   1      45.311  25.260  26.866  1.00  0.00     0.074 A 
ATOM     49  C   UNL A   1      48.415  30.792  27.335  1.00  0.00     0.029 A 
ATOM     50  N   UNL A   1      46.865  29.198  27.341  1.00  0.00    -0.354 N 
ATOM     51  N   UNL A   1      45.863  26.445  26.993  1.00  0.00    -0.248 NA
ATOM     52  C   UNL A   1      46.232  24.213  26.405  1.00  0.00     0.031 C 
ATOM     53  C   UNL A   1      49.002  29.599  26.898  1.00  0.00     0.029 A 
ATOM     54  C   UNL A   1      48.043  28.599  26.932  1.00  0.00     0.049 A 
ATOM     55  H   UNL A   1      46.002  28.735  27.445  1.00  0.00     0.167 HD
ATOM     56  C   UNL A   1      47.203  26.278  26.660  1.00  0.00     0.074 A 
ATOM     57  C   UNL A   1      47.378  24.875  26.341  1.00  0.00     0.031 C 
ATOM     58  C   UNL A   1      48.198  27.198  26.624  1.00  0.00     0.037 A 
BRANCH  45  59
ATOM     59  C   UNL A   1      46.431  32.922  28.189  1.00  0.00     0.058 A 
ATOM     60  C   UNL A   1      47.017  33.399  29.373  1.00  0.00     0.135 A 
ATOM     61  C   UNL A   1      46.215  33.845  27.153  1.00  0.00     0.135 A 
ATOM     62  F   UNL A   1      47.229  32.568  30.405  1.00  0.00    -0.206 F 
ATOM     63  C   UNL A   1      47.347  34.741  29.536  1.00  0.00     0.059 A 
ATOM     64  C   UNL A   1      46.567  35.185  27.281  1.00  0.00     0.059 A 
ATOM     65  F   UNL A   1      45.654  33.448  25.999  1.00  0.00    -0.206 F 
ATOM     66  C   UNL A   1      47.119  35.627  28.483  1.00  0.00     0.060 A 
BRANCH  66  67
ATOM     67  S   UNL A   1      47.562  37.362  28.707  1.00  0.00     0.124 S 
ATOM     68  O   UNL A   1      46.828  37.993  27.613  1.00  0.00    -0.237 OA
ATOM     69  O   UNL A   1      47.060  37.640  30.049  1.00  0.00    -0.237 OA
ATOM     70  O   UNL A   1      49.014  37.364  28.570  1.00  0.00    -0.744 OA
ENDBRANCH  66  67
ENDBRANCH  45  59
BRANCH  46  71
ATOM     71  C   UNL A   1      43.450  23.437  26.925  1.00  0.00     0.058 A 
ATOM     72  C   UNL A   1      43.229  22.578  28.013  1.00  0.00     0.135 A 
ATOM     73  C   UNL A   1      43.230  22.925  25.637  1.00  0.00     0.135 A 
ATOM     74  F   UNL A   1      43.428  23.017  29.265  1.00  0.00    -0.206 F 
ATOM     75  C   UNL A   1      42.831  21.257  27.832  1.00  0.00     0.059 A 
ATOM     76  C   UNL A   1      42.804  21.617  25.431  1.00  0.00     0.059 A 
ATOM     77  F   UNL A   1      43.405  23.711  24.562  1.00  0.00    -0.206 F 
ATOM     78  C   UNL A   1      42.619  20.787  26.535  1.00  0.00     0.060 A 
BRANCH  78  79
ATOM     79  S   UNL A   1      42.062  19.082  26.313  1.00  0.00     0.124 S 
ATOM     80  O   UNL A   1      42.991  18.599  25.299  1.00  0.00    -0.237 OA
ATOM     81  O   UNL A   1      42.233  18.528  27.653  1.00  0.00    -0.237 OA
ATOM     82  O   UNL A   1      40.676  19.237  25.879  1.00  0.00    -0.744 OA
ENDBRANCH  78  79
ENDBRANCH  46  71
BRANCH  58  83
ATOM     83  C   UNL A   1      49.576  26.706  26.274  1.00  0.00     0.058 A 
ATOM     84  C   UNL A   1      50.437  26.157  27.237  1.00  0.00     0.135 A 
ATOM     85  C   UNL A   1      50.032  26.769  24.947  1.00  0.00     0.135 A 
ATOM     86  F   UNL A   1      50.051  26.073  28.520  1.00  0.00    -0.206 F 
ATOM     87  C   UNL A   1      51.719  25.732  26.906  1.00  0.00     0.059 A 
ATOM     88  C   UNL A   1      51.297  26.318  24.587  1.00  0.00     0.059 A 
ATOM     89  F   UNL A   1      49.243  27.269  23.983  1.00  0.00    -0.206 F 
ATOM     90  C   UNL A   1      52.142  25.822  25.578  1.00  0.00     0.060 A 
BRANCH  90  91
ATOM     91  S   UNL A   1      53.810  25.274  25.161  1.00  0.00     0.124 S 
ATOM     92  O   UNL A   1      54.567  25.734  26.321  1.00  0.00    -0.237 OA
ATOM     93  O   UNL A   1      53.645  23.828  25.044  1.00  0.00    -0.237 OA
ATOM     94  O   UNL A   1      54.094  25.970  23.910  1.00  0.00    -0.744 OA
ENDBRANCH  90  91
ENDBRANCH  58  83
ENDBRANCH  32  33
ENDBRANCH  24  27
ENDBRANCH  22  23
ENDBRANCH  21  22
ENDBRANCH  20  21
ENDBRANCH   3  20
TORSDOF 19
ENDMDL
MODEL 2
REMARK VINA RESULT:     -10.1      0.956      2.290
REMARK SMILES C[C@@H](CNC(=O)N(C)CC(C)(C)O)C(=O)NCCCNC(=O)c1ccc(-c2c3nc(c(-c4c(F)cc(S(=O)(=O)[O-])cc4F)c4ccc([nH]4)c(-c4c(F)cc(S(=O)(=O)[O-])cc4F)c4nc(c(-c5c(F)cc(S(=O)(=O)[O-])cc5F)c5ccc2[nH]5)C=C4)C=C3)cc1
REMARK SMILES IDX 14 1 15 2 16 3 2 5 1 6 3 7 4 8 5 9 6 11 7 12 8 13 9 14 10 15
REMARK SMILES IDX 11 16 12 17 13 18 17 20 18 21 19 22 20 23 21 24 22 26 23 27
REMARK SMILES IDX 24 28 88 29 25 30 87 31 26 32 27 33 28 34 81 35 29 36 86 37
REMARK SMILES IDX 80 38 82 39 30 40 85 41 79 42 78 43 31 45 65 46 44 47 64 48
REMARK SMILES IDX 45 49 48 50 63 51 83 52 46 53 47 54 62 56 84 57 49 58 32 59
REMARK SMILES IDX 33 60 42 61 34 62 35 63 41 64 43 65 36 66 37 67 38 68 39 69
REMARK SMILES IDX 40 70 66 71 67 72 76 73 68 74 69 75 75 76 77 77 70 78 71 79
REMARK SMILES IDX 72 80 73 81 74 82 50 83 51 84 60 85 52 86 53 87 59 88 61 89
REMARK SMILES IDX 54 90 55 91 56 92 57 93 58 94
REMARK H PARENT 16 4 4 10 13 19 20 25 82 44 48 55
REMARK Flexibility Score: inf
ROOT
ATOM      1  C   UNL A   1      32.773  27.866  26.897  1.00  0.00     0.224 C 
ATOM      2  O   UNL A   1      31.720  27.363  27.304  1.00  0.00    -0.275 OA
ATOM      3  N   UNL A   1      33.129  29.079  27.404  1.00  0.00    -0.356 N 
ATOM      4  H   UNL A   1      32.403  29.585  27.835  1.00  0.00     0.163 HD
ENDROOT
BRANCH   1   5
ATOM      5  C   UNL A   1      33.598  27.141  25.837  1.00  0.00     0.094 C 
ATOM      6  C   UNL A   1      33.181  25.678  25.651  1.00  0.00     0.020 C 
BRANCH   5   7
ATOM      7  C   UNL A   1      33.854  27.911  24.527  1.00  0.00     0.130 C 
BRANCH   7   8
ATOM      8  N   UNL A   1      33.119  27.457  23.363  1.00  0.00    -0.337 N 
ATOM      9  C   UNL A   1      31.848  27.209  23.016  1.00  0.00     0.317 C 
ATOM     10  H   UNL A   1      33.729  27.280  22.610  1.00  0.00     0.165 HD
ATOM     11  O   UNL A   1      31.755  26.483  22.020  1.00  0.00    -0.249 OA
BRANCH   9  12
ATOM     12  N   UNL A   1      30.749  27.660  23.676  1.00  0.00    -0.325 N 
ATOM     13  C   UNL A   1      29.753  26.867  24.376  1.00  0.00     0.148 C 
BRANCH  12  14
ATOM     14  C   UNL A   1      30.560  29.127  23.776  1.00  0.00     0.155 C 
BRANCH  14  15
ATOM     15  C   UNL A   1      29.620  29.819  22.735  1.00  0.00     0.077 C 
ATOM     16  C   UNL A   1      28.330  29.041  22.444  1.00  0.00     0.043 C 
ATOM     17  C   UNL A   1      29.214  31.200  23.277  1.00  0.00     0.043 C 
BRANCH  15  18
ATOM     18  O   UNL A   1      30.333  30.061  21.513  1.00  0.00    -0.389 OA
ATOM     19  H   UNL A   1      29.735  29.939  20.759  1.00  0.00     0.211 HD
ENDBRANCH  15  18
ENDBRANCH  14  15
ENDBRANCH  12  14
ENDBRANCH   9  12
ENDBRANCH   7   8
ENDBRANCH   5   7
ENDBRANCH   1   5
BRANCH   3  20
ATOM     20  C   UNL A   1      34.424  29.729  27.402  1.00  0.00     0.117 C 
BRANCH  20  21
ATOM     21  C   UNL A   1      34.424  31.147  27.929  1.00  0.00     0.042 C 
BRANCH  21  22
ATOM     22  C   UNL A   1      35.681  31.498  28.707  1.00  0.00     0.118 C 
BRANCH  22  23
ATOM     23  N   UNL A   1      35.610  31.133  30.119  1.00  0.00    -0.352 N 
ATOM     24  C   UNL A   1      36.521  30.507  30.937  1.00  0.00     0.251 C 
ATOM     25  H   UNL A   1      34.765  31.376  30.560  1.00  0.00     0.163 HD
ATOM     26  O   UNL A   1      36.192  30.180  32.070  1.00  0.00    -0.269 OA
BRANCH  24  27
ATOM     27  C   UNL A   1      37.882  30.206  30.445  1.00  0.00     0.039 A 
ATOM     28  C   UNL A   1      38.833  29.714  31.341  1.00  0.00     0.014 A 
ATOM     29  C   UNL A   1      38.225  30.409  29.108  1.00  0.00     0.014 A 
ATOM     30  C   UNL A   1      40.103  29.365  30.877  1.00  0.00     0.010 A 
ATOM     31  C   UNL A   1      39.436  29.938  28.624  1.00  0.00     0.010 A 
ATOM     32  C   UNL A   1      40.402  29.437  29.506  1.00  0.00    -0.014 A 
BRANCH  32  33
ATOM     33  C   UNL A   1      41.732  29.037  28.981  1.00  0.00     0.031 A 
ATOM     34  C   UNL A   1      42.840  30.056  28.892  1.00  0.00     0.074 A 
ATOM     35  C   UNL A   1      41.925  27.779  28.538  1.00  0.00     0.049 A 
ATOM     36  N   UNL A   1      44.054  29.917  28.425  1.00  0.00    -0.248 NA
ATOM     37  C   UNL A   1      42.532  31.422  29.351  1.00  0.00     0.031 C 
ATOM     38  C   UNL A   1      40.908  26.724  28.510  1.00  0.00     0.029 A 
ATOM     39  N   UNL A   1      43.042  27.171  28.026  1.00  0.00    -0.354 N 
ATOM     40  C   UNL A   1      44.642  31.174  28.520  1.00  0.00     0.074 A 
ATOM     41  C   UNL A   1      43.631  32.079  29.015  1.00  0.00     0.031 C 
ATOM     42  C   UNL A   1      41.460  25.592  28.046  1.00  0.00     0.029 A 
ATOM     43  C   UNL A   1      42.856  25.846  27.709  1.00  0.00     0.049 A 
ATOM     44  H   UNL A   1      43.898  27.640  27.897  1.00  0.00     0.167 HD
ATOM     45  C   UNL A   1      45.920  31.535  28.255  1.00  0.00     0.037 A 
ATOM     46  C   UNL A   1      43.716  24.941  27.206  1.00  0.00     0.037 A 
ATOM     47  C   UNL A   1      46.929  30.618  27.797  1.00  0.00     0.049 A 
ATOM     48  C   UNL A   1      45.137  25.359  26.943  1.00  0.00     0.074 A 
ATOM     49  C   UNL A   1      48.268  30.863  27.550  1.00  0.00     0.029 A 
ATOM     50  N   UNL A   1      46.710  29.275  27.519  1.00  0.00    -0.354 N 
ATOM     51  N   UNL A   1      45.695  26.537  27.100  1.00  0.00    -0.248 NA
ATOM     52  C   UNL A   1      46.052  24.321  26.451  1.00  0.00     0.031 C 
ATOM     53  C   UNL A   1      48.848  29.679  27.079  1.00  0.00     0.029 A 
ATOM     54  C   UNL A   1      47.884  28.683  27.089  1.00  0.00     0.049 A 
ATOM     55  H   UNL A   1      45.845  28.813  27.613  1.00  0.00     0.167 HD
ATOM     56  C   UNL A   1      47.033  26.374  26.758  1.00  0.00     0.074 A 
ATOM     57  C   UNL A   1      47.201  24.979  26.401  1.00  0.00     0.031 C 
ATOM     58  C   UNL A   1      48.032  27.290  26.743  1.00  0.00     0.037 A 
BRANCH  45  59
ATOM     59  C   UNL A   1      46.296  32.978  28.468  1.00  0.00     0.058 A 
ATOM     60  C   UNL A   1      46.210  33.925  27.435  1.00  0.00     0.135 A 
ATOM     61  C   UNL A   1      46.727  33.425  29.727  1.00  0.00     0.135 A 
ATOM     62  F   UNL A   1      45.823  33.552  26.205  1.00  0.00    -0.206 F 
ATOM     63  C   UNL A   1      46.568  35.255  27.632  1.00  0.00     0.059 A 
ATOM     64  C   UNL A   1      47.059  34.757  29.956  1.00  0.00     0.059 A 
ATOM     65  F   UNL A   1      46.831  32.564  30.752  1.00  0.00    -0.206 F 
ATOM     66  C   UNL A   1      46.991  35.662  28.898  1.00  0.00     0.060 A 
BRANCH  66  67
ATOM     67  S   UNL A   1      47.443  37.392  29.139  1.00  0.00     0.124 S 
ATOM     68  O   UNL A   1      46.138  38.005  29.369  1.00  0.00    -0.237 OA
ATOM     69  O   UNL A   1      48.323  37.324  30.302  1.00  0.00    -0.237 OA
ATOM     70  O   UNL A   1      48.093  37.753  27.884  1.00  0.00    -0.744 OA
ENDBRANCH  66  67
ENDBRANCH  45  59
BRANCH  46  71
ATOM     71  C   UNL A   1      43.268  23.542  26.960  1.00  0.00     0.058 A 
ATOM     72  C   UNL A   1      43.028  23.077  25.659  1.00  0.00     0.135 A 
ATOM     73  C   UNL A   1      43.081  22.640  28.020  1.00  0.00     0.135 A 
ATOM     74  F   UNL A   1      43.189  23.900  24.612  1.00  0.00    -0.206 F 
ATOM     75  C   UNL A   1      42.595  21.777  25.416  1.00  0.00     0.059 A 
ATOM     76  C   UNL A   1      42.676  21.328  27.800  1.00  0.00     0.059 A 
ATOM     77  F   UNL A   1      43.317  23.028  29.283  1.00  0.00    -0.206 F 
ATOM     78  C   UNL A   1      42.424  20.909  26.496  1.00  0.00     0.060 A 
BRANCH  78  79
ATOM     79  S   UNL A   1      41.901  19.211  26.165  1.00  0.00     0.124 S 
ATOM     80  O   UNL A   1      40.470  19.382  25.943  1.00  0.00    -0.237 OA
ATOM     81  O   UNL A   1      42.695  18.870  24.990  1.00  0.00    -0.237 OA
ATOM     82  O   UNL A   1      42.270  18.504  27.389  1.00  0.00    -0.744 OA
ENDBRANCH  78  79
ENDBRANCH  46  71
BRANCH  58  83
ATOM     83  C   UNL A   1      49.407  26.802  26.375  1.00  0.00     0.058 A 
ATOM     84  C   UNL A   1      49.867  26.808  25.048  1.00  0.00     0.135 A 
ATOM     85  C   UNL A   1      50.281  26.337  27.370  1.00  0.00     0.135 A 
ATOM     86  F   UNL A   1      49.072  27.242  24.058  1.00  0.00    -0.206 F 
ATOM     87  C   UNL A   1      51.130  26.327  24.717  1.00  0.00     0.059 A 
ATOM     88  C   UNL A   1      51.560  25.883  27.065  1.00  0.00     0.059 A 
ATOM     89  F   UNL A   1      49.898  26.325  28.657  1.00  0.00    -0.206 F 
ATOM     90  C   UNL A   1      51.967  25.861  25.733  1.00  0.00     0.060 A 
BRANCH  90  91
ATOM     91  S   UNL A   1      53.599  25.232  25.289  1.00  0.00     0.124 S 
ATOM     92  O   UNL A   1      54.424  25.784  26.359  1.00  0.00    -0.237 OA
ATOM     93  O   UNL A   1      53.399  23.787  25.323  1.00  0.00    -0.237 OA
ATOM     94  O   UNL A   1      53.832  25.797  23.963  1.00  0.00    -0.744 OA
ENDBRANCH  90  91
ENDBRANCH  58  83
ENDBRANCH  32  33
ENDBRANCH  24  27
ENDBRANCH  22  23
ENDBRANCH  21  22
ENDBRANCH  20  21
ENDBRANCH   3  20
TORSDOF 19
ENDMDL
MODEL 3
REMARK VINA RESULT:     -10.0      1.917      2.700
REMARK SMILES C[C@@H](CNC(=O)N(C)CC(C)(C)O)C(=O)NCCCNC(=O)c1ccc(-c2c3nc(c(-c4c(F)cc(S(=O)(=O)[O-])cc4F)c4ccc([nH]4)c(-c4c(F)cc(S(=O)(=O)[O-])cc4F)c4nc(c(-c5c(F)cc(S(=O)(=O)[O-])cc5F)c5ccc2[nH]5)C=C4)C=C3)cc1
REMARK SMILES IDX 14 1 15 2 16 3 2 5 1 6 3 7 4 8 5 9 6 11 7 12 8 13 9 14 10 15
REMARK SMILES IDX 11 16 12 17 13 18 17 20 18 21 19 22 20 23 21 24 22 26 23 27
REMARK SMILES IDX 24 28 88 29 25 30 87 31 26 32 27 33 28 34 81 35 29 36 86 37
REMARK SMILES IDX 80 38 82 39 30 40 85 41 79 42 78 43 31 45 65 46 44 47 64 48
REMARK SMILES IDX 45 49 48 50 63 51 83 52 46 53 47 54 62 56 84 57 49 58 32 59
REMARK SMILES IDX 33 60 42 61 34 62 35 63 41 64 43 65 36 66 37 67 38 68 39 69
REMARK SMILES IDX 40 70 66 71 67 72 76 73 68 74 69 75 75 76 77 77 70 78 71 79
REMARK SMILES IDX 72 80 73 81 74 82 50 83 51 84 60 85 52 86 53 87 59 88 61 89
REMARK SMILES IDX 54 90 55 91 56 92 57 93 58 94
REMARK H PARENT 16 4 4 10 13 19 20 25 82 44 48 55
REMARK Flexibility Score: inf
ROOT
ATOM      1  C   UNL A   1      33.441  28.459  25.689  1.00  0.00     0.224 C 
ATOM      2  O   UNL A   1      33.166  28.559  24.489  1.00  0.00    -0.275 OA
ATOM      3  N   UNL A   1      34.584  29.058  26.125  1.00  0.00    -0.356 N 
ATOM      4  H   UNL A   1      35.238  29.280  25.423  1.00  0.00     0.163 HD
ENDROOT
BRANCH   1   5
ATOM      5  C   UNL A   1      32.528  27.655  26.611  1.00  0.00     0.094 C 
ATOM      6  C   UNL A   1      31.601  28.538  27.453  1.00  0.00     0.020 C 
BRANCH   5   7
ATOM      7  C   UNL A   1      31.852  26.415  25.993  1.00  0.00     0.130 C 
BRANCH   7   8
ATOM      8  N   UNL A   1      31.980  25.179  26.736  1.00  0.00    -0.337 N 
ATOM      9  C   UNL A   1      32.211  23.881  26.489  1.00  0.00     0.317 C 
ATOM     10  H   UNL A   1      31.864  25.336  27.702  1.00  0.00     0.165 HD
ATOM     11  O   UNL A   1      31.861  23.145  27.418  1.00  0.00    -0.249 OA
BRANCH   9  12
ATOM     12  N   UNL A   1      32.742  23.380  25.343  1.00  0.00    -0.325 N 
ATOM     13  C   UNL A   1      32.417  23.762  23.979  1.00  0.00     0.148 C 
BRANCH  12  14
ATOM     14  C   UNL A   1      33.833  22.384  25.467  1.00  0.00     0.155 C 
BRANCH  14  15
ATOM     15  C   UNL A   1      33.440  20.874  25.574  1.00  0.00     0.077 C 
ATOM     16  C   UNL A   1      32.164  20.505  24.806  1.00  0.00     0.043 C 
ATOM     17  C   UNL A   1      34.586  20.024  24.999  1.00  0.00     0.043 C 
BRANCH  15  18
ATOM     18  O   UNL A   1      33.311  20.496  26.952  1.00  0.00    -0.389 OA
ATOM     19  H   UNL A   1      33.493  19.548  27.046  1.00  0.00     0.211 HD
ENDBRANCH  15  18
ENDBRANCH  14  15
ENDBRANCH  12  14
ENDBRANCH   9  12
ENDBRANCH   7   8
ENDBRANCH   5   7
ENDBRANCH   1   5
BRANCH   3  20
ATOM     20  C   UNL A   1      34.974  29.415  27.474  1.00  0.00     0.117 C 
BRANCH  20  21
ATOM     21  C   UNL A   1      34.725  30.860  27.846  1.00  0.00     0.042 C 
BRANCH  21  22
ATOM     22  C   UNL A   1      35.841  31.467  28.679  1.00  0.00     0.118 C 
BRANCH  22  23
ATOM     23  N   UNL A   1      35.757  31.126  30.097  1.00  0.00    -0.352 N 
ATOM     24  C   UNL A   1      36.595  30.390  30.900  1.00  0.00     0.251 C 
ATOM     25  H   UNL A   1      34.964  31.486  30.555  1.00  0.00     0.163 HD
ATOM     26  O   UNL A   1      36.254  30.121  32.045  1.00  0.00    -0.269 OA
BRANCH  24  27
ATOM     27  C   UNL A   1      37.891  29.904  30.380  1.00  0.00     0.039 A 
ATOM     28  C   UNL A   1      38.161  30.025  29.015  1.00  0.00     0.014 A 
ATOM     29  C   UNL A   1      38.836  29.328  31.228  1.00  0.00     0.014 A 
ATOM     30  C   UNL A   1      39.406  29.630  28.520  1.00  0.00     0.010 A 
ATOM     31  C   UNL A   1      40.115  29.062  30.761  1.00  0.00     0.010 A 
ATOM     32  C   UNL A   1      40.408  29.181  29.397  1.00  0.00    -0.014 A 
BRANCH  32  33
ATOM     33  C   UNL A   1      41.752  28.790  28.902  1.00  0.00     0.031 A 
ATOM     34  C   UNL A   1      42.850  29.820  28.821  1.00  0.00     0.074 A 
ATOM     35  C   UNL A   1      41.966  27.528  28.479  1.00  0.00     0.049 A 
ATOM     36  N   UNL A   1      44.074  29.689  28.379  1.00  0.00    -0.248 NA
ATOM     37  C   UNL A   1      42.519  31.187  29.258  1.00  0.00     0.031 C 
ATOM     38  C   UNL A   1      40.962  26.462  28.444  1.00  0.00     0.029 A 
ATOM     39  N   UNL A   1      43.100  26.927  27.995  1.00  0.00    -0.354 N 
ATOM     40  C   UNL A   1      44.646  30.953  28.469  1.00  0.00     0.074 A 
ATOM     41  C   UNL A   1      43.617  31.853  28.934  1.00  0.00     0.031 C 
ATOM     42  C   UNL A   1      41.535  25.330  28.005  1.00  0.00     0.029 A 
ATOM     43  C   UNL A   1      42.934  25.597  27.691  1.00  0.00     0.049 A 
ATOM     44  H   UNL A   1      43.953  27.404  27.877  1.00  0.00     0.167 HD
ATOM     45  C   UNL A   1      45.925  31.325  28.224  1.00  0.00     0.037 A 
ATOM     46  C   UNL A   1      43.814  24.695  27.215  1.00  0.00     0.037 A 
ATOM     47  C   UNL A   1      46.952  30.414  27.796  1.00  0.00     0.049 A 
ATOM     48  C   UNL A   1      45.235  25.126  26.974  1.00  0.00     0.074 A 
ATOM     49  C   UNL A   1      48.293  30.671  27.571  1.00  0.00     0.029 A 
ATOM     50  N   UNL A   1      46.754  29.066  27.530  1.00  0.00    -0.354 N 
ATOM     51  N   UNL A   1      45.776  26.311  27.127  1.00  0.00    -0.248 NA
ATOM     52  C   UNL A   1      46.170  24.092  26.511  1.00  0.00     0.031 C 
ATOM     53  C   UNL A   1      48.895  29.488  27.126  1.00  0.00     0.029 A 
ATOM     54  C   UNL A   1      47.942  28.481  27.130  1.00  0.00     0.049 A 
ATOM     55  H   UNL A   1      45.892  28.595  27.614  1.00  0.00     0.167 HD
ATOM     56  C   UNL A   1      47.122  26.159  26.812  1.00  0.00     0.074 A 
ATOM     57  C   UNL A   1      47.312  24.762  26.475  1.00  0.00     0.031 C 
ATOM     58  C   UNL A   1      48.112  27.086  26.805  1.00  0.00     0.037 A 
BRANCH  45  59
ATOM     59  C   UNL A   1      46.281  32.775  28.426  1.00  0.00     0.058 A 
ATOM     60  C   UNL A   1      46.750  33.256  29.659  1.00  0.00     0.135 A 
ATOM     61  C   UNL A   1      46.173  33.691  27.368  1.00  0.00     0.135 A 
ATOM     62  F   UNL A   1      46.856  32.431  30.713  1.00  0.00    -0.206 F 
ATOM     63  C   UNL A   1      47.068  34.598  29.846  1.00  0.00     0.059 A 
ATOM     64  C   UNL A   1      46.516  35.031  27.522  1.00  0.00     0.059 A 
ATOM     65  F   UNL A   1      45.727  33.289  26.167  1.00  0.00    -0.206 F 
ATOM     66  C   UNL A   1      46.949  35.478  28.770  1.00  0.00     0.060 A 
BRANCH  66  67
ATOM     67  S   UNL A   1      47.375  37.213  29.026  1.00  0.00     0.124 S 
ATOM     68  O   UNL A   1      48.827  37.140  29.158  1.00  0.00    -0.237 OA
ATOM     69  O   UNL A   1      46.880  37.838  27.803  1.00  0.00    -0.237 OA
ATOM     70  O   UNL A   1      46.651  37.565  30.243  1.00  0.00    -0.744 OA
ENDBRANCH  66  67
ENDBRANCH  45  59
BRANCH  46  71
ATOM     71  C   UNL A   1      43.386  23.289  26.979  1.00  0.00     0.058 A 
ATOM     72  C   UNL A   1      43.218  22.792  25.677  1.00  0.00     0.135 A 
ATOM     73  C   UNL A   1      43.146  22.410  28.047  1.00  0.00     0.135 A 
ATOM     74  F   UNL A   1      43.431  23.592  24.622  1.00  0.00    -0.206 F 
ATOM     75  C   UNL A   1      42.804  21.484  25.442  1.00  0.00     0.059 A 
ATOM     76  C   UNL A   1      42.759  21.090  27.837  1.00  0.00     0.059 A 
ATOM     77  F   UNL A   1      43.312  22.828  29.312  1.00  0.00    -0.206 F 
ATOM     78  C   UNL A   1      42.579  20.640  26.530  1.00  0.00     0.060 A 
BRANCH  78  79
ATOM     79  S   UNL A   1      42.082  18.933  26.212  1.00  0.00     0.124 S 
ATOM     80  O   UNL A   1      42.298  18.315  27.515  1.00  0.00    -0.237 OA
ATOM     81  O   UNL A   1      40.691  19.091  25.802  1.00  0.00    -0.237 OA
ATOM     82  O   UNL A   1      42.996  18.511  25.154  1.00  0.00    -0.744 OA
ENDBRANCH  78  79
ENDBRANCH  46  71
BRANCH  58  83
ATOM     83  C   UNL A   1      49.498  26.609  26.468  1.00  0.00     0.058 A 
ATOM     84  C   UNL A   1      49.962  26.545  25.144  1.00  0.00     0.135 A 
ATOM     85  C   UNL A   1      50.381  26.227  27.491  1.00  0.00     0.135 A 
ATOM     86  F   UNL A   1      49.158  26.897  24.128  1.00  0.00    -0.206 F 
ATOM     87  C   UNL A   1      51.236  26.074  24.844  1.00  0.00     0.059 A 
ATOM     88  C   UNL A   1      51.671  25.786  27.216  1.00  0.00     0.059 A 
ATOM     89  F   UNL A   1      49.995  26.285  28.776  1.00  0.00    -0.206 F 
ATOM     90  C   UNL A   1      52.081  25.691  25.887  1.00  0.00     0.060 A 
BRANCH  90  91
ATOM     91  S   UNL A   1      53.729  25.075  25.484  1.00  0.00     0.124 S 
ATOM     92  O   UNL A   1      54.048  25.853  24.291  1.00  0.00    -0.237 OA
ATOM     93  O   UNL A   1      54.491  25.411  26.683  1.00  0.00    -0.237 OA
ATOM     94  O   UNL A   1      53.514  23.648  25.264  1.00  0.00    -0.744 OA
ENDBRANCH  90  91
ENDBRANCH  58  83
ENDBRANCH  32  33
ENDBRANCH  24  27
ENDBRANCH  22  23
ENDBRANCH  21  22
ENDBRANCH  20  21
ENDBRANCH   3  20
TORSDOF 19
ENDMDL
