MODEL 1
REMARK VINA RESULT:     -13.0      0.000      0.000
REMARK SMILES O=C(NCCCNC(=O)[C@H]1Cc2ccc(Cl)cc2C[N@@H+]1Cc1ccc(Cl)cc1)c1ccc(-c2c3nc(c(-c4c(F)cc(S(=O)(=O)[O-])cc4F)c4ccc([nH]4)c(-c4c(F)cc(S(=O)(=O)[O-])cc4F)c4nc(c(-c5c(F)cc(S(=O)(=O)[O-])cc5F)c5ccc2[nH]5)C=C4)C=C3)cc1
REMARK SMILES IDX 4 1 3 2 1 3 2 4 29 6 30 7 94 8 31 9 93 10 32 11 33 12 34 13
REMARK SMILES IDX 87 14 35 15 92 16 86 17 88 18 36 19 91 20 85 21 84 22 37 24
REMARK SMILES IDX 71 25 50 26 70 27 51 28 54 29 69 30 89 31 52 32 53 33 68 35
REMARK SMILES IDX 90 36 55 37 38 38 39 39 48 40 40 41 41 42 47 43 49 44 42 45
REMARK SMILES IDX 43 46 44 47 45 48 46 49 72 50 73 51 82 52 74 53 75 54 81 55
REMARK SMILES IDX 83 56 76 57 77 58 78 59 79 60 80 61 56 62 57 63 66 64 58 65
REMARK SMILES IDX 59 66 65 67 67 68 60 69 61 70 62 71 63 72 64 73 5 74 6 75
REMARK SMILES IDX 7 76 8 77 9 79 10 80 11 81 20 82 12 83 19 84 13 86 18 87
REMARK SMILES IDX 14 88 17 89 15 90 16 91 21 92 22 93 23 94 28 95 24 96 27 97
REMARK SMILES IDX 25 98 26 99
REMARK H PARENT 3 5 88 23 54 34 7 78 20 85
REMARK Flexibility Score: inf
ROOT
ATOM      1  C   UNL A   1      33.159  28.992  27.417  1.00  0.00     0.118 C 
ENDROOT
BRANCH   1   2
ATOM      2  N   UNL A   1      33.458  30.373  27.759  1.00  0.00    -0.352 N 
ATOM      3  O   UNL A   1      34.357  31.973  29.038  1.00  0.00    -0.269 OA
ATOM      4  C   UNL A   1      34.507  30.893  28.473  1.00  0.00     0.251 C 
ATOM      5  H   UNL A   1      32.810  31.036  27.427  1.00  0.00     0.163 HD
BRANCH   4   6
ATOM      6  C   UNL A   1      35.818  30.207  28.522  1.00  0.00     0.039 A 
ATOM      7  C   UNL A   1      36.268  29.701  29.747  1.00  0.00     0.014 A 
ATOM      8  C   UNL A   1      36.672  30.210  27.414  1.00  0.00     0.014 A 
ATOM      9  C   UNL A   1      37.575  29.224  29.870  1.00  0.00     0.010 A 
ATOM     10  C   UNL A   1      37.954  29.677  27.521  1.00  0.00     0.010 A 
ATOM     11  C   UNL A   1      38.431  29.227  28.761  1.00  0.00    -0.014 A 
BRANCH  11  12
ATOM     12  C   UNL A   1      39.873  28.905  28.891  1.00  0.00     0.031 A 
ATOM     13  C   UNL A   1      40.809  29.961  29.418  1.00  0.00     0.074 A 
ATOM     14  C   UNL A   1      40.345  27.704  28.515  1.00  0.00     0.049 A 
ATOM     15  N   UNL A   1      42.116  29.967  29.462  1.00  0.00    -0.248 NA
ATOM     16  C   UNL A   1      40.184  31.188  29.940  1.00  0.00     0.031 C 
ATOM     17  C   UNL A   1      39.534  26.593  28.019  1.00  0.00     0.029 A 
ATOM     18  N   UNL A   1      41.628  27.222  28.493  1.00  0.00    -0.354 N 
ATOM     19  C   UNL A   1      42.469  31.204  29.992  1.00  0.00     0.074 A 
ATOM     20  C   UNL A   1      41.241  31.938  30.206  1.00  0.00     0.031 C 
ATOM     21  C   UNL A   1      40.337  25.547  27.765  1.00  0.00     0.029 A 
ATOM     22  C   UNL A   1      41.721  25.930  28.037  1.00  0.00     0.049 A 
ATOM     23  H   UNL A   1      42.408  27.751  28.777  1.00  0.00     0.167 HD
ATOM     24  C   UNL A   1      43.702  31.678  30.292  1.00  0.00     0.037 A 
ATOM     25  C   UNL A   1      42.803  25.150  27.851  1.00  0.00     0.037 A 
ATOM     26  C   UNL A   1      44.916  30.930  30.098  1.00  0.00     0.049 A 
ATOM     27  C   UNL A   1      44.166  25.706  28.151  1.00  0.00     0.074 A 
ATOM     28  C   UNL A   1      46.220  31.312  30.359  1.00  0.00     0.029 A 
ATOM     29  N   UNL A   1      44.970  29.632  29.607  1.00  0.00    -0.354 N 
ATOM     30  N   UNL A   1      44.492  26.895  28.602  1.00  0.00    -0.248 NA
ATOM     31  C   UNL A   1      45.311  24.818  27.909  1.00  0.00     0.031 C 
ATOM     32  C   UNL A   1      47.064  30.251  30.006  1.00  0.00     0.029 A 
ATOM     33  C   UNL A   1      46.283  29.198  29.557  1.00  0.00     0.049 A 
ATOM     34  H   UNL A   1      44.188  29.100  29.335  1.00  0.00     0.167 HD
ATOM     35  C   UNL A   1      45.878  26.895  28.709  1.00  0.00     0.074 A 
ATOM     36  C   UNL A   1      46.327  25.582  28.289  1.00  0.00     0.031 C 
ATOM     37  C   UNL A   1      46.705  27.890  29.118  1.00  0.00     0.037 A 
BRANCH  24  38
ATOM     38  C   UNL A   1      43.778  33.071  30.852  1.00  0.00     0.058 A 
ATOM     39  C   UNL A   1      43.929  34.191  30.017  1.00  0.00     0.135 A 
ATOM     40  C   UNL A   1      43.741  33.291  32.238  1.00  0.00     0.135 A 
ATOM     41  F   UNL A   1      43.990  34.036  28.684  1.00  0.00    -0.206 F 
ATOM     42  C   UNL A   1      44.092  35.471  30.536  1.00  0.00     0.059 A 
ATOM     43  C   UNL A   1      43.875  34.568  32.779  1.00  0.00     0.059 A 
ATOM     44  F   UNL A   1      43.600  32.259  33.083  1.00  0.00    -0.206 F 
ATOM     45  C   UNL A   1      44.076  35.647  31.920  1.00  0.00     0.060 A 
BRANCH  45  46
ATOM     46  S   UNL A   1      44.339  37.306  32.581  1.00  0.00     0.124 S 
ATOM     47  O   UNL A   1      43.926  38.136  31.455  1.00  0.00    -0.237 OA
ATOM     48  O   UNL A   1      43.454  37.328  33.742  1.00  0.00    -0.237 OA
ATOM     49  O   UNL A   1      45.768  37.326  32.886  1.00  0.00    -0.744 OA
ENDBRANCH  45  46
ENDBRANCH  24  38
BRANCH  25  50
ATOM     50  C   UNL A   1      42.623  23.750  27.394  1.00  0.00     0.058 A 
ATOM     51  C   UNL A   1      42.731  23.431  26.032  1.00  0.00     0.135 A 
ATOM     52  C   UNL A   1      42.412  22.699  28.300  1.00  0.00     0.135 A 
ATOM     53  F   UNL A   1      42.923  24.405  25.130  1.00  0.00    -0.206 F 
ATOM     54  C   UNL A   1      42.652  22.118  25.584  1.00  0.00     0.059 A 
ATOM     55  C   UNL A   1      42.347  21.375  27.877  1.00  0.00     0.059 A 
ATOM     56  F   UNL A   1      42.314  22.954  29.613  1.00  0.00    -0.206 F 
ATOM     57  C   UNL A   1      42.472  21.095  26.516  1.00  0.00     0.060 A 
BRANCH  57  58
ATOM     58  S   UNL A   1      42.476  19.386  25.930  1.00  0.00     0.124 S 
ATOM     59  O   UNL A   1      42.998  18.676  27.093  1.00  0.00    -0.237 OA
ATOM     60  O   UNL A   1      41.065  19.165  25.627  1.00  0.00    -0.237 OA
ATOM     61  O   UNL A   1      43.359  19.431  24.769  1.00  0.00    -0.744 OA
ENDBRANCH  57  58
ENDBRANCH  25  50
BRANCH  37  62
ATOM     62  C   UNL A   1      48.175  27.587  29.137  1.00  0.00     0.058 A 
ATOM     63  C   UNL A   1      49.014  27.970  28.079  1.00  0.00     0.135 A 
ATOM     64  C   UNL A   1      48.757  26.936  30.236  1.00  0.00     0.135 A 
ATOM     65  F   UNL A   1      48.504  28.591  27.003  1.00  0.00    -0.206 F 
ATOM     66  C   UNL A   1      50.377  27.695  28.099  1.00  0.00     0.059 A 
ATOM     67  C   UNL A   1      50.121  26.669  30.287  1.00  0.00     0.059 A 
ATOM     68  F   UNL A   1      47.998  26.559  31.278  1.00  0.00    -0.206 F 
ATOM     69  C   UNL A   1      50.921  27.041  29.206  1.00  0.00     0.060 A 
BRANCH  69  70
ATOM     70  S   UNL A   1      52.694  26.700  29.225  1.00  0.00     0.124 S 
ATOM     71  O   UNL A   1      53.252  28.046  29.195  1.00  0.00    -0.237 OA
ATOM     72  O   UNL A   1      52.860  25.971  30.479  1.00  0.00    -0.237 OA
ATOM     73  O   UNL A   1      52.898  25.907  28.016  1.00  0.00    -0.744 OA
ENDBRANCH  69  70
ENDBRANCH  37  62
ENDBRANCH  11  12
ENDBRANCH   4   6
ENDBRANCH   1   2
BRANCH   1  74
ATOM     74  C   UNL A   1      33.555  28.692  25.967  1.00  0.00     0.042 C 
BRANCH  74  75
ATOM     75  C   UNL A   1      33.709  27.190  25.692  1.00  0.00     0.118 C 
BRANCH  75  76
ATOM     76  N   UNL A   1      32.721  26.433  26.434  1.00  0.00    -0.351 N 
ATOM     77  C   UNL A   1      32.060  25.269  26.220  1.00  0.00     0.278 C 
ATOM     78  H   UNL A   1      32.473  26.860  27.286  1.00  0.00     0.163 HD
ATOM     79  O   UNL A   1      31.061  25.141  26.943  1.00  0.00    -0.268 OA
BRANCH  77  80
ATOM     80  C   UNL A   1      32.466  24.115  25.251  1.00  0.00     0.279 C 
ATOM     81  C   UNL A   1      32.343  22.719  25.895  1.00  0.00     0.111 C 
ATOM     82  N   UNL A   1      31.773  24.227  23.931  1.00  0.00    -0.317 N 
ATOM     83  C   UNL A   1      32.436  21.555  24.948  1.00  0.00    -0.033 A 
ATOM     84  C   UNL A   1      32.186  23.150  23.010  1.00  0.00     0.300 C 
ATOM     85  H   UNL A   1      30.783  24.130  24.157  1.00  0.00     0.349 HD
ATOM     86  C   UNL A   1      32.601  20.255  25.446  1.00  0.00     0.006 A 
ATOM     87  C   UNL A   1      32.233  21.757  23.581  1.00  0.00     0.011 A 
ATOM     88  C   UNL A   1      32.584  19.160  24.582  1.00  0.00     0.021 A 
ATOM     89  C   UNL A   1      32.222  20.650  22.715  1.00  0.00     0.030 A 
ATOM     90  C   UNL A   1      32.390  19.361  23.219  1.00  0.00     0.041 A 
ATOM     91  Cl  UNL A   1      32.370  18.016  22.146  1.00  0.00    -0.084 Cl
BRANCH  82  92
ATOM     92  C   UNL A   1      31.921  25.551  23.256  1.00  0.00     0.299 C 
BRANCH  92  93
ATOM     93  C   UNL A   1      30.695  26.459  23.155  1.00  0.00     0.006 A 
ATOM     94  C   UNL A   1      30.728  27.679  22.457  1.00  0.00     0.011 A 
ATOM     95  C   UNL A   1      29.483  26.092  23.757  1.00  0.00     0.011 A 
ATOM     96  C   UNL A   1      29.635  28.554  22.479  1.00  0.00     0.021 A 
ATOM     97  C   UNL A   1      28.384  26.956  23.774  1.00  0.00     0.021 A 
ATOM     98  C   UNL A   1      28.474  28.197  23.155  1.00  0.00     0.041 A 
ATOM     99  Cl  UNL A   1      27.144  29.286  23.216  1.00  0.00    -0.084 Cl
ENDBRANCH  92  93
ENDBRANCH  82  92
ENDBRANCH  77  80
ENDBRANCH  75  76
ENDBRANCH  74  75
ENDBRANCH   1  74
TORSDOF 15
ENDMDL
MODEL 2
REMARK VINA RESULT:     -12.8      0.381      1.715
REMARK SMILES O=C(NCCCNC(=O)[C@H]1Cc2ccc(Cl)cc2C[N@@H+]1Cc1ccc(Cl)cc1)c1ccc(-c2c3nc(c(-c4c(F)cc(S(=O)(=O)[O-])cc4F)c4ccc([nH]4)c(-c4c(F)cc(S(=O)(=O)[O-])cc4F)c4nc(c(-c5c(F)cc(S(=O)(=O)[O-])cc5F)c5ccc2[nH]5)C=C4)C=C3)cc1
REMARK SMILES IDX 4 1 3 2 1 3 2 4 29 6 30 7 94 8 31 9 93 10 32 11 33 12 34 13
REMARK SMILES IDX 87 14 35 15 92 16 86 17 88 18 36 19 91 20 85 21 84 22 37 24
REMARK SMILES IDX 71 25 50 26 70 27 51 28 54 29 69 30 89 31 52 32 53 33 68 35
REMARK SMILES IDX 90 36 55 37 38 38 39 39 48 40 40 41 41 42 47 43 49 44 42 45
REMARK SMILES IDX 43 46 44 47 45 48 46 49 72 50 73 51 82 52 74 53 75 54 81 55
REMARK SMILES IDX 83 56 76 57 77 58 78 59 79 60 80 61 56 62 57 63 66 64 58 65
REMARK SMILES IDX 59 66 65 67 67 68 60 69 61 70 62 71 63 72 64 73 5 74 6 75
REMARK SMILES IDX 7 76 8 77 9 79 10 80 11 81 20 82 12 83 19 84 13 86 18 87
REMARK SMILES IDX 14 88 17 89 15 90 16 91 21 92 22 93 23 94 28 95 24 96 27 97
REMARK SMILES IDX 25 98 26 99
REMARK H PARENT 3 5 88 23 54 34 7 78 20 85
REMARK Flexibility Score: inf
ROOT
ATOM      1  C   UNL A   1      33.497  28.895  27.488  1.00  0.00     0.118 C 
ENDROOT
BRANCH   1   2
ATOM      2  N   UNL A   1      33.778  30.269  27.873  1.00  0.00    -0.352 N 
ATOM      3  O   UNL A   1      34.644  31.840  29.209  1.00  0.00    -0.269 OA
ATOM      4  C   UNL A   1      34.812  30.778  28.615  1.00  0.00     0.251 C 
ATOM      5  H   UNL A   1      33.128  30.935  27.551  1.00  0.00     0.163 HD
BRANCH   4   6
ATOM      6  C   UNL A   1      36.129  30.104  28.662  1.00  0.00     0.039 A 
ATOM      7  C   UNL A   1      36.563  29.558  29.876  1.00  0.00     0.014 A 
ATOM      8  C   UNL A   1      37.002  30.155  27.571  1.00  0.00     0.014 A 
ATOM      9  C   UNL A   1      37.874  29.090  30.005  1.00  0.00     0.010 A 
ATOM     10  C   UNL A   1      38.288  29.632  27.681  1.00  0.00     0.010 A 
ATOM     11  C   UNL A   1      38.748  29.141  28.912  1.00  0.00    -0.014 A 
BRANCH  11  12
ATOM     12  C   UNL A   1      40.191  28.829  29.055  1.00  0.00     0.031 A 
ATOM     13  C   UNL A   1      41.110  29.881  29.618  1.00  0.00     0.074 A 
ATOM     14  C   UNL A   1      40.678  27.640  28.661  1.00  0.00     0.049 A 
ATOM     15  N   UNL A   1      42.416  29.897  29.681  1.00  0.00    -0.248 NA
ATOM     16  C   UNL A   1      40.467  31.091  30.157  1.00  0.00     0.031 C 
ATOM     17  C   UNL A   1      39.885  26.533  28.130  1.00  0.00     0.029 A 
ATOM     18  N   UNL A   1      41.966  27.170  28.647  1.00  0.00    -0.354 N 
ATOM     19  C   UNL A   1      42.751  31.126  30.241  1.00  0.00     0.074 A 
ATOM     20  C   UNL A   1      41.514  31.845  30.454  1.00  0.00     0.031 C 
ATOM     21  C   UNL A   1      40.700  25.500  27.865  1.00  0.00     0.029 A 
ATOM     22  C   UNL A   1      42.076  25.888  28.164  1.00  0.00     0.049 A 
ATOM     23  H   UNL A   1      42.737  27.699  28.952  1.00  0.00     0.167 HD
ATOM     24  C   UNL A   1      43.976  31.604  30.569  1.00  0.00     0.037 A 
ATOM     25  C   UNL A   1      43.167  25.122  27.978  1.00  0.00     0.037 A 
ATOM     26  C   UNL A   1      45.198  30.871  30.376  1.00  0.00     0.049 A 
ATOM     27  C   UNL A   1      44.522  25.683  28.309  1.00  0.00     0.074 A 
ATOM     28  C   UNL A   1      46.495  31.257  30.664  1.00  0.00     0.029 A 
ATOM     29  N   UNL A   1      45.271  29.584  29.859  1.00  0.00    -0.354 N 
ATOM     30  N   UNL A   1      44.831  26.865  28.790  1.00  0.00    -0.248 NA
ATOM     31  C   UNL A   1      45.677  24.810  28.064  1.00  0.00     0.031 C 
ATOM     32  C   UNL A   1      47.354  30.212  30.301  1.00  0.00     0.029 A 
ATOM     33  C   UNL A   1      46.588  29.161  29.818  1.00  0.00     0.049 A 
ATOM     34  H   UNL A   1      44.497  29.051  29.564  1.00  0.00     0.167 HD
ATOM     35  C   UNL A   1      46.215  26.874  28.916  1.00  0.00     0.074 A 
ATOM     36  C   UNL A   1      46.681  25.574  28.474  1.00  0.00     0.031 C 
ATOM     37  C   UNL A   1      47.027  27.867  29.358  1.00  0.00     0.037 A 
BRANCH  24  38
ATOM     38  C   UNL A   1      44.031  32.985  31.160  1.00  0.00     0.058 A 
ATOM     39  C   UNL A   1      44.200  33.186  32.540  1.00  0.00     0.135 A 
ATOM     40  C   UNL A   1      43.875  34.120  30.349  1.00  0.00     0.135 A 
ATOM     41  F   UNL A   1      44.334  32.134  33.365  1.00  0.00    -0.206 F 
ATOM     42  C   UNL A   1      44.159  34.458  33.102  1.00  0.00     0.059 A 
ATOM     43  C   UNL A   1      43.858  35.406  30.887  1.00  0.00     0.059 A 
ATOM     44  F   UNL A   1      43.710  33.988  29.024  1.00  0.00    -0.206 F 
ATOM     45  C   UNL A   1      43.975  35.561  32.267  1.00  0.00     0.060 A 
BRANCH  45  46
ATOM     46  S   UNL A   1      43.875  37.201  33.015  1.00  0.00     0.124 S 
ATOM     47  O   UNL A   1      43.832  38.056  31.834  1.00  0.00    -0.237 OA
ATOM     48  O   UNL A   1      42.638  37.123  33.786  1.00  0.00    -0.237 OA
ATOM     49  O   UNL A   1      45.099  37.287  33.808  1.00  0.00    -0.744 OA
ENDBRANCH  45  46
ENDBRANCH  24  38
BRANCH  25  50
ATOM     50  C   UNL A   1      43.006  23.730  27.488  1.00  0.00     0.058 A 
ATOM     51  C   UNL A   1      42.767  22.686  28.393  1.00  0.00     0.135 A 
ATOM     52  C   UNL A   1      43.016  23.424  26.119  1.00  0.00     0.135 A 
ATOM     53  F   UNL A   1      42.757  22.931  29.712  1.00  0.00    -0.206 F 
ATOM     54  C   UNL A   1      42.527  21.387  27.959  1.00  0.00     0.059 A 
ATOM     55  C   UNL A   1      42.761  22.136  25.659  1.00  0.00     0.059 A 
ATOM     56  F   UNL A   1      43.229  24.392  25.216  1.00  0.00    -0.206 F 
ATOM     57  C   UNL A   1      42.514  21.125  26.588  1.00  0.00     0.060 A 
BRANCH  57  58
ATOM     58  S   UNL A   1      42.098  19.456  26.035  1.00  0.00     0.124 S 
ATOM     59  O   UNL A   1      40.659  19.564  25.826  1.00  0.00    -0.237 OA
ATOM     60  O   UNL A   1      42.911  19.324  24.829  1.00  0.00    -0.237 OA
ATOM     61  O   UNL A   1      42.513  18.618  27.155  1.00  0.00    -0.744 OA
ENDBRANCH  57  58
ENDBRANCH  25  50
BRANCH  37  62
ATOM     62  C   UNL A   1      48.500  27.576  29.391  1.00  0.00     0.058 A 
ATOM     63  C   UNL A   1      49.101  26.970  30.505  1.00  0.00     0.135 A 
ATOM     64  C   UNL A   1      49.312  27.879  28.287  1.00  0.00     0.135 A 
ATOM     65  F   UNL A   1      48.367  26.666  31.587  1.00  0.00    -0.206 F 
ATOM     66  C   UNL A   1      50.464  26.695  30.533  1.00  0.00     0.059 A 
ATOM     67  C   UNL A   1      50.674  27.594  28.285  1.00  0.00     0.059 A 
ATOM     68  F   UNL A   1      48.783  28.450  27.194  1.00  0.00    -0.206 F 
ATOM     69  C   UNL A   1      51.243  27.015  29.418  1.00  0.00     0.060 A 
BRANCH  69  70
ATOM     70  S   UNL A   1      53.009  26.643  29.463  1.00  0.00     0.124 S 
ATOM     71  O   UNL A   1      53.191  25.928  28.205  1.00  0.00    -0.237 OA
ATOM     72  O   UNL A   1      53.608  27.973  29.529  1.00  0.00    -0.237 OA
ATOM     73  O   UNL A   1      53.155  25.836  30.672  1.00  0.00    -0.744 OA
ENDBRANCH  69  70
ENDBRANCH  37  62
ENDBRANCH  11  12
ENDBRANCH   4   6
ENDBRANCH   1   2
BRANCH   1  74
ATOM     74  C   UNL A   1      33.856  28.658  26.017  1.00  0.00     0.042 C 
BRANCH  74  75
ATOM     75  C   UNL A   1      33.865  27.170  25.640  1.00  0.00     0.118 C 
BRANCH  75  76
ATOM     76  N   UNL A   1      32.837  26.454  26.368  1.00  0.00    -0.351 N 
ATOM     77  C   UNL A   1      32.141  25.312  26.151  1.00  0.00     0.278 C 
ATOM     78  H   UNL A   1      32.586  26.898  27.211  1.00  0.00     0.163 HD
ATOM     79  O   UNL A   1      31.123  25.226  26.854  1.00  0.00    -0.268 OA
BRANCH  77  80
ATOM     80  C   UNL A   1      32.526  24.136  25.201  1.00  0.00     0.279 C 
ATOM     81  C   UNL A   1      32.432  22.757  25.884  1.00  0.00     0.111 C 
ATOM     82  N   UNL A   1      31.793  24.208  23.899  1.00  0.00    -0.317 N 
ATOM     83  C   UNL A   1      32.505  21.568  24.965  1.00  0.00    -0.033 A 
ATOM     84  C   UNL A   1      32.186  23.111  22.995  1.00  0.00     0.300 C 
ATOM     85  H   UNL A   1      30.811  24.111  24.157  1.00  0.00     0.349 HD
ATOM     86  C   UNL A   1      32.694  20.283  25.492  1.00  0.00     0.006 A 
ATOM     87  C   UNL A   1      32.260  21.734  23.600  1.00  0.00     0.011 A 
ATOM     88  C   UNL A   1      32.659  19.166  24.657  1.00  0.00     0.021 A 
ATOM     89  C   UNL A   1      32.232  20.604  22.764  1.00  0.00     0.030 A 
ATOM     90  C   UNL A   1      32.424  19.330  23.296  1.00  0.00     0.041 A 
ATOM     91  Cl  UNL A   1      32.382  17.957  22.260  1.00  0.00    -0.084 Cl
BRANCH  82  92
ATOM     92  C   UNL A   1      31.911  25.516  23.185  1.00  0.00     0.299 C 
BRANCH  92  93
ATOM     93  C   UNL A   1      30.734  26.488  23.246  1.00  0.00     0.006 A 
ATOM     94  C   UNL A   1      29.494  26.123  23.799  1.00  0.00     0.011 A 
ATOM     95  C   UNL A   1      30.861  27.795  22.753  1.00  0.00     0.011 A 
ATOM     96  C   UNL A   1      28.392  26.984  23.736  1.00  0.00     0.021 A 
ATOM     97  C   UNL A   1      29.767  28.665  22.696  1.00  0.00     0.021 A 
ATOM     98  C   UNL A   1      28.529  28.245  23.165  1.00  0.00     0.041 A 
ATOM     99  Cl  UNL A   1      27.167  29.289  23.051  1.00  0.00    -0.084 Cl
ENDBRANCH  92  93
ENDBRANCH  82  92
ENDBRANCH  77  80
ENDBRANCH  75  76
ENDBRANCH  74  75
ENDBRANCH   1  74
TORSDOF 15
ENDMDL
MODEL 3
REMARK VINA RESULT:     -12.7      3.431      9.818
REMARK SMILES O=C(NCCCNC(=O)[C@H]1Cc2ccc(Cl)cc2C[N@@H+]1Cc1ccc(Cl)cc1)c1ccc(-c2c3nc(c(-c4c(F)cc(S(=O)(=O)[O-])cc4F)c4ccc([nH]4)c(-c4c(F)cc(S(=O)(=O)[O-])cc4F)c4nc(c(-c5c(F)cc(S(=O)(=O)[O-])cc5F)c5ccc2[nH]5)C=C4)C=C3)cc1
REMARK SMILES IDX 4 1 3 2 1 3 2 4 29 6 30 7 94 8 31 9 93 10 32 11 33 12 34 13
REMARK SMILES IDX 87 14 35 15 92 16 86 17 88 18 36 19 91 20 85 21 84 22 37 24
REMARK SMILES IDX 71 25 50 26 70 27 51 28 54 29 69 30 89 31 52 32 53 33 68 35
REMARK SMILES IDX 90 36 55 37 38 38 39 39 48 40 40 41 41 42 47 43 49 44 42 45
REMARK SMILES IDX 43 46 44 47 45 48 46 49 72 50 73 51 82 52 74 53 75 54 81 55
REMARK SMILES IDX 83 56 76 57 77 58 78 59 79 60 80 61 56 62 57 63 66 64 58 65
REMARK SMILES IDX 59 66 65 67 67 68 60 69 61 70 62 71 63 72 64 73 5 74 6 75
REMARK SMILES IDX 7 76 8 77 9 79 10 80 11 81 20 82 12 83 19 84 13 86 18 87
REMARK SMILES IDX 14 88 17 89 15 90 16 91 21 92 22 93 23 94 28 95 24 96 27 97
REMARK SMILES IDX 25 98 26 99
REMARK H PARENT 3 5 88 23 54 34 7 78 20 85
REMARK Flexibility Score: inf
ROOT
ATOM      1  C   UNL A   1      37.413  23.029  24.902  1.00  0.00     0.118 C 
ENDROOT
BRANCH   1   2
ATOM      2  N   UNL A   1      38.573  22.319  25.417  1.00  0.00    -0.352 N 
ATOM      3  O   UNL A   1      40.741  22.125  25.928  1.00  0.00    -0.269 OA
ATOM      4  C   UNL A   1      39.722  22.808  25.980  1.00  0.00     0.251 C 
ATOM      5  H   UNL A   1      38.525  21.337  25.352  1.00  0.00     0.163 HD
BRANCH   4   6
ATOM      6  C   UNL A   1      39.737  24.107  26.692  1.00  0.00     0.039 A 
ATOM      7  C   UNL A   1      40.575  25.124  26.220  1.00  0.00     0.014 A 
ATOM      8  C   UNL A   1      39.064  24.267  27.907  1.00  0.00     0.014 A 
ATOM      9  C   UNL A   1      40.759  26.286  26.974  1.00  0.00     0.010 A 
ATOM     10  C   UNL A   1      39.199  25.451  28.628  1.00  0.00     0.010 A 
ATOM     11  C   UNL A   1      40.085  26.447  28.192  1.00  0.00    -0.014 A 
BRANCH  11  12
ATOM     12  C   UNL A   1      40.392  27.573  29.107  1.00  0.00     0.031 A 
ATOM     13  C   UNL A   1      41.663  27.529  29.914  1.00  0.00     0.074 A 
ATOM     14  C   UNL A   1      39.537  28.602  29.239  1.00  0.00     0.049 A 
ATOM     15  N   UNL A   1      42.056  28.306  30.889  1.00  0.00    -0.248 NA
ATOM     16  C   UNL A   1      42.603  26.441  29.595  1.00  0.00     0.031 C 
ATOM     17  C   UNL A   1      38.293  28.771  28.491  1.00  0.00     0.029 A 
ATOM     18  N   UNL A   1      39.591  29.700  30.058  1.00  0.00    -0.354 N 
ATOM     19  C   UNL A   1      43.275  27.787  31.316  1.00  0.00     0.074 A 
ATOM     20  C   UNL A   1      43.530  26.603  30.526  1.00  0.00     0.031 C 
ATOM     21  C   UNL A   1      37.712  29.922  28.866  1.00  0.00     0.029 A 
ATOM     22  C   UNL A   1      38.518  30.546  29.912  1.00  0.00     0.049 A 
ATOM     23  H   UNL A   1      40.327  29.867  30.689  1.00  0.00     0.167 HD
ATOM     24  C   UNL A   1      44.115  28.266  32.265  1.00  0.00     0.037 A 
ATOM     25  C   UNL A   1      38.220  31.688  30.559  1.00  0.00     0.037 A 
ATOM     26  C   UNL A   1      43.865  29.459  33.027  1.00  0.00     0.049 A 
ATOM     27  C   UNL A   1      39.144  32.183  31.636  1.00  0.00     0.074 A 
ATOM     28  C   UNL A   1      44.641  30.034  34.018  1.00  0.00     0.029 A 
ATOM     29  N   UNL A   1      42.751  30.275  32.869  1.00  0.00    -0.354 N 
ATOM     30  N   UNL A   1      40.267  31.657  32.067  1.00  0.00    -0.248 NA
ATOM     31  C   UNL A   1      38.755  33.423  32.322  1.00  0.00     0.031 C 
ATOM     32  C   UNL A   1      43.987  31.186  34.473  1.00  0.00     0.029 A 
ATOM     33  C   UNL A   1      42.819  31.346  33.743  1.00  0.00     0.049 A 
ATOM     34  H   UNL A   1      42.021  30.113  32.229  1.00  0.00     0.167 HD
ATOM     35  C   UNL A   1      40.726  32.507  33.067  1.00  0.00     0.074 A 
ATOM     36  C   UNL A   1      39.766  33.589  33.166  1.00  0.00     0.031 C 
ATOM     37  C   UNL A   1      41.841  32.402  33.832  1.00  0.00     0.037 A 
BRANCH  24  38
ATOM     38  C   UNL A   1      45.372  27.481  32.519  1.00  0.00     0.058 A 
ATOM     39  C   UNL A   1      45.418  26.461  33.484  1.00  0.00     0.135 A 
ATOM     40  C   UNL A   1      46.555  27.774  31.822  1.00  0.00     0.135 A 
ATOM     41  F   UNL A   1      44.320  26.153  34.194  1.00  0.00    -0.206 F 
ATOM     42  C   UNL A   1      46.601  25.796  33.787  1.00  0.00     0.059 A 
ATOM     43  C   UNL A   1      47.746  27.101  32.089  1.00  0.00     0.059 A 
ATOM     44  F   UNL A   1      46.570  28.738  30.889  1.00  0.00    -0.206 F 
ATOM     45  C   UNL A   1      47.764  26.133  33.092  1.00  0.00     0.060 A 
BRANCH  45  46
ATOM     46  S   UNL A   1      49.303  25.297  33.529  1.00  0.00     0.124 S 
ATOM     47  O   UNL A   1      49.958  25.196  32.229  1.00  0.00    -0.237 OA
ATOM     48  O   UNL A   1      49.911  26.228  34.474  1.00  0.00    -0.237 OA
ATOM     49  O   UNL A   1      48.849  24.032  34.103  1.00  0.00    -0.744 OA
ENDBRANCH  45  46
ENDBRANCH  24  38
BRANCH  25  50
ATOM     50  C   UNL A   1      37.010  32.453  30.167  1.00  0.00     0.058 A 
ATOM     51  C   UNL A   1      35.777  32.187  30.780  1.00  0.00     0.135 A 
ATOM     52  C   UNL A   1      37.069  33.501  29.236  1.00  0.00     0.135 A 
ATOM     53  F   UNL A   1      35.672  31.188  31.669  1.00  0.00    -0.206 F 
ATOM     54  C   UNL A   1      34.645  32.943  30.496  1.00  0.00     0.059 A 
ATOM     55  C   UNL A   1      35.954  34.283  28.949  1.00  0.00     0.059 A 
ATOM     56  F   UNL A   1      38.229  33.800  28.633  1.00  0.00    -0.206 F 
ATOM     57  C   UNL A   1      34.747  33.998  29.587  1.00  0.00     0.060 A 
BRANCH  57  58
ATOM     58  S   UNL A   1      33.296  35.036  29.307  1.00  0.00     0.124 S 
ATOM     59  O   UNL A   1      32.539  34.235  28.351  1.00  0.00    -0.237 OA
ATOM     60  O   UNL A   1      32.729  35.135  30.649  1.00  0.00    -0.237 OA
ATOM     61  O   UNL A   1      33.864  36.275  28.783  1.00  0.00    -0.744 OA
ENDBRANCH  57  58
ENDBRANCH  25  50
BRANCH  37  62
ATOM     62  C   UNL A   1      42.081  33.493  34.836  1.00  0.00     0.058 A 
ATOM     63  C   UNL A   1      42.673  34.711  34.466  1.00  0.00     0.135 A 
ATOM     64  C   UNL A   1      41.687  33.332  36.173  1.00  0.00     0.135 A 
ATOM     65  F   UNL A   1      43.070  34.911  33.199  1.00  0.00    -0.206 F 
ATOM     66  C   UNL A   1      42.889  35.723  35.394  1.00  0.00     0.059 A 
ATOM     67  C   UNL A   1      41.875  34.339  37.115  1.00  0.00     0.059 A 
ATOM     68  F   UNL A   1      41.107  32.190  36.575  1.00  0.00    -0.206 F 
ATOM     69  C   UNL A   1      42.490  35.526  36.718  1.00  0.00     0.060 A 
BRANCH  69  70
ATOM     70  S   UNL A   1      42.766  36.853  37.911  1.00  0.00     0.124 S 
ATOM     71  O   UNL A   1      43.487  37.829  37.103  1.00  0.00    -0.237 OA
ATOM     72  O   UNL A   1      41.406  37.222  38.290  1.00  0.00    -0.237 OA
ATOM     73  O   UNL A   1      43.548  36.205  38.961  1.00  0.00    -0.744 OA
ENDBRANCH  69  70
ENDBRANCH  37  62
ENDBRANCH  11  12
ENDBRANCH   4   6
ENDBRANCH   1   2
BRANCH   1  74
ATOM     74  C   UNL A   1      36.276  23.032  25.930  1.00  0.00     0.042 C 
BRANCH  74  75
ATOM     75  C   UNL A   1      35.230  24.122  25.655  1.00  0.00     0.118 C 
BRANCH  75  76
ATOM     76  N   UNL A   1      35.062  24.318  24.229  1.00  0.00    -0.351 N 
ATOM     77  C   UNL A   1      34.019  24.664  23.436  1.00  0.00     0.278 C 
ATOM     78  H   UNL A   1      35.892  24.165  23.722  1.00  0.00     0.163 HD
ATOM     79  O   UNL A   1      34.215  24.401  22.240  1.00  0.00    -0.268 OA
BRANCH  77  80
ATOM     80  C   UNL A   1      32.705  25.388  23.863  1.00  0.00     0.279 C 
ATOM     81  C   UNL A   1      32.354  26.582  22.953  1.00  0.00     0.111 C 
ATOM     82  N   UNL A   1      31.575  24.426  24.049  1.00  0.00    -0.317 N 
ATOM     83  C   UNL A   1      30.968  27.143  23.121  1.00  0.00    -0.033 A 
ATOM     84  C   UNL A   1      30.344  25.114  24.483  1.00  0.00     0.300 C 
ATOM     85  H   UNL A   1      31.436  24.018  23.124  1.00  0.00     0.349 HD
ATOM     86  C   UNL A   1      30.635  28.377  22.544  1.00  0.00     0.006 A 
ATOM     87  C   UNL A   1      29.982  26.376  23.745  1.00  0.00     0.011 A 
ATOM     88  C   UNL A   1      29.326  28.855  22.607  1.00  0.00     0.021 A 
ATOM     89  C   UNL A   1      28.667  26.866  23.809  1.00  0.00     0.030 A 
ATOM     90  C   UNL A   1      28.345  28.096  23.236  1.00  0.00     0.041 A 
ATOM     91  Cl  UNL A   1      26.729  28.680  23.319  1.00  0.00    -0.084 Cl
BRANCH  82  92
ATOM     92  C   UNL A   1      31.867  23.287  24.970  1.00  0.00     0.299 C 
BRANCH  92  93
ATOM     93  C   UNL A   1      32.146  21.912  24.364  1.00  0.00     0.006 A 
ATOM     94  C   UNL A   1      32.003  21.662  22.988  1.00  0.00     0.011 A 
ATOM     95  C   UNL A   1      32.569  20.847  25.173  1.00  0.00     0.011 A 
ATOM     96  C   UNL A   1      32.144  20.369  22.470  1.00  0.00     0.021 A 
ATOM     97  C   UNL A   1      32.722  19.555  24.661  1.00  0.00     0.021 A 
ATOM     98  C   UNL A   1      32.484  19.317  23.313  1.00  0.00     0.041 A 
ATOM     99  Cl  UNL A   1      32.619  17.721  22.685  1.00  0.00    -0.084 Cl
ENDBRANCH  92  93
ENDBRANCH  82  92
ENDBRANCH  77  80
ENDBRANCH  75  76
ENDBRANCH  74  75
ENDBRANCH   1  74
TORSDOF 15
ENDMDL
