MODEL 1
REMARK VINA RESULT:     -12.9      0.000      0.000
REMARK SMILES COC(=O)[C@@H]1C[C@@H](C(=O)NCCCNC(=O)c2ccc(-c3c4nc(c(-c5c(F)cc(S(=O)(=O)[O-])cc5F)c5ccc([nH]5)c(-c5c(F)cc(S(=O)(=O)[O-])cc5F)c5nc(c(-c6c(F)cc(S(=O)(=O)[O-])cc6F)c6ccc3[nH]6)C=C5)C=C4)cc2)[C@@H](c2cccc(F)c2F)[N@H+]1C
REMARK SMILES IDX 12 1 11 2 10 3 8 4 9 5 7 7 5 8 6 9 92 10 83 11 93 12 3 14
REMARK SMILES IDX 4 15 2 16 1 17 84 18 85 19 90 20 86 21 88 22 91 23 87 24
REMARK SMILES IDX 89 25 13 26 14 27 15 28 16 30 17 31 18 32 82 33 19 34 81 35
REMARK SMILES IDX 20 36 21 37 22 38 75 39 23 40 80 41 74 42 76 43 24 44 79 45
REMARK SMILES IDX 73 46 72 47 25 49 59 50 38 51 58 52 39 53 42 54 57 55 77 56
REMARK SMILES IDX 40 57 41 58 56 60 78 61 43 62 26 63 27 64 36 65 28 66 29 67
REMARK SMILES IDX 35 68 37 69 30 70 31 71 32 72 33 73 34 74 60 75 61 76 70 77
REMARK SMILES IDX 62 78 63 79 69 80 71 81 64 82 65 83 66 84 67 85 68 86 44 87
REMARK SMILES IDX 45 88 54 89 46 90 47 91 53 92 55 93 48 94 49 95 50 96 51 97
REMARK SMILES IDX 52 98
REMARK H PARENT 10 6 92 13 14 29 76 48 42 59
REMARK Flexibility Score: inf
ROOT
ATOM      1  C   UNL A   1      38.988  23.357  26.519  1.00  0.00     0.042 C 
ENDROOT
BRANCH   1   2
ATOM      2  C   UNL A   1      38.469  22.109  25.813  1.00  0.00     0.117 C 
BRANCH   2   3
ATOM      3  N   UNL A   1      37.759  22.376  24.572  1.00  0.00    -0.356 N 
ATOM      4  C   UNL A   1      36.457  22.382  24.200  1.00  0.00     0.229 C 
ATOM      5  O   UNL A   1      36.239  22.749  23.037  1.00  0.00    -0.275 OA
ATOM      6  H   UNL A   1      38.365  22.606  23.831  1.00  0.00     0.163 HD
BRANCH   4   7
ATOM      7  C   UNL A   1      35.277  21.975  25.075  1.00  0.00     0.148 C 
ATOM      8  C   UNL A   1      33.372  20.659  24.432  1.00  0.00     0.296 C 
ATOM      9  C   UNL A   1      34.835  20.539  24.798  1.00  0.00     0.097 C 
ATOM     10  N   UNL A   1      32.966  21.767  25.300  1.00  0.00    -0.319 N 
ATOM     11  C   UNL A   1      33.979  22.852  25.247  1.00  0.00     0.231 C 
ATOM     12  C   UNL A   1      31.547  22.014  25.352  1.00  0.00     0.333 C 
ATOM     13  H   UNL A   1      33.007  21.526  26.290  1.00  0.00     0.349 HD
BRANCH   8  14
ATOM     14  C   UNL A   1      32.687  19.321  24.717  1.00  0.00     0.364 C 
ATOM     15  O   UNL A   1      32.614  18.751  25.802  1.00  0.00    -0.245 OA
BRANCH  14  16
ATOM     16  O   UNL A   1      32.211  18.806  23.543  1.00  0.00    -0.465 OA
ATOM     17  C   UNL A   1      32.942  17.678  23.062  1.00  0.00     0.282 C 
ENDBRANCH  14  16
ENDBRANCH   8  14
BRANCH  11  18
ATOM     18  C   UNL A   1      33.835  24.115  24.382  1.00  0.00     0.049 A 
ATOM     19  C   UNL A   1      33.960  25.387  24.997  1.00  0.00     0.013 A 
ATOM     20  C   UNL A   1      33.428  24.176  23.040  1.00  0.00     0.167 A 
ATOM     21  C   UNL A   1      33.920  26.597  24.283  1.00  0.00     0.004 A 
ATOM     22  C   UNL A   1      33.372  25.380  22.324  1.00  0.00     0.159 A 
ATOM     23  F   UNL A   1      33.002  23.104  22.371  1.00  0.00    -0.203 F 
ATOM     24  C   UNL A   1      33.659  26.590  22.925  1.00  0.00     0.042 A 
ATOM     25  F   UNL A   1      33.014  25.363  21.032  1.00  0.00    -0.204 F 
ENDBRANCH  11  18
ENDBRANCH   4   7
ENDBRANCH   2   3
ENDBRANCH   1   2
BRANCH   1  26
ATOM     26  C   UNL A   1      40.464  23.300  26.903  1.00  0.00     0.118 C 
BRANCH  26  27
ATOM     27  N   UNL A   1      41.277  24.113  26.017  1.00  0.00    -0.352 N 
ATOM     28  C   UNL A   1      41.501  25.468  26.031  1.00  0.00     0.251 C 
ATOM     29  H   UNL A   1      41.735  23.620  25.298  1.00  0.00     0.163 HD
ATOM     30  O   UNL A   1      41.986  25.993  25.031  1.00  0.00    -0.269 OA
BRANCH  28  31
ATOM     31  C   UNL A   1      41.174  26.300  27.216  1.00  0.00     0.039 A 
ATOM     32  C   UNL A   1      42.036  27.350  27.540  1.00  0.00     0.014 A 
ATOM     33  C   UNL A   1      40.096  26.009  28.061  1.00  0.00     0.014 A 
ATOM     34  C   UNL A   1      41.814  28.111  28.691  1.00  0.00     0.010 A 
ATOM     35  C   UNL A   1      39.839  26.811  29.181  1.00  0.00     0.010 A 
ATOM     36  C   UNL A   1      40.707  27.859  29.519  1.00  0.00    -0.014 A 
BRANCH  36  37
ATOM     37  C   UNL A   1      40.478  28.713  30.719  1.00  0.00     0.031 A 
ATOM     38  C   UNL A   1      41.308  28.559  31.965  1.00  0.00     0.074 A 
ATOM     39  C   UNL A   1      39.515  29.655  30.678  1.00  0.00     0.049 A 
ATOM     40  N   UNL A   1      41.323  29.303  33.043  1.00  0.00    -0.248 NA
ATOM     41  C   UNL A   1      42.226  27.412  32.019  1.00  0.00     0.031 C 
ATOM     42  C   UNL A   1      38.589  29.861  29.563  1.00  0.00     0.029 A 
ATOM     43  N   UNL A   1      39.161  30.622  31.586  1.00  0.00    -0.354 N 
ATOM     44  C   UNL A   1      42.247  28.717  33.903  1.00  0.00     0.074 A 
ATOM     45  C   UNL A   1      42.732  27.525  33.240  1.00  0.00     0.031 C 
ATOM     46  C   UNL A   1      37.800  30.913  29.835  1.00  0.00     0.029 A 
ATOM     47  C   UNL A   1      38.147  31.441  31.151  1.00  0.00     0.049 A 
ATOM     48  H   UNL A   1      39.594  30.719  32.466  1.00  0.00     0.167 HD
ATOM     49  C   UNL A   1      42.664  29.141  35.122  1.00  0.00     0.037 A 
ATOM     50  C   UNL A   1      37.566  32.507  31.736  1.00  0.00     0.037 A 
ATOM     51  C   UNL A   1      42.181  30.333  35.776  1.00  0.00     0.049 A 
ATOM     52  C   UNL A   1      38.074  32.989  33.066  1.00  0.00     0.074 A 
ATOM     53  C   UNL A   1      42.599  30.887  36.975  1.00  0.00     0.029 A 
ATOM     54  N   UNL A   1      41.163  31.146  35.299  1.00  0.00    -0.354 N 
ATOM     55  N   UNL A   1      39.021  32.482  33.819  1.00  0.00    -0.248 NA
ATOM     56  C   UNL A   1      37.450  34.198  33.615  1.00  0.00     0.031 C 
ATOM     57  C   UNL A   1      41.796  32.002  37.249  1.00  0.00     0.029 A 
ATOM     58  C   UNL A   1      40.918  32.179  36.192  1.00  0.00     0.049 A 
ATOM     59  H   UNL A   1      40.684  31.011  34.449  1.00  0.00     0.167 HD
ATOM     60  C   UNL A   1      39.117  33.318  34.925  1.00  0.00     0.074 A 
ATOM     61  C   UNL A   1      38.147  34.377  34.729  1.00  0.00     0.031 C 
ATOM     62  C   UNL A   1      39.934  33.219  36.004  1.00  0.00     0.037 A 
BRANCH  49  63
ATOM     63  C   UNL A   1      43.688  28.299  35.839  1.00  0.00     0.058 A 
ATOM     64  C   UNL A   1      43.319  27.283  36.737  1.00  0.00     0.135 A 
ATOM     65  C   UNL A   1      45.061  28.494  35.607  1.00  0.00     0.135 A 
ATOM     66  F   UNL A   1      42.024  27.054  37.005  1.00  0.00    -0.206 F 
ATOM     67  C   UNL A   1      44.272  26.524  37.412  1.00  0.00     0.059 A 
ATOM     68  C   UNL A   1      46.030  27.725  36.248  1.00  0.00     0.059 A 
ATOM     69  F   UNL A   1      45.474  29.444  34.754  1.00  0.00    -0.206 F 
ATOM     70  C   UNL A   1      45.625  26.757  37.165  1.00  0.00     0.060 A 
BRANCH  70  71
ATOM     71  S   UNL A   1      46.849  25.783  38.067  1.00  0.00     0.124 S 
ATOM     72  O   UNL A   1      46.214  25.659  39.375  1.00  0.00    -0.237 OA
ATOM     73  O   UNL A   1      46.916  24.557  37.278  1.00  0.00    -0.237 OA
ATOM     74  O   UNL A   1      48.046  26.617  38.026  1.00  0.00    -0.744 OA
ENDBRANCH  70  71
ENDBRANCH  49  63
BRANCH  50  75
ATOM     75  C   UNL A   1      36.459  33.207  31.031  1.00  0.00     0.058 A 
ATOM     76  C   UNL A   1      35.140  33.147  31.505  1.00  0.00     0.135 A 
ATOM     77  C   UNL A   1      36.714  34.001  29.903  1.00  0.00     0.135 A 
ATOM     78  F   UNL A   1      34.845  32.396  32.576  1.00  0.00    -0.206 F 
ATOM     79  C   UNL A   1      34.111  33.850  30.885  1.00  0.00     0.059 A 
ATOM     80  C   UNL A   1      35.708  34.733  29.282  1.00  0.00     0.059 A 
ATOM     81  F   UNL A   1      37.963  34.103  29.421  1.00  0.00    -0.206 F 
ATOM     82  C   UNL A   1      34.408  34.649  29.780  1.00  0.00     0.060 A 
BRANCH  82  83
ATOM     83  S   UNL A   1      33.085  35.632  29.041  1.00  0.00     0.124 S 
ATOM     84  O   UNL A   1      33.840  36.666  28.344  1.00  0.00    -0.237 OA
ATOM     85  O   UNL A   1      32.413  34.651  28.195  1.00  0.00    -0.237 OA
ATOM     86  O   UNL A   1      32.316  36.082  30.198  1.00  0.00    -0.744 OA
ENDBRANCH  82  83
ENDBRANCH  50  75
BRANCH  62  87
ATOM     87  C   UNL A   1      39.820  34.294  37.052  1.00  0.00     0.058 A 
ATOM     88  C   UNL A   1      39.079  34.106  38.231  1.00  0.00     0.135 A 
ATOM     89  C   UNL A   1      40.459  35.533  36.876  1.00  0.00     0.135 A 
ATOM     90  F   UNL A   1      38.445  32.943  38.451  1.00  0.00    -0.206 F 
ATOM     91  C   UNL A   1      38.932  35.123  39.170  1.00  0.00     0.059 A 
ATOM     92  C   UNL A   1      40.352  36.553  37.818  1.00  0.00     0.059 A 
ATOM     93  F   UNL A   1      41.194  35.764  35.777  1.00  0.00    -0.206 F 
ATOM     94  C   UNL A   1      39.566  36.347  38.950  1.00  0.00     0.060 A 
BRANCH  94  95
ATOM     95  S   UNL A   1      39.352  37.667  40.163  1.00  0.00     0.124 S 
ATOM     96  O   UNL A   1      38.393  38.533  39.486  1.00  0.00    -0.237 OA
ATOM     97  O   UNL A   1      38.842  36.945  41.326  1.00  0.00    -0.237 OA
ATOM     98  O   UNL A   1      40.697  38.213  40.311  1.00  0.00    -0.744 OA
ENDBRANCH  94  95
ENDBRANCH  62  87
ENDBRANCH  36  37
ENDBRANCH  28  31
ENDBRANCH  26  27
ENDBRANCH   1  26
TORSDOF 16
ENDMDL
MODEL 2
REMARK VINA RESULT:     -12.5      6.916     12.547
REMARK SMILES COC(=O)[C@@H]1C[C@@H](C(=O)NCCCNC(=O)c2ccc(-c3c4nc(c(-c5c(F)cc(S(=O)(=O)[O-])cc5F)c5ccc([nH]5)c(-c5c(F)cc(S(=O)(=O)[O-])cc5F)c5nc(c(-c6c(F)cc(S(=O)(=O)[O-])cc6F)c6ccc3[nH]6)C=C5)C=C4)cc2)[C@@H](c2cccc(F)c2F)[N@H+]1C
REMARK SMILES IDX 12 1 11 2 10 3 8 4 9 5 7 7 5 8 6 9 92 10 83 11 93 12 3 14
REMARK SMILES IDX 4 15 2 16 1 17 84 18 85 19 90 20 86 21 88 22 91 23 87 24
REMARK SMILES IDX 89 25 13 26 14 27 15 28 16 30 17 31 18 32 82 33 19 34 81 35
REMARK SMILES IDX 20 36 21 37 22 38 75 39 23 40 80 41 74 42 76 43 24 44 79 45
REMARK SMILES IDX 73 46 72 47 25 49 59 50 38 51 58 52 39 53 42 54 57 55 77 56
REMARK SMILES IDX 40 57 41 58 56 60 78 61 43 62 26 63 27 64 36 65 28 66 29 67
REMARK SMILES IDX 35 68 37 69 30 70 31 71 32 72 33 73 34 74 60 75 61 76 70 77
REMARK SMILES IDX 62 78 63 79 69 80 71 81 64 82 65 83 66 84 67 85 68 86 44 87
REMARK SMILES IDX 45 88 54 89 46 90 47 91 53 92 55 93 48 94 49 95 50 96 51 97
REMARK SMILES IDX 52 98
REMARK H PARENT 10 6 92 13 14 29 76 48 42 59
REMARK Flexibility Score: inf
ROOT
ATOM      1  C   UNL A   1      34.978  30.289  27.566  1.00  0.00     0.042 C 
ENDROOT
BRANCH   1   2
ATOM      2  C   UNL A   1      33.511  30.679  27.423  1.00  0.00     0.117 C 
BRANCH   2   3
ATOM      3  N   UNL A   1      32.579  29.584  27.641  1.00  0.00    -0.356 N 
ATOM      4  C   UNL A   1      32.006  28.646  26.849  1.00  0.00     0.229 C 
ATOM      5  O   UNL A   1      31.306  27.810  27.437  1.00  0.00    -0.275 OA
ATOM      6  H   UNL A   1      32.299  29.507  28.582  1.00  0.00     0.163 HD
BRANCH   4   7
ATOM      7  C   UNL A   1      32.149  28.549  25.334  1.00  0.00     0.148 C 
ATOM      8  C   UNL A   1      30.390  28.277  23.720  1.00  0.00     0.296 C 
ATOM      9  C   UNL A   1      31.040  29.311  24.612  1.00  0.00     0.097 C 
ATOM     10  N   UNL A   1      31.552  27.460  23.362  1.00  0.00    -0.319 N 
ATOM     11  C   UNL A   1      32.376  27.190  24.568  1.00  0.00     0.231 C 
ATOM     12  C   UNL A   1      31.315  26.478  22.333  1.00  0.00     0.333 C 
ATOM     13  H   UNL A   1      32.226  27.967  22.788  1.00  0.00     0.349 HD
BRANCH   8  14
ATOM     14  C   UNL A   1      29.712  28.996  22.553  1.00  0.00     0.364 C 
ATOM     15  O   UNL A   1      30.269  29.599  21.640  1.00  0.00    -0.245 OA
BRANCH  14  16
ATOM     16  O   UNL A   1      28.355  28.923  22.713  1.00  0.00    -0.465 OA
ATOM     17  C   UNL A   1      27.650  30.071  22.243  1.00  0.00     0.282 C 
ENDBRANCH  14  16
ENDBRANCH   8  14
BRANCH  11  18
ATOM     18  C   UNL A   1      32.314  25.882  25.372  1.00  0.00     0.049 A 
ATOM     19  C   UNL A   1      33.518  25.184  25.644  1.00  0.00     0.013 A 
ATOM     20  C   UNL A   1      31.158  25.182  25.756  1.00  0.00     0.167 A 
ATOM     21  C   UNL A   1      33.576  24.023  26.433  1.00  0.00     0.004 A 
ATOM     22  C   UNL A   1      31.207  24.016  26.530  1.00  0.00     0.159 A 
ATOM     23  F   UNL A   1      29.938  25.539  25.353  1.00  0.00    -0.203 F 
ATOM     24  C   UNL A   1      32.410  23.453  26.911  1.00  0.00     0.042 A 
ATOM     25  F   UNL A   1      30.064  23.419  26.897  1.00  0.00    -0.204 F 
ENDBRANCH  11  18
ENDBRANCH   4   7
ENDBRANCH   2   3
ENDBRANCH   1   2
BRANCH   1  26
ATOM     26  C   UNL A   1      35.808  31.246  28.419  1.00  0.00     0.118 C 
BRANCH  26  27
ATOM     27  N   UNL A   1      35.756  30.888  29.825  1.00  0.00    -0.352 N 
ATOM     28  C   UNL A   1      36.633  30.141  30.571  1.00  0.00     0.251 C 
ATOM     29  H   UNL A   1      34.975  31.232  30.316  1.00  0.00     0.163 HD
ATOM     30  O   UNL A   1      36.262  29.720  31.665  1.00  0.00    -0.269 OA
BRANCH  28  31
ATOM     31  C   UNL A   1      38.003  29.836  30.090  1.00  0.00     0.039 A 
ATOM     32  C   UNL A   1      38.203  29.704  28.713  1.00  0.00     0.014 A 
ATOM     33  C   UNL A   1      39.066  29.586  30.966  1.00  0.00     0.014 A 
ATOM     34  C   UNL A   1      39.457  29.339  28.217  1.00  0.00     0.010 A 
ATOM     35  C   UNL A   1      40.339  29.280  30.465  1.00  0.00     0.010 A 
ATOM     36  C   UNL A   1      40.544  29.134  29.085  1.00  0.00    -0.014 A 
BRANCH  36  37
ATOM     37  C   UNL A   1      41.877  28.783  28.522  1.00  0.00     0.031 A 
ATOM     38  C   UNL A   1      42.975  29.806  28.402  1.00  0.00     0.074 A 
ATOM     39  C   UNL A   1      42.109  27.515  28.127  1.00  0.00     0.049 A 
ATOM     40  N   UNL A   1      44.227  29.635  28.055  1.00  0.00    -0.248 NA
ATOM     41  C   UNL A   1      42.621  31.204  28.686  1.00  0.00     0.031 C 
ATOM     42  C   UNL A   1      41.111  26.443  28.119  1.00  0.00     0.029 A 
ATOM     43  N   UNL A   1      43.252  26.908  27.671  1.00  0.00    -0.354 N 
ATOM     44  C   UNL A   1      44.810  30.898  28.079  1.00  0.00     0.074 A 
ATOM     45  C   UNL A   1      43.759  31.832  28.423  1.00  0.00     0.031 C 
ATOM     46  C   UNL A   1      41.694  25.303  27.718  1.00  0.00     0.029 A 
ATOM     47  C   UNL A   1      43.099  25.566  27.418  1.00  0.00     0.049 A 
ATOM     48  H   UNL A   1      44.101  27.389  27.538  1.00  0.00     0.167 HD
ATOM     49  C   UNL A   1      46.102  31.245  27.852  1.00  0.00     0.037 A 
ATOM     50  C   UNL A   1      43.989  24.642  27.003  1.00  0.00     0.037 A 
ATOM     51  C   UNL A   1      47.146  30.309  27.515  1.00  0.00     0.049 A 
ATOM     52  C   UNL A   1      45.424  25.037  26.803  1.00  0.00     0.074 A 
ATOM     53  C   UNL A   1      48.499  30.553  27.343  1.00  0.00     0.029 A 
ATOM     54  N   UNL A   1      46.956  28.955  27.281  1.00  0.00    -0.354 N 
ATOM     55  N   UNL A   1      45.980  26.218  26.931  1.00  0.00    -0.248 NA
ATOM     56  C   UNL A   1      46.358  23.970  26.423  1.00  0.00     0.031 C 
ATOM     57  C   UNL A   1      49.116  29.358  26.951  1.00  0.00     0.029 A 
ATOM     58  C   UNL A   1      48.160  28.356  26.937  1.00  0.00     0.049 A 
ATOM     59  H   UNL A   1      46.093  28.485  27.350  1.00  0.00     0.167 HD
ATOM     60  C   UNL A   1      47.332  26.036  26.660  1.00  0.00     0.074 A 
ATOM     61  C   UNL A   1      47.512  24.624  26.387  1.00  0.00     0.031 C 
ATOM     62  C   UNL A   1      48.331  26.953  26.642  1.00  0.00     0.037 A 
BRANCH  49  63
ATOM     63  C   UNL A   1      46.457  32.707  27.947  1.00  0.00     0.058 A 
ATOM     64  C   UNL A   1      46.216  33.601  26.890  1.00  0.00     0.135 A 
ATOM     65  C   UNL A   1      47.025  33.228  29.122  1.00  0.00     0.135 A 
ATOM     66  F   UNL A   1      45.683  33.161  25.740  1.00  0.00    -0.206 F 
ATOM     67  C   UNL A   1      46.567  34.945  26.977  1.00  0.00     0.059 A 
ATOM     68  C   UNL A   1      47.355  34.576  29.242  1.00  0.00     0.059 A 
ATOM     69  F   UNL A   1      47.270  32.424  30.169  1.00  0.00    -0.206 F 
ATOM     70  C   UNL A   1      47.142  35.422  28.156  1.00  0.00     0.060 A 
BRANCH  70  71
ATOM     71  S   UNL A   1      47.615  37.163  28.245  1.00  0.00     0.124 S 
ATOM     72  O   UNL A   1      47.636  37.530  26.833  1.00  0.00    -0.237 OA
ATOM     73  O   UNL A   1      46.533  37.742  29.034  1.00  0.00    -0.237 OA
ATOM     74  O   UNL A   1      48.917  37.129  28.903  1.00  0.00    -0.744 OA
ENDBRANCH  70  71
ENDBRANCH  49  63
BRANCH  50  75
ATOM     75  C   UNL A   1      43.535  23.241  26.791  1.00  0.00     0.058 A 
ATOM     76  C   UNL A   1      43.382  22.712  25.502  1.00  0.00     0.135 A 
ATOM     77  C   UNL A   1      43.304  22.388  27.881  1.00  0.00     0.135 A 
ATOM     78  F   UNL A   1      43.584  23.490  24.428  1.00  0.00    -0.206 F 
ATOM     79  C   UNL A   1      43.017  21.385  25.299  1.00  0.00     0.059 A 
ATOM     80  C   UNL A   1      42.964  21.052  27.704  1.00  0.00     0.059 A 
ATOM     81  F   UNL A   1      43.453  22.844  29.136  1.00  0.00    -0.206 F 
ATOM     82  C   UNL A   1      42.821  20.559  26.407  1.00  0.00     0.060 A 
BRANCH  82  83
ATOM     83  S   UNL A   1      42.442  18.815  26.133  1.00  0.00     0.124 S 
ATOM     84  O   UNL A   1      41.035  18.876  25.754  1.00  0.00    -0.237 OA
ATOM     85  O   UNL A   1      43.375  18.463  25.067  1.00  0.00    -0.237 OA
ATOM     86  O   UNL A   1      42.722  18.202  27.428  1.00  0.00    -0.744 OA
ENDBRANCH  82  83
ENDBRANCH  50  75
BRANCH  62  87
ATOM     87  C   UNL A   1      49.715  26.452  26.324  1.00  0.00     0.058 A 
ATOM     88  C   UNL A   1      50.591  26.004  27.327  1.00  0.00     0.135 A 
ATOM     89  C   UNL A   1      50.175  26.420  24.997  1.00  0.00     0.135 A 
ATOM     90  F   UNL A   1      50.206  26.014  28.614  1.00  0.00    -0.206 F 
ATOM     91  C   UNL A   1      51.888  25.593  27.033  1.00  0.00     0.059 A 
ATOM     92  C   UNL A   1      51.458  25.982  24.676  1.00  0.00     0.059 A 
ATOM     93  F   UNL A   1      49.377  26.820  23.995  1.00  0.00    -0.206 F 
ATOM     94  C   UNL A   1      52.315  25.594  25.704  1.00  0.00     0.060 A 
BRANCH  94  95
ATOM     95  S   UNL A   1      54.007  25.080  25.334  1.00  0.00     0.124 S 
ATOM     96  O   UNL A   1      54.682  25.371  26.594  1.00  0.00    -0.237 OA
ATOM     97  O   UNL A   1      53.842  23.665  25.015  1.00  0.00    -0.237 OA
ATOM     98  O   UNL A   1      54.381  25.932  24.209  1.00  0.00    -0.744 OA
ENDBRANCH  94  95
ENDBRANCH  62  87
ENDBRANCH  36  37
ENDBRANCH  28  31
ENDBRANCH  26  27
ENDBRANCH   1  26
TORSDOF 16
ENDMDL
MODEL 3
REMARK VINA RESULT:     -12.1      5.312     10.041
REMARK SMILES COC(=O)[C@@H]1C[C@@H](C(=O)NCCCNC(=O)c2ccc(-c3c4nc(c(-c5c(F)cc(S(=O)(=O)[O-])cc5F)c5ccc([nH]5)c(-c5c(F)cc(S(=O)(=O)[O-])cc5F)c5nc(c(-c6c(F)cc(S(=O)(=O)[O-])cc6F)c6ccc3[nH]6)C=C5)C=C4)cc2)[C@@H](c2cccc(F)c2F)[N@H+]1C
REMARK SMILES IDX 12 1 11 2 10 3 8 4 9 5 7 7 5 8 6 9 92 10 83 11 93 12 3 14
REMARK SMILES IDX 4 15 2 16 1 17 84 18 85 19 90 20 86 21 88 22 91 23 87 24
REMARK SMILES IDX 89 25 13 26 14 27 15 28 16 30 17 31 18 32 82 33 19 34 81 35
REMARK SMILES IDX 20 36 21 37 22 38 75 39 23 40 80 41 74 42 76 43 24 44 79 45
REMARK SMILES IDX 73 46 72 47 25 49 59 50 38 51 58 52 39 53 42 54 57 55 77 56
REMARK SMILES IDX 40 57 41 58 56 60 78 61 43 62 26 63 27 64 36 65 28 66 29 67
REMARK SMILES IDX 35 68 37 69 30 70 31 71 32 72 33 73 34 74 60 75 61 76 70 77
REMARK SMILES IDX 62 78 63 79 69 80 71 81 64 82 65 83 66 84 67 85 68 86 44 87
REMARK SMILES IDX 45 88 54 89 46 90 47 91 53 92 55 93 48 94 49 95 50 96 51 97
REMARK SMILES IDX 52 98
REMARK H PARENT 10 6 92 13 14 29 76 48 42 59
REMARK Flexibility Score: inf
ROOT
ATOM      1  C   UNL A   1      34.353  27.747  25.955  1.00  0.00     0.042 C 
ENDROOT
BRANCH   1   2
ATOM      2  C   UNL A   1      33.614  28.000  24.646  1.00  0.00     0.117 C 
BRANCH   2   3
ATOM      3  N   UNL A   1      33.888  27.020  23.607  1.00  0.00    -0.356 N 
ATOM      4  C   UNL A   1      33.180  26.498  22.576  1.00  0.00     0.229 C 
ATOM      5  O   UNL A   1      33.806  25.721  21.842  1.00  0.00    -0.275 OA
ATOM      6  H   UNL A   1      34.798  26.649  23.666  1.00  0.00     0.163 HD
BRANCH   4   7
ATOM      7  C   UNL A   1      31.715  26.781  22.266  1.00  0.00     0.148 C 
ATOM      8  C   UNL A   1      30.309  28.452  23.271  1.00  0.00     0.296 C 
ATOM      9  C   UNL A   1      31.417  28.279  22.255  1.00  0.00     0.097 C 
ATOM     10  N   UNL A   1      29.571  27.200  23.080  1.00  0.00    -0.319 N 
ATOM     11  C   UNL A   1      30.517  26.059  22.994  1.00  0.00     0.231 C 
ATOM     12  C   UNL A   1      28.306  27.126  23.768  1.00  0.00     0.333 C 
ATOM     13  H   UNL A   1      29.129  27.141  22.163  1.00  0.00     0.349 HD
BRANCH   8  14
ATOM     14  C   UNL A   1      29.533  29.726  22.934  1.00  0.00     0.364 C 
ATOM     15  O   UNL A   1      29.156  30.585  23.725  1.00  0.00    -0.245 OA
BRANCH  14  16
ATOM     16  O   UNL A   1      29.256  29.736  21.595  1.00  0.00    -0.465 OA
ATOM     17  C   UNL A   1      28.109  30.509  21.243  1.00  0.00     0.282 C 
ENDBRANCH  14  16
ENDBRANCH   8  14
BRANCH  11  18
ATOM     18  C   UNL A   1      30.839  25.124  24.171  1.00  0.00     0.049 A 
ATOM     19  C   UNL A   1      31.141  25.690  25.436  1.00  0.00     0.013 A 
ATOM     20  C   UNL A   1      31.029  23.734  24.117  1.00  0.00     0.167 A 
ATOM     21  C   UNL A   1      31.374  24.922  26.590  1.00  0.00     0.004 A 
ATOM     22  C   UNL A   1      31.276  22.962  25.260  1.00  0.00     0.159 A 
ATOM     23  F   UNL A   1      31.057  23.059  22.967  1.00  0.00    -0.203 F 
ATOM     24  C   UNL A   1      31.406  23.542  26.507  1.00  0.00     0.042 A 
ATOM     25  F   UNL A   1      31.408  21.633  25.143  1.00  0.00    -0.204 F 
ENDBRANCH  11  18
ENDBRANCH   4   7
ENDBRANCH   2   3
ENDBRANCH   1   2
BRANCH   1  26
ATOM     26  C   UNL A   1      33.550  28.079  27.210  1.00  0.00     0.118 C 
BRANCH  26  27
ATOM     27  N   UNL A   1      33.423  29.513  27.398  1.00  0.00    -0.352 N 
ATOM     28  C   UNL A   1      34.305  30.404  27.956  1.00  0.00     0.251 C 
ATOM     29  H   UNL A   1      32.578  29.904  27.079  1.00  0.00     0.163 HD
ATOM     30  O   UNL A   1      33.892  31.516  28.277  1.00  0.00    -0.269 OA
BRANCH  28  31
ATOM     31  C   UNL A   1      35.731  30.056  28.176  1.00  0.00     0.039 A 
ATOM     32  C   UNL A   1      36.133  29.714  29.471  1.00  0.00     0.014 A 
ATOM     33  C   UNL A   1      36.690  30.151  27.161  1.00  0.00     0.014 A 
ATOM     34  C   UNL A   1      37.479  29.456  29.743  1.00  0.00     0.010 A 
ATOM     35  C   UNL A   1      38.030  29.833  27.422  1.00  0.00     0.010 A 
ATOM     36  C   UNL A   1      38.442  29.500  28.721  1.00  0.00    -0.014 A 
BRANCH  36  37
ATOM     37  C   UNL A   1      39.863  29.184  29.037  1.00  0.00     0.031 A 
ATOM     38  C   UNL A   1      40.470  27.852  28.684  1.00  0.00     0.074 A 
ATOM     39  C   UNL A   1      40.626  30.119  29.637  1.00  0.00     0.049 A 
ATOM     40  N   UNL A   1      41.719  27.465  28.773  1.00  0.00    -0.248 NA
ATOM     41  C   UNL A   1      39.558  26.812  28.187  1.00  0.00     0.031 C 
ATOM     42  C   UNL A   1      40.145  31.422  30.100  1.00  0.00     0.029 A 
ATOM     43  N   UNL A   1      41.962  30.128  29.950  1.00  0.00    -0.354 N 
ATOM     44  C   UNL A   1      41.744  26.141  28.345  1.00  0.00     0.074 A 
ATOM     45  C   UNL A   1      40.375  25.776  28.048  1.00  0.00     0.031 C 
ATOM     46  C   UNL A   1      41.177  32.119  30.602  1.00  0.00     0.029 A 
ATOM     47  C   UNL A   1      42.387  31.305  30.517  1.00  0.00     0.049 A 
ATOM     48  H   UNL A   1      42.559  29.363  29.783  1.00  0.00     0.167 HD
ATOM     49  C   UNL A   1      42.808  25.313  28.199  1.00  0.00     0.037 A 
ATOM     50  C   UNL A   1      43.614  31.697  30.916  1.00  0.00     0.037 A 
ATOM     51  C   UNL A   1      44.171  25.684  28.491  1.00  0.00     0.049 A 
ATOM     52  C   UNL A   1      44.787  30.783  30.702  1.00  0.00     0.074 A 
ATOM     53  C   UNL A   1      45.326  24.942  28.301  1.00  0.00     0.029 A 
ATOM     54  N   UNL A   1      44.565  26.891  29.052  1.00  0.00    -0.354 N 
ATOM     55  N   UNL A   1      44.807  29.572  30.199  1.00  0.00    -0.248 NA
ATOM     56  C   UNL A   1      46.106  31.298  31.088  1.00  0.00     0.031 C 
ATOM     57  C   UNL A   1      46.409  25.678  28.798  1.00  0.00     0.029 A 
ATOM     58  C   UNL A   1      45.940  26.902  29.242  1.00  0.00     0.049 A 
ATOM     59  H   UNL A   1      43.958  27.632  29.281  1.00  0.00     0.167 HD
ATOM     60  C   UNL A   1      46.142  29.182  30.196  1.00  0.00     0.074 A 
ATOM     61  C   UNL A   1      46.900  30.299  30.724  1.00  0.00     0.031 C 
ATOM     62  C   UNL A   1      46.689  28.008  29.791  1.00  0.00     0.037 A 
BRANCH  49  63
ATOM     63  C   UNL A   1      42.539  23.913  27.710  1.00  0.00     0.058 A 
ATOM     64  C   UNL A   1      42.364  23.622  26.347  1.00  0.00     0.135 A 
ATOM     65  C   UNL A   1      42.477  22.841  28.617  1.00  0.00     0.135 A 
ATOM     66  F   UNL A   1      42.405  24.605  25.434  1.00  0.00    -0.206 F 
ATOM     67  C   UNL A   1      42.094  22.329  25.906  1.00  0.00     0.059 A 
ATOM     68  C   UNL A   1      42.238  21.535  28.194  1.00  0.00     0.059 A 
ATOM     69  F   UNL A   1      42.644  23.056  29.931  1.00  0.00    -0.206 F 
ATOM     70  C   UNL A   1      42.027  21.293  26.838  1.00  0.00     0.060 A 
BRANCH  70  71
ATOM     71  S   UNL A   1      41.650  19.626  26.254  1.00  0.00     0.124 S 
ATOM     72  O   UNL A   1      42.506  19.532  25.076  1.00  0.00    -0.237 OA
ATOM     73  O   UNL A   1      42.043  18.800  27.390  1.00  0.00    -0.237 OA
ATOM     74  O   UNL A   1      40.216  19.676  25.985  1.00  0.00    -0.744 OA
ENDBRANCH  70  71
ENDBRANCH  49  63
BRANCH  50  75
ATOM     75  C   UNL A   1      43.783  33.044  31.524  1.00  0.00     0.058 A 
ATOM     76  C   UNL A   1      43.952  34.187  30.728  1.00  0.00     0.135 A 
ATOM     77  C   UNL A   1      43.716  33.218  32.915  1.00  0.00     0.135 A 
ATOM     78  F   UNL A   1      44.030  34.071  29.394  1.00  0.00    -0.206 F 
ATOM     79  C   UNL A   1      44.050  35.456  31.290  1.00  0.00     0.059 A 
ATOM     80  C   UNL A   1      43.784  34.479  33.497  1.00  0.00     0.059 A 
ATOM     81  F   UNL A   1      43.539  32.156  33.717  1.00  0.00    -0.206 F 
ATOM     82  C   UNL A   1      43.954  35.593  32.676  1.00  0.00     0.060 A 
BRANCH  82  83
ATOM     83  S   UNL A   1      43.985  37.252  33.387  1.00  0.00     0.124 S 
ATOM     84  O   UNL A   1      44.125  38.081  32.196  1.00  0.00    -0.237 OA
ATOM     85  O   UNL A   1      42.694  37.319  34.064  1.00  0.00    -0.237 OA
ATOM     86  O   UNL A   1      45.147  37.216  34.272  1.00  0.00    -0.744 OA
ENDBRANCH  82  83
ENDBRANCH  50  75
BRANCH  62  87
ATOM     87  C   UNL A   1      48.185  27.878  29.895  1.00  0.00     0.058 A 
ATOM     88  C   UNL A   1      49.039  28.264  28.848  1.00  0.00     0.135 A 
ATOM     89  C   UNL A   1      48.776  27.357  31.059  1.00  0.00     0.135 A 
ATOM     90  F   UNL A   1      48.529  28.766  27.712  1.00  0.00    -0.206 F 
ATOM     91  C   UNL A   1      50.418  28.090  28.930  1.00  0.00     0.059 A 
ATOM     92  C   UNL A   1      50.156  27.205  31.175  1.00  0.00     0.059 A 
ATOM     93  F   UNL A   1      48.012  26.986  32.098  1.00  0.00    -0.206 F 
ATOM     94  C   UNL A   1      50.966  27.551  30.095  1.00  0.00     0.060 A 
BRANCH  94  95
ATOM     95  S   UNL A   1      52.754  27.309  30.182  1.00  0.00     0.124 S 
ATOM     96  O   UNL A   1      53.206  28.625  30.618  1.00  0.00    -0.237 OA
ATOM     97  O   UNL A   1      52.878  26.238  31.167  1.00  0.00    -0.237 OA
ATOM     98  O   UNL A   1      53.113  26.941  28.816  1.00  0.00    -0.744 OA
ENDBRANCH  94  95
ENDBRANCH  62  87
ENDBRANCH  36  37
ENDBRANCH  28  31
ENDBRANCH  26  27
ENDBRANCH   1  26
TORSDOF 16
ENDMDL
