MODEL 1
REMARK VINA RESULT:     -10.9      0.000      0.000
REMARK SMILES O=C(NCCCNC(=O)[C@H]1CC[C@@H](C(F)F)[NH2+]1)c1ccc(-c2c3nc(c(-c4c(F)cc(S(=O)(=O)[O-])cc4F)c4ccc([nH]4)c(-c4c(F)cc(S(=O)(=O)[O-])cc4F)c4nc(c(-c5c(F)cc(S(=O)(=O)[O-])cc5F)c5ccc2[nH]5)C=C4)C=C3)cc1
REMARK SMILES IDX 4 1 3 2 1 3 2 4 18 6 19 7 83 8 20 9 82 10 21 11 22 12 23 13
REMARK SMILES IDX 76 14 24 15 81 16 75 17 77 18 25 19 80 20 74 21 73 22 26 24
REMARK SMILES IDX 60 25 39 26 59 27 40 28 43 29 58 30 78 31 41 32 42 33 57 35
REMARK SMILES IDX 79 36 44 37 27 38 28 39 37 40 29 41 30 42 36 43 38 44 31 45
REMARK SMILES IDX 32 46 33 47 34 48 35 49 61 50 62 51 71 52 63 53 64 54 70 55
REMARK SMILES IDX 72 56 65 57 66 58 67 59 68 60 69 61 45 62 46 63 55 64 47 65
REMARK SMILES IDX 48 66 54 67 56 68 49 69 50 70 51 71 52 72 53 73 5 74 6 75
REMARK SMILES IDX 7 76 8 77 9 79 10 80 11 81 17 82 12 83 13 84 14 87 15 88
REMARK SMILES IDX 16 89
REMARK H PARENT 3 5 77 23 43 34 7 78 17 85 17 86
REMARK Flexibility Score: inf
ROOT
ATOM      1  C   UNL A   1      34.520  32.658  28.398  1.00  0.00     0.118 C 
ENDROOT
BRANCH   1   2
ATOM      2  N   UNL A   1      33.863  31.373  28.162  1.00  0.00    -0.352 N 
ATOM      3  O   UNL A   1      33.675  29.207  27.577  1.00  0.00    -0.269 OA
ATOM      4  C   UNL A   1      34.389  30.111  27.991  1.00  0.00     0.251 C 
ATOM      5  H   UNL A   1      32.880  31.417  28.118  1.00  0.00     0.163 HD
BRANCH   4   6
ATOM      6  C   UNL A   1      35.814  29.857  28.293  1.00  0.00     0.039 A 
ATOM      7  C   UNL A   1      36.780  30.046  27.311  1.00  0.00     0.014 A 
ATOM      8  C   UNL A   1      36.197  29.444  29.574  1.00  0.00     0.014 A 
ATOM      9  C   UNL A   1      38.078  29.619  27.529  1.00  0.00     0.010 A 
ATOM     10  C   UNL A   1      37.541  29.156  29.839  1.00  0.00     0.010 A 
ATOM     11  C   UNL A   1      38.489  29.208  28.806  1.00  0.00    -0.014 A 
BRANCH  11  12
ATOM     12  C   UNL A   1      39.933  28.926  29.016  1.00  0.00     0.031 A 
ATOM     13  C   UNL A   1      40.545  27.610  28.622  1.00  0.00     0.074 A 
ATOM     14  C   UNL A   1      40.706  29.924  29.492  1.00  0.00     0.049 A 
ATOM     15  N   UNL A   1      41.800  27.243  28.681  1.00  0.00    -0.248 NA
ATOM     16  C   UNL A   1      39.642  26.569  28.107  1.00  0.00     0.031 C 
ATOM     17  C   UNL A   1      40.212  31.236  29.928  1.00  0.00     0.029 A 
ATOM     18  N   UNL A   1      42.064  30.020  29.648  1.00  0.00    -0.354 N 
ATOM     19  C   UNL A   1      41.837  25.929  28.229  1.00  0.00     0.074 A 
ATOM     20  C   UNL A   1      40.474  25.552  27.925  1.00  0.00     0.031 C 
ATOM     21  C   UNL A   1      41.251  32.028  30.219  1.00  0.00     0.029 A 
ATOM     22  C   UNL A   1      42.479  31.260  30.078  1.00  0.00     0.049 A 
ATOM     23  H   UNL A   1      42.682  29.275  29.470  1.00  0.00     0.167 HD
ATOM     24  C   UNL A   1      42.914  25.120  28.075  1.00  0.00     0.037 A 
ATOM     25  C   UNL A   1      43.711  31.725  30.350  1.00  0.00     0.037 A 
ATOM     26  C   UNL A   1      44.268  25.514  28.370  1.00  0.00     0.049 A 
ATOM     27  C   UNL A   1      44.882  30.808  30.164  1.00  0.00     0.074 A 
ATOM     28  C   UNL A   1      45.429  24.767  28.257  1.00  0.00     0.029 A 
ATOM     29  N   UNL A   1      44.648  26.768  28.829  1.00  0.00    -0.354 N 
ATOM     30  N   UNL A   1      44.893  29.566  29.742  1.00  0.00    -0.248 NA
ATOM     31  C   UNL A   1      46.206  31.347  30.497  1.00  0.00     0.031 C 
ATOM     32  C   UNL A   1      46.504  25.559  28.676  1.00  0.00     0.029 A 
ATOM     33  C   UNL A   1      46.021  26.814  29.010  1.00  0.00     0.049 A 
ATOM     34  H   UNL A   1      44.031  27.517  29.002  1.00  0.00     0.167 HD
ATOM     35  C   UNL A   1      46.224  29.174  29.760  1.00  0.00     0.074 A 
ATOM     36  C   UNL A   1      46.992  30.322  30.200  1.00  0.00     0.031 C 
ATOM     37  C   UNL A   1      46.763  27.968  29.454  1.00  0.00     0.037 A 
BRANCH  24  38
ATOM     38  C   UNL A   1      42.674  23.722  27.570  1.00  0.00     0.058 A 
ATOM     39  C   UNL A   1      42.695  23.421  26.199  1.00  0.00     0.135 A 
ATOM     40  C   UNL A   1      42.474  22.660  28.468  1.00  0.00     0.135 A 
ATOM     41  F   UNL A   1      42.867  24.398  25.295  1.00  0.00    -0.206 F 
ATOM     42  C   UNL A   1      42.510  22.121  25.735  1.00  0.00     0.059 A 
ATOM     43  C   UNL A   1      42.308  21.349  28.028  1.00  0.00     0.059 A 
ATOM     44  F   UNL A   1      42.443  22.891  29.790  1.00  0.00    -0.206 F 
ATOM     45  C   UNL A   1      42.317  21.092  26.658  1.00  0.00     0.060 A 
BRANCH  45  46
ATOM     46  S   UNL A   1      42.091  19.410  26.039  1.00  0.00     0.124 S 
ATOM     47  O   UNL A   1      40.661  19.399  25.742  1.00  0.00    -0.237 OA
ATOM     48  O   UNL A   1      42.978  19.381  24.880  1.00  0.00    -0.237 OA
ATOM     49  O   UNL A   1      42.505  18.575  27.162  1.00  0.00    -0.744 OA
ENDBRANCH  45  46
ENDBRANCH  24  38
BRANCH  25  50
ATOM     50  C   UNL A   1      43.882  33.113  30.856  1.00  0.00     0.058 A 
ATOM     51  C   UNL A   1      44.177  34.176  29.993  1.00  0.00     0.135 A 
ATOM     52  C   UNL A   1      43.728  33.402  32.222  1.00  0.00     0.135 A 
ATOM     53  F   UNL A   1      44.333  33.950  28.678  1.00  0.00    -0.206 F 
ATOM     54  C   UNL A   1      44.332  35.475  30.466  1.00  0.00     0.059 A 
ATOM     55  C   UNL A   1      43.848  34.697  32.714  1.00  0.00     0.059 A 
ATOM     56  F   UNL A   1      43.424  32.423  33.088  1.00  0.00    -0.206 F 
ATOM     57  C   UNL A   1      44.166  35.725  31.829  1.00  0.00     0.060 A 
BRANCH  57  58
ATOM     58  S   UNL A   1      44.332  37.417  32.435  1.00  0.00     0.124 S 
ATOM     59  O   UNL A   1      43.459  37.395  33.603  1.00  0.00    -0.237 OA
ATOM     60  O   UNL A   1      45.763  37.510  32.709  1.00  0.00    -0.237 OA
ATOM     61  O   UNL A   1      43.865  38.221  31.310  1.00  0.00    -0.744 OA
ENDBRANCH  57  58
ENDBRANCH  25  50
BRANCH  37  62
ATOM     62  C   UNL A   1      48.255  27.848  29.572  1.00  0.00     0.058 A 
ATOM     63  C   UNL A   1      49.099  28.108  28.483  1.00  0.00     0.135 A 
ATOM     64  C   UNL A   1      48.844  27.475  30.790  1.00  0.00     0.135 A 
ATOM     65  F   UNL A   1      48.582  28.460  27.294  1.00  0.00    -0.206 F 
ATOM     66  C   UNL A   1      50.479  27.969  28.586  1.00  0.00     0.059 A 
ATOM     67  C   UNL A   1      50.223  27.354  30.923  1.00  0.00     0.059 A 
ATOM     68  F   UNL A   1      48.079  27.224  31.864  1.00  0.00    -0.206 F 
ATOM     69  C   UNL A   1      51.031  27.587  29.810  1.00  0.00     0.060 A 
BRANCH  69  70
ATOM     70  S   UNL A   1      52.823  27.414  29.935  1.00  0.00     0.124 S 
ATOM     71  O   UNL A   1      52.946  26.120  30.599  1.00  0.00    -0.237 OA
ATOM     72  O   UNL A   1      53.241  27.452  28.538  1.00  0.00    -0.237 OA
ATOM     73  O   UNL A   1      53.219  28.570  30.734  1.00  0.00    -0.744 OA
ENDBRANCH  69  70
ENDBRANCH  37  62
ENDBRANCH  11  12
ENDBRANCH   4   6
ENDBRANCH   1   2
BRANCH   1  74
ATOM     74  C   UNL A   1      33.606  33.834  28.090  1.00  0.00     0.042 C 
BRANCH  74  75
ATOM     75  C   UNL A   1      33.858  34.986  29.042  1.00  0.00     0.118 C 
BRANCH  75  76
ATOM     76  N   UNL A   1      32.912  35.014  30.140  1.00  0.00    -0.351 N 
ATOM     77  C   UNL A   1      33.020  35.383  31.439  1.00  0.00     0.278 C 
ATOM     78  H   UNL A   1      32.011  34.701  29.891  1.00  0.00     0.163 HD
ATOM     79  O   UNL A   1      31.958  35.414  32.077  1.00  0.00    -0.268 OA
BRANCH  77  80
ATOM     80  C   UNL A   1      34.337  35.773  32.149  1.00  0.00     0.273 C 
ATOM     81  C   UNL A   1      34.390  35.977  33.646  1.00  0.00     0.082 C 
ATOM     82  N   UNL A   1      35.445  34.840  31.815  1.00  0.00    -0.329 N 
ATOM     83  C   UNL A   1      35.154  34.781  34.203  1.00  0.00     0.078 C 
ATOM     84  C   UNL A   1      35.684  33.993  33.004  1.00  0.00     0.251 C 
ATOM     85  H   UNL A   1      36.288  35.366  31.587  1.00  0.00     0.347 HD
ATOM     86  H   UNL A   1      35.200  34.265  31.008  1.00  0.00     0.347 HD
BRANCH  84  87
ATOM     87  C   UNL A   1      35.161  32.543  32.878  1.00  0.00     0.399 C 
ATOM     88  F   UNL A   1      34.630  32.341  31.645  1.00  0.00    -0.204 F 
ATOM     89  F   UNL A   1      36.143  31.627  33.027  1.00  0.00    -0.204 F 
ENDBRANCH  84  87
ENDBRANCH  77  80
ENDBRANCH  75  76
ENDBRANCH  74  75
ENDBRANCH   1  74
TORSDOF 14
ENDMDL
MODEL 2
REMARK VINA RESULT:     -10.7      5.112     12.231
REMARK SMILES O=C(NCCCNC(=O)[C@H]1CC[C@@H](C(F)F)[NH2+]1)c1ccc(-c2c3nc(c(-c4c(F)cc(S(=O)(=O)[O-])cc4F)c4ccc([nH]4)c(-c4c(F)cc(S(=O)(=O)[O-])cc4F)c4nc(c(-c5c(F)cc(S(=O)(=O)[O-])cc5F)c5ccc2[nH]5)C=C4)C=C3)cc1
REMARK SMILES IDX 4 1 3 2 1 3 2 4 18 6 19 7 83 8 20 9 82 10 21 11 22 12 23 13
REMARK SMILES IDX 76 14 24 15 81 16 75 17 77 18 25 19 80 20 74 21 73 22 26 24
REMARK SMILES IDX 60 25 39 26 59 27 40 28 43 29 58 30 78 31 41 32 42 33 57 35
REMARK SMILES IDX 79 36 44 37 27 38 28 39 37 40 29 41 30 42 36 43 38 44 31 45
REMARK SMILES IDX 32 46 33 47 34 48 35 49 61 50 62 51 71 52 63 53 64 54 70 55
REMARK SMILES IDX 72 56 65 57 66 58 67 59 68 60 69 61 45 62 46 63 55 64 47 65
REMARK SMILES IDX 48 66 54 67 56 68 49 69 50 70 51 71 52 72 53 73 5 74 6 75
REMARK SMILES IDX 7 76 8 77 9 79 10 80 11 81 17 82 12 83 13 84 14 87 15 88
REMARK SMILES IDX 16 89
REMARK H PARENT 3 5 77 23 43 34 7 78 17 85 17 86
REMARK Flexibility Score: inf
ROOT
ATOM      1  C   UNL A   1      40.269  23.265  27.189  1.00  0.00     0.118 C 
ENDROOT
BRANCH   1   2
ATOM      2  N   UNL A   1      40.903  24.080  26.153  1.00  0.00    -0.352 N 
ATOM      3  O   UNL A   1      41.445  25.941  25.007  1.00  0.00    -0.269 OA
ATOM      4  C   UNL A   1      41.094  25.441  26.068  1.00  0.00     0.251 C 
ATOM      5  H   UNL A   1      41.253  23.569  25.387  1.00  0.00     0.163 HD
BRANCH   4   6
ATOM      6  C   UNL A   1      40.860  26.295  27.253  1.00  0.00     0.039 A 
ATOM      7  C   UNL A   1      41.633  27.433  27.455  1.00  0.00     0.014 A 
ATOM      8  C   UNL A   1      39.849  25.970  28.164  1.00  0.00     0.014 A 
ATOM      9  C   UNL A   1      41.552  28.117  28.657  1.00  0.00     0.010 A 
ATOM     10  C   UNL A   1      39.666  26.754  29.309  1.00  0.00     0.010 A 
ATOM     11  C   UNL A   1      40.542  27.815  29.583  1.00  0.00    -0.014 A 
BRANCH  11  12
ATOM     12  C   UNL A   1      40.403  28.695  30.772  1.00  0.00     0.031 A 
ATOM     13  C   UNL A   1      41.336  28.588  31.946  1.00  0.00     0.074 A 
ATOM     14  C   UNL A   1      39.462  29.662  30.733  1.00  0.00     0.049 A 
ATOM     15  N   UNL A   1      41.381  29.329  33.024  1.00  0.00    -0.248 NA
ATOM     16  C   UNL A   1      42.339  27.512  31.919  1.00  0.00     0.031 C 
ATOM     17  C   UNL A   1      38.486  29.842  29.651  1.00  0.00     0.029 A 
ATOM     18  N   UNL A   1      39.195  30.699  31.587  1.00  0.00    -0.354 N 
ATOM     19  C   UNL A   1      42.401  28.803  33.809  1.00  0.00     0.074 A 
ATOM     20  C   UNL A   1      42.931  27.662  33.096  1.00  0.00     0.031 C 
ATOM     21  C   UNL A   1      37.790  30.966  29.864  1.00  0.00     0.029 A 
ATOM     22  C   UNL A   1      38.203  31.539  31.136  1.00  0.00     0.049 A 
ATOM     23  H   UNL A   1      39.668  30.831  32.440  1.00  0.00     0.167 HD
ATOM     24  C   UNL A   1      42.855  29.243  35.008  1.00  0.00     0.037 A 
ATOM     25  C   UNL A   1      37.667  32.639  31.692  1.00  0.00     0.037 A 
ATOM     26  C   UNL A   1      42.324  30.391  35.700  1.00  0.00     0.049 A 
ATOM     27  C   UNL A   1      38.194  33.104  33.017  1.00  0.00     0.074 A 
ATOM     28  C   UNL A   1      42.707  30.914  36.923  1.00  0.00     0.029 A 
ATOM     29  N   UNL A   1      41.301  31.201  35.226  1.00  0.00    -0.354 N 
ATOM     30  N   UNL A   1      39.154  32.587  33.745  1.00  0.00    -0.248 NA
ATOM     31  C   UNL A   1      37.563  34.293  33.600  1.00  0.00     0.031 C 
ATOM     32  C   UNL A   1      41.896  32.021  37.202  1.00  0.00     0.029 A 
ATOM     33  C   UNL A   1      41.036  32.214  36.133  1.00  0.00     0.049 A 
ATOM     34  H   UNL A   1      40.832  31.075  34.369  1.00  0.00     0.167 HD
ATOM     35  C   UNL A   1      39.242  33.386  34.875  1.00  0.00     0.074 A 
ATOM     36  C   UNL A   1      38.263  34.443  34.716  1.00  0.00     0.031 C 
ATOM     37  C   UNL A   1      40.052  33.253  35.955  1.00  0.00     0.037 A 
BRANCH  24  38
ATOM     38  C   UNL A   1      43.977  28.478  35.656  1.00  0.00     0.058 A 
ATOM     39  C   UNL A   1      45.323  28.786  35.399  1.00  0.00     0.135 A 
ATOM     40  C   UNL A   1      43.708  27.461  36.587  1.00  0.00     0.135 A 
ATOM     41  F   UNL A   1      45.640  29.738  34.507  1.00  0.00    -0.206 F 
ATOM     42  C   UNL A   1      46.360  28.102  36.027  1.00  0.00     0.059 A 
ATOM     43  C   UNL A   1      44.729  26.779  37.244  1.00  0.00     0.059 A 
ATOM     44  F   UNL A   1      42.439  27.124  36.871  1.00  0.00    -0.206 F 
ATOM     45  C   UNL A   1      46.053  27.100  36.949  1.00  0.00     0.060 A 
BRANCH  45  46
ATOM     46  S   UNL A   1      47.411  26.232  37.764  1.00  0.00     0.124 S 
ATOM     47  O   UNL A   1      47.343  26.787  39.113  1.00  0.00    -0.237 OA
ATOM     48  O   UNL A   1      47.012  24.835  37.634  1.00  0.00    -0.237 OA
ATOM     49  O   UNL A   1      48.582  26.622  36.984  1.00  0.00    -0.744 OA
ENDBRANCH  45  46
ENDBRANCH  24  38
BRANCH  25  50
ATOM     50  C   UNL A   1      36.552  33.346  31.007  1.00  0.00     0.058 A 
ATOM     51  C   UNL A   1      36.766  34.101  29.847  1.00  0.00     0.135 A 
ATOM     52  C   UNL A   1      35.238  33.256  31.495  1.00  0.00     0.135 A 
ATOM     53  F   UNL A   1      38.005  34.217  29.340  1.00  0.00    -0.206 F 
ATOM     54  C   UNL A   1      35.723  34.758  29.203  1.00  0.00     0.059 A 
ATOM     55  C   UNL A   1      34.174  33.877  30.853  1.00  0.00     0.059 A 
ATOM     56  F   UNL A   1      34.975  32.526  32.592  1.00  0.00    -0.206 F 
ATOM     57  C   UNL A   1      34.429  34.640  29.715  1.00  0.00     0.060 A 
BRANCH  57  58
ATOM     58  S   UNL A   1      33.071  35.463  28.858  1.00  0.00     0.124 S 
ATOM     59  O   UNL A   1      32.279  35.961  29.977  1.00  0.00    -0.237 OA
ATOM     60  O   UNL A   1      33.768  36.474  28.070  1.00  0.00    -0.237 OA
ATOM     61  O   UNL A   1      32.464  34.385  28.083  1.00  0.00    -0.744 OA
ENDBRANCH  57  58
ENDBRANCH  25  50
BRANCH  37  62
ATOM     62  C   UNL A   1      39.913  34.288  37.033  1.00  0.00     0.058 A 
ATOM     63  C   UNL A   1      39.119  34.062  38.167  1.00  0.00     0.135 A 
ATOM     64  C   UNL A   1      40.586  35.515  36.932  1.00  0.00     0.135 A 
ATOM     65  F   UNL A   1      38.448  32.907  38.305  1.00  0.00    -0.206 F 
ATOM     66  C   UNL A   1      38.968  35.033  39.152  1.00  0.00     0.059 A 
ATOM     67  C   UNL A   1      40.471  36.491  37.917  1.00  0.00     0.059 A 
ATOM     68  F   UNL A   1      41.365  35.775  35.870  1.00  0.00    -0.206 F 
ATOM     69  C   UNL A   1      39.645  36.246  39.014  1.00  0.00     0.060 A 
BRANCH  69  70
ATOM     70  S   UNL A   1      39.447  37.498  40.299  1.00  0.00     0.124 S 
ATOM     71  O   UNL A   1      38.830  36.723  41.370  1.00  0.00    -0.237 OA
ATOM     72  O   UNL A   1      40.822  37.925  40.536  1.00  0.00    -0.237 OA
ATOM     73  O   UNL A   1      38.587  38.496  39.669  1.00  0.00    -0.744 OA
ENDBRANCH  69  70
ENDBRANCH  37  62
ENDBRANCH  11  12
ENDBRANCH   4   6
ENDBRANCH   1   2
BRANCH   1  74
ATOM     74  C   UNL A   1      40.080  21.822  26.749  1.00  0.00     0.042 C 
BRANCH  74  75
ATOM     75  C   UNL A   1      41.032  20.898  27.482  1.00  0.00     0.118 C 
BRANCH  75  76
ATOM     76  N   UNL A   1      41.742  20.009  26.584  1.00  0.00    -0.351 N 
ATOM     77  C   UNL A   1      42.775  20.200  25.727  1.00  0.00     0.278 C 
ATOM     78  H   UNL A   1      41.406  19.083  26.599  1.00  0.00     0.163 HD
ATOM     79  O   UNL A   1      43.235  19.172  25.208  1.00  0.00    -0.268 OA
BRANCH  77  80
ATOM     80  C   UNL A   1      43.406  21.568  25.381  1.00  0.00     0.273 C 
ATOM     81  C   UNL A   1      44.175  22.361  26.413  1.00  0.00     0.082 C 
ATOM     82  N   UNL A   1      44.280  21.488  24.180  1.00  0.00    -0.329 N 
ATOM     83  C   UNL A   1      45.641  22.264  26.006  1.00  0.00     0.078 C 
ATOM     84  C   UNL A   1      45.681  21.564  24.646  1.00  0.00     0.251 C 
ATOM     85  H   UNL A   1      44.079  22.264  23.550  1.00  0.00     0.347 HD
ATOM     86  H   UNL A   1      44.116  20.617  23.674  1.00  0.00     0.347 HD
BRANCH  84  87
ATOM     87  C   UNL A   1      46.446  20.221  24.612  1.00  0.00     0.399 C 
ATOM     88  F   UNL A   1      46.371  19.607  25.821  1.00  0.00    -0.204 F 
ATOM     89  F   UNL A   1      45.930  19.357  23.711  1.00  0.00    -0.204 F 
ENDBRANCH  84  87
ENDBRANCH  77  80
ENDBRANCH  75  76
ENDBRANCH  74  75
ENDBRANCH   1  74
TORSDOF 14
ENDMDL
MODEL 3
REMARK VINA RESULT:     -10.5      2.587      9.062
REMARK SMILES O=C(NCCCNC(=O)[C@H]1CC[C@@H](C(F)F)[NH2+]1)c1ccc(-c2c3nc(c(-c4c(F)cc(S(=O)(=O)[O-])cc4F)c4ccc([nH]4)c(-c4c(F)cc(S(=O)(=O)[O-])cc4F)c4nc(c(-c5c(F)cc(S(=O)(=O)[O-])cc5F)c5ccc2[nH]5)C=C4)C=C3)cc1
REMARK SMILES IDX 4 1 3 2 1 3 2 4 18 6 19 7 83 8 20 9 82 10 21 11 22 12 23 13
REMARK SMILES IDX 76 14 24 15 81 16 75 17 77 18 25 19 80 20 74 21 73 22 26 24
REMARK SMILES IDX 60 25 39 26 59 27 40 28 43 29 58 30 78 31 41 32 42 33 57 35
REMARK SMILES IDX 79 36 44 37 27 38 28 39 37 40 29 41 30 42 36 43 38 44 31 45
REMARK SMILES IDX 32 46 33 47 34 48 35 49 61 50 62 51 71 52 63 53 64 54 70 55
REMARK SMILES IDX 72 56 65 57 66 58 67 59 68 60 69 61 45 62 46 63 55 64 47 65
REMARK SMILES IDX 48 66 54 67 56 68 49 69 50 70 51 71 52 72 53 73 5 74 6 75
REMARK SMILES IDX 7 76 8 77 9 79 10 80 11 81 17 82 12 83 13 84 14 87 15 88
REMARK SMILES IDX 16 89
REMARK H PARENT 3 5 77 23 43 34 7 78 17 85 17 86
REMARK Flexibility Score: inf
ROOT
ATOM      1  C   UNL A   1      35.332  30.397  28.254  1.00  0.00     0.118 C 
ENDROOT
BRANCH   1   2
ATOM      2  N   UNL A   1      35.472  30.513  29.706  1.00  0.00    -0.352 N 
ATOM      3  O   UNL A   1      36.332  30.137  31.752  1.00  0.00    -0.269 OA
ATOM      4  C   UNL A   1      36.510  30.167  30.541  1.00  0.00     0.251 C 
ATOM      5  H   UNL A   1      34.693  30.906  30.162  1.00  0.00     0.163 HD
BRANCH   4   6
ATOM      6  C   UNL A   1      37.830  29.816  29.973  1.00  0.00     0.039 A 
ATOM      7  C   UNL A   1      38.816  29.268  30.786  1.00  0.00     0.014 A 
ATOM      8  C   UNL A   1      38.085  30.018  28.612  1.00  0.00     0.014 A 
ATOM      9  C   UNL A   1      40.107  29.129  30.305  1.00  0.00     0.010 A 
ATOM     10  C   UNL A   1      39.352  29.731  28.091  1.00  0.00     0.010 A 
ATOM     11  C   UNL A   1      40.386  29.317  28.943  1.00  0.00    -0.014 A 
BRANCH  11  12
ATOM     12  C   UNL A   1      41.752  28.986  28.460  1.00  0.00     0.031 A 
ATOM     13  C   UNL A   1      42.864  29.998  28.484  1.00  0.00     0.074 A 
ATOM     14  C   UNL A   1      41.992  27.714  28.078  1.00  0.00     0.049 A 
ATOM     15  N   UNL A   1      44.122  29.837  28.158  1.00  0.00    -0.248 NA
ATOM     16  C   UNL A   1      42.528  31.364  28.915  1.00  0.00     0.031 C 
ATOM     17  C   UNL A   1      40.980  26.655  27.994  1.00  0.00     0.029 A 
ATOM     18  N   UNL A   1      43.157  27.079  27.735  1.00  0.00    -0.354 N 
ATOM     19  C   UNL A   1      44.723  31.078  28.328  1.00  0.00     0.074 A 
ATOM     20  C   UNL A   1      43.687  31.991  28.759  1.00  0.00     0.031 C 
ATOM     21  C   UNL A   1      41.577  25.491  27.709  1.00  0.00     0.029 A 
ATOM     22  C   UNL A   1      42.997  25.732  27.502  1.00  0.00     0.049 A 
ATOM     23  H   UNL A   1      44.023  27.540  27.664  1.00  0.00     0.167 HD
ATOM     24  C   UNL A   1      46.024  31.417  28.149  1.00  0.00     0.037 A 
ATOM     25  C   UNL A   1      43.890  24.793  27.140  1.00  0.00     0.037 A 
ATOM     26  C   UNL A   1      47.048  30.493  27.731  1.00  0.00     0.049 A 
ATOM     27  C   UNL A   1      45.322  25.198  26.956  1.00  0.00     0.074 A 
ATOM     28  C   UNL A   1      48.393  30.737  27.512  1.00  0.00     0.029 A 
ATOM     29  N   UNL A   1      46.844  29.143  27.478  1.00  0.00    -0.354 N 
ATOM     30  N   UNL A   1      45.867  26.380  27.115  1.00  0.00    -0.248 NA
ATOM     31  C   UNL A   1      46.257  24.149  26.535  1.00  0.00     0.031 C 
ATOM     32  C   UNL A   1      48.995  29.544  27.098  1.00  0.00     0.029 A 
ATOM     33  C   UNL A   1      48.035  28.544  27.100  1.00  0.00     0.049 A 
ATOM     34  H   UNL A   1      45.979  28.678  27.556  1.00  0.00     0.167 HD
ATOM     35  C   UNL A   1      47.212  26.218  26.812  1.00  0.00     0.074 A 
ATOM     36  C   UNL A   1      47.402  24.816  26.496  1.00  0.00     0.031 C 
ATOM     37  C   UNL A   1      48.199  27.147  26.785  1.00  0.00     0.037 A 
BRANCH  24  38
ATOM     38  C   UNL A   1      46.416  32.849  28.397  1.00  0.00     0.058 A 
ATOM     39  C   UNL A   1      46.354  33.815  27.379  1.00  0.00     0.135 A 
ATOM     40  C   UNL A   1      46.805  33.275  29.678  1.00  0.00     0.135 A 
ATOM     41  F   UNL A   1      46.004  33.463  26.133  1.00  0.00    -0.206 F 
ATOM     42  C   UNL A   1      46.682  35.147  27.618  1.00  0.00     0.059 A 
ATOM     43  C   UNL A   1      47.115  34.606  29.945  1.00  0.00     0.059 A 
ATOM     44  F   UNL A   1      46.882  32.394  30.688  1.00  0.00    -0.206 F 
ATOM     45  C   UNL A   1      47.061  35.533  28.905  1.00  0.00     0.060 A 
BRANCH  45  46
ATOM     46  S   UNL A   1      47.470  37.268  29.200  1.00  0.00     0.124 S 
ATOM     47  O   UNL A   1      48.461  37.514  28.157  1.00  0.00    -0.237 OA
ATOM     48  O   UNL A   1      46.181  37.928  29.018  1.00  0.00    -0.237 OA
ATOM     49  O   UNL A   1      47.983  37.269  30.567  1.00  0.00    -0.744 OA
ENDBRANCH  45  46
ENDBRANCH  24  38
BRANCH  25  50
ATOM     50  C   UNL A   1      43.439  23.397  26.901  1.00  0.00     0.058 A 
ATOM     51  C   UNL A   1      43.304  22.883  25.604  1.00  0.00     0.135 A 
ATOM     52  C   UNL A   1      43.155  22.540  27.977  1.00  0.00     0.135 A 
ATOM     53  F   UNL A   1      43.564  23.663  24.543  1.00  0.00    -0.206 F 
ATOM     54  C   UNL A   1      42.887  21.575  25.380  1.00  0.00     0.059 A 
ATOM     55  C   UNL A   1      42.767  21.220  27.779  1.00  0.00     0.059 A 
ATOM     56  F   UNL A   1      43.290  22.976  29.239  1.00  0.00    -0.206 F 
ATOM     57  C   UNL A   1      42.620  20.752  26.475  1.00  0.00     0.060 A 
BRANCH  57  58
ATOM     58  S   UNL A   1      42.114  19.044  26.182  1.00  0.00     0.124 S 
ATOM     59  O   UNL A   1      42.371  18.436  27.483  1.00  0.00    -0.237 OA
ATOM     60  O   UNL A   1      40.709  19.195  25.814  1.00  0.00    -0.237 OA
ATOM     61  O   UNL A   1      42.994  18.617  25.099  1.00  0.00    -0.744 OA
ENDBRANCH  57  58
ENDBRANCH  25  50
BRANCH  37  62
ATOM     62  C   UNL A   1      49.571  26.661  26.414  1.00  0.00     0.058 A 
ATOM     63  C   UNL A   1      50.062  26.784  25.106  1.00  0.00     0.135 A 
ATOM     64  C   UNL A   1      50.403  26.075  27.380  1.00  0.00     0.135 A 
ATOM     65  F   UNL A   1      49.300  27.330  24.145  1.00  0.00    -0.206 F 
ATOM     66  C   UNL A   1      51.322  26.308  24.758  1.00  0.00     0.059 A 
ATOM     67  C   UNL A   1      51.676  25.615  27.060  1.00  0.00     0.059 A 
ATOM     68  F   UNL A   1      49.981  25.943  28.648  1.00  0.00    -0.206 F 
ATOM     69  C   UNL A   1      52.119  25.721  25.741  1.00  0.00     0.060 A 
BRANCH  69  70
ATOM     70  S   UNL A   1      53.754  25.111  25.281  1.00  0.00     0.124 S 
ATOM     71  O   UNL A   1      53.568  23.667  25.386  1.00  0.00    -0.237 OA
ATOM     72  O   UNL A   1      53.914  25.633  23.928  1.00  0.00    -0.237 OA
ATOM     73  O   UNL A   1      54.632  25.706  26.284  1.00  0.00    -0.744 OA
ENDBRANCH  69  70
ENDBRANCH  37  62
ENDBRANCH  11  12
ENDBRANCH   4   6
ENDBRANCH   1   2
BRANCH   1  74
ATOM     74  C   UNL A   1      34.668  31.620  27.642  1.00  0.00     0.042 C 
BRANCH  74  75
ATOM     75  C   UNL A   1      35.392  32.891  28.038  1.00  0.00     0.118 C 
BRANCH  75  76
ATOM     76  N   UNL A   1      34.482  33.935  28.466  1.00  0.00    -0.351 N 
ATOM     77  C   UNL A   1      34.129  34.405  29.687  1.00  0.00     0.278 C 
ATOM     78  H   UNL A   1      34.030  34.394  27.720  1.00  0.00     0.163 HD
ATOM     79  O   UNL A   1      33.417  35.420  29.685  1.00  0.00    -0.268 OA
BRANCH  77  80
ATOM     80  C   UNL A   1      34.559  33.788  31.038  1.00  0.00     0.273 C 
ATOM     81  C   UNL A   1      35.969  33.946  31.560  1.00  0.00     0.082 C 
ATOM     82  N   UNL A   1      33.655  34.196  32.147  1.00  0.00    -0.329 N 
ATOM     83  C   UNL A   1      35.875  34.921  32.728  1.00  0.00     0.078 C 
ATOM     84  C   UNL A   1      34.387  35.178  32.976  1.00  0.00     0.251 C 
ATOM     85  H   UNL A   1      33.404  33.383  32.709  1.00  0.00     0.347 HD
ATOM     86  H   UNL A   1      32.797  34.606  31.779  1.00  0.00     0.347 HD
BRANCH  84  87
ATOM     87  C   UNL A   1      33.926  36.643  32.797  1.00  0.00     0.399 C 
ATOM     88  F   UNL A   1      32.636  36.681  32.377  1.00  0.00    -0.204 F 
ATOM     89  F   UNL A   1      33.974  37.342  33.952  1.00  0.00    -0.204 F 
ENDBRANCH  84  87
ENDBRANCH  77  80
ENDBRANCH  75  76
ENDBRANCH  74  75
ENDBRANCH   1  74
TORSDOF 14
ENDMDL
