MODEL 1
REMARK VINA RESULT:     -11.9      0.000      0.000
REMARK SMILES O=C(NCCCNC(=O)c1cccnc1-c1ccccn1)c1ccc(-c2c3nc(c(-c4c(F)cc(S(=O)(=O)[O-])cc4F)c4ccc([nH]4)c(-c4c(F)cc(S(=O)(=O)[O-])cc4F)c4nc(c(-c5c(F)cc(S(=O)(=O)[O-])cc5F)c5ccc2[nH]5)C=C4)C=C3)cc1
REMARK SMILES IDX 4 1 3 2 1 3 2 4 22 6 23 7 87 8 24 9 86 10 25 11 26 12 27 13
REMARK SMILES IDX 80 14 28 15 85 16 79 17 81 18 29 19 84 20 78 21 77 22 30 24
REMARK SMILES IDX 64 25 43 26 63 27 44 28 47 29 62 30 82 31 45 32 46 33 61 35
REMARK SMILES IDX 83 36 48 37 31 38 32 39 41 40 33 41 34 42 40 43 42 44 35 45
REMARK SMILES IDX 36 46 37 47 38 48 39 49 65 50 66 51 75 52 67 53 68 54 74 55
REMARK SMILES IDX 76 56 69 57 70 58 71 59 72 60 73 61 49 62 50 63 59 64 51 65
REMARK SMILES IDX 52 66 58 67 60 68 53 69 54 70 55 71 56 72 57 73 5 74 6 75
REMARK SMILES IDX 7 76 8 77 9 79 10 80 11 81 15 82 12 83 14 84 13 85 16 86
REMARK SMILES IDX 17 87 21 88 18 89 20 90 19 91
REMARK H PARENT 3 5 81 23 47 34 7 78
REMARK Flexibility Score: inf
ROOT
ATOM      1  C   UNL A   1      38.989  20.415  25.854  1.00  0.00     0.118 C 
ENDROOT
BRANCH   1   2
ATOM      2  N   UNL A   1      40.057  19.436  25.988  1.00  0.00    -0.352 N 
ATOM      3  O   UNL A   1      42.151  18.630  26.054  1.00  0.00    -0.269 OA
ATOM      4  C   UNL A   1      41.411  19.607  26.147  1.00  0.00     0.251 C 
ATOM      5  H   UNL A   1      39.762  18.497  25.960  1.00  0.00     0.163 HD
BRANCH   4   6
ATOM      6  C   UNL A   1      41.985  20.947  26.405  1.00  0.00     0.039 A 
ATOM      7  C   UNL A   1      42.224  21.847  25.365  1.00  0.00     0.014 A 
ATOM      8  C   UNL A   1      42.239  21.329  27.726  1.00  0.00     0.014 A 
ATOM      9  C   UNL A   1      42.848  23.065  25.625  1.00  0.00     0.010 A 
ATOM     10  C   UNL A   1      42.787  22.586  27.995  1.00  0.00     0.010 A 
ATOM     11  C   UNL A   1      43.123  23.454  26.945  1.00  0.00    -0.014 A 
BRANCH  11  12
ATOM     12  C   UNL A   1      43.701  24.794  27.219  1.00  0.00     0.031 A 
ATOM     13  C   UNL A   1      42.842  25.917  27.726  1.00  0.00     0.074 A 
ATOM     14  C   UNL A   1      45.011  24.998  26.981  1.00  0.00     0.049 A 
ATOM     15  N   UNL A   1      43.170  27.162  27.965  1.00  0.00    -0.248 NA
ATOM     16  C   UNL A   1      41.429  25.608  27.991  1.00  0.00     0.031 C 
ATOM     17  C   UNL A   1      45.940  23.987  26.470  1.00  0.00     0.029 A 
ATOM     18  N   UNL A   1      45.787  26.119  27.127  1.00  0.00    -0.354 N 
ATOM     19  C   UNL A   1      42.003  27.791  28.381  1.00  0.00     0.074 A 
ATOM     20  C   UNL A   1      40.954  26.793  28.344  1.00  0.00     0.031 C 
ATOM     21  C   UNL A   1      47.159  24.531  26.351  1.00  0.00     0.029 A 
ATOM     22  C   UNL A   1      47.088  25.941  26.722  1.00  0.00     0.049 A 
ATOM     23  H   UNL A   1      45.445  26.970  27.486  1.00  0.00     0.167 HD
ATOM     24  C   UNL A   1      41.827  29.080  28.762  1.00  0.00     0.037 A 
ATOM     25  C   UNL A   1      48.106  26.816  26.625  1.00  0.00     0.037 A 
ATOM     26  C   UNL A   1      42.882  30.060  28.804  1.00  0.00     0.049 A 
ATOM     27  C   UNL A   1      47.888  28.242  27.039  1.00  0.00     0.074 A 
ATOM     28  C   UNL A   1      42.817  31.376  29.228  1.00  0.00     0.029 A 
ATOM     29  N   UNL A   1      44.190  29.836  28.397  1.00  0.00    -0.354 N 
ATOM     30  N   UNL A   1      46.791  28.807  27.481  1.00  0.00    -0.248 NA
ATOM     31  C   UNL A   1      49.039  29.148  26.942  1.00  0.00     0.031 C 
ATOM     32  C   UNL A   1      44.073  31.961  29.032  1.00  0.00     0.029 A 
ATOM     33  C   UNL A   1      44.935  30.996  28.532  1.00  0.00     0.049 A 
ATOM     34  H   UNL A   1      44.537  28.979  28.061  1.00  0.00     0.167 HD
ATOM     35  C   UNL A   1      47.121  30.133  27.731  1.00  0.00     0.074 A 
ATOM     36  C   UNL A   1      48.524  30.283  27.398  1.00  0.00     0.031 C 
ATOM     37  C   UNL A   1      46.332  31.132  28.196  1.00  0.00     0.037 A 
BRANCH  24  38
ATOM     38  C   UNL A   1      40.433  29.509  29.132  1.00  0.00     0.058 A 
ATOM     39  C   UNL A   1      39.437  29.714  28.163  1.00  0.00     0.135 A 
ATOM     40  C   UNL A   1      40.087  29.714  30.478  1.00  0.00     0.135 A 
ATOM     41  F   UNL A   1      39.715  29.542  26.861  1.00  0.00    -0.206 F 
ATOM     42  C   UNL A   1      38.163  30.153  28.512  1.00  0.00     0.059 A 
ATOM     43  C   UNL A   1      38.812  30.127  30.852  1.00  0.00     0.059 A 
ATOM     44  F   UNL A   1      40.998  29.525  31.446  1.00  0.00    -0.206 F 
ATOM     45  C   UNL A   1      37.863  30.368  29.859  1.00  0.00     0.060 A 
BRANCH  45  46
ATOM     46  S   UNL A   1      36.222  30.983  30.293  1.00  0.00     0.124 S 
ATOM     47  O   UNL A   1      35.469  30.670  29.083  1.00  0.00    -0.237 OA
ATOM     48  O   UNL A   1      35.889  30.188  31.470  1.00  0.00    -0.237 OA
ATOM     49  O   UNL A   1      36.448  32.403  30.543  1.00  0.00    -0.744 OA
ENDBRANCH  45  46
ENDBRANCH  24  38
BRANCH  25  50
ATOM     50  C   UNL A   1      49.410  26.344  26.094  1.00  0.00     0.058 A 
ATOM     51  C   UNL A   1      49.834  26.685  24.803  1.00  0.00     0.135 A 
ATOM     52  C   UNL A   1      50.298  25.622  26.909  1.00  0.00     0.135 A 
ATOM     53  F   UNL A   1      49.019  27.371  23.988  1.00  0.00    -0.206 F 
ATOM     54  C   UNL A   1      51.100  26.339  24.340  1.00  0.00     0.059 A 
ATOM     55  C   UNL A   1      51.576  25.285  26.478  1.00  0.00     0.059 A 
ATOM     56  F   UNL A   1      49.943  25.289  28.160  1.00  0.00    -0.206 F 
ATOM     57  C   UNL A   1      51.968  25.650  25.191  1.00  0.00     0.060 A 
BRANCH  57  58
ATOM     58  S   UNL A   1      53.646  25.301  24.620  1.00  0.00     0.124 S 
ATOM     59  O   UNL A   1      53.786  23.892  24.967  1.00  0.00    -0.237 OA
ATOM     60  O   UNL A   1      53.554  25.601  23.194  1.00  0.00    -0.237 OA
ATOM     61  O   UNL A   1      54.464  26.229  25.394  1.00  0.00    -0.744 OA
ENDBRANCH  57  58
ENDBRANCH  25  50
BRANCH  37  62
ATOM     62  C   UNL A   1      46.964  32.479  28.399  1.00  0.00     0.058 A 
ATOM     63  C   UNL A   1      47.586  32.825  29.608  1.00  0.00     0.135 A 
ATOM     64  C   UNL A   1      47.024  33.401  27.341  1.00  0.00     0.135 A 
ATOM     65  F   UNL A   1      47.545  31.983  30.653  1.00  0.00    -0.206 F 
ATOM     66  C   UNL A   1      48.248  34.038  29.762  1.00  0.00     0.059 A 
ATOM     67  C   UNL A   1      47.699  34.610  27.466  1.00  0.00     0.059 A 
ATOM     68  F   UNL A   1      46.449  33.114  26.163  1.00  0.00    -0.206 F 
ATOM     69  C   UNL A   1      48.306  34.922  28.682  1.00  0.00     0.060 A 
BRANCH  69  70
ATOM     70  S   UNL A   1      49.231  36.461  28.869  1.00  0.00     0.124 S 
ATOM     71  O   UNL A   1      50.201  36.099  29.897  1.00  0.00    -0.237 OA
ATOM     72  O   UNL A   1      49.774  36.664  27.529  1.00  0.00    -0.237 OA
ATOM     73  O   UNL A   1      48.212  37.422  29.278  1.00  0.00    -0.744 OA
ENDBRANCH  69  70
ENDBRANCH  37  62
ENDBRANCH  11  12
ENDBRANCH   4   6
ENDBRANCH   1   2
BRANCH   1  74
ATOM     74  C   UNL A   1      37.846  19.931  24.970  1.00  0.00     0.042 C 
BRANCH  74  75
ATOM     75  C   UNL A   1      36.697  20.918  24.817  1.00  0.00     0.118 C 
BRANCH  75  76
ATOM     76  N   UNL A   1      35.798  20.920  25.963  1.00  0.00    -0.352 N 
ATOM     77  C   UNL A   1      34.437  21.082  26.031  1.00  0.00     0.253 C 
ATOM     78  H   UNL A   1      36.239  20.784  26.832  1.00  0.00     0.163 HD
ATOM     79  O   UNL A   1      33.892  21.106  27.133  1.00  0.00    -0.269 OA
BRANCH  77  80
ATOM     80  C   UNL A   1      33.638  21.201  24.798  1.00  0.00     0.067 A 
ATOM     81  C   UNL A   1      33.446  22.466  24.227  1.00  0.00     0.018 A 
ATOM     82  C   UNL A   1      33.118  20.081  24.146  1.00  0.00     0.101 A 
ATOM     83  C   UNL A   1      32.676  22.593  23.078  1.00  0.00     0.021 A 
ATOM     84  N   UNL A   1      32.348  20.207  23.022  1.00  0.00    -0.254 NA
ATOM     85  C   UNL A   1      32.145  21.445  22.522  1.00  0.00     0.112 A 
BRANCH  82  86
ATOM     86  C   UNL A   1      33.334  18.695  24.596  1.00  0.00     0.089 A 
ATOM     87  C   UNL A   1      34.472  17.969  24.243  1.00  0.00     0.031 A 
ATOM     88  N   UNL A   1      32.359  18.168  25.387  1.00  0.00    -0.255 NA
ATOM     89  C   UNL A   1      34.604  16.657  24.697  1.00  0.00     0.004 A 
ATOM     90  C   UNL A   1      32.514  16.895  25.805  1.00  0.00     0.112 A 
ATOM     91  C   UNL A   1      33.606  16.106  25.489  1.00  0.00     0.020 A 
ENDBRANCH  82  86
ENDBRANCH  77  80
ENDBRANCH  75  76
ENDBRANCH  74  75
ENDBRANCH   1  74
TORSDOF 14
ENDMDL
MODEL 2
REMARK VINA RESULT:     -11.8      3.206      8.640
REMARK SMILES O=C(NCCCNC(=O)c1cccnc1-c1ccccn1)c1ccc(-c2c3nc(c(-c4c(F)cc(S(=O)(=O)[O-])cc4F)c4ccc([nH]4)c(-c4c(F)cc(S(=O)(=O)[O-])cc4F)c4nc(c(-c5c(F)cc(S(=O)(=O)[O-])cc5F)c5ccc2[nH]5)C=C4)C=C3)cc1
REMARK SMILES IDX 4 1 3 2 1 3 2 4 22 6 23 7 87 8 24 9 86 10 25 11 26 12 27 13
REMARK SMILES IDX 80 14 28 15 85 16 79 17 81 18 29 19 84 20 78 21 77 22 30 24
REMARK SMILES IDX 64 25 43 26 63 27 44 28 47 29 62 30 82 31 45 32 46 33 61 35
REMARK SMILES IDX 83 36 48 37 31 38 32 39 41 40 33 41 34 42 40 43 42 44 35 45
REMARK SMILES IDX 36 46 37 47 38 48 39 49 65 50 66 51 75 52 67 53 68 54 74 55
REMARK SMILES IDX 76 56 69 57 70 58 71 59 72 60 73 61 49 62 50 63 59 64 51 65
REMARK SMILES IDX 52 66 58 67 60 68 53 69 54 70 55 71 56 72 57 73 5 74 6 75
REMARK SMILES IDX 7 76 8 77 9 79 10 80 11 81 15 82 12 83 14 84 13 85 16 86
REMARK SMILES IDX 17 87 21 88 18 89 20 90 19 91
REMARK H PARENT 3 5 81 23 47 34 7 78
REMARK Flexibility Score: inf
ROOT
ATOM      1  C   UNL A   1      35.594  31.179  28.059  1.00  0.00     0.118 C 
ENDROOT
BRANCH   1   2
ATOM      2  N   UNL A   1      35.473  30.894  29.481  1.00  0.00    -0.352 N 
ATOM      3  O   UNL A   1      35.937  29.954  31.466  1.00  0.00    -0.269 OA
ATOM      4  C   UNL A   1      36.328  30.242  30.338  1.00  0.00     0.251 C 
ATOM      5  H   UNL A   1      34.644  31.221  29.898  1.00  0.00     0.163 HD
BRANCH   4   6
ATOM      6  C   UNL A   1      37.695  29.868  29.911  1.00  0.00     0.039 A 
ATOM      7  C   UNL A   1      38.048  29.824  28.560  1.00  0.00     0.014 A 
ATOM      8  C   UNL A   1      38.659  29.605  30.889  1.00  0.00     0.014 A 
ATOM      9  C   UNL A   1      39.314  29.381  28.184  1.00  0.00     0.010 A 
ATOM     10  C   UNL A   1      39.955  29.243  30.512  1.00  0.00     0.010 A 
ATOM     11  C   UNL A   1      40.286  29.100  29.156  1.00  0.00    -0.014 A 
BRANCH  11  12
ATOM     12  C   UNL A   1      41.660  28.719  28.743  1.00  0.00     0.031 A 
ATOM     13  C   UNL A   1      42.753  29.746  28.659  1.00  0.00     0.074 A 
ATOM     14  C   UNL A   1      41.911  27.437  28.418  1.00  0.00     0.049 A 
ATOM     15  N   UNL A   1      43.993  29.600  28.264  1.00  0.00    -0.248 NA
ATOM     16  C   UNL A   1      42.411  31.119  29.059  1.00  0.00     0.031 C 
ATOM     17  C   UNL A   1      40.923  26.355  28.443  1.00  0.00     0.029 A 
ATOM     18  N   UNL A   1      43.063  26.825  27.995  1.00  0.00    -0.354 N 
ATOM     19  C   UNL A   1      44.571  30.861  28.342  1.00  0.00     0.074 A 
ATOM     20  C   UNL A   1      43.539  31.766  28.805  1.00  0.00     0.031 C 
ATOM     21  C   UNL A   1      41.511  25.213  28.060  1.00  0.00     0.029 A 
ATOM     22  C   UNL A   1      42.900  25.490  27.708  1.00  0.00     0.049 A 
ATOM     23  H   UNL A   1      43.922  27.296  27.905  1.00  0.00     0.167 HD
ATOM     24  C   UNL A   1      45.845  31.227  28.058  1.00  0.00     0.037 A 
ATOM     25  C   UNL A   1      43.757  24.593  27.187  1.00  0.00     0.037 A 
ATOM     26  C   UNL A   1      46.865  30.314  27.608  1.00  0.00     0.049 A 
ATOM     27  C   UNL A   1      45.160  25.020  26.866  1.00  0.00     0.074 A 
ATOM     28  C   UNL A   1      48.198  30.576  27.347  1.00  0.00     0.029 A 
ATOM     29  N   UNL A   1      46.663  28.967  27.341  1.00  0.00    -0.354 N 
ATOM     30  N   UNL A   1      45.705  26.205  26.997  1.00  0.00    -0.248 NA
ATOM     31  C   UNL A   1      46.063  23.995  26.329  1.00  0.00     0.031 C 
ATOM     32  C   UNL A   1      48.791  29.399  26.876  1.00  0.00     0.029 A 
ATOM     33  C   UNL A   1      47.839  28.391  26.890  1.00  0.00     0.049 A 
ATOM     34  H   UNL A   1      45.809  28.492  27.454  1.00  0.00     0.167 HD
ATOM     35  C   UNL A   1      47.020  26.068  26.573  1.00  0.00     0.074 A 
ATOM     36  C   UNL A   1      47.191  24.681  26.189  1.00  0.00     0.031 C 
ATOM     37  C   UNL A   1      47.996  27.007  26.511  1.00  0.00     0.037 A 
BRANCH  24  38
ATOM     38  C   UNL A   1      46.194  32.684  28.195  1.00  0.00     0.058 A 
ATOM     39  C   UNL A   1      46.035  33.590  27.134  1.00  0.00     0.135 A 
ATOM     40  C   UNL A   1      46.694  33.182  29.410  1.00  0.00     0.135 A 
ATOM     41  F   UNL A   1      45.571  33.166  25.948  1.00  0.00    -0.206 F 
ATOM     42  C   UNL A   1      46.402  34.926  27.257  1.00  0.00     0.059 A 
ATOM     43  C   UNL A   1      47.042  34.521  29.565  1.00  0.00     0.059 A 
ATOM     44  F   UNL A   1      46.860  32.363  30.460  1.00  0.00    -0.206 F 
ATOM     45  C   UNL A   1      46.916  35.380  28.474  1.00  0.00     0.060 A 
BRANCH  45  46
ATOM     46  S   UNL A   1      47.433  37.105  28.605  1.00  0.00     0.124 S 
ATOM     47  O   UNL A   1      46.156  37.772  28.833  1.00  0.00    -0.237 OA
ATOM     48  O   UNL A   1      48.343  37.075  29.746  1.00  0.00    -0.237 OA
ATOM     49  O   UNL A   1      48.060  37.371  27.314  1.00  0.00    -0.744 OA
ENDBRANCH  45  46
ENDBRANCH  24  38
BRANCH  25  50
ATOM     50  C   UNL A   1      43.280  23.210  26.930  1.00  0.00     0.058 A 
ATOM     51  C   UNL A   1      43.090  22.739  25.625  1.00  0.00     0.135 A 
ATOM     52  C   UNL A   1      43.100  22.305  27.990  1.00  0.00     0.135 A 
ATOM     53  F   UNL A   1      43.249  23.568  24.582  1.00  0.00    -0.206 F 
ATOM     54  C   UNL A   1      42.751  21.413  25.375  1.00  0.00     0.059 A 
ATOM     55  C   UNL A   1      42.783  20.970  27.764  1.00  0.00     0.059 A 
ATOM     56  F   UNL A   1      43.290  22.707  29.256  1.00  0.00    -0.206 F 
ATOM     57  C   UNL A   1      42.612  20.534  26.452  1.00  0.00     0.060 A 
BRANCH  57  58
ATOM     58  S   UNL A   1      42.277  18.791  26.111  1.00  0.00     0.124 S 
ATOM     59  O   UNL A   1      40.865  18.829  25.752  1.00  0.00    -0.237 OA
ATOM     60  O   UNL A   1      43.207  18.508  25.021  1.00  0.00    -0.237 OA
ATOM     61  O   UNL A   1      42.592  18.136  27.376  1.00  0.00    -0.744 OA
ENDBRANCH  57  58
ENDBRANCH  25  50
BRANCH  37  62
ATOM     62  C   UNL A   1      49.350  26.571  26.031  1.00  0.00     0.058 A 
ATOM     63  C   UNL A   1      49.768  26.789  24.710  1.00  0.00     0.135 A 
ATOM     64  C   UNL A   1      50.272  26.007  26.928  1.00  0.00     0.135 A 
ATOM     65  F   UNL A   1      48.920  27.314  23.812  1.00  0.00    -0.206 F 
ATOM     66  C   UNL A   1      51.055  26.465  24.294  1.00  0.00     0.059 A 
ATOM     67  C   UNL A   1      51.570  25.695  26.539  1.00  0.00     0.059 A 
ATOM     68  F   UNL A   1      49.922  25.783  28.205  1.00  0.00    -0.206 F 
ATOM     69  C   UNL A   1      51.952  25.926  25.218  1.00  0.00     0.060 A 
BRANCH  69  70
ATOM     70  S   UNL A   1      53.642  25.577  24.685  1.00  0.00     0.124 S 
ATOM     71  O   UNL A   1      53.620  26.056  23.307  1.00  0.00    -0.237 OA
ATOM     72  O   UNL A   1      54.434  26.372  25.619  1.00  0.00    -0.237 OA
ATOM     73  O   UNL A   1      53.758  24.132  24.847  1.00  0.00    -0.744 OA
ENDBRANCH  69  70
ENDBRANCH  37  62
ENDBRANCH  11  12
ENDBRANCH   4   6
ENDBRANCH   1   2
BRANCH   1  74
ATOM     74  C   UNL A   1      34.399  30.689  27.251  1.00  0.00     0.042 C 
BRANCH  74  75
ATOM     75  C   UNL A   1      34.297  29.176  27.119  1.00  0.00     0.118 C 
BRANCH  75  76
ATOM     76  N   UNL A   1      33.113  28.631  27.769  1.00  0.00    -0.352 N 
ATOM     77  C   UNL A   1      31.921  28.201  27.241  1.00  0.00     0.253 C 
ATOM     78  H   UNL A   1      33.177  28.559  28.749  1.00  0.00     0.163 HD
ATOM     79  O   UNL A   1      31.030  27.828  28.001  1.00  0.00    -0.269 OA
BRANCH  77  80
ATOM     80  C   UNL A   1      31.723  28.164  25.780  1.00  0.00     0.067 A 
ATOM     81  C   UNL A   1      31.386  29.345  25.106  1.00  0.00     0.018 A 
ATOM     82  C   UNL A   1      31.924  26.998  25.039  1.00  0.00     0.101 A 
ATOM     83  C   UNL A   1      31.175  29.317  23.733  1.00  0.00     0.021 A 
ATOM     84  N   UNL A   1      31.702  26.967  23.689  1.00  0.00    -0.254 NA
ATOM     85  C   UNL A   1      31.335  28.113  23.076  1.00  0.00     0.112 A 
BRANCH  82  86
ATOM     86  C   UNL A   1      32.372  25.721  25.621  1.00  0.00     0.089 A 
ATOM     87  C   UNL A   1      33.702  25.304  25.561  1.00  0.00     0.031 A 
ATOM     88  N   UNL A   1      31.409  24.976  26.232  1.00  0.00    -0.255 NA
ATOM     89  C   UNL A   1      34.052  24.078  26.126  1.00  0.00     0.004 A 
ATOM     90  C   UNL A   1      31.779  23.792  26.764  1.00  0.00     0.112 A 
ATOM     91  C   UNL A   1      33.073  23.304  26.735  1.00  0.00     0.020 A 
ENDBRANCH  82  86
ENDBRANCH  77  80
ENDBRANCH  75  76
ENDBRANCH  74  75
ENDBRANCH   1  74
TORSDOF 14
ENDMDL
MODEL 3
REMARK VINA RESULT:     -11.7      0.598      8.528
REMARK SMILES O=C(NCCCNC(=O)c1cccnc1-c1ccccn1)c1ccc(-c2c3nc(c(-c4c(F)cc(S(=O)(=O)[O-])cc4F)c4ccc([nH]4)c(-c4c(F)cc(S(=O)(=O)[O-])cc4F)c4nc(c(-c5c(F)cc(S(=O)(=O)[O-])cc5F)c5ccc2[nH]5)C=C4)C=C3)cc1
REMARK SMILES IDX 4 1 3 2 1 3 2 4 22 6 23 7 87 8 24 9 86 10 25 11 26 12 27 13
REMARK SMILES IDX 80 14 28 15 85 16 79 17 81 18 29 19 84 20 78 21 77 22 30 24
REMARK SMILES IDX 64 25 43 26 63 27 44 28 47 29 62 30 82 31 45 32 46 33 61 35
REMARK SMILES IDX 83 36 48 37 31 38 32 39 41 40 33 41 34 42 40 43 42 44 35 45
REMARK SMILES IDX 36 46 37 47 38 48 39 49 65 50 66 51 75 52 67 53 68 54 74 55
REMARK SMILES IDX 76 56 69 57 70 58 71 59 72 60 73 61 49 62 50 63 59 64 51 65
REMARK SMILES IDX 52 66 58 67 60 68 53 69 54 70 55 71 56 72 57 73 5 74 6 75
REMARK SMILES IDX 7 76 8 77 9 79 10 80 11 81 15 82 12 83 14 84 13 85 16 86
REMARK SMILES IDX 17 87 21 88 18 89 20 90 19 91
REMARK H PARENT 3 5 81 23 47 34 7 78
REMARK Flexibility Score: inf
ROOT
ATOM      1  C   UNL A   1      39.032  20.540  25.735  1.00  0.00     0.118 C 
ENDROOT
BRANCH   1   2
ATOM      2  N   UNL A   1      40.092  19.577  26.001  1.00  0.00    -0.352 N 
ATOM      3  O   UNL A   1      42.177  18.798  26.286  1.00  0.00    -0.269 OA
ATOM      4  C   UNL A   1      41.425  19.769  26.276  1.00  0.00     0.251 C 
ATOM      5  H   UNL A   1      39.807  18.635  25.982  1.00  0.00     0.163 HD
BRANCH   4   6
ATOM      6  C   UNL A   1      41.962  21.124  26.535  1.00  0.00     0.039 A 
ATOM      7  C   UNL A   1      42.266  21.550  27.829  1.00  0.00     0.014 A 
ATOM      8  C   UNL A   1      42.213  21.968  25.449  1.00  0.00     0.014 A 
ATOM      9  C   UNL A   1      42.684  22.860  28.052  1.00  0.00     0.010 A 
ATOM     10  C   UNL A   1      42.714  23.254  25.666  1.00  0.00     0.010 A 
ATOM     11  C   UNL A   1      42.926  23.722  26.972  1.00  0.00    -0.014 A 
BRANCH  11  12
ATOM     12  C   UNL A   1      43.461  25.086  27.216  1.00  0.00     0.031 A 
ATOM     13  C   UNL A   1      44.906  25.406  26.957  1.00  0.00     0.074 A 
ATOM     14  C   UNL A   1      42.634  26.032  27.700  1.00  0.00     0.049 A 
ATOM     15  N   UNL A   1      45.552  26.525  27.167  1.00  0.00    -0.248 NA
ATOM     16  C   UNL A   1      45.738  24.329  26.400  1.00  0.00     0.031 C 
ATOM     17  C   UNL A   1      41.216  25.832  28.008  1.00  0.00     0.029 A 
ATOM     18  N   UNL A   1      42.863  27.344  28.026  1.00  0.00    -0.354 N 
ATOM     19  C   UNL A   1      46.868  26.282  26.795  1.00  0.00     0.074 A 
ATOM     20  C   UNL A   1      46.933  24.901  26.363  1.00  0.00     0.031 C 
ATOM     21  C   UNL A   1      40.700  26.979  28.471  1.00  0.00     0.029 A 
ATOM     22  C   UNL A   1      41.760  27.979  28.547  1.00  0.00     0.049 A 
ATOM     23  H   UNL A   1      43.732  27.788  27.901  1.00  0.00     0.167 HD
ATOM     24  C   UNL A   1      47.922  27.134  26.809  1.00  0.00     0.037 A 
ATOM     25  C   UNL A   1      41.620  29.214  29.062  1.00  0.00     0.037 A 
ATOM     26  C   UNL A   1      47.842  28.509  27.231  1.00  0.00     0.049 A 
ATOM     27  C   UNL A   1      42.802  30.139  29.082  1.00  0.00     0.074 A 
ATOM     28  C   UNL A   1      48.839  29.469  27.231  1.00  0.00     0.029 A 
ATOM     29  N   UNL A   1      46.703  29.118  27.742  1.00  0.00    -0.354 N 
ATOM     30  N   UNL A   1      44.027  29.910  28.675  1.00  0.00    -0.248 NA
ATOM     31  C   UNL A   1      42.586  31.485  29.625  1.00  0.00     0.031 C 
ATOM     32  C   UNL A   1      48.317  30.643  27.785  1.00  0.00     0.029 A 
ATOM     33  C   UNL A   1      46.981  30.431  28.086  1.00  0.00     0.049 A 
ATOM     34  H   UNL A   1      45.828  28.680  27.845  1.00  0.00     0.167 HD
ATOM     35  C   UNL A   1      44.728  31.087  28.900  1.00  0.00     0.074 A 
ATOM     36  C   UNL A   1      43.786  32.030  29.471  1.00  0.00     0.031 C 
ATOM     37  C   UNL A   1      46.033  31.360  28.653  1.00  0.00     0.037 A 
BRANCH  24  38
ATOM     38  C   UNL A   1      49.259  26.590  26.384  1.00  0.00     0.058 A 
ATOM     39  C   UNL A   1      50.077  25.859  27.262  1.00  0.00     0.135 A 
ATOM     40  C   UNL A   1      49.728  26.800  25.077  1.00  0.00     0.135 A 
ATOM     41  F   UNL A   1      49.683  25.637  28.526  1.00  0.00    -0.206 F 
ATOM     42  C   UNL A   1      51.330  25.398  26.873  1.00  0.00     0.059 A 
ATOM     43  C   UNL A   1      50.967  26.325  24.658  1.00  0.00     0.059 A 
ATOM     44  F   UNL A   1      48.984  27.486  24.194  1.00  0.00    -0.206 F 
ATOM     45  C   UNL A   1      51.772  25.646  25.571  1.00  0.00     0.060 A 
BRANCH  45  46
ATOM     46  S   UNL A   1      53.420  25.084  25.094  1.00  0.00     0.124 S 
ATOM     47  O   UNL A   1      53.497  25.553  23.715  1.00  0.00    -0.237 OA
ATOM     48  O   UNL A   1      54.278  25.778  26.048  1.00  0.00    -0.237 OA
ATOM     49  O   UNL A   1      53.346  23.635  25.261  1.00  0.00    -0.744 OA
ENDBRANCH  45  46
ENDBRANCH  24  38
BRANCH  25  50
ATOM     50  C   UNL A   1      40.300  29.616  29.612  1.00  0.00     0.058 A 
ATOM     51  C   UNL A   1      40.097  29.742  30.991  1.00  0.00     0.135 A 
ATOM     52  C   UNL A   1      39.245  29.977  28.755  1.00  0.00     0.135 A 
ATOM     53  F   UNL A   1      41.074  29.407  31.847  1.00  0.00    -0.206 F 
ATOM     54  C   UNL A   1      38.897  30.224  31.507  1.00  0.00     0.059 A 
ATOM     55  C   UNL A   1      38.047  30.482  29.245  1.00  0.00     0.059 A 
ATOM     56  F   UNL A   1      39.402  29.891  27.425  1.00  0.00    -0.206 F 
ATOM     57  C   UNL A   1      37.883  30.603  30.624  1.00  0.00     0.060 A 
BRANCH  57  58
ATOM     58  S   UNL A   1      36.372  31.329  31.298  1.00  0.00     0.124 S 
ATOM     59  O   UNL A   1      35.931  30.286  32.216  1.00  0.00    -0.237 OA
ATOM     60  O   UNL A   1      36.871  32.555  31.916  1.00  0.00    -0.237 OA
ATOM     61  O   UNL A   1      35.539  31.528  30.117  1.00  0.00    -0.744 OA
ENDBRANCH  57  58
ENDBRANCH  25  50
BRANCH  37  62
ATOM     62  C   UNL A   1      46.526  32.742  28.974  1.00  0.00     0.058 A 
ATOM     63  C   UNL A   1      47.137  33.037  30.202  1.00  0.00     0.135 A 
ATOM     64  C   UNL A   1      46.466  33.758  28.007  1.00  0.00     0.135 A 
ATOM     65  F   UNL A   1      47.208  32.103  31.163  1.00  0.00    -0.206 F 
ATOM     66  C   UNL A   1      47.673  34.295  30.461  1.00  0.00     0.059 A 
ATOM     67  C   UNL A   1      47.015  35.016  28.236  1.00  0.00     0.059 A 
ATOM     68  F   UNL A   1      45.897  33.523  26.814  1.00  0.00    -0.206 F 
ATOM     69  C   UNL A   1      47.615  35.275  29.468  1.00  0.00     0.060 A 
BRANCH  69  70
ATOM     70  S   UNL A   1      48.379  36.880  29.788  1.00  0.00     0.124 S 
ATOM     71  O   UNL A   1      47.455  37.785  29.113  1.00  0.00    -0.237 OA
ATOM     72  O   UNL A   1      48.375  36.943  31.246  1.00  0.00    -0.237 OA
ATOM     73  O   UNL A   1      49.697  36.756  29.175  1.00  0.00    -0.744 OA
ENDBRANCH  69  70
ENDBRANCH  37  62
ENDBRANCH  11  12
ENDBRANCH   4   6
ENDBRANCH   1   2
BRANCH   1  74
ATOM     74  C   UNL A   1      37.860  19.937  24.972  1.00  0.00     0.042 C 
BRANCH  74  75
ATOM     75  C   UNL A   1      36.678  20.876  24.773  1.00  0.00     0.118 C 
BRANCH  75  76
ATOM     76  N   UNL A   1      35.782  20.906  25.921  1.00  0.00    -0.352 N 
ATOM     77  C   UNL A   1      34.423  21.084  25.989  1.00  0.00     0.253 C 
ATOM     78  H   UNL A   1      36.223  20.779  26.792  1.00  0.00     0.163 HD
ATOM     79  O   UNL A   1      33.880  21.131  27.091  1.00  0.00    -0.269 OA
BRANCH  77  80
ATOM     80  C   UNL A   1      33.623  21.192  24.756  1.00  0.00     0.067 A 
ATOM     81  C   UNL A   1      33.426  22.453  24.176  1.00  0.00     0.018 A 
ATOM     82  C   UNL A   1      33.105  20.066  24.112  1.00  0.00     0.101 A 
ATOM     83  C   UNL A   1      32.655  22.569  23.027  1.00  0.00     0.021 A 
ATOM     84  N   UNL A   1      32.334  20.182  22.988  1.00  0.00    -0.254 NA
ATOM     85  C   UNL A   1      32.127  21.416  22.479  1.00  0.00     0.112 A 
BRANCH  82  86
ATOM     86  C   UNL A   1      33.326  18.684  24.571  1.00  0.00     0.089 A 
ATOM     87  C   UNL A   1      34.472  17.963  24.234  1.00  0.00     0.031 A 
ATOM     88  N   UNL A   1      32.346  18.155  25.354  1.00  0.00    -0.255 NA
ATOM     89  C   UNL A   1      34.609  16.655  24.696  1.00  0.00     0.004 A 
ATOM     90  C   UNL A   1      32.505  16.884  25.781  1.00  0.00     0.112 A 
ATOM     91  C   UNL A   1      33.606  16.101  25.480  1.00  0.00     0.020 A 
ENDBRANCH  82  86
ENDBRANCH  77  80
ENDBRANCH  75  76
ENDBRANCH  74  75
ENDBRANCH   1  74
TORSDOF 14
ENDMDL
