MODEL 1
REMARK VINA RESULT:     -13.2      0.000      0.000
REMARK SMILES O=C(NCCCNC(=O)[C@@H](Cc1ccccc1)N1C(=O)/C(=C/c2ccncc2)SC1=S)c1ccc(-c2c3nc(c(-c4c(F)cc(S(=O)(=O)[O-])cc4F)c4ccc([nH]4)c(-c4c(F)cc(S(=O)(=O)[O-])cc4F)c4nc(c(-c5c(F)cc(S(=O)(=O)[O-])cc5F)c5ccc2[nH]5)C=C4)C=C3)cc1
REMARK SMILES IDX 4 1 3 2 1 3 2 4 32 6 33 7 97 8 34 9 96 10 35 11 36 12 37 13
REMARK SMILES IDX 90 14 38 15 95 16 89 17 91 18 39 19 94 20 88 21 87 22 40 24
REMARK SMILES IDX 74 25 53 26 73 27 54 28 57 29 72 30 92 31 55 32 56 33 71 35
REMARK SMILES IDX 93 36 58 37 41 38 42 39 51 40 43 41 44 42 50 43 52 44 45 45
REMARK SMILES IDX 46 46 47 47 48 48 49 49 75 50 76 51 85 52 77 53 78 54 84 55
REMARK SMILES IDX 86 56 79 57 80 58 81 59 82 60 83 61 59 62 60 63 69 64 61 65
REMARK SMILES IDX 62 66 68 67 70 68 63 69 64 70 65 71 66 72 67 73 5 74 6 75
REMARK SMILES IDX 7 76 8 77 9 79 10 80 11 81 12 82 13 83 17 84 14 85 16 86
REMARK SMILES IDX 15 87 18 88 19 89 30 90 20 91 21 92 29 93 31 94 22 95 23 96
REMARK SMILES IDX 24 97 28 98 25 99 27 100 26 101
REMARK H PARENT 3 5 91 23 57 34 7 78
REMARK Flexibility Score: inf
ROOT
ATOM      1  C   UNL A   1      38.278  24.005  26.586  1.00  0.00     0.118 C 
ENDROOT
BRANCH   1   2
ATOM      2  N   UNL A   1      39.672  24.025  26.162  1.00  0.00    -0.352 N 
ATOM      3  O   UNL A   1      41.776  24.709  25.861  1.00  0.00    -0.269 OA
ATOM      4  C   UNL A   1      40.731  24.833  26.500  1.00  0.00     0.251 C 
ATOM      5  H   UNL A   1      39.900  23.324  25.510  1.00  0.00     0.163 HD
BRANCH   4   6
ATOM      6  C   UNL A   1      40.652  25.848  27.582  1.00  0.00     0.039 A 
ATOM      7  C   UNL A   1      41.482  26.966  27.621  1.00  0.00     0.014 A 
ATOM      8  C   UNL A   1      39.658  25.709  28.561  1.00  0.00     0.014 A 
ATOM      9  C   UNL A   1      41.447  27.834  28.709  1.00  0.00     0.010 A 
ATOM     10  C   UNL A   1      39.541  26.648  29.591  1.00  0.00     0.010 A 
ATOM     11  C   UNL A   1      40.459  27.704  29.695  1.00  0.00    -0.014 A 
BRANCH  11  12
ATOM     12  C   UNL A   1      40.363  28.709  30.786  1.00  0.00     0.031 A 
ATOM     13  C   UNL A   1      41.244  28.616  32.002  1.00  0.00     0.074 A 
ATOM     14  C   UNL A   1      39.469  29.713  30.675  1.00  0.00     0.049 A 
ATOM     15  N   UNL A   1      41.253  29.366  33.074  1.00  0.00    -0.248 NA
ATOM     16  C   UNL A   1      42.238  27.533  32.021  1.00  0.00     0.031 C 
ATOM     17  C   UNL A   1      38.560  29.909  29.543  1.00  0.00     0.029 A 
ATOM     18  N   UNL A   1      39.173  30.756  31.517  1.00  0.00    -0.354 N 
ATOM     19  C   UNL A   1      42.229  28.831  33.907  1.00  0.00     0.074 A 
ATOM     20  C   UNL A   1      42.772  27.676  33.226  1.00  0.00     0.031 C 
ATOM     21  C   UNL A   1      37.835  31.017  29.744  1.00  0.00     0.029 A 
ATOM     22  C   UNL A   1      38.164  31.565  31.054  1.00  0.00     0.049 A 
ATOM     23  H   UNL A   1      39.640  30.908  32.370  1.00  0.00     0.167 HD
ATOM     24  C   UNL A   1      42.634  29.269  35.125  1.00  0.00     0.037 A 
ATOM     25  C   UNL A   1      37.541  32.612  31.630  1.00  0.00     0.037 A 
ATOM     26  C   UNL A   1      42.083  30.424  35.787  1.00  0.00     0.049 A 
ATOM     27  C   UNL A   1      37.976  33.054  32.995  1.00  0.00     0.074 A 
ATOM     28  C   UNL A   1      42.439  30.967  37.010  1.00  0.00     0.029 A 
ATOM     29  N   UNL A   1      41.051  31.209  35.290  1.00  0.00    -0.354 N 
ATOM     30  N   UNL A   1      38.913  32.549  33.762  1.00  0.00    -0.248 NA
ATOM     31  C   UNL A   1      37.274  34.204  33.579  1.00  0.00     0.031 C 
ATOM     32  C   UNL A   1      41.584  32.042  37.277  1.00  0.00     0.029 A 
ATOM     33  C   UNL A   1      40.741  32.215  36.191  1.00  0.00     0.049 A 
ATOM     34  H   UNL A   1      40.605  31.071  34.423  1.00  0.00     0.167 HD
ATOM     35  C   UNL A   1      38.934  33.336  34.905  1.00  0.00     0.074 A 
ATOM     36  C   UNL A   1      37.917  34.353  34.730  1.00  0.00     0.031 C 
ATOM     37  C   UNL A   1      39.732  33.229  35.998  1.00  0.00     0.037 A 
BRANCH  24  38
ATOM     38  C   UNL A   1      43.695  28.469  35.837  1.00  0.00     0.058 A 
ATOM     39  C   UNL A   1      43.378  27.421  36.716  1.00  0.00     0.135 A 
ATOM     40  C   UNL A   1      45.056  28.752  35.627  1.00  0.00     0.135 A 
ATOM     41  F   UNL A   1      42.096  27.110  36.964  1.00  0.00    -0.206 F 
ATOM     42  C   UNL A   1      44.366  26.716  37.398  1.00  0.00     0.059 A 
ATOM     43  C   UNL A   1      46.062  28.038  36.273  1.00  0.00     0.059 A 
ATOM     44  F   UNL A   1      45.422  29.739  34.794  1.00  0.00    -0.206 F 
ATOM     45  C   UNL A   1      45.707  27.037  37.174  1.00  0.00     0.060 A 
BRANCH  45  46
ATOM     46  S   UNL A   1      46.974  26.141  38.095  1.00  0.00     0.124 S 
ATOM     47  O   UNL A   1      46.927  26.818  39.387  1.00  0.00    -0.237 OA
ATOM     48  O   UNL A   1      46.464  24.774  38.077  1.00  0.00    -0.237 OA
ATOM     49  O   UNL A   1      48.186  26.365  37.313  1.00  0.00    -0.744 OA
ENDBRANCH  45  46
ENDBRANCH  24  38
BRANCH  25  50
ATOM     50  C   UNL A   1      36.434  33.290  30.902  1.00  0.00     0.058 A 
ATOM     51  C   UNL A   1      35.102  33.144  31.312  1.00  0.00     0.135 A 
ATOM     52  C   UNL A   1      36.699  34.153  29.826  1.00  0.00     0.135 A 
ATOM     53  F   UNL A   1      34.798  32.327  32.331  1.00  0.00    -0.206 F 
ATOM     54  C   UNL A   1      34.069  33.831  30.683  1.00  0.00     0.059 A 
ATOM     55  C   UNL A   1      35.687  34.874  29.201  1.00  0.00     0.059 A 
ATOM     56  F   UNL A   1      37.960  34.341  29.409  1.00  0.00    -0.206 F 
ATOM     57  C   UNL A   1      34.373  34.704  29.635  1.00  0.00     0.060 A 
BRANCH  57  58
ATOM     58  S   UNL A   1      33.035  35.656  28.885  1.00  0.00     0.124 S 
ATOM     59  O   UNL A   1      32.374  34.643  28.070  1.00  0.00    -0.237 OA
ATOM     60  O   UNL A   1      32.296  36.117  30.056  1.00  0.00    -0.237 OA
ATOM     61  O   UNL A   1      33.738  36.700  28.146  1.00  0.00    -0.744 OA
ENDBRANCH  57  58
ENDBRANCH  25  50
BRANCH  37  62
ATOM     62  C   UNL A   1      39.583  34.271  37.072  1.00  0.00     0.058 A 
ATOM     63  C   UNL A   1      38.806  34.053  38.220  1.00  0.00     0.135 A 
ATOM     64  C   UNL A   1      40.296  35.479  36.981  1.00  0.00     0.135 A 
ATOM     65  F   UNL A   1      38.096  32.922  38.351  1.00  0.00    -0.206 F 
ATOM     66  C   UNL A   1      38.734  35.000  39.237  1.00  0.00     0.059 A 
ATOM     67  C   UNL A   1      40.261  36.426  37.999  1.00  0.00     0.059 A 
ATOM     68  F   UNL A   1      41.057  35.735  35.905  1.00  0.00    -0.206 F 
ATOM     69  C   UNL A   1      39.473  36.180  39.121  1.00  0.00     0.060 A 
BRANCH  69  70
ATOM     70  S   UNL A   1      39.421  37.370  40.477  1.00  0.00     0.124 S 
ATOM     71  O   UNL A   1      40.780  37.899  40.458  1.00  0.00    -0.237 OA
ATOM     72  O   UNL A   1      38.375  38.291  40.042  1.00  0.00    -0.237 OA
ATOM     73  O   UNL A   1      39.082  36.550  41.636  1.00  0.00    -0.744 OA
ENDBRANCH  69  70
ENDBRANCH  37  62
ENDBRANCH  11  12
ENDBRANCH   4   6
ENDBRANCH   1   2
BRANCH   1  74
ATOM     74  C   UNL A   1      37.324  23.572  25.480  1.00  0.00     0.042 C 
BRANCH  74  75
ATOM     75  C   UNL A   1      37.057  22.070  25.408  1.00  0.00     0.117 C 
BRANCH  75  76
ATOM     76  N   UNL A   1      36.070  21.643  26.382  1.00  0.00    -0.354 N 
ATOM     77  C   UNL A   1      34.714  21.645  26.414  1.00  0.00     0.243 C 
ATOM     78  H   UNL A   1      36.474  21.271  27.200  1.00  0.00     0.163 HD
ATOM     79  O   UNL A   1      34.211  21.229  27.468  1.00  0.00    -0.273 OA
BRANCH  77  80
ATOM     80  C   UNL A   1      33.771  22.175  25.290  1.00  0.00     0.185 C 
BRANCH  80  81
ATOM     81  C   UNL A   1      32.782  21.038  24.889  1.00  0.00     0.071 C 
BRANCH  81  82
ATOM     82  C   UNL A   1      33.189  19.665  24.380  1.00  0.00    -0.045 A 
ATOM     83  C   UNL A   1      32.360  19.088  23.398  1.00  0.00     0.004 A 
ATOM     84  C   UNL A   1      34.319  18.935  24.774  1.00  0.00     0.004 A 
ATOM     85  C   UNL A   1      32.683  17.872  22.791  1.00  0.00     0.000 A 
ATOM     86  C   UNL A   1      34.653  17.723  24.158  1.00  0.00     0.000 A 
ATOM     87  C   UNL A   1      33.842  17.198  23.159  1.00  0.00     0.000 A 
ENDBRANCH  81  82
ENDBRANCH  80  81
BRANCH  80  88
ATOM     88  N   UNL A   1      33.241  23.553  25.387  1.00  0.00    -0.280 N 
ATOM     89  C   UNL A   1      33.631  24.513  24.463  1.00  0.00     0.266 C 
ATOM     90  C   UNL A   1      32.059  23.897  26.022  1.00  0.00     0.149 C 
ATOM     91  O   UNL A   1      34.365  24.355  23.494  1.00  0.00    -0.268 OA
ATOM     92  C   UNL A   1      32.977  25.821  24.756  1.00  0.00     0.081 C 
ATOM     93  S   UNL A   1      31.945  25.646  26.114  1.00  0.00    -0.054 SA
ATOM     94  S   UNL A   1      30.802  22.945  26.566  1.00  0.00    -0.052 S 
ATOM     95  C   UNL A   1      33.171  26.943  24.047  1.00  0.00     0.029 C 
BRANCH  95  96
ATOM     96  C   UNL A   1      32.643  28.240  24.484  1.00  0.00    -0.021 A 
ATOM     97  C   UNL A   1      33.342  28.939  25.469  1.00  0.00     0.028 A 
ATOM     98  C   UNL A   1      31.414  28.729  24.045  1.00  0.00     0.028 A 
ATOM     99  C   UNL A   1      32.777  30.092  25.985  1.00  0.00     0.111 A 
ATOM    100  C   UNL A   1      30.936  29.895  24.622  1.00  0.00     0.111 A 
ATOM    101  N   UNL A   1      31.591  30.589  25.578  1.00  0.00    -0.265 NA
ENDBRANCH  95  96
ENDBRANCH  80  88
ENDBRANCH  77  80
ENDBRANCH  75  76
ENDBRANCH  74  75
ENDBRANCH   1  74
TORSDOF 17
ENDMDL
MODEL 2
REMARK VINA RESULT:     -12.9      0.606      8.149
REMARK SMILES O=C(NCCCNC(=O)[C@@H](Cc1ccccc1)N1C(=O)/C(=C/c2ccncc2)SC1=S)c1ccc(-c2c3nc(c(-c4c(F)cc(S(=O)(=O)[O-])cc4F)c4ccc([nH]4)c(-c4c(F)cc(S(=O)(=O)[O-])cc4F)c4nc(c(-c5c(F)cc(S(=O)(=O)[O-])cc5F)c5ccc2[nH]5)C=C4)C=C3)cc1
REMARK SMILES IDX 4 1 3 2 1 3 2 4 32 6 33 7 97 8 34 9 96 10 35 11 36 12 37 13
REMARK SMILES IDX 90 14 38 15 95 16 89 17 91 18 39 19 94 20 88 21 87 22 40 24
REMARK SMILES IDX 74 25 53 26 73 27 54 28 57 29 72 30 92 31 55 32 56 33 71 35
REMARK SMILES IDX 93 36 58 37 41 38 42 39 51 40 43 41 44 42 50 43 52 44 45 45
REMARK SMILES IDX 46 46 47 47 48 48 49 49 75 50 76 51 85 52 77 53 78 54 84 55
REMARK SMILES IDX 86 56 79 57 80 58 81 59 82 60 83 61 59 62 60 63 69 64 61 65
REMARK SMILES IDX 62 66 68 67 70 68 63 69 64 70 65 71 66 72 67 73 5 74 6 75
REMARK SMILES IDX 7 76 8 77 9 79 10 80 11 81 12 82 13 83 17 84 14 85 16 86
REMARK SMILES IDX 15 87 18 88 19 89 30 90 20 91 21 92 29 93 31 94 22 95 23 96
REMARK SMILES IDX 24 97 28 98 25 99 27 100 26 101
REMARK H PARENT 3 5 91 23 57 34 7 78
REMARK Flexibility Score: inf
ROOT
ATOM      1  C   UNL A   1      38.082  24.130  26.495  1.00  0.00     0.118 C 
ENDROOT
BRANCH   1   2
ATOM      2  N   UNL A   1      39.488  24.166  26.115  1.00  0.00    -0.352 N 
ATOM      3  O   UNL A   1      41.606  24.848  25.927  1.00  0.00    -0.269 OA
ATOM      4  C   UNL A   1      40.543  24.936  26.543  1.00  0.00     0.251 C 
ATOM      5  H   UNL A   1      39.729  23.514  25.418  1.00  0.00     0.163 HD
BRANCH   4   6
ATOM      6  C   UNL A   1      40.440  25.867  27.695  1.00  0.00     0.039 A 
ATOM      7  C   UNL A   1      39.492  25.706  28.705  1.00  0.00     0.014 A 
ATOM      8  C   UNL A   1      41.376  26.905  27.805  1.00  0.00     0.014 A 
ATOM      9  C   UNL A   1      39.361  26.663  29.708  1.00  0.00     0.010 A 
ATOM     10  C   UNL A   1      41.321  27.798  28.881  1.00  0.00     0.010 A 
ATOM     11  C   UNL A   1      40.289  27.706  29.827  1.00  0.00    -0.014 A 
BRANCH  11  12
ATOM     12  C   UNL A   1      40.203  28.649  30.973  1.00  0.00     0.031 A 
ATOM     13  C   UNL A   1      39.208  29.777  30.972  1.00  0.00     0.074 A 
ATOM     14  C   UNL A   1      41.035  28.483  32.022  1.00  0.00     0.049 A 
ATOM     15  N   UNL A   1      39.037  30.728  31.855  1.00  0.00    -0.248 NA
ATOM     16  C   UNL A   1      38.292  29.854  29.824  1.00  0.00     0.031 C 
ATOM     17  C   UNL A   1      42.042  27.426  32.138  1.00  0.00     0.029 A 
ATOM     18  N   UNL A   1      41.170  29.195  33.188  1.00  0.00    -0.354 N 
ATOM     19  C   UNL A   1      38.017  31.531  31.359  1.00  0.00     0.074 A 
ATOM     20  C   UNL A   1      37.626  30.971  30.083  1.00  0.00     0.031 C 
ATOM     21  C   UNL A   1      42.667  27.537  33.317  1.00  0.00     0.029 A 
ATOM     22  C   UNL A   1      42.166  28.719  34.007  1.00  0.00     0.049 A 
ATOM     23  H   UNL A   1      40.607  29.970  33.414  1.00  0.00     0.167 HD
ATOM     24  C   UNL A   1      37.458  32.632  31.921  1.00  0.00     0.037 A 
ATOM     25  C   UNL A   1      42.654  29.198  35.168  1.00  0.00     0.037 A 
ATOM     26  C   UNL A   1      37.858  33.174  33.194  1.00  0.00     0.049 A 
ATOM     27  C   UNL A   1      42.050  30.441  35.751  1.00  0.00     0.074 A 
ATOM     28  C   UNL A   1      37.340  34.269  33.865  1.00  0.00     0.029 A 
ATOM     29  N   UNL A   1      38.882  32.671  33.987  1.00  0.00    -0.354 N 
ATOM     30  N   UNL A   1      41.073  31.179  35.279  1.00  0.00    -0.248 NA
ATOM     31  C   UNL A   1      42.608  30.920  37.021  1.00  0.00     0.031 C 
ATOM     32  C   UNL A   1      38.088  34.462  35.031  1.00  0.00     0.029 A 
ATOM     33  C   UNL A   1      39.027  33.447  35.126  1.00  0.00     0.049 A 
ATOM     34  H   UNL A   1      39.424  31.878  33.771  1.00  0.00     0.167 HD
ATOM     35  C   UNL A   1      40.880  32.193  36.208  1.00  0.00     0.074 A 
ATOM     36  C   UNL A   1      41.840  31.973  37.270  1.00  0.00     0.031 C 
ATOM     37  C   UNL A   1      39.981  33.209  36.183  1.00  0.00     0.037 A 
BRANCH  24  38
ATOM     38  C   UNL A   1      36.384  33.345  31.140  1.00  0.00     0.058 A 
ATOM     39  C   UNL A   1      36.672  34.114  30.001  1.00  0.00     0.135 A 
ATOM     40  C   UNL A   1      35.038  33.250  31.535  1.00  0.00     0.135 A 
ATOM     41  F   UNL A   1      37.941  34.250  29.580  1.00  0.00    -0.206 F 
ATOM     42  C   UNL A   1      35.677  34.800  29.311  1.00  0.00     0.059 A 
ATOM     43  C   UNL A   1      34.021  33.901  30.842  1.00  0.00     0.059 A 
ATOM     44  F   UNL A   1      34.699  32.525  32.613  1.00  0.00    -0.206 F 
ATOM     45  C   UNL A   1      34.353  34.693  29.745  1.00  0.00     0.060 A 
BRANCH  45  46
ATOM     46  S   UNL A   1      33.079  35.620  28.864  1.00  0.00     0.124 S 
ATOM     47  O   UNL A   1      33.889  36.497  28.024  1.00  0.00    -0.237 OA
ATOM     48  O   UNL A   1      32.354  34.565  28.164  1.00  0.00    -0.237 OA
ATOM     49  O   UNL A   1      32.340  36.283  29.933  1.00  0.00    -0.744 OA
ENDBRANCH  45  46
ENDBRANCH  24  38
BRANCH  25  50
ATOM     50  C   UNL A   1      43.783  28.491  35.829  1.00  0.00     0.058 A 
ATOM     51  C   UNL A   1      45.111  28.884  35.613  1.00  0.00     0.135 A 
ATOM     52  C   UNL A   1      43.548  27.453  36.746  1.00  0.00     0.135 A 
ATOM     53  F   UNL A   1      45.387  29.867  34.743  1.00  0.00    -0.206 F 
ATOM     54  C   UNL A   1      46.167  28.276  36.284  1.00  0.00     0.059 A 
ATOM     55  C   UNL A   1      44.584  26.850  37.451  1.00  0.00     0.059 A 
ATOM     56  F   UNL A   1      42.293  27.054  37.002  1.00  0.00    -0.206 F 
ATOM     57  C   UNL A   1      45.892  27.267  37.211  1.00  0.00     0.060 A 
BRANCH  57  58
ATOM     58  S   UNL A   1      47.264  26.546  38.138  1.00  0.00     0.124 S 
ATOM     59  O   UNL A   1      47.335  27.431  39.294  1.00  0.00    -0.237 OA
ATOM     60  O   UNL A   1      46.778  25.194  38.396  1.00  0.00    -0.237 OA
ATOM     61  O   UNL A   1      48.383  26.634  37.205  1.00  0.00    -0.744 OA
ENDBRANCH  57  58
ENDBRANCH  25  50
BRANCH  37  62
ATOM     62  C   UNL A   1      39.947  34.136  37.367  1.00  0.00     0.058 A 
ATOM     63  C   UNL A   1      40.651  35.349  37.386  1.00  0.00     0.135 A 
ATOM     64  C   UNL A   1      39.131  33.833  38.470  1.00  0.00     0.135 A 
ATOM     65  F   UNL A   1      41.454  35.680  36.363  1.00  0.00    -0.206 F 
ATOM     66  C   UNL A   1      40.554  36.227  38.461  1.00  0.00     0.059 A 
ATOM     67  C   UNL A   1      38.995  34.710  39.542  1.00  0.00     0.059 A 
ATOM     68  F   UNL A   1      38.432  32.687  38.501  1.00  0.00    -0.206 F 
ATOM     69  C   UNL A   1      39.716  35.902  39.530  1.00  0.00     0.060 A 
BRANCH  69  70
ATOM     70  S   UNL A   1      39.550  37.080  40.888  1.00  0.00     0.124 S 
ATOM     71  O   UNL A   1      40.938  37.470  41.111  1.00  0.00    -0.237 OA
ATOM     72  O   UNL A   1      38.688  38.105  40.308  1.00  0.00    -0.237 OA
ATOM     73  O   UNL A   1      38.942  36.288  41.953  1.00  0.00    -0.744 OA
ENDBRANCH  69  70
ENDBRANCH  37  62
ENDBRANCH  11  12
ENDBRANCH   4   6
ENDBRANCH   1   2
BRANCH   1  74
ATOM     74  C   UNL A   1      37.168  23.682  25.361  1.00  0.00     0.042 C 
BRANCH  74  75
ATOM     75  C   UNL A   1      36.778  22.206  25.389  1.00  0.00     0.117 C 
BRANCH  75  76
ATOM     76  N   UNL A   1      35.845  21.907  26.459  1.00  0.00    -0.354 N 
ATOM     77  C   UNL A   1      34.498  21.764  26.523  1.00  0.00     0.243 C 
ATOM     78  H   UNL A   1      36.287  21.782  27.331  1.00  0.00     0.163 HD
ATOM     79  O   UNL A   1      34.044  21.549  27.656  1.00  0.00    -0.273 OA
BRANCH  77  80
ATOM     80  C   UNL A   1      33.503  21.910  25.331  1.00  0.00     0.185 C 
BRANCH  80  81
ATOM     81  C   UNL A   1      32.682  20.591  25.198  1.00  0.00     0.071 C 
BRANCH  81  82
ATOM     82  C   UNL A   1      33.102  19.379  24.384  1.00  0.00    -0.045 A 
ATOM     83  C   UNL A   1      34.310  18.759  24.759  1.00  0.00     0.004 A 
ATOM     84  C   UNL A   1      32.393  18.808  23.318  1.00  0.00     0.004 A 
ATOM     85  C   UNL A   1      34.751  17.585  24.142  1.00  0.00     0.000 A 
ATOM     86  C   UNL A   1      32.825  17.625  22.707  1.00  0.00     0.000 A 
ATOM     87  C   UNL A   1      33.997  17.008  23.127  1.00  0.00     0.000 A 
ENDBRANCH  81  82
ENDBRANCH  80  81
BRANCH  80  88
ATOM     88  N   UNL A   1      32.788  23.193  25.144  1.00  0.00    -0.280 N 
ATOM     89  C   UNL A   1      32.999  23.944  23.996  1.00  0.00     0.266 C 
ATOM     90  C   UNL A   1      31.598  23.528  25.769  1.00  0.00     0.149 C 
ATOM     91  O   UNL A   1      33.704  23.651  23.037  1.00  0.00    -0.268 OA
ATOM     92  C   UNL A   1      32.181  25.190  24.025  1.00  0.00     0.081 C 
ATOM     93  S   UNL A   1      31.244  25.218  25.460  1.00  0.00    -0.054 SA
ATOM     94  S   UNL A   1      30.514  22.584  26.615  1.00  0.00    -0.052 S 
ATOM     95  C   UNL A   1      32.184  26.123  23.061  1.00  0.00     0.029 C 
BRANCH  95  96
ATOM     96  C   UNL A   1      31.498  27.410  23.223  1.00  0.00    -0.021 A 
ATOM     97  C   UNL A   1      32.110  28.391  24.006  1.00  0.00     0.028 A 
ATOM     98  C   UNL A   1      30.213  27.635  22.732  1.00  0.00     0.028 A 
ATOM     99  C   UNL A   1      31.406  29.550  24.278  1.00  0.00     0.111 A 
ATOM    100  C   UNL A   1      29.594  28.833  23.058  1.00  0.00     0.111 A 
ATOM    101  N   UNL A   1      30.163  29.796  23.815  1.00  0.00    -0.265 NA
ENDBRANCH  95  96
ENDBRANCH  80  88
ENDBRANCH  77  80
ENDBRANCH  75  76
ENDBRANCH  74  75
ENDBRANCH   1  74
TORSDOF 17
ENDMDL
MODEL 3
REMARK VINA RESULT:     -12.8      6.507     12.312
REMARK SMILES O=C(NCCCNC(=O)[C@@H](Cc1ccccc1)N1C(=O)/C(=C/c2ccncc2)SC1=S)c1ccc(-c2c3nc(c(-c4c(F)cc(S(=O)(=O)[O-])cc4F)c4ccc([nH]4)c(-c4c(F)cc(S(=O)(=O)[O-])cc4F)c4nc(c(-c5c(F)cc(S(=O)(=O)[O-])cc5F)c5ccc2[nH]5)C=C4)C=C3)cc1
REMARK SMILES IDX 4 1 3 2 1 3 2 4 32 6 33 7 97 8 34 9 96 10 35 11 36 12 37 13
REMARK SMILES IDX 90 14 38 15 95 16 89 17 91 18 39 19 94 20 88 21 87 22 40 24
REMARK SMILES IDX 74 25 53 26 73 27 54 28 57 29 72 30 92 31 55 32 56 33 71 35
REMARK SMILES IDX 93 36 58 37 41 38 42 39 51 40 43 41 44 42 50 43 52 44 45 45
REMARK SMILES IDX 46 46 47 47 48 48 49 49 75 50 76 51 85 52 77 53 78 54 84 55
REMARK SMILES IDX 86 56 79 57 80 58 81 59 82 60 83 61 59 62 60 63 69 64 61 65
REMARK SMILES IDX 62 66 68 67 70 68 63 69 64 70 65 71 66 72 67 73 5 74 6 75
REMARK SMILES IDX 7 76 8 77 9 79 10 80 11 81 12 82 13 83 17 84 14 85 16 86
REMARK SMILES IDX 15 87 18 88 19 89 30 90 20 91 21 92 29 93 31 94 22 95 23 96
REMARK SMILES IDX 24 97 28 98 25 99 27 100 26 101
REMARK H PARENT 3 5 91 23 57 34 7 78
REMARK Flexibility Score: inf
ROOT
ATOM      1  C   UNL A   1      35.223  29.842  27.607  1.00  0.00     0.118 C 
ENDROOT
BRANCH   1   2
ATOM      2  N   UNL A   1      35.280  30.404  28.950  1.00  0.00    -0.352 N 
ATOM      3  O   UNL A   1      36.000  30.879  31.009  1.00  0.00    -0.269 OA
ATOM      4  C   UNL A   1      36.286  30.472  29.883  1.00  0.00     0.251 C 
ATOM      5  H   UNL A   1      34.436  30.815  29.245  1.00  0.00     0.163 HD
BRANCH   4   6
ATOM      6  C   UNL A   1      37.682  30.059  29.587  1.00  0.00     0.039 A 
ATOM      7  C   UNL A   1      38.539  29.564  30.569  1.00  0.00     0.014 A 
ATOM      8  C   UNL A   1      38.129  30.106  28.260  1.00  0.00     0.014 A 
ATOM      9  C   UNL A   1      39.872  29.291  30.270  1.00  0.00     0.010 A 
ATOM     10  C   UNL A   1      39.434  29.716  27.936  1.00  0.00     0.010 A 
ATOM     11  C   UNL A   1      40.330  29.336  28.946  1.00  0.00    -0.014 A 
BRANCH  11  12
ATOM     12  C   UNL A   1      41.724  28.927  28.630  1.00  0.00     0.031 A 
ATOM     13  C   UNL A   1      42.849  29.925  28.667  1.00  0.00     0.074 A 
ATOM     14  C   UNL A   1      41.972  27.641  28.305  1.00  0.00     0.049 A 
ATOM     15  N   UNL A   1      44.111  29.759  28.360  1.00  0.00    -0.248 NA
ATOM     16  C   UNL A   1      42.512  31.292  29.093  1.00  0.00     0.031 C 
ATOM     17  C   UNL A   1      40.963  26.582  28.236  1.00  0.00     0.029 A 
ATOM     18  N   UNL A   1      43.141  27.004  27.972  1.00  0.00    -0.354 N 
ATOM     19  C   UNL A   1      44.712  31.001  28.528  1.00  0.00     0.074 A 
ATOM     20  C   UNL A   1      43.670  31.918  28.937  1.00  0.00     0.031 C 
ATOM     21  C   UNL A   1      41.558  25.425  27.916  1.00  0.00     0.029 A 
ATOM     22  C   UNL A   1      42.974  25.673  27.675  1.00  0.00     0.049 A 
ATOM     23  H   UNL A   1      44.014  27.458  27.948  1.00  0.00     0.167 HD
ATOM     24  C   UNL A   1      46.014  31.340  28.358  1.00  0.00     0.037 A 
ATOM     25  C   UNL A   1      43.850  24.755  27.222  1.00  0.00     0.037 A 
ATOM     26  C   UNL A   1      47.039  30.412  27.953  1.00  0.00     0.049 A 
ATOM     27  C   UNL A   1      45.277  25.161  27.002  1.00  0.00     0.074 A 
ATOM     28  C   UNL A   1      48.392  30.647  27.777  1.00  0.00     0.029 A 
ATOM     29  N   UNL A   1      46.826  29.074  27.648  1.00  0.00    -0.354 N 
ATOM     30  N   UNL A   1      45.834  26.336  27.183  1.00  0.00    -0.248 NA
ATOM     31  C   UNL A   1      46.197  24.126  26.516  1.00  0.00     0.031 C 
ATOM     32  C   UNL A   1      48.984  29.468  27.310  1.00  0.00     0.029 A 
ATOM     33  C   UNL A   1      48.015  28.478  27.262  1.00  0.00     0.049 A 
ATOM     34  H   UNL A   1      45.956  28.615  27.700  1.00  0.00     0.167 HD
ATOM     35  C   UNL A   1      47.175  26.174  26.862  1.00  0.00     0.074 A 
ATOM     36  C   UNL A   1      47.347  24.787  26.476  1.00  0.00     0.031 C 
ATOM     37  C   UNL A   1      48.174  27.091  26.892  1.00  0.00     0.037 A 
BRANCH  24  38
ATOM     38  C   UNL A   1      46.393  32.783  28.571  1.00  0.00     0.058 A 
ATOM     39  C   UNL A   1      46.805  33.273  29.821  1.00  0.00     0.135 A 
ATOM     40  C   UNL A   1      46.350  33.693  27.500  1.00  0.00     0.135 A 
ATOM     41  F   UNL A   1      46.856  32.454  30.884  1.00  0.00    -0.206 F 
ATOM     42  C   UNL A   1      47.113  34.616  30.014  1.00  0.00     0.059 A 
ATOM     43  C   UNL A   1      46.685  35.034  27.661  1.00  0.00     0.059 A 
ATOM     44  F   UNL A   1      45.969  33.284  26.279  1.00  0.00    -0.206 F 
ATOM     45  C   UNL A   1      47.044  35.492  28.928  1.00  0.00     0.060 A 
BRANCH  45  46
ATOM     46  S   UNL A   1      47.409  37.238  29.202  1.00  0.00     0.124 S 
ATOM     47  O   UNL A   1      46.214  37.674  29.919  1.00  0.00    -0.237 OA
ATOM     48  O   UNL A   1      48.634  37.180  29.992  1.00  0.00    -0.237 OA
ATOM     49  O   UNL A   1      47.560  37.771  27.852  1.00  0.00    -0.744 OA
ENDBRANCH  45  46
ENDBRANCH  24  38
BRANCH  25  50
ATOM     50  C   UNL A   1      43.377  23.373  26.943  1.00  0.00     0.058 A 
ATOM     51  C   UNL A   1      43.223  22.912  25.628  1.00  0.00     0.135 A 
ATOM     52  C   UNL A   1      43.138  22.465  27.988  1.00  0.00     0.135 A 
ATOM     53  F   UNL A   1      43.434  23.741  24.596  1.00  0.00    -0.206 F 
ATOM     54  C   UNL A   1      42.851  21.598  25.358  1.00  0.00     0.059 A 
ATOM     55  C   UNL A   1      42.795  21.140  27.743  1.00  0.00     0.059 A 
ATOM     56  F   UNL A   1      43.291  22.853  29.264  1.00  0.00    -0.206 F 
ATOM     57  C   UNL A   1      42.651  20.716  26.423  1.00  0.00     0.060 A 
BRANCH  57  58
ATOM     58  S   UNL A   1      42.254  18.993  26.057  1.00  0.00     0.124 S 
ATOM     59  O   UNL A   1      43.149  18.716  24.940  1.00  0.00    -0.237 OA
ATOM     60  O   UNL A   1      42.580  18.333  27.317  1.00  0.00    -0.237 OA
ATOM     61  O   UNL A   1      40.832  19.038  25.731  1.00  0.00    -0.744 OA
ENDBRANCH  57  58
ENDBRANCH  25  50
BRANCH  37  62
ATOM     62  C   UNL A   1      49.562  26.620  26.554  1.00  0.00     0.058 A 
ATOM     63  C   UNL A   1      50.416  26.062  27.517  1.00  0.00     0.135 A 
ATOM     64  C   UNL A   1      50.009  26.658  25.223  1.00  0.00     0.135 A 
ATOM     65  F   UNL A   1      50.042  26.012  28.805  1.00  0.00    -0.206 F 
ATOM     66  C   UNL A   1      51.670  25.567  27.174  1.00  0.00     0.059 A 
ATOM     67  C   UNL A   1      51.247  26.142  24.853  1.00  0.00     0.059 A 
ATOM     68  F   UNL A   1      49.229  27.177  24.261  1.00  0.00    -0.206 F 
ATOM     69  C   UNL A   1      52.073  25.603  25.837  1.00  0.00     0.060 A 
BRANCH  69  70
ATOM     70  S   UNL A   1      53.676  24.899  25.396  1.00  0.00     0.124 S 
ATOM     71  O   UNL A   1      54.050  25.715  24.246  1.00  0.00    -0.237 OA
ATOM     72  O   UNL A   1      54.456  25.118  26.610  1.00  0.00    -0.237 OA
ATOM     73  O   UNL A   1      53.365  23.504  25.101  1.00  0.00    -0.744 OA
ENDBRANCH  69  70
ENDBRANCH  37  62
ENDBRANCH  11  12
ENDBRANCH   4   6
ENDBRANCH   1   2
BRANCH   1  74
ATOM     74  C   UNL A   1      33.803  29.727  27.067  1.00  0.00     0.042 C 
BRANCH  74  75
ATOM     75  C   UNL A   1      33.557  28.537  26.141  1.00  0.00     0.117 C 
BRANCH  75  76
ATOM     76  N   UNL A   1      33.626  28.911  24.740  1.00  0.00    -0.354 N 
ATOM     77  C   UNL A   1      32.973  28.504  23.623  1.00  0.00     0.243 C 
ATOM     78  H   UNL A   1      34.292  29.614  24.563  1.00  0.00     0.163 HD
ATOM     79  O   UNL A   1      33.348  29.040  22.570  1.00  0.00    -0.273 OA
BRANCH  77  80
ATOM     80  C   UNL A   1      31.871  27.403  23.555  1.00  0.00     0.185 C 
BRANCH  80  81
ATOM     81  C   UNL A   1      30.774  27.854  22.542  1.00  0.00     0.071 C 
BRANCH  81  82
ATOM     82  C   UNL A   1      29.546  28.678  22.895  1.00  0.00    -0.045 A 
ATOM     83  C   UNL A   1      29.758  30.051  23.130  1.00  0.00     0.004 A 
ATOM     84  C   UNL A   1      28.229  28.209  22.981  1.00  0.00     0.004 A 
ATOM     85  C   UNL A   1      28.694  30.923  23.372  1.00  0.00     0.000 A 
ATOM     86  C   UNL A   1      27.159  29.082  23.211  1.00  0.00     0.000 A 
ATOM     87  C   UNL A   1      27.391  30.440  23.394  1.00  0.00     0.000 A 
ENDBRANCH  81  82
ENDBRANCH  80  81
BRANCH  80  88
ATOM     88  N   UNL A   1      32.276  25.979  23.549  1.00  0.00    -0.280 N 
ATOM     89  C   UNL A   1      31.869  25.138  24.575  1.00  0.00     0.266 C 
ATOM     90  C   UNL A   1      32.645  25.272  22.416  1.00  0.00     0.149 C 
ATOM     91  O   UNL A   1      31.139  25.418  25.519  1.00  0.00    -0.268 OA
ATOM     92  C   UNL A   1      32.394  23.758  24.363  1.00  0.00     0.081 C 
ATOM     93  S   UNL A   1      33.282  23.710  22.897  1.00  0.00    -0.054 SA
ATOM     94  S   UNL A   1      32.479  25.649  20.800  1.00  0.00    -0.052 S 
ATOM     95  C   UNL A   1      32.181  22.728  25.195  1.00  0.00     0.029 C 
BRANCH  95  96
ATOM     96  C   UNL A   1      32.866  21.441  25.032  1.00  0.00    -0.021 A 
ATOM     97  C   UNL A   1      34.210  21.357  25.404  1.00  0.00     0.028 A 
ATOM     98  C   UNL A   1      32.264  20.352  24.406  1.00  0.00     0.028 A 
ATOM     99  C   UNL A   1      34.899  20.191  25.123  1.00  0.00     0.111 A 
ATOM    100  C   UNL A   1      33.041  19.227  24.172  1.00  0.00     0.111 A 
ATOM    101  N   UNL A   1      34.342  19.120  24.519  1.00  0.00    -0.265 NA
ENDBRANCH  95  96
ENDBRANCH  80  88
ENDBRANCH  77  80
ENDBRANCH  75  76
ENDBRANCH  74  75
ENDBRANCH   1  74
TORSDOF 17
ENDMDL
