MODEL 1
REMARK VINA RESULT:     -11.7      0.000      0.000
REMARK SMILES CCc1n[nH]c(C(=O)NC[C@@H]2CC[C@@H](C(=O)NCCCNC(=O)c3ccc(-c4c5nc(c(-c6c(F)cc(S(=O)(=O)[O-])cc6F)c6ccc([nH]6)c(-c6c(F)cc(S(=O)(=O)[O-])cc6F)c6nc(c(-c7c(F)cc(S(=O)(=O)[O-])cc7F)c7ccc4[nH]7)C=C6)C=C5)cc3)O2)n1
REMARK SMILES IDX 18 1 17 2 15 3 16 4 14 6 11 7 12 8 90 9 13 10 10 11 9 12
REMARK SMILES IDX 7 13 8 14 6 16 3 17 4 18 91 19 5 20 2 22 1 23 19 24 20 25
REMARK SMILES IDX 21 26 22 27 23 29 24 30 25 31 89 32 26 33 88 34 27 35 28 36
REMARK SMILES IDX 29 37 82 38 30 39 87 40 81 41 83 42 31 43 86 44 80 45 79 46
REMARK SMILES IDX 32 48 66 49 45 50 65 51 46 52 49 53 64 54 84 55 47 56 48 57
REMARK SMILES IDX 63 59 85 60 50 61 33 62 34 63 43 64 35 65 36 66 42 67 44 68
REMARK SMILES IDX 37 69 38 70 39 71 40 72 41 73 67 74 68 75 77 76 69 77 70 78
REMARK SMILES IDX 76 79 78 80 71 81 72 82 73 83 74 84 75 85 51 86 52 87 61 88
REMARK SMILES IDX 53 89 54 90 60 91 62 92 55 93 56 94 57 95 58 96 59 97
REMARK H PARENT 17 5 9 15 5 21 21 28 83 47 49 58
REMARK Flexibility Score: inf
ROOT
ATOM      1  C   UNL A   1      32.517  27.686  25.085  1.00  0.00     0.117 C 
ENDROOT
BRANCH   1   2
ATOM      2  N   UNL A   1      31.341  28.024  24.304  1.00  0.00    -0.354 N 
ATOM      3  C   UNL A   1      30.311  27.231  23.881  1.00  0.00     0.249 C 
ATOM      4  O   UNL A   1      29.433  27.751  23.187  1.00  0.00    -0.272 OA
ATOM      5  H   UNL A   1      31.275  28.969  24.035  1.00  0.00     0.163 HD
BRANCH   3   6
ATOM      6  C   UNL A   1      30.255  25.759  24.308  1.00  0.00     0.207 C 
ATOM      7  C   UNL A   1      31.818  24.390  25.395  1.00  0.00     0.138 C 
ATOM      8  C   UNL A   1      30.489  24.285  26.123  1.00  0.00     0.037 C 
ATOM      9  O   UNL A   1      31.562  25.162  24.199  1.00  0.00    -0.363 OA
ATOM     10  C   UNL A   1      29.824  25.588  25.755  1.00  0.00     0.045 C 
BRANCH   7  11
ATOM     11  C   UNL A   1      32.398  23.034  24.983  1.00  0.00     0.148 C 
BRANCH  11  12
ATOM     12  N   UNL A   1      33.632  22.733  25.704  1.00  0.00    -0.347 N 
ATOM     13  C   UNL A   1      34.239  21.523  25.934  1.00  0.00     0.288 C 
ATOM     14  O   UNL A   1      35.326  21.523  26.519  1.00  0.00    -0.266 OA
ATOM     15  H   UNL A   1      34.098  23.514  26.082  1.00  0.00     0.164 HD
BRANCH  13  16
ATOM     16  C   UNL A   1      33.634  20.293  25.478  1.00  0.00     0.214 A 
ATOM     17  C   UNL A   1      33.009  18.566  24.428  1.00  0.00     0.151 A 
ATOM     18  N   UNL A   1      32.510  18.358  25.651  1.00  0.00    -0.158 NA
ATOM     19  N   UNL A   1      33.672  19.755  24.274  1.00  0.00    -0.207 NA
ATOM     20  N   UNL A   1      32.899  19.476  26.290  1.00  0.00    -0.255 N 
ATOM     21  H   UNL A   1      32.682  19.680  27.228  1.00  0.00     0.192 HD
BRANCH  17  22
ATOM     22  C   UNL A   1      32.885  17.589  23.315  1.00  0.00     0.076 C 
ATOM     23  C   UNL A   1      34.037  16.594  23.294  1.00  0.00     0.012 C 
ENDBRANCH  17  22
ENDBRANCH  13  16
ENDBRANCH  11  12
ENDBRANCH   7  11
ENDBRANCH   3   6
ENDBRANCH   1   2
BRANCH   1  24
ATOM     24  C   UNL A   1      32.366  28.086  26.549  1.00  0.00     0.042 C 
BRANCH  24  25
ATOM     25  C   UNL A   1      33.670  28.535  27.207  1.00  0.00     0.118 C 
BRANCH  25  26
ATOM     26  N   UNL A   1      33.637  29.926  27.644  1.00  0.00    -0.352 N 
ATOM     27  C   UNL A   1      34.606  30.671  28.277  1.00  0.00     0.251 C 
ATOM     28  H   UNL A   1      32.797  30.403  27.460  1.00  0.00     0.163 HD
ATOM     29  O   UNL A   1      34.331  31.789  28.705  1.00  0.00    -0.269 OA
BRANCH  27  30
ATOM     30  C   UNL A   1      35.963  30.116  28.462  1.00  0.00     0.039 A 
ATOM     31  C   UNL A   1      36.848  30.102  27.381  1.00  0.00     0.014 A 
ATOM     32  C   UNL A   1      36.363  29.618  29.704  1.00  0.00     0.014 A 
ATOM     33  C   UNL A   1      38.165  29.669  27.567  1.00  0.00     0.010 A 
ATOM     34  C   UNL A   1      37.691  29.257  29.905  1.00  0.00     0.010 A 
ATOM     35  C   UNL A   1      38.609  29.284  28.842  1.00  0.00    -0.014 A 
BRANCH  35  36
ATOM     36  C   UNL A   1      40.021  28.900  29.110  1.00  0.00     0.031 A 
ATOM     37  C   UNL A   1      40.996  29.948  29.577  1.00  0.00     0.074 A 
ATOM     38  C   UNL A   1      40.450  27.654  28.821  1.00  0.00     0.049 A 
ATOM     39  N   UNL A   1      42.298  29.883  29.666  1.00  0.00    -0.248 NA
ATOM     40  C   UNL A   1      40.432  31.252  29.964  1.00  0.00     0.031 C 
ATOM     41  C   UNL A   1      39.608  26.557  28.338  1.00  0.00     0.029 A 
ATOM     42  N   UNL A   1      41.711  27.108  28.858  1.00  0.00    -0.354 N 
ATOM     43  C   UNL A   1      42.711  31.142  30.083  1.00  0.00     0.074 A 
ATOM     44  C   UNL A   1      41.526  31.962  30.201  1.00  0.00     0.031 C 
ATOM     45  C   UNL A   1      40.375  25.477  28.114  1.00  0.00     0.029 A 
ATOM     46  C   UNL A   1      41.768  25.816  28.387  1.00  0.00     0.049 A 
ATOM     47  H   UNL A   1      42.499  27.596  29.189  1.00  0.00     0.167 HD
ATOM     48  C   UNL A   1      43.967  31.571  30.350  1.00  0.00     0.037 A 
ATOM     49  C   UNL A   1      42.825  25.007  28.164  1.00  0.00     0.037 A 
ATOM     50  C   UNL A   1      45.135  30.735  30.273  1.00  0.00     0.049 A 
ATOM     51  C   UNL A   1      44.213  25.513  28.469  1.00  0.00     0.074 A 
ATOM     52  C   UNL A   1      46.441  31.059  30.596  1.00  0.00     0.029 A 
ATOM     53  N   UNL A   1      45.142  29.417  29.846  1.00  0.00    -0.354 N 
ATOM     54  N   UNL A   1      44.580  26.690  28.918  1.00  0.00    -0.248 NA
ATOM     55  C   UNL A   1      45.332  24.585  28.241  1.00  0.00     0.031 C 
ATOM     56  C   UNL A   1      47.247  29.953  30.312  1.00  0.00     0.029 A 
ATOM     57  C   UNL A   1      46.434  28.920  29.876  1.00  0.00     0.049 A 
ATOM     58  H   UNL A   1      44.347  28.909  29.563  1.00  0.00     0.167 HD
ATOM     59  C   UNL A   1      45.962  26.625  29.068  1.00  0.00     0.074 A 
ATOM     60  C   UNL A   1      46.368  25.298  28.660  1.00  0.00     0.031 C 
ATOM     61  C   UNL A   1      46.816  27.580  29.510  1.00  0.00     0.037 A 
BRANCH  48  62
ATOM     62  C   UNL A   1      44.161  33.006  30.754  1.00  0.00     0.058 A 
ATOM     63  C   UNL A   1      44.191  33.398  32.101  1.00  0.00     0.135 A 
ATOM     64  C   UNL A   1      44.418  33.986  29.779  1.00  0.00     0.135 A 
ATOM     65  F   UNL A   1      43.935  32.507  33.071  1.00  0.00    -0.206 F 
ATOM     66  C   UNL A   1      44.463  34.712  32.468  1.00  0.00     0.059 A 
ATOM     67  C   UNL A   1      44.720  35.299  30.125  1.00  0.00     0.059 A 
ATOM     68  F   UNL A   1      44.397  33.664  28.476  1.00  0.00    -0.206 F 
ATOM     69  C   UNL A   1      44.737  35.653  31.473  1.00  0.00     0.060 A 
BRANCH  69  70
ATOM     70  S   UNL A   1      45.142  37.339  31.972  1.00  0.00     0.124 S 
ATOM     71  O   UNL A   1      45.028  37.248  33.424  1.00  0.00    -0.237 OA
ATOM     72  O   UNL A   1      46.497  37.499  31.451  1.00  0.00    -0.237 OA
ATOM     73  O   UNL A   1      44.120  38.145  31.313  1.00  0.00    -0.744 OA
ENDBRANCH  69  70
ENDBRANCH  48  62
BRANCH  49  74
ATOM     74  C   UNL A   1      42.627  23.640  27.606  1.00  0.00     0.058 A 
ATOM     75  C   UNL A   1      42.358  22.547  28.443  1.00  0.00     0.135 A 
ATOM     76  C   UNL A   1      42.736  23.393  26.228  1.00  0.00     0.135 A 
ATOM     77  F   UNL A   1      42.248  22.727  29.768  1.00  0.00    -0.206 F 
ATOM     78  C   UNL A   1      42.244  21.253  27.942  1.00  0.00     0.059 A 
ATOM     79  C   UNL A   1      42.595  22.114  25.699  1.00  0.00     0.059 A 
ATOM     80  F   UNL A   1      42.973  24.405  25.379  1.00  0.00    -0.206 F 
ATOM     81  C   UNL A   1      42.369  21.047  26.567  1.00  0.00     0.060 A 
BRANCH  81  82
ATOM     82  S   UNL A   1      42.218  19.366  25.924  1.00  0.00     0.124 S 
ATOM     83  O   UNL A   1      43.065  19.430  24.738  1.00  0.00    -0.237 OA
ATOM     84  O   UNL A   1      42.729  18.566  27.033  1.00  0.00    -0.237 OA
ATOM     85  O   UNL A   1      40.787  19.231  25.673  1.00  0.00    -0.744 OA
ENDBRANCH  81  82
ENDBRANCH  49  74
BRANCH  61  86
ATOM     86  C   UNL A   1      48.268  27.221  29.661  1.00  0.00     0.058 A 
ATOM     87  C   UNL A   1      49.196  27.426  28.631  1.00  0.00     0.135 A 
ATOM     88  C   UNL A   1      48.751  26.777  30.904  1.00  0.00     0.135 A 
ATOM     89  F   UNL A   1      48.786  27.840  27.422  1.00  0.00    -0.206 F 
ATOM     90  C   UNL A   1      50.556  27.207  28.828  1.00  0.00     0.059 A 
ATOM     91  C   UNL A   1      50.108  26.580  31.132  1.00  0.00     0.059 A 
ATOM     92  F   UNL A   1      47.903  26.574  31.926  1.00  0.00    -0.206 F 
ATOM     93  C   UNL A   1      51.004  26.797  30.087  1.00  0.00     0.060 A 
BRANCH  93  94
ATOM     94  S   UNL A   1      52.780  26.606  30.354  1.00  0.00     0.124 S 
ATOM     95  O   UNL A   1      53.231  26.175  29.034  1.00  0.00    -0.237 OA
ATOM     96  O   UNL A   1      53.181  27.951  30.755  1.00  0.00    -0.237 OA
ATOM     97  O   UNL A   1      52.859  25.595  31.405  1.00  0.00    -0.744 OA
ENDBRANCH  93  94
ENDBRANCH  61  86
ENDBRANCH  35  36
ENDBRANCH  27  30
ENDBRANCH  25  26
ENDBRANCH  24  25
ENDBRANCH   1  24
TORSDOF 17
ENDMDL
MODEL 2
REMARK VINA RESULT:     -11.6      2.682      3.601
REMARK SMILES CCc1n[nH]c(C(=O)NC[C@@H]2CC[C@@H](C(=O)NCCCNC(=O)c3ccc(-c4c5nc(c(-c6c(F)cc(S(=O)(=O)[O-])cc6F)c6ccc([nH]6)c(-c6c(F)cc(S(=O)(=O)[O-])cc6F)c6nc(c(-c7c(F)cc(S(=O)(=O)[O-])cc7F)c7ccc4[nH]7)C=C6)C=C5)cc3)O2)n1
REMARK SMILES IDX 18 1 17 2 15 3 16 4 14 6 11 7 12 8 90 9 13 10 10 11 9 12
REMARK SMILES IDX 7 13 8 14 6 16 3 17 4 18 91 19 5 20 2 22 1 23 19 24 20 25
REMARK SMILES IDX 21 26 22 27 23 29 24 30 25 31 89 32 26 33 88 34 27 35 28 36
REMARK SMILES IDX 29 37 82 38 30 39 87 40 81 41 83 42 31 43 86 44 80 45 79 46
REMARK SMILES IDX 32 48 66 49 45 50 65 51 46 52 49 53 64 54 84 55 47 56 48 57
REMARK SMILES IDX 63 59 85 60 50 61 33 62 34 63 43 64 35 65 36 66 42 67 44 68
REMARK SMILES IDX 37 69 38 70 39 71 40 72 41 73 67 74 68 75 77 76 69 77 70 78
REMARK SMILES IDX 76 79 78 80 71 81 72 82 73 83 74 84 75 85 51 86 52 87 61 88
REMARK SMILES IDX 53 89 54 90 60 91 62 92 55 93 56 94 57 95 58 96 59 97
REMARK H PARENT 17 5 9 15 5 21 21 28 83 47 49 58
REMARK Flexibility Score: inf
ROOT
ATOM      1  C   UNL A   1      33.609  30.173  26.962  1.00  0.00     0.117 C 
ENDROOT
BRANCH   1   2
ATOM      2  N   UNL A   1      32.642  29.307  27.611  1.00  0.00    -0.354 N 
ATOM      3  C   UNL A   1      31.778  28.396  27.071  1.00  0.00     0.249 C 
ATOM      4  O   UNL A   1      31.017  27.801  27.838  1.00  0.00    -0.272 OA
ATOM      5  H   UNL A   1      32.600  29.389  28.591  1.00  0.00     0.163 HD
BRANCH   3   6
ATOM      6  C   UNL A   1      31.808  28.115  25.564  1.00  0.00     0.207 C 
ATOM      7  C   UNL A   1      30.322  26.962  24.162  1.00  0.00     0.138 C 
ATOM      8  C   UNL A   1      30.604  28.326  23.556  1.00  0.00     0.037 C 
ATOM      9  O   UNL A   1      31.221  26.828  25.288  1.00  0.00    -0.363 OA
ATOM     10  C   UNL A   1      31.006  29.131  24.766  1.00  0.00     0.045 C 
BRANCH   7  11
ATOM     11  C   UNL A   1      30.576  25.799  23.197  1.00  0.00     0.148 C 
BRANCH  11  12
ATOM     12  N   UNL A   1      31.510  26.170  22.139  1.00  0.00    -0.347 N 
ATOM     13  C   UNL A   1      32.813  25.781  21.945  1.00  0.00     0.288 C 
ATOM     14  O   UNL A   1      33.390  26.178  20.928  1.00  0.00    -0.266 OA
ATOM     15  H   UNL A   1      31.153  26.792  21.463  1.00  0.00     0.164 HD
BRANCH  13  16
ATOM     16  C   UNL A   1      33.475  24.912  22.890  1.00  0.00     0.214 A 
ATOM     17  C   UNL A   1      34.607  23.430  23.888  1.00  0.00     0.151 A 
ATOM     18  N   UNL A   1      34.263  24.253  24.886  1.00  0.00    -0.158 NA
ATOM     19  N   UNL A   1      34.114  23.781  22.660  1.00  0.00    -0.207 NA
ATOM     20  N   UNL A   1      33.527  25.169  24.231  1.00  0.00    -0.255 N 
ATOM     21  H   UNL A   1      33.081  25.932  24.665  1.00  0.00     0.192 HD
BRANCH  17  22
ATOM     22  C   UNL A   1      35.473  22.238  24.072  1.00  0.00     0.076 C 
ATOM     23  C   UNL A   1      36.934  22.536  23.764  1.00  0.00     0.012 C 
ENDBRANCH  17  22
ENDBRANCH  13  16
ENDBRANCH  11  12
ENDBRANCH   7  11
ENDBRANCH   3   6
ENDBRANCH   1   2
BRANCH   1  24
ATOM     24  C   UNL A   1      35.000  30.040  27.574  1.00  0.00     0.042 C 
BRANCH  24  25
ATOM     25  C   UNL A   1      35.558  31.346  28.137  1.00  0.00     0.118 C 
BRANCH  25  26
ATOM     26  N   UNL A   1      35.452  31.431  29.589  1.00  0.00    -0.352 N 
ATOM     27  C   UNL A   1      36.297  30.947  30.561  1.00  0.00     0.251 C 
ATOM     28  H   UNL A   1      34.658  31.906  29.924  1.00  0.00     0.163 HD
ATOM     29  O   UNL A   1      35.954  30.985  31.740  1.00  0.00    -0.269 OA
BRANCH  27  30
ATOM     30  C   UNL A   1      37.599  30.359  30.184  1.00  0.00     0.039 A 
ATOM     31  C   UNL A   1      38.025  30.438  28.855  1.00  0.00     0.014 A 
ATOM     32  C   UNL A   1      38.404  29.739  31.143  1.00  0.00     0.014 A 
ATOM     33  C   UNL A   1      39.296  29.972  28.504  1.00  0.00     0.010 A 
ATOM     34  C   UNL A   1      39.694  29.343  30.808  1.00  0.00     0.010 A 
ATOM     35  C   UNL A   1      40.158  29.461  29.487  1.00  0.00    -0.014 A 
BRANCH  35  36
ATOM     36  C   UNL A   1      41.550  29.035  29.181  1.00  0.00     0.031 A 
ATOM     37  C   UNL A   1      42.645  30.066  29.134  1.00  0.00     0.074 A 
ATOM     38  C   UNL A   1      41.805  27.758  28.830  1.00  0.00     0.049 A 
ATOM     39  N   UNL A   1      43.868  29.953  28.688  1.00  0.00    -0.248 NA
ATOM     40  C   UNL A   1      42.308  31.413  29.625  1.00  0.00     0.031 C 
ATOM     41  C   UNL A   1      40.824  26.670  28.811  1.00  0.00     0.029 A 
ATOM     42  N   UNL A   1      42.962  27.163  28.386  1.00  0.00    -0.354 N 
ATOM     43  C   UNL A   1      44.434  31.216  28.809  1.00  0.00     0.074 A 
ATOM     44  C   UNL A   1      43.413  32.090  29.344  1.00  0.00     0.031 C 
ATOM     45  C   UNL A   1      41.416  25.548  28.370  1.00  0.00     0.029 A 
ATOM     46  C   UNL A   1      42.803  25.844  28.025  1.00  0.00     0.049 A 
ATOM     47  H   UNL A   1      43.824  27.636  28.331  1.00  0.00     0.167 HD
ATOM     48  C   UNL A   1      45.694  31.608  28.509  1.00  0.00     0.037 A 
ATOM     49  C   UNL A   1      43.664  24.981  27.447  1.00  0.00     0.037 A 
ATOM     50  C   UNL A   1      46.716  30.720  28.020  1.00  0.00     0.049 A 
ATOM     51  C   UNL A   1      45.062  25.445  27.122  1.00  0.00     0.074 A 
ATOM     52  C   UNL A   1      48.044  31.008  27.758  1.00  0.00     0.029 A 
ATOM     53  N   UNL A   1      46.528  29.380  27.721  1.00  0.00    -0.354 N 
ATOM     54  N   UNL A   1      45.597  26.630  27.297  1.00  0.00    -0.248 NA
ATOM     55  C   UNL A   1      45.975  24.460  26.522  1.00  0.00     0.031 C 
ATOM     56  C   UNL A   1      48.646  29.855  27.248  1.00  0.00     0.029 A 
ATOM     57  C   UNL A   1      47.711  28.833  27.256  1.00  0.00     0.049 A 
ATOM     58  H   UNL A   1      45.680  28.891  27.824  1.00  0.00     0.167 HD
ATOM     59  C   UNL A   1      46.917  26.517  26.874  1.00  0.00     0.074 A 
ATOM     60  C   UNL A   1      47.102  25.153  26.430  1.00  0.00     0.031 C 
ATOM     61  C   UNL A   1      47.891  27.459  26.860  1.00  0.00     0.037 A 
BRANCH  48  62
ATOM     62  C   UNL A   1      46.057  33.054  28.697  1.00  0.00     0.058 A 
ATOM     63  C   UNL A   1      46.636  33.524  29.886  1.00  0.00     0.135 A 
ATOM     64  C   UNL A   1      45.912  33.963  27.634  1.00  0.00     0.135 A 
ATOM     65  F   UNL A   1      46.782  32.703  30.938  1.00  0.00    -0.206 F 
ATOM     66  C   UNL A   1      47.053  34.844  30.017  1.00  0.00     0.059 A 
ATOM     67  C   UNL A   1      46.348  35.279  27.734  1.00  0.00     0.059 A 
ATOM     68  F   UNL A   1      45.360  33.565  26.477  1.00  0.00    -0.206 F 
ATOM     69  C   UNL A   1      46.915  35.711  28.932  1.00  0.00     0.060 A 
BRANCH  69  70
ATOM     70  S   UNL A   1      47.514  37.406  29.103  1.00  0.00     0.124 S 
ATOM     71  O   UNL A   1      46.906  38.048  27.943  1.00  0.00    -0.237 OA
ATOM     72  O   UNL A   1      46.971  37.796  30.401  1.00  0.00    -0.237 OA
ATOM     73  O   UNL A   1      48.965  37.261  29.051  1.00  0.00    -0.744 OA
ENDBRANCH  69  70
ENDBRANCH  48  62
BRANCH  49  74
ATOM     74  C   UNL A   1      43.235  23.592  27.116  1.00  0.00     0.058 A 
ATOM     75  C   UNL A   1      43.106  22.615  28.113  1.00  0.00     0.135 A 
ATOM     76  C   UNL A   1      42.979  23.206  25.790  1.00  0.00     0.135 A 
ATOM     77  F   UNL A   1      43.344  22.931  29.396  1.00  0.00    -0.206 F 
ATOM     78  C   UNL A   1      42.778  21.297  27.809  1.00  0.00     0.059 A 
ATOM     79  C   UNL A   1      42.618  21.903  25.463  1.00  0.00     0.059 A 
ATOM     80  F   UNL A   1      43.067  24.105  24.797  1.00  0.00    -0.206 F 
ATOM     81  C   UNL A   1      42.540  20.951  26.478  1.00  0.00     0.060 A 
BRANCH  81  82
ATOM     82  S   UNL A   1      42.113  19.239  26.090  1.00  0.00     0.124 S 
ATOM     83  O   UNL A   1      42.508  18.555  27.316  1.00  0.00    -0.237 OA
ATOM     84  O   UNL A   1      40.678  19.330  25.843  1.00  0.00    -0.237 OA
ATOM     85  O   UNL A   1      42.926  18.949  24.914  1.00  0.00    -0.744 OA
ENDBRANCH  81  82
ENDBRANCH  49  74
BRANCH  61  86
ATOM     86  C   UNL A   1      49.272  27.050  26.429  1.00  0.00     0.058 A 
ATOM     87  C   UNL A   1      50.191  26.480  27.321  1.00  0.00     0.135 A 
ATOM     88  C   UNL A   1      49.629  27.122  25.072  1.00  0.00     0.135 A 
ATOM     89  F   UNL A   1      49.902  26.395  28.628  1.00  0.00    -0.206 F 
ATOM     90  C   UNL A   1      51.417  25.990  26.881  1.00  0.00     0.059 A 
ATOM     91  C   UNL A   1      50.837  26.614  24.606  1.00  0.00     0.059 A 
ATOM     92  F   UNL A   1      48.780  27.653  24.176  1.00  0.00    -0.206 F 
ATOM     93  C   UNL A   1      51.725  26.050  25.519  1.00  0.00     0.060 A 
BRANCH  93  94
ATOM     94  S   UNL A   1      53.280  25.330  24.951  1.00  0.00     0.124 S 
ATOM     95  O   UNL A   1      53.121  23.934  25.348  1.00  0.00    -0.237 OA
ATOM     96  O   UNL A   1      53.238  25.590  23.516  1.00  0.00    -0.237 OA
ATOM     97  O   UNL A   1      54.293  26.080  25.690  1.00  0.00    -0.744 OA
ENDBRANCH  93  94
ENDBRANCH  61  86
ENDBRANCH  35  36
ENDBRANCH  27  30
ENDBRANCH  25  26
ENDBRANCH  24  25
ENDBRANCH   1  24
TORSDOF 17
ENDMDL
MODEL 3
REMARK VINA RESULT:     -11.3      1.679      2.204
REMARK SMILES CCc1n[nH]c(C(=O)NC[C@@H]2CC[C@@H](C(=O)NCCCNC(=O)c3ccc(-c4c5nc(c(-c6c(F)cc(S(=O)(=O)[O-])cc6F)c6ccc([nH]6)c(-c6c(F)cc(S(=O)(=O)[O-])cc6F)c6nc(c(-c7c(F)cc(S(=O)(=O)[O-])cc7F)c7ccc4[nH]7)C=C6)C=C5)cc3)O2)n1
REMARK SMILES IDX 18 1 17 2 15 3 16 4 14 6 11 7 12 8 90 9 13 10 10 11 9 12
REMARK SMILES IDX 7 13 8 14 6 16 3 17 4 18 91 19 5 20 2 22 1 23 19 24 20 25
REMARK SMILES IDX 21 26 22 27 23 29 24 30 25 31 89 32 26 33 88 34 27 35 28 36
REMARK SMILES IDX 29 37 82 38 30 39 87 40 81 41 83 42 31 43 86 44 80 45 79 46
REMARK SMILES IDX 32 48 66 49 45 50 65 51 46 52 49 53 64 54 84 55 47 56 48 57
REMARK SMILES IDX 63 59 85 60 50 61 33 62 34 63 43 64 35 65 36 66 42 67 44 68
REMARK SMILES IDX 37 69 38 70 39 71 40 72 41 73 67 74 68 75 77 76 69 77 70 78
REMARK SMILES IDX 76 79 78 80 71 81 72 82 73 83 74 84 75 85 51 86 52 87 61 88
REMARK SMILES IDX 53 89 54 90 60 91 62 92 55 93 56 94 57 95 58 96 59 97
REMARK H PARENT 17 5 9 15 5 21 21 28 83 47 49 58
REMARK Flexibility Score: inf
ROOT
ATOM      1  C   UNL A   1      32.329  29.399  26.402  1.00  0.00     0.117 C 
ENDROOT
BRANCH   1   2
ATOM      2  N   UNL A   1      31.653  29.660  25.145  1.00  0.00    -0.354 N 
ATOM      3  C   UNL A   1      31.425  28.831  24.082  1.00  0.00     0.249 C 
ATOM      4  O   UNL A   1      30.852  29.304  23.097  1.00  0.00    -0.272 OA
ATOM      5  H   UNL A   1      31.305  30.575  25.040  1.00  0.00     0.163 HD
BRANCH   3   6
ATOM      6  C   UNL A   1      31.843  27.358  24.159  1.00  0.00     0.207 C 
ATOM      7  C   UNL A   1      31.009  25.443  23.093  1.00  0.00     0.138 C 
ATOM      8  C   UNL A   1      32.514  25.493  22.897  1.00  0.00     0.037 C 
ATOM      9  O   UNL A   1      30.688  26.507  24.017  1.00  0.00    -0.363 OA
ATOM     10  C   UNL A   1      32.803  26.965  23.048  1.00  0.00     0.045 C 
BRANCH   7  11
ATOM     11  C   UNL A   1      30.513  24.120  23.684  1.00  0.00     0.148 C 
BRANCH  11  12
ATOM     12  N   UNL A   1      30.494  24.153  25.144  1.00  0.00    -0.347 N 
ATOM     13  C   UNL A   1      31.116  23.327  26.047  1.00  0.00     0.288 C 
ATOM     14  O   UNL A   1      31.007  23.596  27.247  1.00  0.00    -0.266 OA
ATOM     15  H   UNL A   1      29.954  24.877  25.539  1.00  0.00     0.164 HD
BRANCH  13  16
ATOM     16  C   UNL A   1      31.897  22.197  25.601  1.00  0.00     0.214 A 
ATOM     17  C   UNL A   1      32.621  20.338  24.896  1.00  0.00     0.151 A 
ATOM     18  N   UNL A   1      33.715  21.107  24.863  1.00  0.00    -0.158 NA
ATOM     19  N   UNL A   1      31.499  20.960  25.375  1.00  0.00    -0.207 NA
ATOM     20  N   UNL A   1      33.235  22.272  25.336  1.00  0.00    -0.255 N 
ATOM     21  H   UNL A   1      33.782  23.079  25.474  1.00  0.00     0.192 HD
BRANCH  17  22
ATOM     22  C   UNL A   1      32.597  18.927  24.434  1.00  0.00     0.076 C 
ATOM     23  C   UNL A   1      32.905  17.949  25.560  1.00  0.00     0.012 C 
ENDBRANCH  17  22
ENDBRANCH  13  16
ENDBRANCH  11  12
ENDBRANCH   7  11
ENDBRANCH   3   6
ENDBRANCH   1   2
BRANCH   1  24
ATOM     24  C   UNL A   1      33.846  29.476  26.264  1.00  0.00     0.042 C 
BRANCH  24  25
ATOM     25  C   UNL A   1      34.602  29.193  27.561  1.00  0.00     0.118 C 
BRANCH  25  26
ATOM     26  N   UNL A   1      34.630  30.338  28.466  1.00  0.00    -0.352 N 
ATOM     27  C   UNL A   1      35.650  30.803  29.263  1.00  0.00     0.251 C 
ATOM     28  H   UNL A   1      33.794  30.854  28.513  1.00  0.00     0.163 HD
ATOM     29  O   UNL A   1      35.428  31.696  30.076  1.00  0.00    -0.269 OA
BRANCH  27  30
ATOM     30  C   UNL A   1      37.000  30.211  29.158  1.00  0.00     0.039 A 
ATOM     31  C   UNL A   1      37.634  30.171  27.913  1.00  0.00     0.014 A 
ATOM     32  C   UNL A   1      37.643  29.703  30.289  1.00  0.00     0.014 A 
ATOM     33  C   UNL A   1      38.948  29.701  27.817  1.00  0.00     0.010 A 
ATOM     34  C   UNL A   1      38.973  29.305  30.205  1.00  0.00     0.010 A 
ATOM     35  C   UNL A   1      39.643  29.306  28.970  1.00  0.00    -0.014 A 
BRANCH  35  36
ATOM     36  C   UNL A   1      41.069  28.883  28.934  1.00  0.00     0.031 A 
ATOM     37  C   UNL A   1      42.150  29.915  29.106  1.00  0.00     0.074 A 
ATOM     38  C   UNL A   1      41.389  27.609  28.628  1.00  0.00     0.049 A 
ATOM     39  N   UNL A   1      43.436  29.806  28.902  1.00  0.00    -0.248 NA
ATOM     40  C   UNL A   1      41.722  31.258  29.534  1.00  0.00     0.031 C 
ATOM     41  C   UNL A   1      40.432  26.521  28.412  1.00  0.00     0.029 A 
ATOM     42  N   UNL A   1      42.611  27.018  28.410  1.00  0.00    -0.354 N 
ATOM     43  C   UNL A   1      43.966  31.069  29.140  1.00  0.00     0.074 A 
ATOM     44  C   UNL A   1      42.860  31.937  29.476  1.00  0.00     0.031 C 
ATOM     45  C   UNL A   1      41.100  25.403  28.084  1.00  0.00     0.029 A 
ATOM     46  C   UNL A   1      42.527  25.702  28.014  1.00  0.00     0.049 A 
ATOM     47  H   UNL A   1      43.466  27.492  28.525  1.00  0.00     0.167 HD
ATOM     48  C   UNL A   1      45.259  31.463  29.091  1.00  0.00     0.037 A 
ATOM     49  C   UNL A   1      43.485  24.844  27.605  1.00  0.00     0.037 A 
ATOM     50  C   UNL A   1      46.358  30.581  28.800  1.00  0.00     0.049 A 
ATOM     51  C   UNL A   1      44.918  25.312  27.558  1.00  0.00     0.074 A 
ATOM     52  C   UNL A   1      47.711  30.871  28.799  1.00  0.00     0.029 A 
ATOM     53  N   UNL A   1      46.234  29.243  28.459  1.00  0.00    -0.354 N 
ATOM     54  N   UNL A   1      45.407  26.496  27.843  1.00  0.00    -0.248 NA
ATOM     55  C   UNL A   1      45.932  24.332  27.137  1.00  0.00     0.031 C 
ATOM     56  C   UNL A   1      48.402  29.723  28.405  1.00  0.00     0.029 A 
ATOM     57  C   UNL A   1      47.486  28.700  28.226  1.00  0.00     0.049 A 
ATOM     58  H   UNL A   1      45.383  28.752  28.394  1.00  0.00     0.167 HD
ATOM     59  C   UNL A   1      46.784  26.387  27.680  1.00  0.00     0.074 A 
ATOM     60  C   UNL A   1      47.053  25.026  27.268  1.00  0.00     0.031 C 
ATOM     61  C   UNL A   1      47.740  27.330  27.861  1.00  0.00     0.037 A 
BRANCH  48  62
ATOM     62  C   UNL A   1      45.577  32.908  29.356  1.00  0.00     0.058 A 
ATOM     63  C   UNL A   1      45.994  33.355  30.619  1.00  0.00     0.135 A 
ATOM     64  C   UNL A   1      45.555  33.841  28.305  1.00  0.00     0.135 A 
ATOM     65  F   UNL A   1      46.016  32.510  31.662  1.00  0.00    -0.206 F 
ATOM     66  C   UNL A   1      46.373  34.676  30.833  1.00  0.00     0.059 A 
ATOM     67  C   UNL A   1      45.958  35.159  28.490  1.00  0.00     0.059 A 
ATOM     68  F   UNL A   1      45.160  33.467  27.078  1.00  0.00    -0.206 F 
ATOM     69  C   UNL A   1      46.362  35.568  29.759  1.00  0.00     0.060 A 
BRANCH  69  70
ATOM     70  S   UNL A   1      46.912  37.263  30.044  1.00  0.00     0.124 S 
ATOM     71  O   UNL A   1      46.601  37.436  31.459  1.00  0.00    -0.237 OA
ATOM     72  O   UNL A   1      48.332  37.189  29.712  1.00  0.00    -0.237 OA
ATOM     73  O   UNL A   1      46.095  38.046  29.123  1.00  0.00    -0.744 OA
ENDBRANCH  69  70
ENDBRANCH  48  62
BRANCH  49  74
ATOM     74  C   UNL A   1      43.130  23.459  27.187  1.00  0.00     0.058 A 
ATOM     75  C   UNL A   1      42.925  22.445  28.134  1.00  0.00     0.135 A 
ATOM     76  C   UNL A   1      43.023  23.113  25.830  1.00  0.00     0.135 A 
ATOM     77  F   UNL A   1      43.021  22.721  29.444  1.00  0.00    -0.206 F 
ATOM     78  C   UNL A   1      42.667  21.131  27.754  1.00  0.00     0.059 A 
ATOM     79  C   UNL A   1      42.734  21.814  25.425  1.00  0.00     0.059 A 
ATOM     80  F   UNL A   1      43.189  24.047  24.881  1.00  0.00    -0.206 F 
ATOM     81  C   UNL A   1      42.577  20.825  26.396  1.00  0.00     0.060 A 
BRANCH  81  82
ATOM     82  S   UNL A   1      42.239  19.118  25.911  1.00  0.00     0.124 S 
ATOM     83  O   UNL A   1      40.789  19.142  25.753  1.00  0.00    -0.237 OA
ATOM     84  O   UNL A   1      43.015  18.989  24.681  1.00  0.00    -0.237 OA
ATOM     85  O   UNL A   1      42.739  18.343  27.042  1.00  0.00    -0.744 OA
ENDBRANCH  81  82
ENDBRANCH  49  74
BRANCH  61  86
ATOM     86  C   UNL A   1      49.179  26.925  27.700  1.00  0.00     0.058 A 
ATOM     87  C   UNL A   1      49.838  26.995  26.464  1.00  0.00     0.135 A 
ATOM     88  C   UNL A   1      49.937  26.576  28.831  1.00  0.00     0.135 A 
ATOM     89  F   UNL A   1      49.159  27.314  25.352  1.00  0.00    -0.206 F 
ATOM     90  C   UNL A   1      51.202  26.738  26.356  1.00  0.00     0.059 A 
ATOM     91  C   UNL A   1      51.305  26.343  28.751  1.00  0.00     0.059 A 
ATOM     92  F   UNL A   1      49.353  26.503  30.039  1.00  0.00    -0.206 F 
ATOM     93  C   UNL A   1      51.929  26.426  27.508  1.00  0.00     0.060 A 
BRANCH  93  94
ATOM     94  S   UNL A   1      53.713  26.184  27.366  1.00  0.00     0.124 S 
ATOM     95  O   UNL A   1      54.092  25.963  28.758  1.00  0.00    -0.237 OA
ATOM     96  O   UNL A   1      53.800  25.018  26.491  1.00  0.00    -0.237 OA
ATOM     97  O   UNL A   1      54.180  27.437  26.779  1.00  0.00    -0.744 OA
ENDBRANCH  93  94
ENDBRANCH  61  86
ENDBRANCH  35  36
ENDBRANCH  27  30
ENDBRANCH  25  26
ENDBRANCH  24  25
ENDBRANCH   1  24
TORSDOF 17
ENDMDL
