MODEL 1
REMARK VINA RESULT:     -12.2      0.000      0.000
REMARK SMILES Cc1nc2scc(-c3cccs3)c2c(=O)n1CC(=O)NCCCNC(=O)c1ccc(-c2c3nc(c(-c4c(F)cc(S(=O)(=O)[O-])cc4F)c4ccc([nH]4)c(-c4c(F)cc(S(=O)(=O)[O-])cc4F)c4nc(c(-c5c(F)cc(S(=O)(=O)[O-])cc5F)c5ccc2[nH]5)C=C4)C=C3)cc1
REMARK SMILES IDX 22 1 21 2 20 3 18 4 19 5 17 7 16 8 1 9 2 10 3 11 4 12 14 13
REMARK SMILES IDX 5 14 13 15 15 16 6 17 7 18 8 19 9 20 12 21 10 22 11 23 23 24
REMARK SMILES IDX 24 25 25 26 26 28 27 29 28 30 92 31 29 32 91 33 30 34 31 35
REMARK SMILES IDX 32 36 85 37 33 38 90 39 84 40 86 41 34 42 89 43 83 44 82 45
REMARK SMILES IDX 35 47 69 48 48 49 68 50 49 51 52 52 67 53 87 54 50 55 51 56
REMARK SMILES IDX 66 58 88 59 53 60 36 61 37 62 46 63 38 64 39 65 45 66 47 67
REMARK SMILES IDX 40 68 41 69 42 70 43 71 44 72 70 73 71 74 80 75 72 76 73 77
REMARK SMILES IDX 79 78 81 79 74 80 75 81 76 82 77 83 78 84 54 85 55 86 64 87
REMARK SMILES IDX 56 88 57 89 63 90 65 91 58 92 59 93 60 94 61 95 62 96
REMARK H PARENT 20 6 24 27 86 46 52 57
REMARK Flexibility Score: inf
ROOT
ATOM      1  C   UNL A   1      38.968  21.939  26.128  1.00  0.00     0.042 C 
ENDROOT
BRANCH   1   2
ATOM      2  C   UNL A   1      37.978  23.050  25.775  1.00  0.00     0.117 C 
BRANCH   2   3
ATOM      3  N   UNL A   1      37.389  22.928  24.456  1.00  0.00    -0.354 N 
ATOM      4  C   UNL A   1      36.071  22.998  24.099  1.00  0.00     0.240 C 
ATOM      5  O   UNL A   1      35.813  23.347  22.945  1.00  0.00    -0.273 OA
ATOM      6  H   UNL A   1      38.024  22.774  23.719  1.00  0.00     0.163 HD
BRANCH   4   7
ATOM      7  C   UNL A   1      34.955  22.834  25.140  1.00  0.00     0.227 C 
BRANCH   7   8
ATOM      8  N   UNL A   1      33.674  23.406  24.712  1.00  0.00    -0.287 N 
ATOM      9  C   UNL A   1      32.805  21.267  23.675  1.00  0.00     0.088 C 
ATOM     10  C   UNL A   1      32.673  22.735  24.027  1.00  0.00     0.110 A 
ATOM     11  N   UNL A   1      31.568  23.288  23.625  1.00  0.00    -0.224 NA
ATOM     12  C   UNL A   1      31.398  24.587  23.963  1.00  0.00     0.131 A 
ATOM     13  C   UNL A   1      33.488  24.734  25.139  1.00  0.00     0.263 A 
ATOM     14  S   UNL A   1      29.972  25.426  23.549  1.00  0.00    -0.123 S 
ATOM     15  C   UNL A   1      32.269  25.367  24.687  1.00  0.00     0.085 A 
ATOM     16  O   UNL A   1      34.300  25.309  25.869  1.00  0.00    -0.268 OA
ATOM     17  C   UNL A   1      30.473  26.816  24.411  1.00  0.00     0.077 A 
ATOM     18  C   UNL A   1      31.737  26.672  24.944  1.00  0.00     0.017 A 
BRANCH  18  19
ATOM     19  C   UNL A   1      32.390  27.769  25.730  1.00  0.00     0.036 A 
ATOM     20  C   UNL A   1      32.016  28.158  26.998  1.00  0.00     0.020 A 
ATOM     21  S   UNL A   1      33.697  28.701  25.140  1.00  0.00    -0.144 S 
ATOM     22  C   UNL A   1      32.769  29.275  27.462  1.00  0.00     0.012 A 
ATOM     23  C   UNL A   1      33.677  29.710  26.522  1.00  0.00     0.065 A 
ENDBRANCH  18  19
ENDBRANCH   7   8
ENDBRANCH   4   7
ENDBRANCH   2   3
ENDBRANCH   1   2
BRANCH   1  24
ATOM     24  C   UNL A   1      40.042  22.400  27.092  1.00  0.00     0.118 C 
BRANCH  24  25
ATOM     25  N   UNL A   1      41.406  22.149  26.600  1.00  0.00    -0.352 N 
ATOM     26  C   UNL A   1      42.342  23.063  26.136  1.00  0.00     0.251 C 
ATOM     27  H   UNL A   1      41.693  21.207  26.600  1.00  0.00     0.163 HD
ATOM     28  O   UNL A   1      43.277  22.696  25.434  1.00  0.00    -0.269 OA
BRANCH  26  29
ATOM     29  C   UNL A   1      42.185  24.478  26.515  1.00  0.00     0.039 A 
ATOM     30  C   UNL A   1      41.434  25.398  25.780  1.00  0.00     0.014 A 
ATOM     31  C   UNL A   1      42.777  24.851  27.710  1.00  0.00     0.014 A 
ATOM     32  C   UNL A   1      41.260  26.676  26.313  1.00  0.00     0.010 A 
ATOM     33  C   UNL A   1      42.310  25.944  28.369  1.00  0.00     0.010 A 
ATOM     34  C   UNL A   1      41.703  26.930  27.622  1.00  0.00    -0.014 A 
BRANCH  34  35
ATOM     35  C   UNL A   1      41.502  28.193  28.311  1.00  0.00     0.031 A 
ATOM     36  C   UNL A   1      42.556  29.186  28.016  1.00  0.00     0.074 A 
ATOM     37  C   UNL A   1      40.351  28.506  28.950  1.00  0.00     0.049 A 
ATOM     38  N   UNL A   1      43.563  29.487  28.763  1.00  0.00    -0.248 NA
ATOM     39  C   UNL A   1      42.638  29.736  26.654  1.00  0.00     0.031 C 
ATOM     40  C   UNL A   1      39.095  27.743  29.036  1.00  0.00     0.029 A 
ATOM     41  N   UNL A   1      40.036  29.647  29.616  1.00  0.00    -0.354 N 
ATOM     42  C   UNL A   1      44.241  30.488  28.080  1.00  0.00     0.074 A 
ATOM     43  C   UNL A   1      43.796  30.400  26.715  1.00  0.00     0.031 C 
ATOM     44  C   UNL A   1      38.107  28.532  29.519  1.00  0.00     0.029 A 
ATOM     45  C   UNL A   1      38.688  29.791  29.944  1.00  0.00     0.049 A 
ATOM     46  H   UNL A   1      40.710  30.324  29.851  1.00  0.00     0.167 HD
ATOM     47  C   UNL A   1      44.875  31.481  28.766  1.00  0.00     0.037 A 
ATOM     48  C   UNL A   1      38.108  30.875  30.527  1.00  0.00     0.037 A 
ATOM     49  C   UNL A   1      44.975  31.140  30.169  1.00  0.00     0.049 A 
ATOM     50  C   UNL A   1      39.209  31.618  31.202  1.00  0.00     0.074 A 
ATOM     51  C   UNL A   1      45.550  30.106  30.882  1.00  0.00     0.029 A 
ATOM     52  N   UNL A   1      44.059  31.718  31.019  1.00  0.00    -0.354 N 
ATOM     53  N   UNL A   1      39.888  31.140  32.211  1.00  0.00    -0.248 NA
ATOM     54  C   UNL A   1      39.877  32.659  30.438  1.00  0.00     0.031 C 
ATOM     55  C   UNL A   1      44.626  29.821  31.932  1.00  0.00     0.029 A 
ATOM     56  C   UNL A   1      43.582  30.745  31.859  1.00  0.00     0.049 A 
ATOM     57  H   UNL A   1      43.794  32.666  31.024  1.00  0.00     0.167 HD
ATOM     58  C   UNL A   1      41.206  31.497  31.956  1.00  0.00     0.074 A 
ATOM     59  C   UNL A   1      41.125  32.492  30.886  1.00  0.00     0.031 C 
ATOM     60  C   UNL A   1      42.246  30.743  32.422  1.00  0.00     0.037 A 
BRANCH  47  61
ATOM     61  C   UNL A   1      45.022  32.908  28.286  1.00  0.00     0.058 A 
ATOM     62  C   UNL A   1      46.323  33.428  28.124  1.00  0.00     0.135 A 
ATOM     63  C   UNL A   1      43.982  33.864  28.259  1.00  0.00     0.135 A 
ATOM     64  F   UNL A   1      47.391  32.613  28.112  1.00  0.00    -0.206 F 
ATOM     65  C   UNL A   1      46.580  34.796  28.053  1.00  0.00     0.059 A 
ATOM     66  C   UNL A   1      44.212  35.229  28.137  1.00  0.00     0.059 A 
ATOM     67  F   UNL A   1      42.696  33.545  28.441  1.00  0.00    -0.206 F 
ATOM     68  C   UNL A   1      45.515  35.690  28.083  1.00  0.00     0.060 A 
BRANCH  68  69
ATOM     69  S   UNL A   1      45.850  37.456  28.112  1.00  0.00     0.124 S 
ATOM     70  O   UNL A   1      44.771  37.942  28.963  1.00  0.00    -0.237 OA
ATOM     71  O   UNL A   1      47.190  37.496  28.689  1.00  0.00    -0.237 OA
ATOM     72  O   UNL A   1      45.768  37.836  26.705  1.00  0.00    -0.744 OA
ENDBRANCH  68  69
ENDBRANCH  47  61
BRANCH  48  73
ATOM     73  C   UNL A   1      36.793  31.507  30.218  1.00  0.00     0.058 A 
ATOM     74  C   UNL A   1      36.044  32.156  31.219  1.00  0.00     0.135 A 
ATOM     75  C   UNL A   1      36.392  31.761  28.891  1.00  0.00     0.135 A 
ATOM     76  F   UNL A   1      36.358  31.983  32.513  1.00  0.00    -0.206 F 
ATOM     77  C   UNL A   1      35.010  33.055  30.923  1.00  0.00     0.059 A 
ATOM     78  C   UNL A   1      35.361  32.648  28.571  1.00  0.00     0.059 A 
ATOM     79  F   UNL A   1      37.058  31.227  27.856  1.00  0.00    -0.206 F 
ATOM     80  C   UNL A   1      34.694  33.315  29.591  1.00  0.00     0.060 A 
BRANCH  80  81
ATOM     81  S   UNL A   1      33.495  34.615  29.197  1.00  0.00     0.124 S 
ATOM     82  O   UNL A   1      32.598  33.931  28.270  1.00  0.00    -0.237 OA
ATOM     83  O   UNL A   1      32.937  34.928  30.508  1.00  0.00    -0.237 OA
ATOM     84  O   UNL A   1      34.317  35.668  28.606  1.00  0.00    -0.744 OA
ENDBRANCH  80  81
ENDBRANCH  48  73
BRANCH  60  85
ATOM     85  C   UNL A   1      41.960  29.688  33.463  1.00  0.00     0.058 A 
ATOM     86  C   UNL A   1      41.629  28.349  33.184  1.00  0.00     0.135 A 
ATOM     87  C   UNL A   1      42.204  30.016  34.806  1.00  0.00     0.135 A 
ATOM     88  F   UNL A   1      41.470  27.926  31.922  1.00  0.00    -0.206 F 
ATOM     89  C   UNL A   1      41.521  27.389  34.196  1.00  0.00     0.059 A 
ATOM     90  C   UNL A   1      42.130  29.071  35.825  1.00  0.00     0.059 A 
ATOM     91  F   UNL A   1      42.579  31.263  35.133  1.00  0.00    -0.206 F 
ATOM     92  C   UNL A   1      41.779  27.760  35.514  1.00  0.00     0.060 A 
BRANCH  92  93
ATOM     93  S   UNL A   1      41.713  26.507  36.815  1.00  0.00     0.124 S 
ATOM     94  O   UNL A   1      40.443  26.809  37.469  1.00  0.00    -0.237 OA
ATOM     95  O   UNL A   1      41.754  25.261  36.057  1.00  0.00    -0.237 OA
ATOM     96  O   UNL A   1      42.905  26.780  37.615  1.00  0.00    -0.744 OA
ENDBRANCH  92  93
ENDBRANCH  60  85
ENDBRANCH  34  35
ENDBRANCH  26  29
ENDBRANCH  24  25
ENDBRANCH   1  24
TORSDOF 15
ENDMDL
MODEL 2
REMARK VINA RESULT:     -11.5      3.171      9.371
REMARK SMILES Cc1nc2scc(-c3cccs3)c2c(=O)n1CC(=O)NCCCNC(=O)c1ccc(-c2c3nc(c(-c4c(F)cc(S(=O)(=O)[O-])cc4F)c4ccc([nH]4)c(-c4c(F)cc(S(=O)(=O)[O-])cc4F)c4nc(c(-c5c(F)cc(S(=O)(=O)[O-])cc5F)c5ccc2[nH]5)C=C4)C=C3)cc1
REMARK SMILES IDX 22 1 21 2 20 3 18 4 19 5 17 7 16 8 1 9 2 10 3 11 4 12 14 13
REMARK SMILES IDX 5 14 13 15 15 16 6 17 7 18 8 19 9 20 12 21 10 22 11 23 23 24
REMARK SMILES IDX 24 25 25 26 26 28 27 29 28 30 92 31 29 32 91 33 30 34 31 35
REMARK SMILES IDX 32 36 85 37 33 38 90 39 84 40 86 41 34 42 89 43 83 44 82 45
REMARK SMILES IDX 35 47 69 48 48 49 68 50 49 51 52 52 67 53 87 54 50 55 51 56
REMARK SMILES IDX 66 58 88 59 53 60 36 61 37 62 46 63 38 64 39 65 45 66 47 67
REMARK SMILES IDX 40 68 41 69 42 70 43 71 44 72 70 73 71 74 80 75 72 76 73 77
REMARK SMILES IDX 79 78 81 79 74 80 75 81 76 82 77 83 78 84 54 85 55 86 64 87
REMARK SMILES IDX 56 88 57 89 63 90 65 91 58 92 59 93 60 94 61 95 62 96
REMARK H PARENT 20 6 24 27 86 46 52 57
REMARK Flexibility Score: inf
ROOT
ATOM      1  C   UNL A   1      34.526  31.935  27.735  1.00  0.00     0.042 C 
ENDROOT
BRANCH   1   2
ATOM      2  C   UNL A   1      34.571  30.410  27.845  1.00  0.00     0.117 C 
BRANCH   2   3
ATOM      3  N   UNL A   1      33.300  29.757  27.598  1.00  0.00    -0.354 N 
ATOM      4  C   UNL A   1      33.065  28.497  27.125  1.00  0.00     0.240 C 
ATOM      5  O   UNL A   1      31.994  27.966  27.429  1.00  0.00    -0.273 OA
ATOM      6  H   UNL A   1      32.499  30.294  27.799  1.00  0.00     0.163 HD
BRANCH   4   7
ATOM      7  C   UNL A   1      34.161  27.701  26.403  1.00  0.00     0.227 C 
BRANCH   7   8
ATOM      8  N   UNL A   1      33.738  27.180  25.100  1.00  0.00    -0.287 N 
ATOM      9  C   UNL A   1      32.941  29.412  24.211  1.00  0.00     0.088 C 
ATOM     10  C   UNL A   1      33.161  27.918  24.078  1.00  0.00     0.110 A 
ATOM     11  N   UNL A   1      32.757  27.412  22.951  1.00  0.00    -0.224 NA
ATOM     12  C   UNL A   1      32.980  26.089  22.782  1.00  0.00     0.131 A 
ATOM     13  C   UNL A   1      34.047  25.818  24.918  1.00  0.00     0.263 A 
ATOM     14  S   UNL A   1      32.552  25.302  21.331  1.00  0.00    -0.123 S 
ATOM     15  C   UNL A   1      33.591  25.239  23.674  1.00  0.00     0.085 A 
ATOM     16  O   UNL A   1      34.685  25.173  25.753  1.00  0.00    -0.268 OA
ATOM     17  C   UNL A   1      33.259  23.834  21.852  1.00  0.00     0.077 A 
ATOM     18  C   UNL A   1      33.748  23.919  23.139  1.00  0.00     0.017 A 
BRANCH  18  19
ATOM     19  C   UNL A   1      34.400  22.750  23.813  1.00  0.00     0.036 A 
ATOM     20  C   UNL A   1      33.728  21.756  24.490  1.00  0.00     0.020 A 
ATOM     21  S   UNL A   1      36.093  22.501  23.837  1.00  0.00    -0.144 S 
ATOM     22  C   UNL A   1      34.617  20.816  25.088  1.00  0.00     0.012 A 
ATOM     23  C   UNL A   1      35.936  21.140  24.862  1.00  0.00     0.065 A 
ENDBRANCH  18  19
ENDBRANCH   7   8
ENDBRANCH   4   7
ENDBRANCH   2   3
ENDBRANCH   1   2
BRANCH   1  24
ATOM     24  C   UNL A   1      35.634  32.609  28.520  1.00  0.00     0.118 C 
BRANCH  24  25
ATOM     25  N   UNL A   1      35.231  32.974  29.888  1.00  0.00    -0.352 N 
ATOM     26  C   UNL A   1      35.460  32.287  31.072  1.00  0.00     0.251 C 
ATOM     27  H   UNL A   1      34.733  33.819  29.974  1.00  0.00     0.163 HD
ATOM     28  O   UNL A   1      34.776  32.509  32.063  1.00  0.00    -0.269 OA
BRANCH  26  29
ATOM     29  C   UNL A   1      36.548  31.295  31.105  1.00  0.00     0.039 A 
ATOM     30  C   UNL A   1      36.347  29.919  30.979  1.00  0.00     0.014 A 
ATOM     31  C   UNL A   1      37.831  31.810  31.201  1.00  0.00     0.014 A 
ATOM     32  C   UNL A   1      37.471  29.096  30.899  1.00  0.00     0.010 A 
ATOM     33  C   UNL A   1      38.880  31.062  30.768  1.00  0.00     0.010 A 
ATOM     34  C   UNL A   1      38.739  29.691  30.787  1.00  0.00    -0.014 A 
BRANCH  34  35
ATOM     35  C   UNL A   1      39.970  28.941  30.615  1.00  0.00     0.031 A 
ATOM     36  C   UNL A   1      40.697  28.724  31.883  1.00  0.00     0.074 A 
ATOM     37  C   UNL A   1      40.286  28.301  29.464  1.00  0.00     0.049 A 
ATOM     38  N   UNL A   1      41.721  29.382  32.308  1.00  0.00    -0.248 NA
ATOM     39  C   UNL A   1      40.092  27.844  32.895  1.00  0.00     0.031 C 
ATOM     40  C   UNL A   1      39.495  28.155  28.232  1.00  0.00     0.029 A 
ATOM     41  N   UNL A   1      41.390  27.562  29.182  1.00  0.00    -0.354 N 
ATOM     42  C   UNL A   1      42.064  28.790  33.517  1.00  0.00     0.074 A 
ATOM     43  C   UNL A   1      40.898  28.061  33.938  1.00  0.00     0.031 C 
ATOM     44  C   UNL A   1      40.046  27.208  27.438  1.00  0.00     0.029 A 
ATOM     45  C   UNL A   1      41.317  26.809  28.010  1.00  0.00     0.049 A 
ATOM     46  H   UNL A   1      42.185  27.559  29.761  1.00  0.00     0.167 HD
ATOM     47  C   UNL A   1      43.369  28.714  33.899  1.00  0.00     0.037 A 
ATOM     48  C   UNL A   1      42.247  25.926  27.558  1.00  0.00     0.037 A 
ATOM     49  C   UNL A   1      44.190  29.565  33.064  1.00  0.00     0.049 A 
ATOM     50  C   UNL A   1      43.526  26.294  28.226  1.00  0.00     0.074 A 
ATOM     51  C   UNL A   1      44.220  30.916  32.781  1.00  0.00     0.029 A 
ATOM     52  N   UNL A   1      44.894  28.954  32.051  1.00  0.00    -0.354 N 
ATOM     53  N   UNL A   1      44.149  27.423  28.019  1.00  0.00    -0.248 NA
ATOM     54  C   UNL A   1      43.832  25.636  29.487  1.00  0.00     0.031 C 
ATOM     55  C   UNL A   1      44.520  30.998  31.389  1.00  0.00     0.029 A 
ATOM     56  C   UNL A   1      44.741  29.704  30.913  1.00  0.00     0.049 A 
ATOM     57  H   UNL A   1      45.416  28.124  32.129  1.00  0.00     0.167 HD
ATOM     58  C   UNL A   1      44.581  27.830  29.274  1.00  0.00     0.074 A 
ATOM     59  C   UNL A   1      44.418  26.652  30.128  1.00  0.00     0.031 C 
ATOM     60  C   UNL A   1      44.748  29.153  29.572  1.00  0.00     0.037 A 
BRANCH  47  61
ATOM     61  C   UNL A   1      43.970  27.589  34.714  1.00  0.00     0.058 A 
ATOM     62  C   UNL A   1      44.714  27.921  35.866  1.00  0.00     0.135 A 
ATOM     63  C   UNL A   1      44.099  26.252  34.276  1.00  0.00     0.135 A 
ATOM     64  F   UNL A   1      44.655  29.157  36.388  1.00  0.00    -0.206 F 
ATOM     65  C   UNL A   1      45.601  27.030  36.467  1.00  0.00     0.059 A 
ATOM     66  C   UNL A   1      44.938  25.332  34.893  1.00  0.00     0.059 A 
ATOM     67  F   UNL A   1      43.496  25.786  33.178  1.00  0.00    -0.206 F 
ATOM     68  C   UNL A   1      45.721  25.742  35.956  1.00  0.00     0.060 A 
BRANCH  68  69
ATOM     69  S   UNL A   1      46.950  24.631  36.654  1.00  0.00     0.124 S 
ATOM     70  O   UNL A   1      47.472  23.985  35.456  1.00  0.00    -0.237 OA
ATOM     71  O   UNL A   1      47.850  25.564  37.325  1.00  0.00    -0.237 OA
ATOM     72  O   UNL A   1      46.165  23.778  37.542  1.00  0.00    -0.744 OA
ENDBRANCH  68  69
ENDBRANCH  47  61
BRANCH  48  73
ATOM     73  C   UNL A   1      42.035  24.592  26.924  1.00  0.00     0.058 A 
ATOM     74  C   UNL A   1      42.970  24.061  26.014  1.00  0.00     0.135 A 
ATOM     75  C   UNL A   1      41.083  23.682  27.427  1.00  0.00     0.135 A 
ATOM     76  F   UNL A   1      43.922  24.849  25.491  1.00  0.00    -0.206 F 
ATOM     77  C   UNL A   1      43.006  22.701  25.679  1.00  0.00     0.059 A 
ATOM     78  C   UNL A   1      41.094  22.323  27.102  1.00  0.00     0.059 A 
ATOM     79  F   UNL A   1      40.169  24.069  28.328  1.00  0.00    -0.206 F 
ATOM     80  C   UNL A   1      42.077  21.832  26.251  1.00  0.00     0.060 A 
BRANCH  80  81
ATOM     81  S   UNL A   1      42.235  20.049  25.974  1.00  0.00     0.124 S 
ATOM     82  O   UNL A   1      40.924  19.708  25.431  1.00  0.00    -0.237 OA
ATOM     83  O   UNL A   1      43.350  19.980  25.036  1.00  0.00    -0.237 OA
ATOM     84  O   UNL A   1      42.515  19.521  27.307  1.00  0.00    -0.744 OA
ENDBRANCH  80  81
ENDBRANCH  48  73
BRANCH  60  85
ATOM     85  C   UNL A   1      44.744  30.151  28.439  1.00  0.00     0.058 A 
ATOM     86  C   UNL A   1      43.590  30.715  27.865  1.00  0.00     0.135 A 
ATOM     87  C   UNL A   1      45.979  30.684  28.038  1.00  0.00     0.135 A 
ATOM     88  F   UNL A   1      42.367  30.331  28.257  1.00  0.00    -0.206 F 
ATOM     89  C   UNL A   1      43.663  31.742  26.918  1.00  0.00     0.059 A 
ATOM     90  C   UNL A   1      46.074  31.726  27.120  1.00  0.00     0.059 A 
ATOM     91  F   UNL A   1      47.116  30.230  28.589  1.00  0.00    -0.206 F 
ATOM     92  C   UNL A   1      44.911  32.245  26.556  1.00  0.00     0.060 A 
BRANCH  92  93
ATOM     93  S   UNL A   1      45.006  33.622  25.390  1.00  0.00     0.124 S 
ATOM     94  O   UNL A   1      44.165  34.629  26.032  1.00  0.00    -0.237 OA
ATOM     95  O   UNL A   1      46.436  33.916  25.363  1.00  0.00    -0.237 OA
ATOM     96  O   UNL A   1      44.470  33.061  24.152  1.00  0.00    -0.744 OA
ENDBRANCH  92  93
ENDBRANCH  60  85
ENDBRANCH  34  35
ENDBRANCH  26  29
ENDBRANCH  24  25
ENDBRANCH   1  24
TORSDOF 15
ENDMDL
MODEL 3
REMARK VINA RESULT:     -11.4      2.922      9.307
REMARK SMILES Cc1nc2scc(-c3cccs3)c2c(=O)n1CC(=O)NCCCNC(=O)c1ccc(-c2c3nc(c(-c4c(F)cc(S(=O)(=O)[O-])cc4F)c4ccc([nH]4)c(-c4c(F)cc(S(=O)(=O)[O-])cc4F)c4nc(c(-c5c(F)cc(S(=O)(=O)[O-])cc5F)c5ccc2[nH]5)C=C4)C=C3)cc1
REMARK SMILES IDX 22 1 21 2 20 3 18 4 19 5 17 7 16 8 1 9 2 10 3 11 4 12 14 13
REMARK SMILES IDX 5 14 13 15 15 16 6 17 7 18 8 19 9 20 12 21 10 22 11 23 23 24
REMARK SMILES IDX 24 25 25 26 26 28 27 29 28 30 92 31 29 32 91 33 30 34 31 35
REMARK SMILES IDX 32 36 85 37 33 38 90 39 84 40 86 41 34 42 89 43 83 44 82 45
REMARK SMILES IDX 35 47 69 48 48 49 68 50 49 51 52 52 67 53 87 54 50 55 51 56
REMARK SMILES IDX 66 58 88 59 53 60 36 61 37 62 46 63 38 64 39 65 45 66 47 67
REMARK SMILES IDX 40 68 41 69 42 70 43 71 44 72 70 73 71 74 80 75 72 76 73 77
REMARK SMILES IDX 79 78 81 79 74 80 75 81 76 82 77 83 78 84 54 85 55 86 64 87
REMARK SMILES IDX 56 88 57 89 63 90 65 91 58 92 59 93 60 94 61 95 62 96
REMARK H PARENT 20 6 24 27 86 46 52 57
REMARK Flexibility Score: inf
ROOT
ATOM      1  C   UNL A   1      32.938  29.386  26.631  1.00  0.00     0.042 C 
ENDROOT
BRANCH   1   2
ATOM      2  C   UNL A   1      33.039  28.726  25.254  1.00  0.00     0.117 C 
BRANCH   2   3
ATOM      3  N   UNL A   1      32.286  29.401  24.214  1.00  0.00    -0.354 N 
ATOM      4  C   UNL A   1      31.633  28.857  23.144  1.00  0.00     0.240 C 
ATOM      5  O   UNL A   1      30.690  29.495  22.671  1.00  0.00    -0.273 OA
ATOM      6  H   UNL A   1      32.241  30.382  24.289  1.00  0.00     0.163 HD
BRANCH   4   7
ATOM      7  C   UNL A   1      31.934  27.428  22.670  1.00  0.00     0.227 C 
BRANCH   7   8
ATOM      8  N   UNL A   1      31.616  26.405  23.671  1.00  0.00    -0.287 N 
ATOM      9  C   UNL A   1      29.143  26.935  23.761  1.00  0.00     0.088 C 
ATOM     10  C   UNL A   1      30.364  26.157  24.210  1.00  0.00     0.110 A 
ATOM     11  N   UNL A   1      30.129  25.269  25.130  1.00  0.00    -0.224 NA
ATOM     12  C   UNL A   1      31.188  24.524  25.519  1.00  0.00     0.131 A 
ATOM     13  C   UNL A   1      32.718  25.595  24.006  1.00  0.00     0.263 A 
ATOM     14  S   UNL A   1      31.016  23.286  26.679  1.00  0.00    -0.123 S 
ATOM     15  C   UNL A   1      32.474  24.612  25.038  1.00  0.00     0.085 A 
ATOM     16  O   UNL A   1      33.808  25.702  23.439  1.00  0.00    -0.268 OA
ATOM     17  C   UNL A   1      32.644  22.799  26.483  1.00  0.00     0.077 A 
ATOM     18  C   UNL A   1      33.330  23.612  25.604  1.00  0.00     0.017 A 
BRANCH  18  19
ATOM     19  C   UNL A   1      34.777  23.385  25.286  1.00  0.00     0.036 A 
ATOM     20  C   UNL A   1      35.826  24.060  25.871  1.00  0.00     0.020 A 
ATOM     21  S   UNL A   1      35.319  22.246  24.131  1.00  0.00    -0.144 S 
ATOM     22  C   UNL A   1      37.084  23.683  25.315  1.00  0.00     0.012 A 
ATOM     23  C   UNL A   1      36.945  22.748  24.314  1.00  0.00     0.065 A 
ENDBRANCH  18  19
ENDBRANCH   7   8
ENDBRANCH   4   7
ENDBRANCH   2   3
ENDBRANCH   1   2
BRANCH   1  24
ATOM     24  C   UNL A   1      34.215  30.099  27.030  1.00  0.00     0.118 C 
BRANCH  24  25
ATOM     25  N   UNL A   1      33.986  31.211  27.967  1.00  0.00    -0.352 N 
ATOM     26  C   UNL A   1      34.784  31.637  29.019  1.00  0.00     0.251 C 
ATOM     27  H   UNL A   1      33.155  31.721  27.828  1.00  0.00     0.163 HD
ATOM     28  O   UNL A   1      34.315  32.321  29.920  1.00  0.00    -0.269 OA
BRANCH  26  29
ATOM     29  C   UNL A   1      36.206  31.251  29.018  1.00  0.00     0.039 A 
ATOM     30  C   UNL A   1      37.245  32.119  29.360  1.00  0.00     0.014 A 
ATOM     31  C   UNL A   1      36.471  29.924  28.720  1.00  0.00     0.014 A 
ATOM     32  C   UNL A   1      38.536  31.596  29.442  1.00  0.00     0.010 A 
ATOM     33  C   UNL A   1      37.635  29.368  29.146  1.00  0.00     0.010 A 
ATOM     34  C   UNL A   1      38.712  30.206  29.337  1.00  0.00    -0.014 A 
BRANCH  34  35
ATOM     35  C   UNL A   1      39.994  29.541  29.490  1.00  0.00     0.031 A 
ATOM     36  C   UNL A   1      40.310  29.210  30.895  1.00  0.00     0.074 A 
ATOM     37  C   UNL A   1      40.701  29.059  28.441  1.00  0.00     0.049 A 
ATOM     38  N   UNL A   1      41.094  29.861  31.684  1.00  0.00    -0.248 NA
ATOM     39  C   UNL A   1      39.497  28.188  31.573  1.00  0.00     0.031 C 
ATOM     40  C   UNL A   1      40.343  29.023  27.013  1.00  0.00     0.029 A 
ATOM     41  N   UNL A   1      41.895  28.413  28.450  1.00  0.00    -0.354 N 
ATOM     42  C   UNL A   1      41.095  29.147  32.874  1.00  0.00     0.074 A 
ATOM     43  C   UNL A   1      39.920  28.317  32.833  1.00  0.00     0.031 C 
ATOM     44  C   UNL A   1      41.189  28.205  26.345  1.00  0.00     0.029 A 
ATOM     45  C   UNL A   1      42.250  27.802  27.247  1.00  0.00     0.049 A 
ATOM     46  H   UNL A   1      42.470  28.379  29.248  1.00  0.00     0.167 HD
ATOM     47  C   UNL A   1      42.220  29.087  33.641  1.00  0.00     0.037 A 
ATOM     48  C   UNL A   1      43.344  27.024  27.027  1.00  0.00     0.037 A 
ATOM     49  C   UNL A   1      43.186  30.070  33.195  1.00  0.00     0.049 A 
ATOM     50  C   UNL A   1      44.319  27.371  28.099  1.00  0.00     0.074 A 
ATOM     51  C   UNL A   1      43.189  31.445  33.071  1.00  0.00     0.029 A 
ATOM     52  N   UNL A   1      44.216  29.619  32.401  1.00  0.00    -0.354 N 
ATOM     53  N   UNL A   1      44.880  28.545  28.211  1.00  0.00    -0.248 NA
ATOM     54  C   UNL A   1      44.275  26.582  29.320  1.00  0.00     0.031 C 
ATOM     55  C   UNL A   1      43.896  31.706  31.859  1.00  0.00     0.029 A 
ATOM     56  C   UNL A   1      44.360  30.491  31.353  1.00  0.00     0.049 A 
ATOM     57  H   UNL A   1      44.755  28.811  32.559  1.00  0.00     0.167 HD
ATOM     58  C   UNL A   1      44.869  28.820  29.572  1.00  0.00     0.074 A 
ATOM     59  C   UNL A   1      44.548  27.542  30.210  1.00  0.00     0.031 C 
ATOM     60  C   UNL A   1      44.825  30.104  30.035  1.00  0.00     0.037 A 
BRANCH  47  61
ATOM     61  C   UNL A   1      42.631  27.903  34.489  1.00  0.00     0.058 A 
ATOM     62  C   UNL A   1      42.735  28.085  35.884  1.00  0.00     0.135 A 
ATOM     63  C   UNL A   1      43.198  26.709  33.991  1.00  0.00     0.135 A 
ATOM     64  F   UNL A   1      42.215  29.173  36.475  1.00  0.00    -0.206 F 
ATOM     65  C   UNL A   1      43.443  27.206  36.702  1.00  0.00     0.059 A 
ATOM     66  C   UNL A   1      43.863  25.794  34.798  1.00  0.00     0.059 A 
ATOM     67  F   UNL A   1      43.223  26.404  32.689  1.00  0.00    -0.206 F 
ATOM     68  C   UNL A   1      44.022  26.073  36.143  1.00  0.00     0.060 A 
BRANCH  68  69
ATOM     69  S   UNL A   1      45.035  25.003  37.173  1.00  0.00     0.124 S 
ATOM     70  O   UNL A   1      44.765  23.695  36.587  1.00  0.00    -0.237 OA
ATOM     71  O   UNL A   1      46.370  25.546  36.945  1.00  0.00    -0.237 OA
ATOM     72  O   UNL A   1      44.496  25.219  38.513  1.00  0.00    -0.744 OA
ENDBRANCH  68  69
ENDBRANCH  47  61
BRANCH  48  73
ATOM     73  C   UNL A   1      43.448  25.767  26.232  1.00  0.00     0.058 A 
ATOM     74  C   UNL A   1      44.530  25.548  25.355  1.00  0.00     0.135 A 
ATOM     75  C   UNL A   1      42.671  24.633  26.542  1.00  0.00     0.135 A 
ATOM     76  F   UNL A   1      45.333  26.566  25.010  1.00  0.00    -0.206 F 
ATOM     77  C   UNL A   1      44.862  24.275  24.873  1.00  0.00     0.059 A 
ATOM     78  C   UNL A   1      42.979  23.355  26.069  1.00  0.00     0.059 A 
ATOM     79  F   UNL A   1      41.641  24.717  27.396  1.00  0.00    -0.206 F 
ATOM     80  C   UNL A   1      44.094  23.177  25.259  1.00  0.00     0.060 A 
BRANCH  80  81
ATOM     81  S   UNL A   1      44.628  21.508  24.799  1.00  0.00     0.124 S 
ATOM     82  O   UNL A   1      44.636  21.583  23.342  1.00  0.00    -0.237 OA
ATOM     83  O   UNL A   1      45.936  21.415  25.439  1.00  0.00    -0.237 OA
ATOM     84  O   UNL A   1      43.596  20.650  25.374  1.00  0.00    -0.744 OA
ENDBRANCH  80  81
ENDBRANCH  48  73
BRANCH  60  85
ATOM     85  C   UNL A   1      45.089  31.229  29.063  1.00  0.00     0.058 A 
ATOM     86  C   UNL A   1      46.363  31.622  28.612  1.00  0.00     0.135 A 
ATOM     87  C   UNL A   1      43.982  31.817  28.432  1.00  0.00     0.135 A 
ATOM     88  F   UNL A   1      47.474  31.045  29.092  1.00  0.00    -0.206 F 
ATOM     89  C   UNL A   1      46.527  32.574  27.600  1.00  0.00     0.059 A 
ATOM     90  C   UNL A   1      44.121  32.745  27.403  1.00  0.00     0.059 A 
ATOM     91  F   UNL A   1      42.739  31.445  28.776  1.00  0.00    -0.206 F 
ATOM     92  C   UNL A   1      45.398  33.126  26.998  1.00  0.00     0.060 A 
BRANCH  92  93
ATOM     93  S   UNL A   1      45.604  34.300  25.640  1.00  0.00     0.124 S 
ATOM     94  O   UNL A   1      47.048  34.275  25.427  1.00  0.00    -0.237 OA
ATOM     95  O   UNL A   1      44.797  33.703  24.580  1.00  0.00    -0.237 OA
ATOM     96  O   UNL A   1      45.076  35.550  26.184  1.00  0.00    -0.744 OA
ENDBRANCH  92  93
ENDBRANCH  60  85
ENDBRANCH  34  35
ENDBRANCH  26  29
ENDBRANCH  24  25
ENDBRANCH   1  24
TORSDOF 15
ENDMDL
