MODEL 1
REMARK VINA RESULT:     -13.6      0.000      0.000
REMARK SMILES Cc1ccc(C[C@@H](Cc2cc(F)cc(Br)c2)C(=O)NCCCNC(=O)c2ccc(-c3c4nc(c(-c5c(F)cc(S(=O)(=O)[O-])cc5F)c5ccc([nH]5)c(-c5c(F)cc(S(=O)(=O)[O-])cc5F)c5nc(c(-c6c(F)cc(S(=O)(=O)[O-])cc6F)c6ccc3[nH]6)C=C5)C=C4)cc2)cc1
REMARK SMILES IDX 21 1 20 2 19 3 17 4 18 5 7 7 6 8 5 9 1 10 2 11 3 12 93 13
REMARK SMILES IDX 4 14 92 15 8 16 9 17 10 18 16 19 11 20 14 21 12 22 13 23
REMARK SMILES IDX 15 24 22 25 23 26 24 27 25 29 26 30 27 31 91 32 28 33 90 34
REMARK SMILES IDX 29 35 30 36 31 37 84 38 32 39 89 40 83 41 85 42 33 43 88 44
REMARK SMILES IDX 82 45 81 46 34 48 68 49 47 50 67 51 48 52 51 53 66 54 86 55
REMARK SMILES IDX 49 56 50 57 65 59 87 60 52 61 35 62 36 63 45 64 37 65 38 66
REMARK SMILES IDX 44 67 46 68 39 69 40 70 41 71 42 72 43 73 69 74 70 75 79 76
REMARK SMILES IDX 71 77 72 78 78 79 80 80 73 81 74 82 75 83 76 84 77 85 53 86
REMARK SMILES IDX 54 87 63 88 55 89 56 90 62 91 64 92 57 93 58 94 59 95 60 96
REMARK SMILES IDX 61 97
REMARK H PARENT 19 6 23 28 85 47 51 58
REMARK Flexibility Score: inf
ROOT
ATOM      1  C   UNL A   1      32.892  30.084  27.320  1.00  0.00     0.042 C 
ENDROOT
BRANCH   1   2
ATOM      2  C   UNL A   1      32.057  29.301  26.317  1.00  0.00     0.117 C 
BRANCH   2   3
ATOM      3  N   UNL A   1      32.460  29.569  24.939  1.00  0.00    -0.356 N 
ATOM      4  C   UNL A   1      32.752  28.715  23.917  1.00  0.00     0.223 C 
ATOM      5  O   UNL A   1      33.024  29.194  22.812  1.00  0.00    -0.275 OA
ATOM      6  H   UNL A   1      32.533  30.524  24.710  1.00  0.00     0.163 HD
BRANCH   4   7
ATOM      7  C   UNL A   1      32.777  27.201  24.112  1.00  0.00     0.087 C 
BRANCH   7   8
ATOM      8  C   UNL A   1      32.209  26.581  22.815  1.00  0.00     0.049 C 
BRANCH   8   9
ATOM      9  C   UNL A   1      32.113  25.083  22.677  1.00  0.00    -0.047 A 
ATOM     10  C   UNL A   1      32.110  20.766  22.814  1.00  0.00     0.044 C 
ATOM     11  C   UNL A   1      32.112  22.263  22.742  1.00  0.00    -0.051 A 
ATOM     12  C   UNL A   1      31.090  22.986  23.362  1.00  0.00     0.004 A 
ATOM     13  C   UNL A   1      33.119  22.957  22.062  1.00  0.00     0.004 A 
ATOM     14  C   UNL A   1      31.100  24.379  23.341  1.00  0.00     0.004 A 
ATOM     15  C   UNL A   1      33.118  24.356  22.026  1.00  0.00     0.004 A 
ENDBRANCH   8   9
ENDBRANCH   7   8
BRANCH   7  16
ATOM     16  C   UNL A   1      34.105  26.599  24.646  1.00  0.00     0.049 C 
BRANCH  16  17
ATOM     17  C   UNL A   1      34.153  25.216  25.273  1.00  0.00    -0.043 A 
ATOM     18  C   UNL A   1      33.125  24.838  26.154  1.00  0.00     0.043 A 
ATOM     19  C   UNL A   1      35.161  24.280  25.001  1.00  0.00     0.019 A 
ATOM     20  C   UNL A   1      33.063  23.541  26.660  1.00  0.00     0.124 A 
ATOM     21  C   UNL A   1      35.059  22.968  25.484  1.00  0.00     0.021 A 
ATOM     22  F   UNL A   1      32.066  23.212  27.492  1.00  0.00    -0.207 F 
ATOM     23  C   UNL A   1      34.008  22.589  26.311  1.00  0.00     0.055 A 
ATOM     24  Br  UNL A   1      36.348  21.684  24.968  1.00  0.00    -0.051 Br
ENDBRANCH  16  17
ENDBRANCH   7  16
ENDBRANCH   4   7
ENDBRANCH   2   3
ENDBRANCH   1   2
BRANCH   1  25
ATOM     25  C   UNL A   1      34.377  29.925  27.063  1.00  0.00     0.118 C 
BRANCH  25  26
ATOM     26  N   UNL A   1      35.159  31.103  27.398  1.00  0.00    -0.352 N 
ATOM     27  C   UNL A   1      36.196  31.109  28.322  1.00  0.00     0.251 C 
ATOM     28  H   UNL A   1      34.939  31.948  26.943  1.00  0.00     0.163 HD
ATOM     29  O   UNL A   1      36.437  32.041  29.064  1.00  0.00    -0.269 OA
BRANCH  27  30
ATOM     30  C   UNL A   1      37.107  29.945  28.235  1.00  0.00     0.039 A 
ATOM     31  C   UNL A   1      37.261  29.155  29.378  1.00  0.00     0.014 A 
ATOM     32  C   UNL A   1      37.995  29.853  27.168  1.00  0.00     0.014 A 
ATOM     33  C   UNL A   1      38.405  28.370  29.514  1.00  0.00     0.010 A 
ATOM     34  C   UNL A   1      39.177  29.163  27.355  1.00  0.00     0.010 A 
ATOM     35  C   UNL A   1      39.398  28.443  28.536  1.00  0.00    -0.014 A 
BRANCH  35  36
ATOM     36  C   UNL A   1      40.728  27.859  28.685  1.00  0.00     0.031 A 
ATOM     37  C   UNL A   1      40.978  26.458  28.265  1.00  0.00     0.074 A 
ATOM     38  C   UNL A   1      41.758  28.605  29.144  1.00  0.00     0.049 A 
ATOM     39  N   UNL A   1      41.922  25.719  28.744  1.00  0.00    -0.248 NA
ATOM     40  C   UNL A   1      40.151  25.762  27.284  1.00  0.00     0.031 C 
ATOM     41  C   UNL A   1      43.179  28.278  29.056  1.00  0.00     0.029 A 
ATOM     42  N   UNL A   1      41.718  29.744  29.947  1.00  0.00    -0.354 N 
ATOM     43  C   UNL A   1      41.995  24.580  27.975  1.00  0.00     0.074 A 
ATOM     44  C   UNL A   1      40.842  24.631  27.108  1.00  0.00     0.031 C 
ATOM     45  C   UNL A   1      43.858  29.026  29.938  1.00  0.00     0.029 A 
ATOM     46  C   UNL A   1      42.886  29.759  30.729  1.00  0.00     0.049 A 
ATOM     47  H   UNL A   1      41.000  30.417  29.963  1.00  0.00     0.167 HD
ATOM     48  C   UNL A   1      43.089  23.771  28.055  1.00  0.00     0.037 A 
ATOM     49  C   UNL A   1      42.832  29.741  32.094  1.00  0.00     0.037 A 
ATOM     50  C   UNL A   1      44.062  24.278  29.017  1.00  0.00     0.049 A 
ATOM     51  C   UNL A   1      43.471  28.519  32.715  1.00  0.00     0.074 A 
ATOM     52  C   UNL A   1      45.190  25.067  28.863  1.00  0.00     0.029 A 
ATOM     53  N   UNL A   1      43.772  24.263  30.376  1.00  0.00    -0.354 N 
ATOM     54  N   UNL A   1      43.737  27.422  32.063  1.00  0.00    -0.248 NA
ATOM     55  C   UNL A   1      43.850  28.434  34.123  1.00  0.00     0.031 C 
ATOM     56  C   UNL A   1      45.558  25.563  30.136  1.00  0.00     0.029 A 
ATOM     57  C   UNL A   1      44.662  25.066  31.066  1.00  0.00     0.049 A 
ATOM     58  H   UNL A   1      43.037  23.753  30.789  1.00  0.00     0.167 HD
ATOM     59  C   UNL A   1      44.264  26.488  32.923  1.00  0.00     0.074 A 
ATOM     60  C   UNL A   1      44.342  27.184  34.194  1.00  0.00     0.031 C 
ATOM     61  C   UNL A   1      44.580  25.224  32.510  1.00  0.00     0.037 A 
BRANCH  48  62
ATOM     62  C   UNL A   1      43.386  22.700  27.031  1.00  0.00     0.058 A 
ATOM     63  C   UNL A   1      42.669  21.484  27.016  1.00  0.00     0.135 A 
ATOM     64  C   UNL A   1      44.408  22.798  26.065  1.00  0.00     0.135 A 
ATOM     65  F   UNL A   1      41.621  21.277  27.823  1.00  0.00    -0.206 F 
ATOM     66  C   UNL A   1      43.009  20.413  26.191  1.00  0.00     0.059 A 
ATOM     67  C   UNL A   1      44.801  21.722  25.263  1.00  0.00     0.059 A 
ATOM     68  F   UNL A   1      45.051  23.958  25.860  1.00  0.00    -0.206 F 
ATOM     69  C   UNL A   1      44.101  20.525  25.342  1.00  0.00     0.060 A 
BRANCH  69  70
ATOM     70  S   UNL A   1      44.594  19.085  24.375  1.00  0.00     0.124 S 
ATOM     71  O   UNL A   1      43.634  18.074  24.812  1.00  0.00    -0.237 OA
ATOM     72  O   UNL A   1      44.429  19.566  23.008  1.00  0.00    -0.237 OA
ATOM     73  O   UNL A   1      45.972  18.848  24.796  1.00  0.00    -0.744 OA
ENDBRANCH  69  70
ENDBRANCH  48  62
BRANCH  49  74
ATOM     74  C   UNL A   1      41.663  30.479  32.644  1.00  0.00     0.058 A 
ATOM     75  C   UNL A   1      40.530  29.725  33.002  1.00  0.00     0.135 A 
ATOM     76  C   UNL A   1      41.819  31.738  33.241  1.00  0.00     0.135 A 
ATOM     77  F   UNL A   1      40.307  28.533  32.425  1.00  0.00    -0.206 F 
ATOM     78  C   UNL A   1      39.700  30.108  34.051  1.00  0.00     0.059 A 
ATOM     79  C   UNL A   1      40.992  32.146  34.289  1.00  0.00     0.059 A 
ATOM     80  F   UNL A   1      42.869  32.510  32.925  1.00  0.00    -0.206 F 
ATOM     81  C   UNL A   1      39.994  31.279  34.742  1.00  0.00     0.060 A 
BRANCH  81  82
ATOM     82  S   UNL A   1      39.167  31.565  36.326  1.00  0.00     0.124 S 
ATOM     83  O   UNL A   1      38.304  32.701  36.021  1.00  0.00    -0.237 OA
ATOM     84  O   UNL A   1      38.477  30.291  36.548  1.00  0.00    -0.237 OA
ATOM     85  O   UNL A   1      40.272  31.838  37.237  1.00  0.00    -0.744 OA
ENDBRANCH  81  82
ENDBRANCH  49  74
BRANCH  61  86
ATOM     86  C   UNL A   1      44.959  24.053  33.395  1.00  0.00     0.058 A 
ATOM     87  C   UNL A   1      44.138  22.936  33.626  1.00  0.00     0.135 A 
ATOM     88  C   UNL A   1      46.262  23.967  33.952  1.00  0.00     0.135 A 
ATOM     89  F   UNL A   1      42.930  22.827  33.057  1.00  0.00    -0.206 F 
ATOM     90  C   UNL A   1      44.542  21.854  34.414  1.00  0.00     0.059 A 
ATOM     91  C   UNL A   1      46.705  22.872  34.692  1.00  0.00     0.059 A 
ATOM     92  F   UNL A   1      47.164  24.945  33.784  1.00  0.00    -0.206 F 
ATOM     93  C   UNL A   1      45.828  21.830  34.944  1.00  0.00     0.060 A 
BRANCH  93  94
ATOM     94  S   UNL A   1      46.380  20.412  35.909  1.00  0.00     0.124 S 
ATOM     95  O   UNL A   1      46.106  20.861  37.270  1.00  0.00    -0.237 OA
ATOM     96  O   UNL A   1      45.528  19.332  35.419  1.00  0.00    -0.237 OA
ATOM     97  O   UNL A   1      47.791  20.298  35.551  1.00  0.00    -0.744 OA
ENDBRANCH  93  94
ENDBRANCH  61  86
ENDBRANCH  35  36
ENDBRANCH  27  30
ENDBRANCH  25  26
ENDBRANCH   1  25
TORSDOF 17
ENDMDL
MODEL 2
REMARK VINA RESULT:     -13.3      1.871      2.727
REMARK SMILES Cc1ccc(C[C@@H](Cc2cc(F)cc(Br)c2)C(=O)NCCCNC(=O)c2ccc(-c3c4nc(c(-c5c(F)cc(S(=O)(=O)[O-])cc5F)c5ccc([nH]5)c(-c5c(F)cc(S(=O)(=O)[O-])cc5F)c5nc(c(-c6c(F)cc(S(=O)(=O)[O-])cc6F)c6ccc3[nH]6)C=C5)C=C4)cc2)cc1
REMARK SMILES IDX 21 1 20 2 19 3 17 4 18 5 7 7 6 8 5 9 1 10 2 11 3 12 93 13
REMARK SMILES IDX 4 14 92 15 8 16 9 17 10 18 16 19 11 20 14 21 12 22 13 23
REMARK SMILES IDX 15 24 22 25 23 26 24 27 25 29 26 30 27 31 91 32 28 33 90 34
REMARK SMILES IDX 29 35 30 36 31 37 84 38 32 39 89 40 83 41 85 42 33 43 88 44
REMARK SMILES IDX 82 45 81 46 34 48 68 49 47 50 67 51 48 52 51 53 66 54 86 55
REMARK SMILES IDX 49 56 50 57 65 59 87 60 52 61 35 62 36 63 45 64 37 65 38 66
REMARK SMILES IDX 44 67 46 68 39 69 40 70 41 71 42 72 43 73 69 74 70 75 79 76
REMARK SMILES IDX 71 77 72 78 78 79 80 80 73 81 74 82 75 83 76 84 77 85 53 86
REMARK SMILES IDX 54 87 63 88 55 89 56 90 62 91 64 92 57 93 58 94 59 95 60 96
REMARK SMILES IDX 61 97
REMARK H PARENT 19 6 23 28 85 47 51 58
REMARK Flexibility Score: inf
ROOT
ATOM      1  C   UNL A   1      33.560  29.201  27.786  1.00  0.00     0.042 C 
ENDROOT
BRANCH   1   2
ATOM      2  C   UNL A   1      32.101  29.078  27.366  1.00  0.00     0.117 C 
BRANCH   2   3
ATOM      3  N   UNL A   1      31.620  27.701  27.452  1.00  0.00    -0.356 N 
ATOM      4  C   UNL A   1      31.824  26.637  26.625  1.00  0.00     0.223 C 
ATOM      5  O   UNL A   1      31.343  25.546  26.944  1.00  0.00    -0.275 OA
ATOM      6  H   UNL A   1      31.055  27.510  28.236  1.00  0.00     0.163 HD
BRANCH   4   7
ATOM      7  C   UNL A   1      32.599  26.767  25.316  1.00  0.00     0.087 C 
BRANCH   7   8
ATOM      8  C   UNL A   1      33.986  26.128  25.560  1.00  0.00     0.049 C 
BRANCH   8   9
ATOM      9  C   UNL A   1      34.183  24.651  25.332  1.00  0.00    -0.047 A 
ATOM     10  C   UNL A   1      35.302  20.502  24.897  1.00  0.00     0.044 C 
ATOM     11  C   UNL A   1      34.899  21.939  25.029  1.00  0.00    -0.051 A 
ATOM     12  C   UNL A   1      34.408  22.410  26.249  1.00  0.00     0.004 A 
ATOM     13  C   UNL A   1      35.001  22.826  23.952  1.00  0.00     0.004 A 
ATOM     14  C   UNL A   1      34.069  23.753  26.402  1.00  0.00     0.004 A 
ATOM     15  C   UNL A   1      34.643  24.170  24.100  1.00  0.00     0.004 A 
ENDBRANCH   8   9
ENDBRANCH   7   8
BRANCH   7  16
ATOM     16  C   UNL A   1      31.851  26.332  24.026  1.00  0.00     0.049 C 
BRANCH  16  17
ATOM     17  C   UNL A   1      30.532  26.966  23.623  1.00  0.00    -0.043 A 
ATOM     18  C   UNL A   1      29.335  26.389  24.082  1.00  0.00     0.043 A 
ATOM     19  C   UNL A   1      30.441  28.120  22.831  1.00  0.00     0.019 A 
ATOM     20  C   UNL A   1      28.108  27.001  23.836  1.00  0.00     0.124 A 
ATOM     21  C   UNL A   1      29.203  28.746  22.630  1.00  0.00     0.021 A 
ATOM     22  F   UNL A   1      26.988  26.427  24.293  1.00  0.00    -0.207 F 
ATOM     23  C   UNL A   1      28.031  28.195  23.136  1.00  0.00     0.055 A 
ATOM     24  Br  UNL A   1      29.131  30.389  21.695  1.00  0.00    -0.051 Br
ENDBRANCH  16  17
ENDBRANCH   7  16
ENDBRANCH   4   7
ENDBRANCH   2   3
ENDBRANCH   1   2
BRANCH   1  25
ATOM     25  C   UNL A   1      34.382  29.948  26.757  1.00  0.00     0.118 C 
BRANCH  25  26
ATOM     26  N   UNL A   1      35.085  31.101  27.294  1.00  0.00    -0.352 N 
ATOM     27  C   UNL A   1      36.027  31.030  28.312  1.00  0.00     0.251 C 
ATOM     28  H   UNL A   1      34.881  31.985  26.912  1.00  0.00     0.163 HD
ATOM     29  O   UNL A   1      36.162  31.879  29.171  1.00  0.00    -0.269 OA
BRANCH  27  30
ATOM     30  C   UNL A   1      36.983  29.906  28.192  1.00  0.00     0.039 A 
ATOM     31  C   UNL A   1      37.110  29.043  29.285  1.00  0.00     0.014 A 
ATOM     32  C   UNL A   1      37.924  29.917  27.167  1.00  0.00     0.014 A 
ATOM     33  C   UNL A   1      38.274  28.289  29.424  1.00  0.00     0.010 A 
ATOM     34  C   UNL A   1      39.119  29.255  27.365  1.00  0.00     0.010 A 
ATOM     35  C   UNL A   1      39.310  28.462  28.504  1.00  0.00    -0.014 A 
BRANCH  35  36
ATOM     36  C   UNL A   1      40.652  27.914  28.680  1.00  0.00     0.031 A 
ATOM     37  C   UNL A   1      40.956  26.532  28.234  1.00  0.00     0.074 A 
ATOM     38  C   UNL A   1      41.645  28.677  29.187  1.00  0.00     0.049 A 
ATOM     39  N   UNL A   1      41.907  25.808  28.723  1.00  0.00    -0.248 NA
ATOM     40  C   UNL A   1      40.179  25.837  27.211  1.00  0.00     0.031 C 
ATOM     41  C   UNL A   1      43.077  28.393  29.135  1.00  0.00     0.029 A 
ATOM     42  N   UNL A   1      41.547  29.794  30.016  1.00  0.00    -0.354 N 
ATOM     43  C   UNL A   1      42.036  24.691  27.930  1.00  0.00     0.074 A 
ATOM     44  C   UNL A   1      40.908  24.731  27.029  1.00  0.00     0.031 C 
ATOM     45  C   UNL A   1      43.707  29.138  30.055  1.00  0.00     0.029 A 
ATOM     46  C   UNL A   1      42.690  29.823  30.834  1.00  0.00     0.049 A 
ATOM     47  H   UNL A   1      40.809  30.446  30.026  1.00  0.00     0.167 HD
ATOM     48  C   UNL A   1      43.151  23.912  28.023  1.00  0.00     0.037 A 
ATOM     49  C   UNL A   1      42.597  29.769  32.196  1.00  0.00     0.037 A 
ATOM     50  C   UNL A   1      44.079  24.423  29.026  1.00  0.00     0.049 A 
ATOM     51  C   UNL A   1      43.253  28.551  32.806  1.00  0.00     0.074 A 
ATOM     52  C   UNL A   1      45.187  25.248  28.926  1.00  0.00     0.029 A 
ATOM     53  N   UNL A   1      43.749  24.366  30.375  1.00  0.00    -0.354 N 
ATOM     54  N   UNL A   1      43.571  27.479  32.136  1.00  0.00    -0.248 NA
ATOM     55  C   UNL A   1      43.592  28.442  34.222  1.00  0.00     0.031 C 
ATOM     56  C   UNL A   1      45.502  25.722  30.221  1.00  0.00     0.029 A 
ATOM     57  C   UNL A   1      44.594  25.176  31.111  1.00  0.00     0.049 A 
ATOM     58  H   UNL A   1      43.018  23.825  30.753  1.00  0.00     0.167 HD
ATOM     59  C   UNL A   1      44.098  26.540  32.989  1.00  0.00     0.074 A 
ATOM     60  C   UNL A   1      44.118  27.205  34.278  1.00  0.00     0.031 C 
ATOM     61  C   UNL A   1      44.465  25.295  32.556  1.00  0.00     0.037 A 
BRANCH  48  62
ATOM     62  C   UNL A   1      43.510  22.876  26.983  1.00  0.00     0.058 A 
ATOM     63  C   UNL A   1      42.837  21.636  26.924  1.00  0.00     0.135 A 
ATOM     64  C   UNL A   1      44.549  23.034  26.044  1.00  0.00     0.135 A 
ATOM     65  F   UNL A   1      41.779  21.374  27.701  1.00  0.00    -0.206 F 
ATOM     66  C   UNL A   1      43.235  20.597  26.083  1.00  0.00     0.059 A 
ATOM     67  C   UNL A   1      44.999  21.991  25.228  1.00  0.00     0.059 A 
ATOM     68  F   UNL A   1      45.154  24.220  25.880  1.00  0.00    -0.206 F 
ATOM     69  C   UNL A   1      44.341  20.768  25.264  1.00  0.00     0.060 A 
BRANCH  69  70
ATOM     70  S   UNL A   1      44.909  19.369  24.277  1.00  0.00     0.124 S 
ATOM     71  O   UNL A   1      46.355  19.418  24.473  1.00  0.00    -0.237 OA
ATOM     72  O   UNL A   1      44.221  18.250  24.911  1.00  0.00    -0.237 OA
ATOM     73  O   UNL A   1      44.458  19.700  22.928  1.00  0.00    -0.744 OA
ENDBRANCH  69  70
ENDBRANCH  48  62
BRANCH  49  74
ATOM     74  C   UNL A   1      41.390  30.460  32.727  1.00  0.00     0.058 A 
ATOM     75  C   UNL A   1      40.266  29.665  33.024  1.00  0.00     0.135 A 
ATOM     76  C   UNL A   1      41.492  31.702  33.368  1.00  0.00     0.135 A 
ATOM     77  F   UNL A   1      40.096  28.486  32.403  1.00  0.00    -0.206 F 
ATOM     78  C   UNL A   1      39.391  29.993  34.054  1.00  0.00     0.059 A 
ATOM     79  C   UNL A   1      40.620  32.056  34.399  1.00  0.00     0.059 A 
ATOM     80  F   UNL A   1      42.531  32.511  33.112  1.00  0.00    -0.206 F 
ATOM     81  C   UNL A   1      39.631  31.150  34.791  1.00  0.00     0.060 A 
BRANCH  81  82
ATOM     82  S   UNL A   1      38.743  31.364  36.354  1.00  0.00     0.124 S 
ATOM     83  O   UNL A   1      39.756  31.985  37.199  1.00  0.00    -0.237 OA
ATOM     84  O   UNL A   1      37.631  32.232  35.960  1.00  0.00    -0.237 OA
ATOM     85  O   UNL A   1      38.368  30.002  36.714  1.00  0.00    -0.744 OA
ENDBRANCH  81  82
ENDBRANCH  49  74
BRANCH  61  86
ATOM     86  C   UNL A   1      44.852  24.115  33.423  1.00  0.00     0.058 A 
ATOM     87  C   UNL A   1      44.049  22.978  33.618  1.00  0.00     0.135 A 
ATOM     88  C   UNL A   1      46.147  24.041  33.999  1.00  0.00     0.135 A 
ATOM     89  F   UNL A   1      42.852  22.858  33.027  1.00  0.00    -0.206 F 
ATOM     90  C   UNL A   1      44.460  21.888  34.391  1.00  0.00     0.059 A 
ATOM     91  C   UNL A   1      46.599  22.940  34.724  1.00  0.00     0.059 A 
ATOM     92  F   UNL A   1      47.032  25.039  33.866  1.00  0.00    -0.206 F 
ATOM     93  C   UNL A   1      45.737  21.877  34.941  1.00  0.00     0.060 A 
BRANCH  93  94
ATOM     94  S   UNL A   1      46.302  20.450  35.887  1.00  0.00     0.124 S 
ATOM     95  O   UNL A   1      47.700  20.365  35.479  1.00  0.00    -0.237 OA
ATOM     96  O   UNL A   1      46.073  20.864  37.268  1.00  0.00    -0.237 OA
ATOM     97  O   UNL A   1      45.436  19.375  35.412  1.00  0.00    -0.744 OA
ENDBRANCH  93  94
ENDBRANCH  61  86
ENDBRANCH  35  36
ENDBRANCH  27  30
ENDBRANCH  25  26
ENDBRANCH   1  25
TORSDOF 17
ENDMDL
MODEL 3
REMARK VINA RESULT:     -13.3      5.098     11.174
REMARK SMILES Cc1ccc(C[C@@H](Cc2cc(F)cc(Br)c2)C(=O)NCCCNC(=O)c2ccc(-c3c4nc(c(-c5c(F)cc(S(=O)(=O)[O-])cc5F)c5ccc([nH]5)c(-c5c(F)cc(S(=O)(=O)[O-])cc5F)c5nc(c(-c6c(F)cc(S(=O)(=O)[O-])cc6F)c6ccc3[nH]6)C=C5)C=C4)cc2)cc1
REMARK SMILES IDX 21 1 20 2 19 3 17 4 18 5 7 7 6 8 5 9 1 10 2 11 3 12 93 13
REMARK SMILES IDX 4 14 92 15 8 16 9 17 10 18 16 19 11 20 14 21 12 22 13 23
REMARK SMILES IDX 15 24 22 25 23 26 24 27 25 29 26 30 27 31 91 32 28 33 90 34
REMARK SMILES IDX 29 35 30 36 31 37 84 38 32 39 89 40 83 41 85 42 33 43 88 44
REMARK SMILES IDX 82 45 81 46 34 48 68 49 47 50 67 51 48 52 51 53 66 54 86 55
REMARK SMILES IDX 49 56 50 57 65 59 87 60 52 61 35 62 36 63 45 64 37 65 38 66
REMARK SMILES IDX 44 67 46 68 39 69 40 70 41 71 42 72 43 73 69 74 70 75 79 76
REMARK SMILES IDX 71 77 72 78 78 79 80 80 73 81 74 82 75 83 76 84 77 85 53 86
REMARK SMILES IDX 54 87 63 88 55 89 56 90 62 91 64 92 57 93 58 94 59 95 60 96
REMARK SMILES IDX 61 97
REMARK H PARENT 19 6 23 28 85 47 51 58
REMARK Flexibility Score: inf
ROOT
ATOM      1  C   UNL A   1      37.725  22.046  25.017  1.00  0.00     0.042 C 
ENDROOT
BRANCH   1   2
ATOM      2  C   UNL A   1      36.237  21.748  24.899  1.00  0.00     0.117 C 
BRANCH   2   3
ATOM      3  N   UNL A   1      35.598  21.616  26.206  1.00  0.00    -0.356 N 
ATOM      4  C   UNL A   1      34.499  22.235  26.723  1.00  0.00     0.223 C 
ATOM      5  O   UNL A   1      34.122  21.913  27.853  1.00  0.00    -0.275 OA
ATOM      6  H   UNL A   1      36.032  20.974  26.813  1.00  0.00     0.163 HD
BRANCH   4   7
ATOM      7  C   UNL A   1      33.750  23.325  25.959  1.00  0.00     0.087 C 
BRANCH   7   8
ATOM      8  C   UNL A   1      32.247  23.115  26.254  1.00  0.00     0.049 C 
BRANCH   8   9
ATOM      9  C   UNL A   1      31.222  24.017  25.615  1.00  0.00    -0.047 A 
ATOM     10  C   UNL A   1      28.748  26.957  23.643  1.00  0.00     0.044 C 
ATOM     11  C   UNL A   1      29.587  25.931  24.342  1.00  0.00    -0.051 A 
ATOM     12  C   UNL A   1      30.210  24.925  23.599  1.00  0.00     0.004 A 
ATOM     13  C   UNL A   1      29.762  25.957  25.730  1.00  0.00     0.004 A 
ATOM     14  C   UNL A   1      31.029  23.989  24.228  1.00  0.00     0.004 A 
ATOM     15  C   UNL A   1      30.569  25.005  26.363  1.00  0.00     0.004 A 
ENDBRANCH   8   9
ENDBRANCH   7   8
BRANCH   7  16
ATOM     16  C   UNL A   1      34.294  24.771  26.114  1.00  0.00     0.049 C 
BRANCH  16  17
ATOM     17  C   UNL A   1      33.854  25.887  25.183  1.00  0.00    -0.043 A 
ATOM     18  C   UNL A   1      33.957  25.690  23.795  1.00  0.00     0.043 A 
ATOM     19  C   UNL A   1      33.322  27.104  25.634  1.00  0.00     0.019 A 
ATOM     20  C   UNL A   1      33.458  26.636  22.902  1.00  0.00     0.124 A 
ATOM     21  C   UNL A   1      32.785  28.025  24.724  1.00  0.00     0.021 A 
ATOM     22  F   UNL A   1      33.568  26.414  21.586  1.00  0.00    -0.207 F 
ATOM     23  C   UNL A   1      32.844  27.794  23.354  1.00  0.00     0.055 A 
ATOM     24  Br  UNL A   1      31.929  29.582  25.370  1.00  0.00    -0.051 Br
ENDBRANCH  16  17
ENDBRANCH   7  16
ENDBRANCH   4   7
ENDBRANCH   2   3
ENDBRANCH   1   2
BRANCH   1  25
ATOM     25  C   UNL A   1      38.017  23.022  26.138  1.00  0.00     0.118 C 
BRANCH  25  26
ATOM     26  N   UNL A   1      39.251  22.741  26.852  1.00  0.00    -0.352 N 
ATOM     27  C   UNL A   1      40.259  23.674  27.056  1.00  0.00     0.251 C 
ATOM     28  H   UNL A   1      39.379  21.834  27.213  1.00  0.00     0.163 HD
ATOM     29  O   UNL A   1      41.445  23.402  27.051  1.00  0.00    -0.269 OA
BRANCH  27  30
ATOM     30  C   UNL A   1      39.786  25.021  27.443  1.00  0.00     0.039 A 
ATOM     31  C   UNL A   1      40.216  26.106  26.673  1.00  0.00     0.014 A 
ATOM     32  C   UNL A   1      39.208  25.208  28.695  1.00  0.00     0.014 A 
ATOM     33  C   UNL A   1      40.204  27.384  27.231  1.00  0.00     0.010 A 
ATOM     34  C   UNL A   1      39.302  26.454  29.283  1.00  0.00     0.010 A 
ATOM     35  C   UNL A   1      39.823  27.539  28.565  1.00  0.00    -0.014 A 
BRANCH  35  36
ATOM     36  C   UNL A   1      39.997  28.776  29.320  1.00  0.00     0.031 A 
ATOM     37  C   UNL A   1      38.934  29.812  29.308  1.00  0.00     0.074 A 
ATOM     38  C   UNL A   1      41.093  28.964  30.088  1.00  0.00     0.049 A 
ATOM     39  N   UNL A   1      39.146  31.065  29.534  1.00  0.00    -0.248 NA
ATOM     40  C   UNL A   1      37.537  29.515  29.003  1.00  0.00     0.031 C 
ATOM     41  C   UNL A   1      41.268  29.977  31.126  1.00  0.00     0.029 A 
ATOM     42  N   UNL A   1      42.352  28.379  29.966  1.00  0.00    -0.354 N 
ATOM     43  C   UNL A   1      37.922  31.681  29.663  1.00  0.00     0.074 A 
ATOM     44  C   UNL A   1      36.951  30.684  29.278  1.00  0.00     0.031 C 
ATOM     45  C   UNL A   1      42.575  30.116  31.389  1.00  0.00     0.029 A 
ATOM     46  C   UNL A   1      43.304  29.304  30.430  1.00  0.00     0.049 A 
ATOM     47  H   UNL A   1      42.542  27.478  29.616  1.00  0.00     0.167 HD
ATOM     48  C   UNL A   1      37.839  32.929  30.205  1.00  0.00     0.037 A 
ATOM     49  C   UNL A   1      44.299  29.774  29.621  1.00  0.00     0.037 A 
ATOM     50  C   UNL A   1      39.154  33.442  30.573  1.00  0.00     0.049 A 
ATOM     51  C   UNL A   1      44.239  31.266  29.381  1.00  0.00     0.074 A 
ATOM     52  C   UNL A   1      39.848  33.434  31.772  1.00  0.00     0.029 A 
ATOM     53  N   UNL A   1      40.075  33.774  29.587  1.00  0.00    -0.354 N 
ATOM     54  N   UNL A   1      43.186  32.001  29.607  1.00  0.00    -0.248 NA
ATOM     55  C   UNL A   1      45.359  32.044  28.859  1.00  0.00     0.031 C 
ATOM     56  C   UNL A   1      41.204  33.726  31.499  1.00  0.00     0.029 A 
ATOM     57  C   UNL A   1      41.335  33.923  30.136  1.00  0.00     0.049 A 
ATOM     58  H   UNL A   1      39.861  33.888  28.632  1.00  0.00     0.167 HD
ATOM     59  C   UNL A   1      43.441  33.300  29.238  1.00  0.00     0.074 A 
ATOM     60  C   UNL A   1      44.826  33.279  28.806  1.00  0.00     0.031 C 
ATOM     61  C   UNL A   1      42.485  34.274  29.316  1.00  0.00     0.037 A 
BRANCH  48  62
ATOM     62  C   UNL A   1      36.533  33.530  30.670  1.00  0.00     0.058 A 
ATOM     63  C   UNL A   1      35.581  34.014  29.746  1.00  0.00     0.135 A 
ATOM     64  C   UNL A   1      36.184  33.700  32.025  1.00  0.00     0.135 A 
ATOM     65  F   UNL A   1      35.739  33.853  28.426  1.00  0.00    -0.206 F 
ATOM     66  C   UNL A   1      34.436  34.710  30.131  1.00  0.00     0.059 A 
ATOM     67  C   UNL A   1      35.070  34.438  32.436  1.00  0.00     0.059 A 
ATOM     68  F   UNL A   1      36.916  33.137  32.999  1.00  0.00    -0.206 F 
ATOM     69  C   UNL A   1      34.204  34.952  31.477  1.00  0.00     0.060 A 
BRANCH  69  70
ATOM     70  S   UNL A   1      32.782  35.958  31.942  1.00  0.00     0.124 S 
ATOM     71  O   UNL A   1      33.354  36.863  32.936  1.00  0.00    -0.237 OA
ATOM     72  O   UNL A   1      32.411  36.567  30.670  1.00  0.00    -0.237 OA
ATOM     73  O   UNL A   1      31.834  34.982  32.472  1.00  0.00    -0.744 OA
ENDBRANCH  69  70
ENDBRANCH  48  62
BRANCH  49  74
ATOM     74  C   UNL A   1      44.788  28.761  28.647  1.00  0.00     0.058 A 
ATOM     75  C   UNL A   1      44.212  28.764  27.362  1.00  0.00     0.135 A 
ATOM     76  C   UNL A   1      46.055  28.176  28.788  1.00  0.00     0.135 A 
ATOM     77  F   UNL A   1      42.981  29.270  27.180  1.00  0.00    -0.206 F 
ATOM     78  C   UNL A   1      44.938  28.392  26.235  1.00  0.00     0.059 A 
ATOM     79  C   UNL A   1      46.797  27.788  27.671  1.00  0.00     0.059 A 
ATOM     80  F   UNL A   1      46.646  28.127  29.990  1.00  0.00    -0.206 F 
ATOM     81  C   UNL A   1      46.260  27.988  26.397  1.00  0.00     0.060 A 
BRANCH  81  82
ATOM     82  S   UNL A   1      47.306  27.887  24.923  1.00  0.00     0.124 S 
ATOM     83  O   UNL A   1      46.672  28.849  24.030  1.00  0.00    -0.237 OA
ATOM     84  O   UNL A   1      48.617  28.281  25.447  1.00  0.00    -0.237 OA
ATOM     85  O   UNL A   1      47.192  26.488  24.527  1.00  0.00    -0.744 OA
ENDBRANCH  81  82
ENDBRANCH  49  74
BRANCH  61  86
ATOM     86  C   UNL A   1      42.574  35.675  28.745  1.00  0.00     0.058 A 
ATOM     87  C   UNL A   1      41.807  36.142  27.665  1.00  0.00     0.135 A 
ATOM     88  C   UNL A   1      43.376  36.659  29.381  1.00  0.00     0.135 A 
ATOM     89  F   UNL A   1      40.913  35.354  27.051  1.00  0.00    -0.206 F 
ATOM     90  C   UNL A   1      41.885  37.456  27.196  1.00  0.00     0.059 A 
ATOM     91  C   UNL A   1      43.425  37.989  28.967  1.00  0.00     0.059 A 
ATOM     92  F   UNL A   1      44.136  36.365  30.446  1.00  0.00    -0.206 F 
ATOM     93  C   UNL A   1      42.698  38.374  27.853  1.00  0.00     0.060 A 
BRANCH  93  94
ATOM     94  S   UNL A   1      42.760  40.087  27.295  1.00  0.00     0.124 S 
ATOM     95  O   UNL A   1      41.507  40.198  26.556  1.00  0.00    -0.237 OA
ATOM     96  O   UNL A   1      42.820  40.835  28.548  1.00  0.00    -0.237 OA
ATOM     97  O   UNL A   1      43.977  40.130  26.491  1.00  0.00    -0.744 OA
ENDBRANCH  93  94
ENDBRANCH  61  86
ENDBRANCH  35  36
ENDBRANCH  27  30
ENDBRANCH  25  26
ENDBRANCH   1  25
TORSDOF 17
ENDMDL
