MODEL 1
REMARK VINA RESULT:     -11.0      0.000      0.000
REMARK SMILES CC[C@@H](Oc1ccccc1)C(=O)NCCCNC(=O)c1ccc(-c2c3nc(c(-c4c(F)cc(S(=O)(=O)[O-])cc4F)c4ccc([nH]4)c(-c4c(F)cc(S(=O)(=O)[O-])cc4F)c4nc(c(-c5c(F)cc(S(=O)(=O)[O-])cc5F)c5ccc2[nH]5)C=C4)C=C3)cc1
REMARK SMILES IDX 15 1 14 2 13 3 11 4 12 5 3 7 2 8 1 9 4 10 5 11 6 12 10 13
REMARK SMILES IDX 7 14 9 15 8 16 16 17 17 18 18 19 19 21 20 22 21 23 85 24
REMARK SMILES IDX 22 25 84 26 23 27 24 28 25 29 78 30 26 31 83 32 77 33 79 34
REMARK SMILES IDX 27 35 82 36 76 37 75 38 28 40 62 41 41 42 61 43 42 44 45 45
REMARK SMILES IDX 60 46 80 47 43 48 44 49 59 51 81 52 46 53 29 54 30 55 39 56
REMARK SMILES IDX 31 57 32 58 38 59 40 60 33 61 34 62 35 63 36 64 37 65 63 66
REMARK SMILES IDX 64 67 73 68 65 69 66 70 72 71 74 72 67 73 68 74 69 75 70 76
REMARK SMILES IDX 71 77 47 78 48 79 57 80 49 81 50 82 56 83 58 84 51 85 52 86
REMARK SMILES IDX 53 87 54 88 55 89
REMARK H PARENT 13 6 17 20 79 39 45 50
REMARK Flexibility Score: inf
ROOT
ATOM      1  C   UNL A   1      40.298  21.624  26.839  1.00  0.00     0.042 C 
ENDROOT
BRANCH   1   2
ATOM      2  C   UNL A   1      41.314  20.688  27.477  1.00  0.00     0.118 C 
BRANCH   2   3
ATOM      3  N   UNL A   1      41.476  19.440  26.742  1.00  0.00    -0.353 N 
ATOM      4  C   UNL A   1      42.556  18.983  26.028  1.00  0.00     0.261 C 
ATOM      5  O   UNL A   1      42.492  17.852  25.539  1.00  0.00    -0.271 OA
ATOM      6  H   UNL A   1      40.699  18.837  26.760  1.00  0.00     0.163 HD
BRANCH   4   7
ATOM      7  C   UNL A   1      43.777  19.893  25.785  1.00  0.00     0.261 C 
BRANCH   7   8
ATOM      8  C   UNL A   1      44.789  19.073  24.962  1.00  0.00     0.052 C 
ATOM      9  C   UNL A   1      46.190  18.995  25.561  1.00  0.00     0.008 C 
ENDBRANCH   7   8
BRANCH   7  10
ATOM     10  O   UNL A   1      43.207  21.057  25.176  1.00  0.00    -0.481 OA
BRANCH  10  11
ATOM     11  C   UNL A   1      43.779  22.258  25.439  1.00  0.00     0.120 A 
ATOM     12  C   UNL A   1      44.075  22.564  26.765  1.00  0.00     0.046 A 
ATOM     13  C   UNL A   1      43.848  23.247  24.465  1.00  0.00     0.046 A 
ATOM     14  C   UNL A   1      44.511  23.847  27.101  1.00  0.00     0.004 A 
ATOM     15  C   UNL A   1      44.316  24.517  24.790  1.00  0.00     0.004 A 
ATOM     16  C   UNL A   1      44.649  24.818  26.109  1.00  0.00     0.000 A 
ENDBRANCH  10  11
ENDBRANCH   7  10
ENDBRANCH   4   7
ENDBRANCH   2   3
ENDBRANCH   1   2
BRANCH   1  17
ATOM     17  C   UNL A   1      40.385  23.056  27.344  1.00  0.00     0.118 C 
BRANCH  17  18
ATOM     18  N   UNL A   1      40.814  23.986  26.308  1.00  0.00    -0.352 N 
ATOM     19  C   UNL A   1      40.948  25.354  26.337  1.00  0.00     0.251 C 
ATOM     20  H   UNL A   1      41.046  23.568  25.446  1.00  0.00     0.163 HD
ATOM     21  O   UNL A   1      41.136  25.964  25.290  1.00  0.00    -0.269 OA
BRANCH  19  22
ATOM     22  C   UNL A   1      40.843  26.091  27.616  1.00  0.00     0.039 A 
ATOM     23  C   UNL A   1      41.882  26.948  27.987  1.00  0.00     0.014 A 
ATOM     24  C   UNL A   1      39.737  25.933  28.454  1.00  0.00     0.014 A 
ATOM     25  C   UNL A   1      41.770  27.711  29.154  1.00  0.00     0.010 A 
ATOM     26  C   UNL A   1      39.591  26.749  29.573  1.00  0.00     0.010 A 
ATOM     27  C   UNL A   1      40.601  27.655  29.929  1.00  0.00    -0.014 A 
BRANCH  27  28
ATOM     28  C   UNL A   1      40.393  28.563  31.087  1.00  0.00     0.031 A 
ATOM     29  C   UNL A   1      39.354  29.650  31.025  1.00  0.00     0.074 A 
ATOM     30  C   UNL A   1      41.210  28.467  32.157  1.00  0.00     0.049 A 
ATOM     31  N   UNL A   1      39.109  30.604  31.884  1.00  0.00    -0.248 NA
ATOM     32  C   UNL A   1      38.493  29.683  29.831  1.00  0.00     0.031 C 
ATOM     33  C   UNL A   1      42.284  27.482  32.314  1.00  0.00     0.029 A 
ATOM     34  N   UNL A   1      41.284  29.218  33.304  1.00  0.00    -0.354 N 
ATOM     35  C   UNL A   1      38.087  31.365  31.328  1.00  0.00     0.074 A 
ATOM     36  C   UNL A   1      37.776  30.780  30.042  1.00  0.00     0.031 C 
ATOM     37  C   UNL A   1      42.902  27.686  33.488  1.00  0.00     0.029 A 
ATOM     38  C   UNL A   1      42.307  28.845  34.145  1.00  0.00     0.049 A 
ATOM     39  H   UNL A   1      40.662  29.955  33.505  1.00  0.00     0.167 HD
ATOM     40  C   UNL A   1      37.460  32.446  31.849  1.00  0.00     0.037 A 
ATOM     41  C   UNL A   1      42.737  29.391  35.300  1.00  0.00     0.037 A 
ATOM     42  C   UNL A   1      37.753  33.000  33.146  1.00  0.00     0.049 A 
ATOM     43  C   UNL A   1      42.030  30.603  35.847  1.00  0.00     0.074 A 
ATOM     44  C   UNL A   1      37.105  34.032  33.803  1.00  0.00     0.029 A 
ATOM     45  N   UNL A   1      38.783  32.583  33.976  1.00  0.00    -0.354 N 
ATOM     46  N   UNL A   1      41.000  31.247  35.353  1.00  0.00    -0.248 NA
ATOM     47  C   UNL A   1      42.545  31.166  37.103  1.00  0.00     0.031 C 
ATOM     48  C   UNL A   1      37.783  34.283  34.999  1.00  0.00     0.029 A 
ATOM     49  C   UNL A   1      38.816  33.367  35.117  1.00  0.00     0.049 A 
ATOM     50  H   UNL A   1      39.399  31.840  33.782  1.00  0.00     0.167 HD
ATOM     51  C   UNL A   1      40.730  32.275  36.250  1.00  0.00     0.074 A 
ATOM     52  C   UNL A   1      41.692  32.158  37.324  1.00  0.00     0.031 C 
ATOM     53  C   UNL A   1      39.773  33.233  36.186  1.00  0.00     0.037 A 
BRANCH  40  54
ATOM     54  C   UNL A   1      36.395  33.119  31.028  1.00  0.00     0.058 A 
ATOM     55  C   UNL A   1      35.038  33.055  31.378  1.00  0.00     0.135 A 
ATOM     56  C   UNL A   1      36.751  33.915  29.926  1.00  0.00     0.135 A 
ATOM     57  F   UNL A   1      34.641  32.299  32.414  1.00  0.00    -0.206 F 
ATOM     58  C   UNL A   1      34.068  33.748  30.660  1.00  0.00     0.059 A 
ATOM     59  C   UNL A   1      35.801  34.637  29.209  1.00  0.00     0.059 A 
ATOM     60  F   UNL A   1      38.034  34.009  29.546  1.00  0.00    -0.206 F 
ATOM     61  C   UNL A   1      34.461  34.544  29.581  1.00  0.00     0.060 A 
BRANCH  61  62
ATOM     62  S   UNL A   1      33.195  35.469  28.687  1.00  0.00     0.124 S 
ATOM     63  O   UNL A   1      34.007  36.419  27.932  1.00  0.00    -0.237 OA
ATOM     64  O   UNL A   1      32.546  34.425  27.900  1.00  0.00    -0.237 OA
ATOM     65  O   UNL A   1      32.379  36.047  29.749  1.00  0.00    -0.744 OA
ENDBRANCH  61  62
ENDBRANCH  40  54
BRANCH  41  66
ATOM     66  C   UNL A   1      43.910  28.812  36.013  1.00  0.00     0.058 A 
ATOM     67  C   UNL A   1      43.762  27.735  36.899  1.00  0.00     0.135 A 
ATOM     68  C   UNL A   1      45.200  29.341  35.841  1.00  0.00     0.135 A 
ATOM     69  F   UNL A   1      42.549  27.198  37.103  1.00  0.00    -0.206 F 
ATOM     70  C   UNL A   1      44.841  27.223  37.613  1.00  0.00     0.059 A 
ATOM     71  C   UNL A   1      46.299  28.826  36.521  1.00  0.00     0.059 A 
ATOM     72  F   UNL A   1      45.403  30.362  34.993  1.00  0.00    -0.206 F 
ATOM     73  C   UNL A   1      46.106  27.777  37.418  1.00  0.00     0.060 A 
BRANCH  73  74
ATOM     74  S   UNL A   1      47.502  27.098  38.339  1.00  0.00     0.124 S 
ATOM     75  O   UNL A   1      47.842  25.930  37.537  1.00  0.00    -0.237 OA
ATOM     76  O   UNL A   1      48.458  28.200  38.304  1.00  0.00    -0.237 OA
ATOM     77  O   UNL A   1      46.930  26.816  39.654  1.00  0.00    -0.744 OA
ENDBRANCH  73  74
ENDBRANCH  41  66
BRANCH  53  78
ATOM     78  C   UNL A   1      39.694  34.220  37.318  1.00  0.00     0.058 A 
ATOM     79  C   UNL A   1      39.028  33.914  38.515  1.00  0.00     0.135 A 
ATOM     80  C   UNL A   1      40.362  35.453  37.235  1.00  0.00     0.135 A 
ATOM     81  F   UNL A   1      38.364  32.754  38.641  1.00  0.00    -0.206 F 
ATOM     82  C   UNL A   1      39.021  34.799  39.588  1.00  0.00     0.059 A 
ATOM     83  C   UNL A   1      40.393  36.340  38.306  1.00  0.00     0.059 A 
ATOM     84  F   UNL A   1      41.020  35.792  36.115  1.00  0.00    -0.206 F 
ATOM     85  C   UNL A   1      39.715  36.006  39.478  1.00  0.00     0.060 A 
BRANCH  85  86
ATOM     86  S   UNL A   1      39.754  37.112  40.904  1.00  0.00     0.124 S 
ATOM     87  O   UNL A   1      38.919  36.391  41.859  1.00  0.00    -0.237 OA
ATOM     88  O   UNL A   1      41.179  37.163  41.219  1.00  0.00    -0.237 OA
ATOM     89  O   UNL A   1      39.188  38.355  40.388  1.00  0.00    -0.744 OA
ENDBRANCH  85  86
ENDBRANCH  53  78
ENDBRANCH  27  28
ENDBRANCH  19  22
ENDBRANCH  17  18
ENDBRANCH   1  17
TORSDOF 16
ENDMDL
MODEL 2
REMARK VINA RESULT:     -10.9      5.189     11.878
REMARK SMILES CC[C@@H](Oc1ccccc1)C(=O)NCCCNC(=O)c1ccc(-c2c3nc(c(-c4c(F)cc(S(=O)(=O)[O-])cc4F)c4ccc([nH]4)c(-c4c(F)cc(S(=O)(=O)[O-])cc4F)c4nc(c(-c5c(F)cc(S(=O)(=O)[O-])cc5F)c5ccc2[nH]5)C=C4)C=C3)cc1
REMARK SMILES IDX 15 1 14 2 13 3 11 4 12 5 3 7 2 8 1 9 4 10 5 11 6 12 10 13
REMARK SMILES IDX 7 14 9 15 8 16 16 17 17 18 18 19 19 21 20 22 21 23 85 24
REMARK SMILES IDX 22 25 84 26 23 27 24 28 25 29 78 30 26 31 83 32 77 33 79 34
REMARK SMILES IDX 27 35 82 36 76 37 75 38 28 40 62 41 41 42 61 43 42 44 45 45
REMARK SMILES IDX 60 46 80 47 43 48 44 49 59 51 81 52 46 53 29 54 30 55 39 56
REMARK SMILES IDX 31 57 32 58 38 59 40 60 33 61 34 62 35 63 36 64 37 65 63 66
REMARK SMILES IDX 64 67 73 68 65 69 66 70 72 71 74 72 67 73 68 74 69 75 70 76
REMARK SMILES IDX 71 77 47 78 48 79 57 80 49 81 50 82 56 83 58 84 51 85 52 86
REMARK SMILES IDX 53 87 54 88 55 89
REMARK H PARENT 13 6 17 20 79 39 45 50
REMARK Flexibility Score: inf
ROOT
ATOM      1  C   UNL A   1      34.605  33.793  29.718  1.00  0.00     0.042 C 
ENDROOT
BRANCH   1   2
ATOM      2  C   UNL A   1      34.585  33.132  31.089  1.00  0.00     0.118 C 
BRANCH   2   3
ATOM      3  N   UNL A   1      34.968  34.039  32.163  1.00  0.00    -0.353 N 
ATOM      4  C   UNL A   1      36.220  34.388  32.604  1.00  0.00     0.261 C 
ATOM      5  O   UNL A   1      36.305  35.238  33.495  1.00  0.00    -0.271 OA
ATOM      6  H   UNL A   1      34.220  34.464  32.641  1.00  0.00     0.163 HD
BRANCH   4   7
ATOM      7  C   UNL A   1      37.472  33.677  32.052  1.00  0.00     0.261 C 
BRANCH   7   8
ATOM      8  C   UNL A   1      38.165  34.670  31.098  1.00  0.00     0.052 C 
ATOM      9  C   UNL A   1      38.427  34.133  29.694  1.00  0.00     0.008 C 
ENDBRANCH   7   8
BRANCH   7  10
ATOM     10  O   UNL A   1      38.179  33.282  33.234  1.00  0.00    -0.481 OA
BRANCH  10  11
ATOM     11  C   UNL A   1      38.891  32.129  33.193  1.00  0.00     0.120 A 
ATOM     12  C   UNL A   1      38.216  30.955  32.868  1.00  0.00     0.046 A 
ATOM     13  C   UNL A   1      40.187  32.071  33.691  1.00  0.00     0.046 A 
ATOM     14  C   UNL A   1      38.869  29.726  32.975  1.00  0.00     0.004 A 
ATOM     15  C   UNL A   1      40.854  30.851  33.764  1.00  0.00     0.004 A 
ATOM     16  C   UNL A   1      40.196  29.677  33.405  1.00  0.00     0.000 A 
ENDBRANCH  10  11
ENDBRANCH   7  10
ENDBRANCH   4   7
ENDBRANCH   2   3
ENDBRANCH   1   2
BRANCH   1  17
ATOM     17  C   UNL A   1      35.222  32.928  28.631  1.00  0.00     0.118 C 
BRANCH  17  18
ATOM     18  N   UNL A   1      34.351  31.833  28.228  1.00  0.00    -0.352 N 
ATOM     19  C   UNL A   1      34.644  30.523  27.929  1.00  0.00     0.251 C 
ATOM     20  H   UNL A   1      33.396  32.068  28.158  1.00  0.00     0.163 HD
ATOM     21  O   UNL A   1      33.783  29.814  27.419  1.00  0.00    -0.269 OA
BRANCH  19  22
ATOM     22  C   UNL A   1      35.992  29.977  28.196  1.00  0.00     0.039 A 
ATOM     23  C   UNL A   1      36.946  30.007  27.175  1.00  0.00     0.014 A 
ATOM     24  C   UNL A   1      36.318  29.425  29.437  1.00  0.00     0.014 A 
ATOM     25  C   UNL A   1      38.248  29.564  27.427  1.00  0.00     0.010 A 
ATOM     26  C   UNL A   1      37.634  29.058  29.711  1.00  0.00     0.010 A 
ATOM     27  C   UNL A   1      38.616  29.134  28.712  1.00  0.00    -0.014 A 
BRANCH  27  28
ATOM     28  C   UNL A   1      40.025  28.802  29.046  1.00  0.00     0.031 A 
ATOM     29  C   UNL A   1      40.947  29.859  29.592  1.00  0.00     0.074 A 
ATOM     30  C   UNL A   1      40.498  27.570  28.765  1.00  0.00     0.049 A 
ATOM     31  N   UNL A   1      42.230  29.788  29.831  1.00  0.00    -0.248 NA
ATOM     32  C   UNL A   1      40.355  31.175  29.884  1.00  0.00     0.031 C 
ATOM     33  C   UNL A   1      39.712  26.473  28.193  1.00  0.00     0.029 A 
ATOM     34  N   UNL A   1      41.756  27.036  28.897  1.00  0.00    -0.354 N 
ATOM     35  C   UNL A   1      42.606  31.049  30.278  1.00  0.00     0.074 A 
ATOM     36  C   UNL A   1      41.420  31.878  30.248  1.00  0.00     0.031 C 
ATOM     37  C   UNL A   1      40.502  25.400  28.031  1.00  0.00     0.029 A 
ATOM     38  C   UNL A   1      41.861  25.743  28.437  1.00  0.00     0.049 A 
ATOM     39  H   UNL A   1      42.512  27.532  29.287  1.00  0.00     0.167 HD
ATOM     40  C   UNL A   1      43.825  31.472  30.685  1.00  0.00     0.037 A 
ATOM     41  C   UNL A   1      42.934  24.935  28.325  1.00  0.00     0.037 A 
ATOM     42  C   UNL A   1      44.993  30.629  30.744  1.00  0.00     0.049 A 
ATOM     43  C   UNL A   1      44.281  25.440  28.770  1.00  0.00     0.074 A 
ATOM     44  C   UNL A   1      46.249  30.939  31.236  1.00  0.00     0.029 A 
ATOM     45  N   UNL A   1      45.054  29.321  30.287  1.00  0.00    -0.354 N 
ATOM     46  N   UNL A   1      44.595  26.604  29.284  1.00  0.00    -0.248 NA
ATOM     47  C   UNL A   1      45.420  24.524  28.618  1.00  0.00     0.031 C 
ATOM     48  C   UNL A   1      47.087  29.843  31.015  1.00  0.00     0.029 A 
ATOM     49  C   UNL A   1      46.338  28.827  30.442  1.00  0.00     0.049 A 
ATOM     50  H   UNL A   1      44.297  28.820  29.907  1.00  0.00     0.167 HD
ATOM     51  C   UNL A   1      45.962  26.552  29.537  1.00  0.00     0.074 A 
ATOM     52  C   UNL A   1      46.411  25.236  29.137  1.00  0.00     0.031 C 
ATOM     53  C   UNL A   1      46.772  27.510  30.050  1.00  0.00     0.037 A 
BRANCH  40  54
ATOM     54  C   UNL A   1      43.983  32.910  31.097  1.00  0.00     0.058 A 
ATOM     55  C   UNL A   1      44.169  33.935  30.156  1.00  0.00     0.135 A 
ATOM     56  C   UNL A   1      43.855  33.276  32.447  1.00  0.00     0.135 A 
ATOM     57  F   UNL A   1      44.311  33.641  28.854  1.00  0.00    -0.206 F 
ATOM     58  C   UNL A   1      44.233  35.270  30.540  1.00  0.00     0.059 A 
ATOM     59  C   UNL A   1      43.889  34.607  32.851  1.00  0.00     0.059 A 
ATOM     60  F   UNL A   1      43.679  32.335  33.388  1.00  0.00    -0.206 F 
ATOM     61  C   UNL A   1      44.083  35.598  31.890  1.00  0.00     0.060 A 
BRANCH  61  62
ATOM     62  S   UNL A   1      44.126  37.339  32.364  1.00  0.00     0.124 S 
ATOM     63  O   UNL A   1      43.849  37.995  31.089  1.00  0.00    -0.237 OA
ATOM     64  O   UNL A   1      43.063  37.415  33.359  1.00  0.00    -0.237 OA
ATOM     65  O   UNL A   1      45.479  37.520  32.879  1.00  0.00    -0.744 OA
ENDBRANCH  61  62
ENDBRANCH  40  54
BRANCH  41  66
ATOM     66  C   UNL A   1      42.788  23.570  27.749  1.00  0.00     0.058 A 
ATOM     67  C   UNL A   1      42.894  23.350  26.367  1.00  0.00     0.135 A 
ATOM     68  C   UNL A   1      42.515  22.460  28.565  1.00  0.00     0.135 A 
ATOM     69  F   UNL A   1      43.148  24.378  25.543  1.00  0.00    -0.206 F 
ATOM     70  C   UNL A   1      42.705  22.089  25.812  1.00  0.00     0.059 A 
ATOM     71  C   UNL A   1      42.352  21.184  28.036  1.00  0.00     0.059 A 
ATOM     72  F   UNL A   1      42.419  22.610  29.896  1.00  0.00    -0.206 F 
ATOM     73  C   UNL A   1      42.431  21.011  26.655  1.00  0.00     0.060 A 
BRANCH  73  74
ATOM     74  S   UNL A   1      42.199  19.376  25.926  1.00  0.00     0.124 S 
ATOM     75  O   UNL A   1      42.693  18.509  26.988  1.00  0.00    -0.237 OA
ATOM     76  O   UNL A   1      40.759  19.347  25.693  1.00  0.00    -0.237 OA
ATOM     77  O   UNL A   1      43.021  19.428  24.719  1.00  0.00    -0.744 OA
ENDBRANCH  73  74
ENDBRANCH  41  66
BRANCH  53  78
ATOM     78  C   UNL A   1      48.225  27.172  30.238  1.00  0.00     0.058 A 
ATOM     79  C   UNL A   1      49.190  27.521  29.281  1.00  0.00     0.135 A 
ATOM     80  C   UNL A   1      48.667  26.566  31.425  1.00  0.00     0.135 A 
ATOM     81  F   UNL A   1      48.819  28.091  28.123  1.00  0.00    -0.206 F 
ATOM     82  C   UNL A   1      50.543  27.275  29.492  1.00  0.00     0.059 A 
ATOM     83  C   UNL A   1      50.017  26.338  31.670  1.00  0.00     0.059 A 
ATOM     84  F   UNL A   1      47.786  26.218  32.376  1.00  0.00    -0.206 F 
ATOM     85  C   UNL A   1      50.948  26.692  30.694  1.00  0.00     0.060 A 
BRANCH  85  86
ATOM     86  S   UNL A   1      52.713  26.443  30.982  1.00  0.00     0.124 S 
ATOM     87  O   UNL A   1      53.218  26.317  29.618  1.00  0.00    -0.237 OA
ATOM     88  O   UNL A   1      53.089  27.666  31.686  1.00  0.00    -0.237 OA
ATOM     89  O   UNL A   1      52.760  25.224  31.784  1.00  0.00    -0.744 OA
ENDBRANCH  85  86
ENDBRANCH  53  78
ENDBRANCH  27  28
ENDBRANCH  19  22
ENDBRANCH  17  18
ENDBRANCH   1  17
TORSDOF 16
ENDMDL
MODEL 3
REMARK VINA RESULT:     -10.7      2.964      9.128
REMARK SMILES CC[C@@H](Oc1ccccc1)C(=O)NCCCNC(=O)c1ccc(-c2c3nc(c(-c4c(F)cc(S(=O)(=O)[O-])cc4F)c4ccc([nH]4)c(-c4c(F)cc(S(=O)(=O)[O-])cc4F)c4nc(c(-c5c(F)cc(S(=O)(=O)[O-])cc5F)c5ccc2[nH]5)C=C4)C=C3)cc1
REMARK SMILES IDX 15 1 14 2 13 3 11 4 12 5 3 7 2 8 1 9 4 10 5 11 6 12 10 13
REMARK SMILES IDX 7 14 9 15 8 16 16 17 17 18 18 19 19 21 20 22 21 23 85 24
REMARK SMILES IDX 22 25 84 26 23 27 24 28 25 29 78 30 26 31 83 32 77 33 79 34
REMARK SMILES IDX 27 35 82 36 76 37 75 38 28 40 62 41 41 42 61 43 42 44 45 45
REMARK SMILES IDX 60 46 80 47 43 48 44 49 59 51 81 52 46 53 29 54 30 55 39 56
REMARK SMILES IDX 31 57 32 58 38 59 40 60 33 61 34 62 35 63 36 64 37 65 63 66
REMARK SMILES IDX 64 67 73 68 65 69 66 70 72 71 74 72 67 73 68 74 69 75 70 76
REMARK SMILES IDX 71 77 47 78 48 79 57 80 49 81 50 82 56 83 58 84 51 85 52 86
REMARK SMILES IDX 53 87 54 88 55 89
REMARK H PARENT 13 6 17 20 79 39 45 50
REMARK Flexibility Score: inf
ROOT
ATOM      1  C   UNL A   1      41.336  21.385  25.932  1.00  0.00     0.042 C 
ENDROOT
BRANCH   1   2
ATOM      2  C   UNL A   1      42.236  22.610  25.859  1.00  0.00     0.118 C 
BRANCH   2   3
ATOM      3  N   UNL A   1      43.158  22.571  24.731  1.00  0.00    -0.353 N 
ATOM      4  C   UNL A   1      44.336  23.252  24.544  1.00  0.00     0.261 C 
ATOM      5  O   UNL A   1      44.992  23.006  23.528  1.00  0.00    -0.271 OA
ATOM      6  H   UNL A   1      42.899  21.969  23.997  1.00  0.00     0.163 HD
BRANCH   4   7
ATOM      7  C   UNL A   1      44.777  24.343  25.540  1.00  0.00     0.261 C 
BRANCH   7   8
ATOM      8  C   UNL A   1      46.005  23.792  26.291  1.00  0.00     0.052 C 
ATOM      9  C   UNL A   1      46.173  24.316  27.714  1.00  0.00     0.008 C 
ENDBRANCH   7   8
BRANCH   7  10
ATOM     10  O   UNL A   1      44.963  25.495  24.709  1.00  0.00    -0.481 OA
BRANCH  10  11
ATOM     11  C   UNL A   1      45.093  26.701  25.315  1.00  0.00     0.120 A 
ATOM     12  C   UNL A   1      46.311  27.366  25.195  1.00  0.00     0.046 A 
ATOM     13  C   UNL A   1      44.141  27.152  26.223  1.00  0.00     0.046 A 
ATOM     14  C   UNL A   1      46.545  28.526  25.935  1.00  0.00     0.004 A 
ATOM     15  C   UNL A   1      44.357  28.328  26.936  1.00  0.00     0.004 A 
ATOM     16  C   UNL A   1      45.559  29.017  26.791  1.00  0.00     0.000 A 
ENDBRANCH  10  11
ENDBRANCH   7  10
ENDBRANCH   4   7
ENDBRANCH   2   3
ENDBRANCH   1   2
BRANCH   1  17
ATOM     17  C   UNL A   1      40.025  21.632  26.663  1.00  0.00     0.118 C 
BRANCH  17  18
ATOM     18  N   UNL A   1      39.028  22.276  25.818  1.00  0.00    -0.352 N 
ATOM     19  C   UNL A   1      38.520  23.553  25.852  1.00  0.00     0.251 C 
ATOM     20  H   UNL A   1      38.658  21.704  25.106  1.00  0.00     0.163 HD
ATOM     21  O   UNL A   1      37.540  23.830  25.169  1.00  0.00    -0.269 OA
BRANCH  19  22
ATOM     22  C   UNL A   1      39.132  24.580  26.723  1.00  0.00     0.039 A 
ATOM     23  C   UNL A   1      40.050  25.476  26.167  1.00  0.00     0.014 A 
ATOM     24  C   UNL A   1      38.819  24.659  28.082  1.00  0.00     0.014 A 
ATOM     25  C   UNL A   1      40.584  26.501  26.952  1.00  0.00     0.010 A 
ATOM     26  C   UNL A   1      39.289  25.726  28.843  1.00  0.00     0.010 A 
ATOM     27  C   UNL A   1      40.169  26.666  28.284  1.00  0.00    -0.014 A 
BRANCH  27  28
ATOM     28  C   UNL A   1      40.604  27.832  29.095  1.00  0.00     0.031 A 
ATOM     29  C   UNL A   1      41.882  27.774  29.887  1.00  0.00     0.074 A 
ATOM     30  C   UNL A   1      39.794  28.907  29.193  1.00  0.00     0.049 A 
ATOM     31  N   UNL A   1      42.363  28.641  30.738  1.00  0.00    -0.248 NA
ATOM     32  C   UNL A   1      42.718  26.573  29.718  1.00  0.00     0.031 C 
ATOM     33  C   UNL A   1      38.507  29.062  28.508  1.00  0.00     0.029 A 
ATOM     34  N   UNL A   1      39.917  30.063  29.925  1.00  0.00    -0.354 N 
ATOM     35  C   UNL A   1      43.541  28.086  31.225  1.00  0.00     0.074 A 
ATOM     36  C   UNL A   1      43.688  26.791  30.596  1.00  0.00     0.031 C 
ATOM     37  C   UNL A   1      37.966  30.243  28.846  1.00  0.00     0.029 A 
ATOM     38  C   UNL A   1      38.837  30.909  29.809  1.00  0.00     0.049 A 
ATOM     39  H   UNL A   1      40.705  30.268  30.479  1.00  0.00     0.167 HD
ATOM     40  C   UNL A   1      44.422  28.614  32.106  1.00  0.00     0.037 A 
ATOM     41  C   UNL A   1      38.563  32.073  30.431  1.00  0.00     0.037 A 
ATOM     42  C   UNL A   1      44.284  29.920  32.700  1.00  0.00     0.049 A 
ATOM     43  C   UNL A   1      39.555  32.627  31.420  1.00  0.00     0.074 A 
ATOM     44  C   UNL A   1      45.174  30.583  33.527  1.00  0.00     0.029 A 
ATOM     45  N   UNL A   1      43.186  30.753  32.544  1.00  0.00    -0.354 N 
ATOM     46  N   UNL A   1      40.711  32.133  31.790  1.00  0.00    -0.248 NA
ATOM     47  C   UNL A   1      39.205  33.894  32.078  1.00  0.00     0.031 C 
ATOM     48  C   UNL A   1      44.587  31.786  33.925  1.00  0.00     0.029 A 
ATOM     49  C   UNL A   1      43.357  31.903  33.297  1.00  0.00     0.049 A 
ATOM     50  H   UNL A   1      42.402  30.555  31.983  1.00  0.00     0.167 HD
ATOM     51  C   UNL A   1      41.236  33.039  32.706  1.00  0.00     0.074 A 
ATOM     52  C   UNL A   1      40.280  34.119  32.820  1.00  0.00     0.031 C 
ATOM     53  C   UNL A   1      42.402  32.978  33.394  1.00  0.00     0.037 A 
BRANCH  40  54
ATOM     54  C   UNL A   1      45.618  27.792  32.501  1.00  0.00     0.058 A 
ATOM     55  C   UNL A   1      45.571  26.877  33.564  1.00  0.00     0.135 A 
ATOM     56  C   UNL A   1      46.800  27.858  31.745  1.00  0.00     0.135 A 
ATOM     57  F   UNL A   1      44.471  26.783  34.328  1.00  0.00    -0.206 F 
ATOM     58  C   UNL A   1      46.657  26.063  33.871  1.00  0.00     0.059 A 
ATOM     59  C   UNL A   1      47.889  27.034  32.016  1.00  0.00     0.059 A 
ATOM     60  F   UNL A   1      46.900  28.717  30.719  1.00  0.00    -0.206 F 
ATOM     61  C   UNL A   1      47.809  26.143  33.085  1.00  0.00     0.060 A 
BRANCH  61  62
ATOM     62  S   UNL A   1      49.192  25.049  33.472  1.00  0.00     0.124 S 
ATOM     63  O   UNL A   1      49.763  24.822  32.147  1.00  0.00    -0.237 OA
ATOM     64  O   UNL A   1      49.993  25.869  34.374  1.00  0.00    -0.237 OA
ATOM     65  O   UNL A   1      48.551  23.890  34.084  1.00  0.00    -0.744 OA
ENDBRANCH  61  62
ENDBRANCH  40  54
BRANCH  41  66
ATOM     66  C   UNL A   1      37.286  32.788  30.156  1.00  0.00     0.058 A 
ATOM     67  C   UNL A   1      36.168  32.621  30.987  1.00  0.00     0.135 A 
ATOM     68  C   UNL A   1      37.149  33.634  29.044  1.00  0.00     0.135 A 
ATOM     69  F   UNL A   1      36.245  31.818  32.060  1.00  0.00    -0.206 F 
ATOM     70  C   UNL A   1      34.953  33.240  30.710  1.00  0.00     0.059 A 
ATOM     71  C   UNL A   1      35.954  34.287  28.763  1.00  0.00     0.059 A 
ATOM     72  F   UNL A   1      38.192  33.843  28.224  1.00  0.00    -0.206 F 
ATOM     73  C   UNL A   1      34.855  34.070  29.593  1.00  0.00     0.060 A 
BRANCH  73  74
ATOM     74  S   UNL A   1      33.279  34.878  29.248  1.00  0.00     0.124 S 
ATOM     75  O   UNL A   1      33.718  36.158  28.708  1.00  0.00    -0.237 OA
ATOM     76  O   UNL A   1      32.665  33.958  28.296  1.00  0.00    -0.237 OA
ATOM     77  O   UNL A   1      32.636  34.933  30.559  1.00  0.00    -0.744 OA
ENDBRANCH  73  74
ENDBRANCH  41  66
BRANCH  53  78
ATOM     78  C   UNL A   1      42.733  34.120  34.315  1.00  0.00     0.058 A 
ATOM     79  C   UNL A   1      42.407  34.082  35.679  1.00  0.00     0.135 A 
ATOM     80  C   UNL A   1      43.456  35.228  33.843  1.00  0.00     0.135 A 
ATOM     81  F   UNL A   1      41.705  33.052  36.178  1.00  0.00    -0.206 F 
ATOM     82  C   UNL A   1      42.781  35.106  36.543  1.00  0.00     0.059 A 
ATOM     83  C   UNL A   1      43.867  36.248  34.695  1.00  0.00     0.059 A 
ATOM     84  F   UNL A   1      43.799  35.310  32.548  1.00  0.00    -0.206 F 
ATOM     85  C   UNL A   1      43.520  36.180  36.044  1.00  0.00     0.060 A 
BRANCH  85  86
ATOM     86  S   UNL A   1      44.058  37.466  37.191  1.00  0.00     0.124 S 
ATOM     87  O   UNL A   1      45.333  36.929  37.658  1.00  0.00    -0.237 OA
ATOM     88  O   UNL A   1      44.143  38.639  36.326  1.00  0.00    -0.237 OA
ATOM     89  O   UNL A   1      42.991  37.504  38.186  1.00  0.00    -0.744 OA
ENDBRANCH  85  86
ENDBRANCH  53  78
ENDBRANCH  27  28
ENDBRANCH  19  22
ENDBRANCH  17  18
ENDBRANCH   1  17
TORSDOF 16
ENDMDL
