MODEL 1
REMARK VINA RESULT:     -12.2      0.000      0.000
REMARK SMILES CC1=C(C)C[C@@H](C(=O)NNC(=O)c2sccc2C)[C@@H](C(=O)NCCCNC(=O)c2ccc(-c3c4nc(c(-c5c(F)cc(S(=O)(=O)[O-])cc5F)c5ccc([nH]5)c(-c5c(F)cc(S(=O)(=O)[O-])cc5F)c5nc(c(-c6c(F)cc(S(=O)(=O)[O-])cc6F)c6ccc3[nH]6)C=C5)C=C4)cc2)C1
REMARK SMILES IDX 24 1 23 2 22 3 20 4 21 5 19 7 1 8 2 9 3 10 95 11 4 12 5 13
REMARK SMILES IDX 6 14 7 15 8 16 9 17 10 19 11 20 12 22 13 23 14 24 17 25
REMARK SMILES IDX 15 26 16 27 18 28 25 29 26 30 27 31 28 33 29 34 30 35 94 36
REMARK SMILES IDX 31 37 93 38 32 39 33 40 34 41 87 42 35 43 92 44 86 45 88 46
REMARK SMILES IDX 36 47 91 48 85 49 84 50 37 52 71 53 50 54 70 55 51 56 54 57
REMARK SMILES IDX 69 58 89 59 52 60 53 61 68 63 90 64 55 65 38 66 39 67 48 68
REMARK SMILES IDX 40 69 41 70 47 71 49 72 42 73 43 74 44 75 45 76 46 77 72 78
REMARK SMILES IDX 73 79 82 80 74 81 75 82 81 83 83 84 76 85 77 86 78 87 79 88
REMARK SMILES IDX 80 89 56 90 57 91 66 92 58 93 59 94 65 95 67 96 60 97 61 98
REMARK SMILES IDX 62 99 63 100 64 101
REMARK H PARENT 22 6 9 18 10 21 26 32 88 51 54 62
REMARK Flexibility Score: inf
ROOT
ATOM      1  C   UNL A   1      32.340  28.414  27.709  1.00  0.00     0.042 C 
ENDROOT
BRANCH   1   2
ATOM      2  C   UNL A   1      31.300  28.040  26.662  1.00  0.00     0.117 C 
BRANCH   2   3
ATOM      3  N   UNL A   1      30.683  26.747  26.850  1.00  0.00    -0.356 N 
ATOM      4  C   UNL A   1      30.681  25.650  26.050  1.00  0.00     0.224 C 
ATOM      5  O   UNL A   1      30.249  24.599  26.531  1.00  0.00    -0.275 OA
ATOM      6  H   UNL A   1      30.183  26.646  27.693  1.00  0.00     0.163 HD
BRANCH   4   7
ATOM      7  C   UNL A   1      31.172  25.680  24.601  1.00  0.00     0.095 C 
ATOM      8  C   UNL A   1      30.909  29.092  22.692  1.00  0.00     0.039 C 
ATOM      9  C   UNL A   1      31.514  27.768  23.087  1.00  0.00    -0.074 C 
ATOM     10  C   UNL A   1      32.780  27.410  22.792  1.00  0.00    -0.074 C 
ATOM     11  C   UNL A   1      30.559  26.829  23.782  1.00  0.00     0.045 C 
ATOM     12  C   UNL A   1      33.752  28.283  22.037  1.00  0.00     0.039 C 
ATOM     13  C   UNL A   1      33.326  26.055  23.173  1.00  0.00     0.045 C 
ATOM     14  C   UNL A   1      32.667  25.370  24.377  1.00  0.00     0.097 C 
BRANCH  14  15
ATOM     15  C   UNL A   1      33.552  25.242  25.628  1.00  0.00     0.242 C 
ATOM     16  O   UNL A   1      34.241  26.203  25.986  1.00  0.00    -0.273 OA
ATOM     17  N   UNL A   1      33.613  24.124  26.410  1.00  0.00    -0.267 N 
ATOM     18  H   UNL A   1      34.167  24.187  27.222  1.00  0.00     0.191 HD
BRANCH  17  19
ATOM     19  N   UNL A   1      32.980  22.910  26.184  1.00  0.00    -0.263 N 
ATOM     20  C   UNL A   1      33.410  22.003  25.233  1.00  0.00     0.280 C 
ATOM     21  H   UNL A   1      32.189  22.686  26.725  1.00  0.00     0.191 HD
ATOM     22  O   UNL A   1      32.563  21.222  24.777  1.00  0.00    -0.266 OA
BRANCH  20  23
ATOM     23  C   UNL A   1      34.789  22.050  24.796  1.00  0.00     0.096 A 
ATOM     24  S   UNL A   1      36.002  21.455  25.844  1.00  0.00    -0.138 S 
ATOM     25  C   UNL A   1      35.316  22.548  23.613  1.00  0.00    -0.027 A 
ATOM     26  C   UNL A   1      37.247  21.898  24.771  1.00  0.00     0.066 A 
ATOM     27  C   UNL A   1      36.750  22.456  23.615  1.00  0.00     0.016 A 
ATOM     28  C   UNL A   1      34.530  23.147  22.496  1.00  0.00     0.046 C 
ENDBRANCH  20  23
ENDBRANCH  17  19
ENDBRANCH  14  15
ENDBRANCH   4   7
ENDBRANCH   2   3
ENDBRANCH   1   2
BRANCH   1  29
ATOM     29  C   UNL A   1      33.404  29.362  27.166  1.00  0.00     0.118 C 
BRANCH  29  30
ATOM     30  N   UNL A   1      33.593  30.576  27.953  1.00  0.00    -0.352 N 
ATOM     31  C   UNL A   1      34.733  31.064  28.552  1.00  0.00     0.251 C 
ATOM     32  H   UNL A   1      32.787  31.127  28.075  1.00  0.00     0.163 HD
ATOM     33  O   UNL A   1      34.727  32.157  29.114  1.00  0.00    -0.269 OA
BRANCH  31  34
ATOM     34  C   UNL A   1      35.933  30.213  28.644  1.00  0.00     0.039 A 
ATOM     35  C   UNL A   1      36.779  30.193  27.530  1.00  0.00     0.014 A 
ATOM     36  C   UNL A   1      36.303  29.570  29.824  1.00  0.00     0.014 A 
ATOM     37  C   UNL A   1      38.058  29.663  27.648  1.00  0.00     0.010 A 
ATOM     38  C   UNL A   1      37.610  29.121  29.970  1.00  0.00     0.010 A 
ATOM     39  C   UNL A   1      38.507  29.207  28.896  1.00  0.00    -0.014 A 
BRANCH  39  40
ATOM     40  C   UNL A   1      39.938  28.905  29.116  1.00  0.00     0.031 A 
ATOM     41  C   UNL A   1      40.860  29.972  29.619  1.00  0.00     0.074 A 
ATOM     42  C   UNL A   1      40.402  27.689  28.761  1.00  0.00     0.049 A 
ATOM     43  N   UNL A   1      42.155  29.928  29.784  1.00  0.00    -0.248 NA
ATOM     44  C   UNL A   1      40.255  31.275  29.944  1.00  0.00     0.031 C 
ATOM     45  C   UNL A   1      39.594  26.609  28.182  1.00  0.00     0.029 A 
ATOM     46  N   UNL A   1      41.664  27.157  28.818  1.00  0.00    -0.354 N 
ATOM     47  C   UNL A   1      42.522  31.198  30.207  1.00  0.00     0.074 A 
ATOM     48  C   UNL A   1      41.323  32.003  30.234  1.00  0.00     0.031 C 
ATOM     49  C   UNL A   1      40.376  25.540  27.961  1.00  0.00     0.029 A 
ATOM     50  C   UNL A   1      41.743  25.867  28.347  1.00  0.00     0.049 A 
ATOM     51  H   UNL A   1      42.441  27.651  29.165  1.00  0.00     0.167 HD
ATOM     52  C   UNL A   1      43.752  31.638  30.560  1.00  0.00     0.037 A 
ATOM     53  C   UNL A   1      42.802  25.044  28.234  1.00  0.00     0.037 A 
ATOM     54  C   UNL A   1      44.925  30.806  30.567  1.00  0.00     0.049 A 
ATOM     55  C   UNL A   1      44.144  25.541  28.692  1.00  0.00     0.074 A 
ATOM     56  C   UNL A   1      46.206  31.125  30.979  1.00  0.00     0.029 A 
ATOM     57  N   UNL A   1      44.955  29.484  30.146  1.00  0.00    -0.354 N 
ATOM     58  N   UNL A   1      44.463  26.724  29.165  1.00  0.00    -0.248 NA
ATOM     59  C   UNL A   1      45.268  24.600  28.612  1.00  0.00     0.031 C 
ATOM     60  C   UNL A   1      47.018  30.002  30.783  1.00  0.00     0.029 A 
ATOM     61  C   UNL A   1      46.235  28.974  30.278  1.00  0.00     0.049 A 
ATOM     62  H   UNL A   1      44.181  28.982  29.802  1.00  0.00     0.167 HD
ATOM     63  C   UNL A   1      45.820  26.664  29.452  1.00  0.00     0.074 A 
ATOM     64  C   UNL A   1      46.258  25.324  29.117  1.00  0.00     0.031 C 
ATOM     65  C   UNL A   1      46.633  27.630  29.944  1.00  0.00     0.037 A 
BRANCH  52  66
ATOM     66  C   UNL A   1      43.882  33.075  30.978  1.00  0.00     0.058 A 
ATOM     67  C   UNL A   1      43.979  34.109  30.033  1.00  0.00     0.135 A 
ATOM     68  C   UNL A   1      43.886  33.427  32.337  1.00  0.00     0.135 A 
ATOM     69  F   UNL A   1      44.001  33.825  28.721  1.00  0.00    -0.206 F 
ATOM     70  C   UNL A   1      44.101  35.439  30.420  1.00  0.00     0.059 A 
ATOM     71  C   UNL A   1      43.983  34.755  32.746  1.00  0.00     0.059 A 
ATOM     72  F   UNL A   1      43.802  32.478  33.282  1.00  0.00    -0.206 F 
ATOM     73  C   UNL A   1      44.103  35.752  31.780  1.00  0.00     0.060 A 
BRANCH  73  74
ATOM     74  S   UNL A   1      44.251  37.484  32.266  1.00  0.00     0.124 S 
ATOM     75  O   UNL A   1      45.634  37.539  32.729  1.00  0.00    -0.237 OA
ATOM     76  O   UNL A   1      43.974  38.186  31.017  1.00  0.00    -0.237 OA
ATOM     77  O   UNL A   1      43.235  37.634  33.303  1.00  0.00    -0.744 OA
ENDBRANCH  73  74
ENDBRANCH  52  66
BRANCH  53  78
ATOM     78  C   UNL A   1      42.632  23.672  27.689  1.00  0.00     0.058 A 
ATOM     79  C   UNL A   1      42.645  23.438  26.305  1.00  0.00     0.135 A 
ATOM     80  C   UNL A   1      42.467  22.564  28.536  1.00  0.00     0.135 A 
ATOM     81  F   UNL A   1      42.799  24.463  25.454  1.00  0.00    -0.206 F 
ATOM     82  C   UNL A   1      42.478  22.160  25.779  1.00  0.00     0.059 A 
ATOM     83  C   UNL A   1      42.320  21.274  28.034  1.00  0.00     0.059 A 
ATOM     84  F   UNL A   1      42.471  22.730  29.867  1.00  0.00    -0.206 F 
ATOM     85  C   UNL A   1      42.313  21.084  26.653  1.00  0.00     0.060 A 
BRANCH  85  86
ATOM     86  S   UNL A   1      42.135  19.423  25.963  1.00  0.00     0.124 S 
ATOM     87  O   UNL A   1      42.990  19.502  24.785  1.00  0.00    -0.237 OA
ATOM     88  O   UNL A   1      42.622  18.581  27.051  1.00  0.00    -0.237 OA
ATOM     89  O   UNL A   1      40.702  19.325  25.700  1.00  0.00    -0.744 OA
ENDBRANCH  85  86
ENDBRANCH  53  78
BRANCH  65  90
ATOM     90  C   UNL A   1      48.071  27.264  30.164  1.00  0.00     0.058 A 
ATOM     91  C   UNL A   1      49.035  27.457  29.164  1.00  0.00     0.135 A 
ATOM     92  C   UNL A   1      48.496  26.778  31.410  1.00  0.00     0.135 A 
ATOM     93  F   UNL A   1      48.672  27.912  27.954  1.00  0.00    -0.206 F 
ATOM     94  C   UNL A   1      50.375  27.167  29.387  1.00  0.00     0.059 A 
ATOM     95  C   UNL A   1      49.835  26.502  31.662  1.00  0.00     0.059 A 
ATOM     96  F   UNL A   1      47.610  26.585  32.400  1.00  0.00    -0.206 F 
ATOM     97  C   UNL A   1      50.767  26.693  30.641  1.00  0.00     0.060 A 
BRANCH  97  98
ATOM     98  S   UNL A   1      52.516  26.368  30.938  1.00  0.00     0.124 S 
ATOM     99  O   UNL A   1      53.030  26.270  29.576  1.00  0.00    -0.237 OA
ATOM    100  O   UNL A   1      52.933  27.549  31.689  1.00  0.00    -0.237 OA
ATOM    101  O   UNL A   1      52.506  25.122  31.698  1.00  0.00    -0.744 OA
ENDBRANCH  97  98
ENDBRANCH  65  90
ENDBRANCH  39  40
ENDBRANCH  31  34
ENDBRANCH  29  30
ENDBRANCH   1  29
TORSDOF 16
ENDMDL
MODEL 2
REMARK VINA RESULT:     -11.8      1.375      2.385
REMARK SMILES CC1=C(C)C[C@@H](C(=O)NNC(=O)c2sccc2C)[C@@H](C(=O)NCCCNC(=O)c2ccc(-c3c4nc(c(-c5c(F)cc(S(=O)(=O)[O-])cc5F)c5ccc([nH]5)c(-c5c(F)cc(S(=O)(=O)[O-])cc5F)c5nc(c(-c6c(F)cc(S(=O)(=O)[O-])cc6F)c6ccc3[nH]6)C=C5)C=C4)cc2)C1
REMARK SMILES IDX 24 1 23 2 22 3 20 4 21 5 19 7 1 8 2 9 3 10 95 11 4 12 5 13
REMARK SMILES IDX 6 14 7 15 8 16 9 17 10 19 11 20 12 22 13 23 14 24 17 25
REMARK SMILES IDX 15 26 16 27 18 28 25 29 26 30 27 31 28 33 29 34 30 35 94 36
REMARK SMILES IDX 31 37 93 38 32 39 33 40 34 41 87 42 35 43 92 44 86 45 88 46
REMARK SMILES IDX 36 47 91 48 85 49 84 50 37 52 71 53 50 54 70 55 51 56 54 57
REMARK SMILES IDX 69 58 89 59 52 60 53 61 68 63 90 64 55 65 38 66 39 67 48 68
REMARK SMILES IDX 40 69 41 70 47 71 49 72 42 73 43 74 44 75 45 76 46 77 72 78
REMARK SMILES IDX 73 79 82 80 74 81 75 82 81 83 83 84 76 85 77 86 78 87 79 88
REMARK SMILES IDX 80 89 56 90 57 91 66 92 58 93 59 94 65 95 67 96 60 97 61 98
REMARK SMILES IDX 62 99 63 100 64 101
REMARK H PARENT 22 6 9 18 10 21 26 32 88 51 54 62
REMARK Flexibility Score: inf
ROOT
ATOM      1  C   UNL A   1      33.136  28.432  27.258  1.00  0.00     0.042 C 
ENDROOT
BRANCH   1   2
ATOM      2  C   UNL A   1      33.366  27.349  26.212  1.00  0.00     0.117 C 
BRANCH   2   3
ATOM      3  N   UNL A   1      33.490  27.830  24.855  1.00  0.00    -0.356 N 
ATOM      4  C   UNL A   1      32.588  28.466  24.063  1.00  0.00     0.224 C 
ATOM      5  O   UNL A   1      33.006  28.955  23.010  1.00  0.00    -0.275 OA
ATOM      6  H   UNL A   1      34.367  27.671  24.437  1.00  0.00     0.163 HD
BRANCH   4   7
ATOM      7  C   UNL A   1      31.104  28.579  24.421  1.00  0.00     0.095 C 
ATOM      8  C   UNL A   1      29.113  31.581  22.880  1.00  0.00     0.039 C 
ATOM      9  C   UNL A   1      29.337  30.172  23.370  1.00  0.00    -0.074 C 
ATOM     10  C   UNL A   1      28.497  29.150  23.109  1.00  0.00    -0.074 C 
ATOM     11  C   UNL A   1      30.551  30.004  24.249  1.00  0.00     0.045 C 
ATOM     12  C   UNL A   1      27.233  29.280  22.295  1.00  0.00     0.039 C 
ATOM     13  C   UNL A   1      28.744  27.765  23.658  1.00  0.00     0.045 C 
ATOM     14  C   UNL A   1      30.202  27.409  23.977  1.00  0.00     0.097 C 
BRANCH  14  15
ATOM     15  C   UNL A   1      30.833  26.342  23.067  1.00  0.00     0.242 C 
ATOM     16  O   UNL A   1      31.240  26.664  21.945  1.00  0.00    -0.273 OA
ATOM     17  N   UNL A   1      31.007  25.036  23.427  1.00  0.00    -0.267 N 
ATOM     18  H   UNL A   1      31.482  24.464  22.783  1.00  0.00     0.191 HD
BRANCH  17  19
ATOM     19  N   UNL A   1      30.585  24.430  24.601  1.00  0.00    -0.263 N 
ATOM     20  C   UNL A   1      31.209  23.321  25.143  1.00  0.00     0.280 C 
ATOM     21  H   UNL A   1      29.804  24.806  25.069  1.00  0.00     0.191 HD
ATOM     22  O   UNL A   1      30.524  22.588  25.870  1.00  0.00    -0.266 OA
BRANCH  20  23
ATOM     23  C   UNL A   1      32.590  23.058  24.796  1.00  0.00     0.096 A 
ATOM     24  S   UNL A   1      33.822  23.687  25.802  1.00  0.00    -0.138 S 
ATOM     25  C   UNL A   1      33.103  22.364  23.710  1.00  0.00    -0.027 A 
ATOM     26  C   UNL A   1      35.052  23.097  24.784  1.00  0.00     0.066 A 
ATOM     27  C   UNL A   1      34.539  22.399  23.716  1.00  0.00     0.016 A 
ATOM     28  C   UNL A   1      32.298  21.704  22.642  1.00  0.00     0.046 C 
ENDBRANCH  20  23
ENDBRANCH  17  19
ENDBRANCH  14  15
ENDBRANCH   4   7
ENDBRANCH   2   3
ENDBRANCH   1   2
BRANCH   1  29
ATOM     29  C   UNL A   1      33.725  29.777  26.848  1.00  0.00     0.118 C 
BRANCH  29  30
ATOM     30  N   UNL A   1      33.763  30.774  27.913  1.00  0.00    -0.352 N 
ATOM     31  C   UNL A   1      34.794  31.114  28.759  1.00  0.00     0.251 C 
ATOM     32  H   UNL A   1      32.928  31.276  28.046  1.00  0.00     0.163 HD
ATOM     33  O   UNL A   1      34.673  32.044  29.553  1.00  0.00    -0.269 OA
BRANCH  31  34
ATOM     34  C   UNL A   1      36.003  30.271  28.816  1.00  0.00     0.039 A 
ATOM     35  C   UNL A   1      36.777  30.201  27.654  1.00  0.00     0.014 A 
ATOM     36  C   UNL A   1      36.449  29.685  30.000  1.00  0.00     0.014 A 
ATOM     37  C   UNL A   1      38.065  29.681  27.717  1.00  0.00     0.010 A 
ATOM     38  C   UNL A   1      37.765  29.248  30.085  1.00  0.00     0.010 A 
ATOM     39  C   UNL A   1      38.593  29.285  28.954  1.00  0.00    -0.014 A 
BRANCH  39  40
ATOM     40  C   UNL A   1      40.036  28.998  29.099  1.00  0.00     0.031 A 
ATOM     41  C   UNL A   1      40.975  30.079  29.539  1.00  0.00     0.074 A 
ATOM     42  C   UNL A   1      40.492  27.782  28.731  1.00  0.00     0.049 A 
ATOM     43  N   UNL A   1      42.277  30.047  29.633  1.00  0.00    -0.248 NA
ATOM     44  C   UNL A   1      40.376  31.379  29.883  1.00  0.00     0.031 C 
ATOM     45  C   UNL A   1      39.663  26.689  28.209  1.00  0.00     0.029 A 
ATOM     46  N   UNL A   1      41.760  27.262  28.724  1.00  0.00    -0.354 N 
ATOM     47  C   UNL A   1      42.655  31.325  30.023  1.00  0.00     0.074 A 
ATOM     48  C   UNL A   1      41.452  32.120  30.107  1.00  0.00     0.031 C 
ATOM     49  C   UNL A   1      40.441  25.624  27.955  1.00  0.00     0.029 A 
ATOM     50  C   UNL A   1      41.824  25.968  28.262  1.00  0.00     0.049 A 
ATOM     51  H   UNL A   1      42.550  27.767  29.022  1.00  0.00     0.167 HD
ATOM     52  C   UNL A   1      43.899  31.780  30.303  1.00  0.00     0.037 A 
ATOM     53  C   UNL A   1      42.883  25.152  28.100  1.00  0.00     0.037 A 
ATOM     54  C   UNL A   1      45.077  30.958  30.254  1.00  0.00     0.049 A 
ATOM     55  C   UNL A   1      44.244  25.667  28.479  1.00  0.00     0.074 A 
ATOM     56  C   UNL A   1      46.377  31.292  30.592  1.00  0.00     0.029 A 
ATOM     57  N   UNL A   1      45.097  29.632  29.845  1.00  0.00    -0.354 N 
ATOM     58  N   UNL A   1      44.577  26.857  28.922  1.00  0.00    -0.248 NA
ATOM     59  C   UNL A   1      45.371  24.734  28.347  1.00  0.00     0.031 C 
ATOM     60  C   UNL A   1      47.187  30.174  30.363  1.00  0.00     0.029 A 
ATOM     61  C   UNL A   1      46.387  29.134  29.912  1.00  0.00     0.049 A 
ATOM     62  H   UNL A   1      44.310  29.119  29.550  1.00  0.00     0.167 HD
ATOM     63  C   UNL A   1      45.948  26.811  29.134  1.00  0.00     0.074 A 
ATOM     64  C   UNL A   1      46.380  25.472  28.789  1.00  0.00     0.031 C 
ATOM     65  C   UNL A   1      46.778  27.790  29.570  1.00  0.00     0.037 A 
BRANCH  52  66
ATOM     66  C   UNL A   1      44.038  33.222  30.698  1.00  0.00     0.058 A 
ATOM     67  C   UNL A   1      43.931  33.630  32.038  1.00  0.00     0.135 A 
ATOM     68  C   UNL A   1      44.304  34.206  29.733  1.00  0.00     0.135 A 
ATOM     69  F   UNL A   1      43.657  32.732  32.998  1.00  0.00    -0.206 F 
ATOM     70  C   UNL A   1      44.059  34.965  32.404  1.00  0.00     0.059 A 
ATOM     71  C   UNL A   1      44.460  35.545  30.081  1.00  0.00     0.059 A 
ATOM     72  F   UNL A   1      44.410  33.871  28.438  1.00  0.00    -0.206 F 
ATOM     73  C   UNL A   1      44.322  35.917  31.417  1.00  0.00     0.060 A 
BRANCH  73  74
ATOM     74  S   UNL A   1      44.496  37.645  31.909  1.00  0.00     0.124 S 
ATOM     75  O   UNL A   1      43.814  38.328  30.813  1.00  0.00    -0.237 OA
ATOM     76  O   UNL A   1      43.809  37.675  33.196  1.00  0.00    -0.237 OA
ATOM     77  O   UNL A   1      45.941  37.838  31.968  1.00  0.00    -0.744 OA
ENDBRANCH  73  74
ENDBRANCH  52  66
BRANCH  53  78
ATOM     78  C   UNL A   1      42.696  23.773  27.579  1.00  0.00     0.058 A 
ATOM     79  C   UNL A   1      42.559  22.683  28.452  1.00  0.00     0.135 A 
ATOM     80  C   UNL A   1      42.637  23.516  26.200  1.00  0.00     0.135 A 
ATOM     81  F   UNL A   1      42.609  22.877  29.778  1.00  0.00    -0.206 F 
ATOM     82  C   UNL A   1      42.392  21.385  27.979  1.00  0.00     0.059 A 
ATOM     83  C   UNL A   1      42.449  22.229  25.703  1.00  0.00     0.059 A 
ATOM     84  F   UNL A   1      42.739  24.526  25.323  1.00  0.00    -0.206 F 
ATOM     85  C   UNL A   1      42.341  21.168  26.601  1.00  0.00     0.060 A 
BRANCH  85  86
ATOM     86  S   UNL A   1      42.087  19.485  25.994  1.00  0.00     0.124 S 
ATOM     87  O   UNL A   1      42.486  18.694  27.152  1.00  0.00    -0.237 OA
ATOM     88  O   UNL A   1      40.663  19.480  25.677  1.00  0.00    -0.237 OA
ATOM     89  O   UNL A   1      42.977  19.410  24.839  1.00  0.00    -0.744 OA
ENDBRANCH  85  86
ENDBRANCH  53  78
BRANCH  65  90
ATOM     90  C   UNL A   1      48.229  27.438  29.715  1.00  0.00     0.058 A 
ATOM     91  C   UNL A   1      49.164  27.775  28.725  1.00  0.00     0.135 A 
ATOM     92  C   UNL A   1      48.695  26.819  30.885  1.00  0.00     0.135 A 
ATOM     93  F   UNL A   1      48.762  28.362  27.587  1.00  0.00    -0.206 F 
ATOM     94  C   UNL A   1      50.516  27.497  28.885  1.00  0.00     0.059 A 
ATOM     95  C   UNL A   1      50.046  26.551  31.074  1.00  0.00     0.059 A 
ATOM     96  F   UNL A   1      47.838  26.486  31.863  1.00  0.00    -0.206 F 
ATOM     97  C   UNL A   1      50.949  26.887  30.064  1.00  0.00     0.060 A 
BRANCH  97  98
ATOM     98  S   UNL A   1      52.712  26.576  30.283  1.00  0.00     0.124 S 
ATOM     99  O   UNL A   1      52.708  25.637  31.400  1.00  0.00    -0.237 OA
ATOM    100  O   UNL A   1      53.097  26.020  28.988  1.00  0.00    -0.237 OA
ATOM    101  O   UNL A   1      53.256  27.899  30.575  1.00  0.00    -0.744 OA
ENDBRANCH  97  98
ENDBRANCH  65  90
ENDBRANCH  39  40
ENDBRANCH  31  34
ENDBRANCH  29  30
ENDBRANCH   1  29
TORSDOF 16
ENDMDL
MODEL 3
REMARK VINA RESULT:     -11.7      2.736      3.872
REMARK SMILES CC1=C(C)C[C@@H](C(=O)NNC(=O)c2sccc2C)[C@@H](C(=O)NCCCNC(=O)c2ccc(-c3c4nc(c(-c5c(F)cc(S(=O)(=O)[O-])cc5F)c5ccc([nH]5)c(-c5c(F)cc(S(=O)(=O)[O-])cc5F)c5nc(c(-c6c(F)cc(S(=O)(=O)[O-])cc6F)c6ccc3[nH]6)C=C5)C=C4)cc2)C1
REMARK SMILES IDX 24 1 23 2 22 3 20 4 21 5 19 7 1 8 2 9 3 10 95 11 4 12 5 13
REMARK SMILES IDX 6 14 7 15 8 16 9 17 10 19 11 20 12 22 13 23 14 24 17 25
REMARK SMILES IDX 15 26 16 27 18 28 25 29 26 30 27 31 28 33 29 34 30 35 94 36
REMARK SMILES IDX 31 37 93 38 32 39 33 40 34 41 87 42 35 43 92 44 86 45 88 46
REMARK SMILES IDX 36 47 91 48 85 49 84 50 37 52 71 53 50 54 70 55 51 56 54 57
REMARK SMILES IDX 69 58 89 59 52 60 53 61 68 63 90 64 55 65 38 66 39 67 48 68
REMARK SMILES IDX 40 69 41 70 47 71 49 72 42 73 43 74 44 75 45 76 46 77 72 78
REMARK SMILES IDX 73 79 82 80 74 81 75 82 81 83 83 84 76 85 77 86 78 87 79 88
REMARK SMILES IDX 80 89 56 90 57 91 66 92 58 93 59 94 65 95 67 96 60 97 61 98
REMARK SMILES IDX 62 99 63 100 64 101
REMARK H PARENT 22 6 9 18 10 21 26 32 88 51 54 62
REMARK Flexibility Score: inf
ROOT
ATOM      1  C   UNL A   1      34.213  31.652  27.958  1.00  0.00     0.042 C 
ENDROOT
BRANCH   1   2
ATOM      2  C   UNL A   1      33.694  30.304  27.473  1.00  0.00     0.117 C 
BRANCH   2   3
ATOM      3  N   UNL A   1      34.024  29.981  26.104  1.00  0.00    -0.356 N 
ATOM      4  C   UNL A   1      33.267  29.414  25.129  1.00  0.00     0.224 C 
ATOM      5  O   UNL A   1      33.719  29.431  23.981  1.00  0.00    -0.275 OA
ATOM      6  H   UNL A   1      34.943  30.208  25.835  1.00  0.00     0.163 HD
BRANCH   4   7
ATOM      7  C   UNL A   1      31.912  28.759  25.407  1.00  0.00     0.095 C 
ATOM      8  C   UNL A   1      29.316  28.698  22.473  1.00  0.00     0.039 C 
ATOM      9  C   UNL A   1      30.048  28.182  23.687  1.00  0.00    -0.074 C 
ATOM     10  C   UNL A   1      29.988  26.902  24.106  1.00  0.00    -0.074 C 
ATOM     11  C   UNL A   1      30.805  29.239  24.453  1.00  0.00     0.045 C 
ATOM     12  C   UNL A   1      29.188  25.823  23.416  1.00  0.00     0.039 C 
ATOM     13  C   UNL A   1      30.705  26.445  25.353  1.00  0.00     0.045 C 
ATOM     14  C   UNL A   1      31.938  27.259  25.766  1.00  0.00     0.097 C 
BRANCH  14  15
ATOM     15  C   UNL A   1      33.284  26.528  25.632  1.00  0.00     0.242 C 
ATOM     16  O   UNL A   1      33.988  26.362  26.635  1.00  0.00    -0.273 OA
ATOM     17  N   UNL A   1      33.761  26.010  24.461  1.00  0.00    -0.267 N 
ATOM     18  H   UNL A   1      34.605  25.508  24.516  1.00  0.00     0.191 HD
BRANCH  17  19
ATOM     19  N   UNL A   1      33.184  26.118  23.205  1.00  0.00    -0.263 N 
ATOM     20  C   UNL A   1      33.014  25.037  22.359  1.00  0.00     0.280 C 
ATOM     21  H   UNL A   1      32.883  27.005  22.901  1.00  0.00     0.191 HD
ATOM     22  O   UNL A   1      32.953  25.276  21.145  1.00  0.00    -0.266 OA
BRANCH  20  23
ATOM     23  C   UNL A   1      32.968  23.706  22.926  1.00  0.00     0.096 A 
ATOM     24  S   UNL A   1      31.444  23.023  23.293  1.00  0.00    -0.138 S 
ATOM     25  C   UNL A   1      34.016  22.861  23.263  1.00  0.00    -0.027 A 
ATOM     26  C   UNL A   1      32.150  21.622  23.953  1.00  0.00     0.066 A 
ATOM     27  C   UNL A   1      33.523  21.652  23.863  1.00  0.00     0.016 A 
ATOM     28  C   UNL A   1      35.465  23.160  23.082  1.00  0.00     0.046 C 
ENDBRANCH  20  23
ENDBRANCH  17  19
ENDBRANCH  14  15
ENDBRANCH   4   7
ENDBRANCH   2   3
ENDBRANCH   1   2
BRANCH   1  29
ATOM     29  C   UNL A   1      35.531  31.533  28.715  1.00  0.00     0.118 C 
BRANCH  29  30
ATOM     30  N   UNL A   1      35.513  30.582  29.821  1.00  0.00    -0.352 N 
ATOM     31  C   UNL A   1      36.562  30.018  30.511  1.00  0.00     0.251 C 
ATOM     32  H   UNL A   1      34.617  30.301  30.118  1.00  0.00     0.163 HD
ATOM     33  O   UNL A   1      36.357  29.289  31.479  1.00  0.00    -0.269 OA
BRANCH  31  34
ATOM     34  C   UNL A   1      37.938  30.172  30.004  1.00  0.00     0.039 A 
ATOM     35  C   UNL A   1      38.956  30.250  30.960  1.00  0.00     0.014 A 
ATOM     36  C   UNL A   1      38.246  30.097  28.647  1.00  0.00     0.014 A 
ATOM     37  C   UNL A   1      40.281  30.097  30.566  1.00  0.00     0.010 A 
ATOM     38  C   UNL A   1      39.559  29.855  28.263  1.00  0.00     0.010 A 
ATOM     39  C   UNL A   1      40.576  29.810  29.226  1.00  0.00    -0.014 A 
BRANCH  39  40
ATOM     40  C   UNL A   1      41.932  29.366  28.834  1.00  0.00     0.031 A 
ATOM     41  C   UNL A   1      43.048  30.360  28.741  1.00  0.00     0.074 A 
ATOM     42  C   UNL A   1      42.108  28.079  28.469  1.00  0.00     0.049 A 
ATOM     43  N   UNL A   1      44.274  30.182  28.326  1.00  0.00    -0.248 NA
ATOM     44  C   UNL A   1      42.738  31.746  29.129  1.00  0.00     0.031 C 
ATOM     45  C   UNL A   1      41.059  27.053  28.445  1.00  0.00     0.029 A 
ATOM     46  N   UNL A   1      43.225  27.413  28.034  1.00  0.00    -0.354 N 
ATOM     47  C   UNL A   1      44.872  31.433  28.380  1.00  0.00     0.074 A 
ATOM     48  C   UNL A   1      43.867  32.370  28.827  1.00  0.00     0.031 C 
ATOM     49  C   UNL A   1      41.587  25.886  28.042  1.00  0.00     0.029 A 
ATOM     50  C   UNL A   1      43.000  26.087  27.744  1.00  0.00     0.049 A 
ATOM     51  H   UNL A   1      44.105  27.843  27.939  1.00  0.00     0.167 HD
ATOM     52  C   UNL A   1      46.156  31.759  28.099  1.00  0.00     0.037 A 
ATOM     53  C   UNL A   1      43.841  25.141  27.285  1.00  0.00     0.037 A 
ATOM     54  C   UNL A   1      47.150  30.802  27.696  1.00  0.00     0.049 A 
ATOM     55  C   UNL A   1      45.276  25.520  27.040  1.00  0.00     0.074 A 
ATOM     56  C   UNL A   1      48.498  31.006  27.461  1.00  0.00     0.029 A 
ATOM     57  N   UNL A   1      46.904  29.454  27.477  1.00  0.00    -0.354 N 
ATOM     58  N   UNL A   1      45.847  26.695  27.171  1.00  0.00    -0.248 NA
ATOM     59  C   UNL A   1      46.181  24.453  26.596  1.00  0.00     0.031 C 
ATOM     60  C   UNL A   1      49.061  29.785  27.073  1.00  0.00     0.029 A 
ATOM     61  C   UNL A   1      48.071  28.814  27.098  1.00  0.00     0.049 A 
ATOM     62  H   UNL A   1      46.027  29.016  27.574  1.00  0.00     0.167 HD
ATOM     63  C   UNL A   1      47.182  26.504  26.840  1.00  0.00     0.074 A 
ATOM     64  C   UNL A   1      47.336  25.099  26.520  1.00  0.00     0.031 C 
ATOM     65  C   UNL A   1      48.190  27.410  26.797  1.00  0.00     0.037 A 
BRANCH  52  66
ATOM     66  C   UNL A   1      46.551  33.201  28.231  1.00  0.00     0.058 A 
ATOM     67  C   UNL A   1      47.043  33.721  29.439  1.00  0.00     0.135 A 
ATOM     68  C   UNL A   1      46.460  34.072  27.133  1.00  0.00     0.135 A 
ATOM     69  F   UNL A   1      47.130  32.937  30.525  1.00  0.00    -0.206 F 
ATOM     70  C   UNL A   1      47.408  35.057  29.562  1.00  0.00     0.059 A 
ATOM     71  C   UNL A   1      46.843  35.407  27.227  1.00  0.00     0.059 A 
ATOM     72  F   UNL A   1      45.991  33.629  25.956  1.00  0.00    -0.206 F 
ATOM     73  C   UNL A   1      47.303  35.893  28.449  1.00  0.00     0.060 A 
BRANCH  73  74
ATOM     74  S   UNL A   1      47.791  37.623  28.622  1.00  0.00     0.124 S 
ATOM     75  O   UNL A   1      48.089  37.979  27.237  1.00  0.00    -0.237 OA
ATOM     76  O   UNL A   1      46.591  38.232  29.186  1.00  0.00    -0.237 OA
ATOM     77  O   UNL A   1      48.941  37.564  29.518  1.00  0.00    -0.744 OA
ENDBRANCH  73  74
ENDBRANCH  52  66
BRANCH  53  78
ATOM     78  C   UNL A   1      43.357  23.756  27.048  1.00  0.00     0.058 A 
ATOM     79  C   UNL A   1      43.184  22.860  28.114  1.00  0.00     0.135 A 
ATOM     80  C   UNL A   1      43.044  23.303  25.757  1.00  0.00     0.135 A 
ATOM     81  F   UNL A   1      43.470  23.246  29.366  1.00  0.00    -0.206 F 
ATOM     82  C   UNL A   1      42.739  21.557  27.907  1.00  0.00     0.059 A 
ATOM     83  C   UNL A   1      42.577  22.011  25.527  1.00  0.00     0.059 A 
ATOM     84  F   UNL A   1      43.170  24.128  24.706  1.00  0.00    -0.206 F 
ATOM     85  C   UNL A   1      42.441  21.141  26.608  1.00  0.00     0.060 A 
BRANCH  85  86
ATOM     86  S   UNL A   1      41.829  19.460  26.352  1.00  0.00     0.124 S 
ATOM     87  O   UNL A   1      42.275  18.798  27.572  1.00  0.00    -0.237 OA
ATOM     88  O   UNL A   1      40.391  19.669  26.227  1.00  0.00    -0.237 OA
ATOM     89  O   UNL A   1      42.502  19.045  25.124  1.00  0.00    -0.744 OA
ENDBRANCH  85  86
ENDBRANCH  53  78
BRANCH  65  90
ATOM     90  C   UNL A   1      49.547  26.901  26.410  1.00  0.00     0.058 A 
ATOM     91  C   UNL A   1      50.363  26.228  27.331  1.00  0.00     0.135 A 
ATOM     92  C   UNL A   1      50.003  27.031  25.090  1.00  0.00     0.135 A 
ATOM     93  F   UNL A   1      49.971  26.088  28.607  1.00  0.00    -0.206 F 
ATOM     94  C   UNL A   1      51.597  25.710  26.958  1.00  0.00     0.059 A 
ATOM     95  C   UNL A   1      51.224  26.501  24.689  1.00  0.00     0.059 A 
ATOM     96  F   UNL A   1      49.251  27.660  24.172  1.00  0.00    -0.206 F 
ATOM     97  C   UNL A   1      52.019  25.849  25.633  1.00  0.00     0.060 A 
BRANCH  97  98
ATOM     98  S   UNL A   1      53.599  25.128  25.146  1.00  0.00     0.124 S 
ATOM     99  O   UNL A   1      53.715  25.583  23.765  1.00  0.00    -0.237 OA
ATOM    100  O   UNL A   1      54.528  25.738  26.095  1.00  0.00    -0.237 OA
ATOM    101  O   UNL A   1      53.387  23.695  25.321  1.00  0.00    -0.744 OA
ENDBRANCH  97  98
ENDBRANCH  65  90
ENDBRANCH  39  40
ENDBRANCH  31  34
ENDBRANCH  29  30
ENDBRANCH   1  29
TORSDOF 16
ENDMDL
