MODEL 1
REMARK VINA RESULT:      -9.8      0.000      0.000
REMARK SMILES COc1cccc(-c2cc(C(=O)NCCCNC(=O)c3ccc(-c4c5nc(c(-c6c(F)cc(S(=O)(=O)[O-])cc6F)c6ccc([nH]6)c(-c6c(F)cc(S(=O)(=O)[O-])cc6F)c6nc(c(-c7c(F)cc(S(=O)(=O)[O-])cc7F)c7ccc4[nH]7)C=C6)C=C5)cc3)cs2)c1
REMARK SMILES IDX 15 1 14 2 13 3 11 4 12 5 10 7 8 8 9 9 87 10 86 11 7 12 3 13
REMARK SMILES IDX 4 14 88 15 5 16 6 17 2 18 1 19 16 20 17 21 18 22 19 24 20 25
REMARK SMILES IDX 21 26 85 27 22 28 84 29 23 30 24 31 25 32 78 33 26 34 83 35
REMARK SMILES IDX 77 36 79 37 27 38 82 39 76 40 75 41 28 43 62 44 41 45 61 46
REMARK SMILES IDX 42 47 45 48 60 49 80 50 43 51 44 52 59 54 81 55 46 56 29 57
REMARK SMILES IDX 30 58 39 59 31 60 32 61 38 62 40 63 33 64 34 65 35 66 36 67
REMARK SMILES IDX 37 68 63 69 64 70 73 71 65 72 66 73 72 74 74 75 67 76 68 77
REMARK SMILES IDX 69 78 70 79 71 80 47 81 48 82 57 83 49 84 50 85 56 86 58 87
REMARK SMILES IDX 51 88 52 89 53 90 54 91 55 92
REMARK H PARENT 13 6 17 23 79 42 45 53
REMARK Flexibility Score: inf
ROOT
ATOM      1  C   UNL A   1      41.474  21.362  25.864  1.00  0.00     0.042 C 
ENDROOT
BRANCH   1   2
ATOM      2  C   UNL A   1      42.365  22.600  25.811  1.00  0.00     0.118 C 
BRANCH   2   3
ATOM      3  N   UNL A   1      43.324  22.519  24.725  1.00  0.00    -0.352 N 
ATOM      4  C   UNL A   1      44.430  23.270  24.415  1.00  0.00     0.252 C 
ATOM      5  O   UNL A   1      45.122  22.885  23.474  1.00  0.00    -0.269 OA
ATOM      6  H   UNL A   1      43.147  21.787  24.090  1.00  0.00     0.163 HD
BRANCH   4   7
ATOM      7  C   UNL A   1      44.810  24.439  25.212  1.00  0.00     0.051 A 
ATOM      8  C   UNL A   1      44.790  26.577  26.187  1.00  0.00     0.035 A 
ATOM      9  C   UNL A   1      44.331  25.785  25.155  1.00  0.00     0.034 A 
ATOM     10  S   UNL A   1      45.999  25.791  27.088  1.00  0.00    -0.143 S 
ATOM     11  C   UNL A   1      45.802  24.352  26.179  1.00  0.00     0.079 A 
BRANCH   8  12
ATOM     12  C   UNL A   1      44.308  27.909  26.535  1.00  0.00    -0.005 A 
ATOM     13  C   UNL A   1      44.510  29.859  27.972  1.00  0.00     0.119 A 
ATOM     14  C   UNL A   1      43.270  30.304  27.515  1.00  0.00     0.046 A 
ATOM     15  C   UNL A   1      45.023  28.657  27.486  1.00  0.00     0.056 A 
ATOM     16  C   UNL A   1      42.568  29.584  26.547  1.00  0.00     0.004 A 
ATOM     17  C   UNL A   1      43.087  28.387  26.052  1.00  0.00     0.010 A 
BRANCH  13  18
ATOM     18  O   UNL A   1      45.093  30.625  28.943  1.00  0.00    -0.497 OA
ATOM     19  C   UNL A   1      44.294  31.686  29.454  1.00  0.00     0.278 C 
ENDBRANCH  13  18
ENDBRANCH   8  12
ENDBRANCH   4   7
ENDBRANCH   2   3
ENDBRANCH   1   2
BRANCH   1  20
ATOM     20  C   UNL A   1      40.203  21.583  26.682  1.00  0.00     0.118 C 
BRANCH  20  21
ATOM     21  N   UNL A   1      39.115  22.113  25.867  1.00  0.00    -0.352 N 
ATOM     22  C   UNL A   1      38.498  23.339  25.916  1.00  0.00     0.251 C 
ATOM     23  H   UNL A   1      38.771  21.498  25.179  1.00  0.00     0.163 HD
ATOM     24  O   UNL A   1      37.454  23.521  25.298  1.00  0.00    -0.269 OA
BRANCH  22  25
ATOM     25  C   UNL A   1      39.090  24.427  26.719  1.00  0.00     0.039 A 
ATOM     26  C   UNL A   1      39.963  25.333  26.109  1.00  0.00     0.014 A 
ATOM     27  C   UNL A   1      38.783  24.550  28.076  1.00  0.00     0.014 A 
ATOM     28  C   UNL A   1      40.470  26.406  26.845  1.00  0.00     0.010 A 
ATOM     29  C   UNL A   1      39.227  25.660  28.786  1.00  0.00     0.010 A 
ATOM     30  C   UNL A   1      40.071  26.601  28.177  1.00  0.00    -0.014 A 
BRANCH  30  31
ATOM     31  C   UNL A   1      40.511  27.778  28.968  1.00  0.00     0.031 A 
ATOM     32  C   UNL A   1      41.809  27.723  29.726  1.00  0.00     0.074 A 
ATOM     33  C   UNL A   1      39.695  28.844  29.090  1.00  0.00     0.049 A 
ATOM     34  N   UNL A   1      42.288  28.562  30.607  1.00  0.00    -0.248 NA
ATOM     35  C   UNL A   1      42.664  26.549  29.488  1.00  0.00     0.031 C 
ATOM     36  C   UNL A   1      38.398  28.997  28.427  1.00  0.00     0.029 A 
ATOM     37  N   UNL A   1      39.821  29.988  29.838  1.00  0.00    -0.354 N 
ATOM     38  C   UNL A   1      43.486  28.010  31.043  1.00  0.00     0.074 A 
ATOM     39  C   UNL A   1      43.637  26.739  30.367  1.00  0.00     0.031 C 
ATOM     40  C   UNL A   1      37.854  30.170  28.791  1.00  0.00     0.029 A 
ATOM     41  C   UNL A   1      38.733  30.826  29.752  1.00  0.00     0.049 A 
ATOM     42  H   UNL A   1      40.616  30.190  30.383  1.00  0.00     0.167 HD
ATOM     43  C   UNL A   1      44.385  28.523  31.914  1.00  0.00     0.037 A 
ATOM     44  C   UNL A   1      38.463  31.978  30.396  1.00  0.00     0.037 A 
ATOM     45  C   UNL A   1      44.232  29.799  32.564  1.00  0.00     0.049 A 
ATOM     46  C   UNL A   1      39.467  32.520  31.378  1.00  0.00     0.074 A 
ATOM     47  C   UNL A   1      45.109  30.435  33.425  1.00  0.00     0.029 A 
ATOM     48  N   UNL A   1      43.131  30.631  32.428  1.00  0.00    -0.354 N 
ATOM     49  N   UNL A   1      40.620  32.009  31.743  1.00  0.00    -0.248 NA
ATOM     50  C   UNL A   1      39.140  33.793  32.034  1.00  0.00     0.031 C 
ATOM     51  C   UNL A   1      44.515  31.626  33.851  1.00  0.00     0.029 A 
ATOM     52  C   UNL A   1      43.296  31.765  33.206  1.00  0.00     0.049 A 
ATOM     53  H   UNL A   1      42.348  30.444  31.862  1.00  0.00     0.167 HD
ATOM     54  C   UNL A   1      41.171  32.917  32.640  1.00  0.00     0.074 A 
ATOM     55  C   UNL A   1      40.227  34.008  32.763  1.00  0.00     0.031 C 
ATOM     56  C   UNL A   1      42.355  32.855  33.298  1.00  0.00     0.037 A 
BRANCH  43  57
ATOM     57  C   UNL A   1      45.613  27.707  32.220  1.00  0.00     0.058 A 
ATOM     58  C   UNL A   1      46.830  27.924  31.554  1.00  0.00     0.135 A 
ATOM     59  C   UNL A   1      45.583  26.720  33.220  1.00  0.00     0.135 A 
ATOM     60  F   UNL A   1      46.914  28.843  30.579  1.00  0.00    -0.206 F 
ATOM     61  C   UNL A   1      47.964  27.172  31.846  1.00  0.00     0.059 A 
ATOM     62  C   UNL A   1      46.713  25.979  33.552  1.00  0.00     0.059 A 
ATOM     63  F   UNL A   1      44.446  26.470  33.889  1.00  0.00    -0.206 F 
ATOM     64  C   UNL A   1      47.895  26.202  32.848  1.00  0.00     0.060 A 
BRANCH  64  65
ATOM     65  S   UNL A   1      49.378  25.241  33.216  1.00  0.00     0.124 S 
ATOM     66  O   UNL A   1      50.239  26.255  33.818  1.00  0.00    -0.237 OA
ATOM     67  O   UNL A   1      48.870  24.221  34.126  1.00  0.00    -0.237 OA
ATOM     68  O   UNL A   1      49.804  24.756  31.907  1.00  0.00    -0.744 OA
ENDBRANCH  64  65
ENDBRANCH  43  57
BRANCH  44  69
ATOM     69  C   UNL A   1      37.191  32.702  30.124  1.00  0.00     0.058 A 
ATOM     70  C   UNL A   1      37.105  33.644  29.088  1.00  0.00     0.135 A 
ATOM     71  C   UNL A   1      36.034  32.459  30.881  1.00  0.00     0.135 A 
ATOM     72  F   UNL A   1      38.185  33.917  28.339  1.00  0.00    -0.206 F 
ATOM     73  C   UNL A   1      35.926  34.333  28.823  1.00  0.00     0.059 A 
ATOM     74  C   UNL A   1      34.835  33.114  30.617  1.00  0.00     0.059 A 
ATOM     75  F   UNL A   1      36.056  31.555  31.873  1.00  0.00    -0.206 F 
ATOM     76  C   UNL A   1      34.794  34.058  29.592  1.00  0.00     0.060 A 
BRANCH  76  77
ATOM     77  S   UNL A   1      33.257  34.926  29.209  1.00  0.00     0.124 S 
ATOM     78  O   UNL A   1      33.756  36.213  28.738  1.00  0.00    -0.237 OA
ATOM     79  O   UNL A   1      32.662  34.060  28.196  1.00  0.00    -0.237 OA
ATOM     80  O   UNL A   1      32.557  34.951  30.490  1.00  0.00    -0.744 OA
ENDBRANCH  76  77
ENDBRANCH  44  69
BRANCH  56  81
ATOM     81  C   UNL A   1      42.738  34.021  34.167  1.00  0.00     0.058 A 
ATOM     82  C   UNL A   1      42.477  34.039  35.546  1.00  0.00     0.135 A 
ATOM     83  C   UNL A   1      43.461  35.096  33.621  1.00  0.00     0.135 A 
ATOM     84  F   UNL A   1      41.783  33.042  36.115  1.00  0.00    -0.206 F 
ATOM     85  C   UNL A   1      42.913  35.087  36.351  1.00  0.00     0.059 A 
ATOM     86  C   UNL A   1      43.931  36.137  34.413  1.00  0.00     0.059 A 
ATOM     87  F   UNL A   1      43.743  35.123  32.309  1.00  0.00    -0.206 F 
ATOM     88  C   UNL A   1      43.648  36.126  35.778  1.00  0.00     0.060 A 
BRANCH  88  89
ATOM     89  S   UNL A   1      44.266  37.442  36.848  1.00  0.00     0.124 S 
ATOM     90  O   UNL A   1      45.497  36.849  37.363  1.00  0.00    -0.237 OA
ATOM     91  O   UNL A   1      44.439  38.548  35.912  1.00  0.00    -0.237 OA
ATOM     92  O   UNL A   1      43.197  37.617  37.826  1.00  0.00    -0.744 OA
ENDBRANCH  88  89
ENDBRANCH  56  81
ENDBRANCH  30  31
ENDBRANCH  22  25
ENDBRANCH  20  21
ENDBRANCH   1  20
TORSDOF 15
ENDMDL
MODEL 2
REMARK VINA RESULT:      -9.3      3.409     10.669
REMARK SMILES COc1cccc(-c2cc(C(=O)NCCCNC(=O)c3ccc(-c4c5nc(c(-c6c(F)cc(S(=O)(=O)[O-])cc6F)c6ccc([nH]6)c(-c6c(F)cc(S(=O)(=O)[O-])cc6F)c6nc(c(-c7c(F)cc(S(=O)(=O)[O-])cc7F)c7ccc4[nH]7)C=C6)C=C5)cc3)cs2)c1
REMARK SMILES IDX 15 1 14 2 13 3 11 4 12 5 10 7 8 8 9 9 87 10 86 11 7 12 3 13
REMARK SMILES IDX 4 14 88 15 5 16 6 17 2 18 1 19 16 20 17 21 18 22 19 24 20 25
REMARK SMILES IDX 21 26 85 27 22 28 84 29 23 30 24 31 25 32 78 33 26 34 83 35
REMARK SMILES IDX 77 36 79 37 27 38 82 39 76 40 75 41 28 43 62 44 41 45 61 46
REMARK SMILES IDX 42 47 45 48 60 49 80 50 43 51 44 52 59 54 81 55 46 56 29 57
REMARK SMILES IDX 30 58 39 59 31 60 32 61 38 62 40 63 33 64 34 65 35 66 36 67
REMARK SMILES IDX 37 68 63 69 64 70 73 71 65 72 66 73 72 74 74 75 67 76 68 77
REMARK SMILES IDX 69 78 70 79 71 80 47 81 48 82 57 83 49 84 50 85 56 86 58 87
REMARK SMILES IDX 51 88 52 89 53 90 54 91 55 92
REMARK H PARENT 13 6 17 23 79 42 45 53
REMARK Flexibility Score: inf
ROOT
ATOM      1  C   UNL A   1      34.296  33.173  29.370  1.00  0.00     0.042 C 
ENDROOT
BRANCH   1   2
ATOM      2  C   UNL A   1      34.992  32.499  30.550  1.00  0.00     0.118 C 
BRANCH   2   3
ATOM      3  N   UNL A   1      34.337  32.816  31.805  1.00  0.00    -0.352 N 
ATOM      4  C   UNL A   1      34.829  33.135  33.046  1.00  0.00     0.252 C 
ATOM      5  O   UNL A   1      34.012  33.467  33.904  1.00  0.00    -0.269 OA
ATOM      6  H   UNL A   1      33.353  32.800  31.758  1.00  0.00     0.163 HD
BRANCH   4   7
ATOM      7  C   UNL A   1      36.268  33.146  33.320  1.00  0.00     0.051 A 
ATOM      8  C   UNL A   1      38.493  32.439  33.592  1.00  0.00     0.035 A 
ATOM      9  C   UNL A   1      37.168  32.058  33.547  1.00  0.00     0.034 A 
ATOM     10  S   UNL A   1      38.655  34.132  33.616  1.00  0.00    -0.143 S 
ATOM     11  C   UNL A   1      36.965  34.341  33.431  1.00  0.00     0.079 A 
BRANCH   8  12
ATOM     12  C   UNL A   1      39.649  31.551  33.577  1.00  0.00    -0.005 A 
ATOM     13  C   UNL A   1      40.497  29.275  33.671  1.00  0.00     0.119 A 
ATOM     14  C   UNL A   1      41.777  29.778  33.899  1.00  0.00     0.046 A 
ATOM     15  C   UNL A   1      39.433  30.164  33.518  1.00  0.00     0.056 A 
ATOM     16  C   UNL A   1      42.006  31.155  33.927  1.00  0.00     0.004 A 
ATOM     17  C   UNL A   1      40.943  32.044  33.762  1.00  0.00     0.010 A 
BRANCH  13  18
ATOM     18  O   UNL A   1      40.383  27.913  33.696  1.00  0.00    -0.497 OA
ATOM     19  C   UNL A   1      41.472  27.213  34.289  1.00  0.00     0.278 C 
ENDBRANCH  13  18
ENDBRANCH   8  12
ENDBRANCH   4   7
ENDBRANCH   2   3
ENDBRANCH   1   2
BRANCH   1  20
ATOM     20  C   UNL A   1      34.551  32.456  28.046  1.00  0.00     0.118 C 
BRANCH  20  21
ATOM     21  N   UNL A   1      33.901  31.150  27.998  1.00  0.00    -0.352 N 
ATOM     22  C   UNL A   1      34.455  29.894  27.990  1.00  0.00     0.251 C 
ATOM     23  H   UNL A   1      32.917  31.174  27.966  1.00  0.00     0.163 HD
ATOM     24  O   UNL A   1      33.757  28.921  27.722  1.00  0.00    -0.269 OA
BRANCH  22  25
ATOM     25  C   UNL A   1      35.890  29.722  28.294  1.00  0.00     0.039 A 
ATOM     26  C   UNL A   1      36.277  29.352  29.586  1.00  0.00     0.014 A 
ATOM     27  C   UNL A   1      36.851  29.929  27.302  1.00  0.00     0.014 A 
ATOM     28  C   UNL A   1      37.627  29.118  29.862  1.00  0.00     0.010 A 
ATOM     29  C   UNL A   1      38.183  29.622  27.559  1.00  0.00     0.010 A 
ATOM     30  C   UNL A   1      38.583  29.210  28.839  1.00  0.00    -0.014 A 
BRANCH  30  31
ATOM     31  C   UNL A   1      40.014  28.880  29.064  1.00  0.00     0.031 A 
ATOM     32  C   UNL A   1      40.963  29.955  29.516  1.00  0.00     0.074 A 
ATOM     33  C   UNL A   1      40.471  27.650  28.759  1.00  0.00     0.049 A 
ATOM     34  N   UNL A   1      42.267  29.922  29.602  1.00  0.00    -0.248 NA
ATOM     35  C   UNL A   1      40.369  31.250  29.885  1.00  0.00     0.031 C 
ATOM     36  C   UNL A   1      39.650  26.534  28.282  1.00  0.00     0.029 A 
ATOM     37  N   UNL A   1      41.745  27.138  28.774  1.00  0.00    -0.354 N 
ATOM     38  C   UNL A   1      42.651  31.194  30.013  1.00  0.00     0.074 A 
ATOM     39  C   UNL A   1      41.446  31.988  30.110  1.00  0.00     0.031 C 
ATOM     40  C   UNL A   1      40.438  25.470  28.060  1.00  0.00     0.029 A 
ATOM     41  C   UNL A   1      41.825  25.841  28.324  1.00  0.00     0.049 A 
ATOM     42  H   UNL A   1      42.528  27.652  29.080  1.00  0.00     0.167 HD
ATOM     43  C   UNL A   1      43.892  31.650  30.299  1.00  0.00     0.037 A 
ATOM     44  C   UNL A   1      42.896  25.048  28.121  1.00  0.00     0.037 A 
ATOM     45  C   UNL A   1      45.081  30.842  30.218  1.00  0.00     0.049 A 
ATOM     46  C   UNL A   1      44.270  25.584  28.424  1.00  0.00     0.074 A 
ATOM     47  C   UNL A   1      46.382  31.192  30.534  1.00  0.00     0.029 A 
ATOM     48  N   UNL A   1      45.117  29.524  29.787  1.00  0.00    -0.354 N 
ATOM     49  N   UNL A   1      44.611  26.774  28.859  1.00  0.00    -0.248 NA
ATOM     50  C   UNL A   1      45.403  24.673  28.212  1.00  0.00     0.031 C 
ATOM     51  C   UNL A   1      47.210  30.105  30.244  1.00  0.00     0.029 A 
ATOM     52  C   UNL A   1      46.419  29.054  29.808  1.00  0.00     0.049 A 
ATOM     53  H   UNL A   1      44.332  29.000  29.506  1.00  0.00     0.167 HD
ATOM     54  C   UNL A   1      45.993  26.742  29.011  1.00  0.00     0.074 A 
ATOM     55  C   UNL A   1      46.424  25.416  28.621  1.00  0.00     0.031 C 
ATOM     56  C   UNL A   1      46.828  27.720  29.439  1.00  0.00     0.037 A 
BRANCH  43  57
ATOM     57  C   UNL A   1      44.033  33.088  30.722  1.00  0.00     0.058 A 
ATOM     58  C   UNL A   1      43.942  34.143  29.799  1.00  0.00     0.135 A 
ATOM     59  C   UNL A   1      44.223  33.419  32.074  1.00  0.00     0.135 A 
ATOM     60  F   UNL A   1      43.775  33.886  28.492  1.00  0.00    -0.206 F 
ATOM     61  C   UNL A   1      44.065  35.470  30.197  1.00  0.00     0.059 A 
ATOM     62  C   UNL A   1      44.316  34.741  32.499  1.00  0.00     0.059 A 
ATOM     63  F   UNL A   1      44.319  32.451  33.000  1.00  0.00    -0.206 F 
ATOM     64  C   UNL A   1      44.251  35.759  31.549  1.00  0.00     0.060 A 
BRANCH  64  65
ATOM     65  S   UNL A   1      44.402  37.488  32.046  1.00  0.00     0.124 S 
ATOM     66  O   UNL A   1      45.833  37.589  32.315  1.00  0.00    -0.237 OA
ATOM     67  O   UNL A   1      43.928  38.195  30.862  1.00  0.00    -0.237 OA
ATOM     68  O   UNL A   1      43.537  37.582  33.218  1.00  0.00    -0.744 OA
ENDBRANCH  64  65
ENDBRANCH  43  57
BRANCH  44  69
ATOM     69  C   UNL A   1      42.710  23.661  27.614  1.00  0.00     0.058 A 
ATOM     70  C   UNL A   1      42.690  23.393  26.237  1.00  0.00     0.135 A 
ATOM     71  C   UNL A   1      42.563  22.575  28.492  1.00  0.00     0.135 A 
ATOM     72  F   UNL A   1      42.819  24.398  25.357  1.00  0.00    -0.206 F 
ATOM     73  C   UNL A   1      42.512  22.104  25.747  1.00  0.00     0.059 A 
ATOM     74  C   UNL A   1      42.414  21.272  28.026  1.00  0.00     0.059 A 
ATOM     75  F   UNL A   1      42.593  22.773  29.819  1.00  0.00    -0.206 F 
ATOM     76  C   UNL A   1      42.378  21.048  26.651  1.00  0.00     0.060 A 
BRANCH  76  77
ATOM     77  S   UNL A   1      42.194  19.372  26.002  1.00  0.00     0.124 S 
ATOM     78  O   UNL A   1      42.675  18.570  27.121  1.00  0.00    -0.237 OA
ATOM     79  O   UNL A   1      40.762  19.305  25.734  1.00  0.00    -0.237 OA
ATOM     80  O   UNL A   1      43.047  19.375  24.816  1.00  0.00    -0.744 OA
ENDBRANCH  76  77
ENDBRANCH  44  69
BRANCH  56  81
ATOM     81  C   UNL A   1      48.289  27.388  29.573  1.00  0.00     0.058 A 
ATOM     82  C   UNL A   1      49.221  27.719  28.577  1.00  0.00     0.135 A 
ATOM     83  C   UNL A   1      48.772  26.813  30.760  1.00  0.00     0.135 A 
ATOM     84  F   UNL A   1      48.811  28.262  27.421  1.00  0.00    -0.206 F 
ATOM     85  C   UNL A   1      50.581  27.482  28.751  1.00  0.00     0.059 A 
ATOM     86  C   UNL A   1      50.130  26.596  30.967  1.00  0.00     0.059 A 
ATOM     87  F   UNL A   1      47.923  26.485  31.747  1.00  0.00    -0.206 F 
ATOM     88  C   UNL A   1      51.027  26.930  29.954  1.00  0.00     0.060 A 
BRANCH  88  89
ATOM     89  S   UNL A   1      52.801  26.694  30.192  1.00  0.00     0.124 S 
ATOM     90  O   UNL A   1      53.230  28.040  30.561  1.00  0.00    -0.237 OA
ATOM     91  O   UNL A   1      52.841  25.701  31.261  1.00  0.00    -0.237 OA
ATOM     92  O   UNL A   1      53.261  26.224  28.890  1.00  0.00    -0.744 OA
ENDBRANCH  88  89
ENDBRANCH  56  81
ENDBRANCH  30  31
ENDBRANCH  22  25
ENDBRANCH  20  21
ENDBRANCH   1  20
TORSDOF 15
ENDMDL
MODEL 3
REMARK VINA RESULT:      -9.2      3.597      9.932
REMARK SMILES COc1cccc(-c2cc(C(=O)NCCCNC(=O)c3ccc(-c4c5nc(c(-c6c(F)cc(S(=O)(=O)[O-])cc6F)c6ccc([nH]6)c(-c6c(F)cc(S(=O)(=O)[O-])cc6F)c6nc(c(-c7c(F)cc(S(=O)(=O)[O-])cc7F)c7ccc4[nH]7)C=C6)C=C5)cc3)cs2)c1
REMARK SMILES IDX 15 1 14 2 13 3 11 4 12 5 10 7 8 8 9 9 87 10 86 11 7 12 3 13
REMARK SMILES IDX 4 14 88 15 5 16 6 17 2 18 1 19 16 20 17 21 18 22 19 24 20 25
REMARK SMILES IDX 21 26 85 27 22 28 84 29 23 30 24 31 25 32 78 33 26 34 83 35
REMARK SMILES IDX 77 36 79 37 27 38 82 39 76 40 75 41 28 43 62 44 41 45 61 46
REMARK SMILES IDX 42 47 45 48 60 49 80 50 43 51 44 52 59 54 81 55 46 56 29 57
REMARK SMILES IDX 30 58 39 59 31 60 32 61 38 62 40 63 33 64 34 65 35 66 36 67
REMARK SMILES IDX 37 68 63 69 64 70 73 71 65 72 66 73 72 74 74 75 67 76 68 77
REMARK SMILES IDX 69 78 70 79 71 80 47 81 48 82 57 83 49 84 50 85 56 86 58 87
REMARK SMILES IDX 51 88 52 89 53 90 54 91 55 92
REMARK H PARENT 13 6 17 23 79 42 45 53
REMARK Flexibility Score: inf
ROOT
ATOM      1  C   UNL A   1      39.416  22.364  26.464  1.00  0.00     0.042 C 
ENDROOT
BRANCH   1   2
ATOM      2  C   UNL A   1      38.080  23.019  26.122  1.00  0.00     0.118 C 
BRANCH   2   3
ATOM      3  N   UNL A   1      37.746  22.843  24.720  1.00  0.00    -0.352 N 
ATOM      4  C   UNL A   1      36.603  23.107  24.006  1.00  0.00     0.252 C 
ATOM      5  O   UNL A   1      36.658  22.953  22.787  1.00  0.00    -0.269 OA
ATOM      6  H   UNL A   1      38.477  22.464  24.179  1.00  0.00     0.163 HD
BRANCH   4   7
ATOM      7  C   UNL A   1      35.394  23.614  24.657  1.00  0.00     0.051 A 
ATOM      8  C   UNL A   1      33.823  25.073  25.621  1.00  0.00     0.035 A 
ATOM      9  C   UNL A   1      35.143  24.883  25.270  1.00  0.00     0.034 A 
ATOM     10  S   UNL A   1      32.919  23.642  25.454  1.00  0.00    -0.143 S 
ATOM     11  C   UNL A   1      34.265  22.817  24.788  1.00  0.00     0.079 A 
BRANCH   8  12
ATOM     12  C   UNL A   1      33.213  26.328  26.045  1.00  0.00    -0.005 A 
ATOM     13  C   UNL A   1      33.523  28.652  26.685  1.00  0.00     0.119 A 
ATOM     14  C   UNL A   1      32.219  28.674  27.177  1.00  0.00     0.046 A 
ATOM     15  C   UNL A   1      34.021  27.476  26.126  1.00  0.00     0.056 A 
ATOM     16  C   UNL A   1      31.399  27.548  27.071  1.00  0.00     0.004 A 
ATOM     17  C   UNL A   1      31.894  26.375  26.501  1.00  0.00     0.010 A 
BRANCH  13  18
ATOM     18  O   UNL A   1      34.245  29.799  26.870  1.00  0.00    -0.497 OA
ATOM     19  C   UNL A   1      35.408  29.671  27.681  1.00  0.00     0.278 C 
ENDBRANCH  13  18
ENDBRANCH   8  12
ENDBRANCH   4   7
ENDBRANCH   2   3
ENDBRANCH   1   2
BRANCH   1  20
ATOM     20  C   UNL A   1      40.432  23.355  27.028  1.00  0.00     0.118 C 
BRANCH  20  21
ATOM     21  N   UNL A   1      40.938  24.262  26.003  1.00  0.00    -0.352 N 
ATOM     22  C   UNL A   1      41.129  25.621  26.051  1.00  0.00     0.251 C 
ATOM     23  H   UNL A   1      41.180  23.835  25.150  1.00  0.00     0.163 HD
ATOM     24  O   UNL A   1      41.354  26.241  25.017  1.00  0.00    -0.269 OA
BRANCH  22  25
ATOM     25  C   UNL A   1      41.053  26.328  27.345  1.00  0.00     0.039 A 
ATOM     26  C   UNL A   1      42.060  27.233  27.692  1.00  0.00     0.014 A 
ATOM     27  C   UNL A   1      39.985  26.095  28.215  1.00  0.00     0.014 A 
ATOM     28  C   UNL A   1      41.957  27.959  28.881  1.00  0.00     0.010 A 
ATOM     29  C   UNL A   1      39.846  26.873  29.358  1.00  0.00     0.010 A 
ATOM     30  C   UNL A   1      40.828  27.815  29.701  1.00  0.00    -0.014 A 
BRANCH  30  31
ATOM     31  C   UNL A   1      40.632  28.632  30.925  1.00  0.00     0.031 A 
ATOM     32  C   UNL A   1      39.600  29.726  30.933  1.00  0.00     0.074 A 
ATOM     33  C   UNL A   1      41.452  28.461  31.981  1.00  0.00     0.049 A 
ATOM     34  N   UNL A   1      39.390  30.658  31.825  1.00  0.00    -0.248 NA
ATOM     35  C   UNL A   1      38.708  29.802  29.764  1.00  0.00     0.031 C 
ATOM     36  C   UNL A   1      42.511  27.453  32.077  1.00  0.00     0.029 A 
ATOM     37  N   UNL A   1      41.545  29.150  33.165  1.00  0.00    -0.354 N 
ATOM     38  C   UNL A   1      38.361  31.443  31.318  1.00  0.00     0.074 A 
ATOM     39  C   UNL A   1      38.023  30.907  30.018  1.00  0.00     0.031 C 
ATOM     40  C   UNL A   1      43.139  27.584  33.256  1.00  0.00     0.029 A 
ATOM     41  C   UNL A   1      42.567  28.717  33.977  1.00  0.00     0.049 A 
ATOM     42  H   UNL A   1      40.936  29.885  33.409  1.00  0.00     0.167 HD
ATOM     43  C   UNL A   1      37.745  32.502  31.892  1.00  0.00     0.037 A 
ATOM     44  C   UNL A   1      43.011  29.195  35.156  1.00  0.00     0.037 A 
ATOM     45  C   UNL A   1      38.078  33.012  33.197  1.00  0.00     0.049 A 
ATOM     46  C   UNL A   1      42.325  30.388  35.767  1.00  0.00     0.074 A 
ATOM     47  C   UNL A   1      37.481  34.048  33.893  1.00  0.00     0.029 A 
ATOM     48  N   UNL A   1      39.099  32.527  34.001  1.00  0.00    -0.354 N 
ATOM     49  N   UNL A   1      41.320  31.089  35.296  1.00  0.00    -0.248 NA
ATOM     50  C   UNL A   1      42.828  30.855  37.066  1.00  0.00     0.031 C 
ATOM     51  C   UNL A   1      38.175  34.224  35.094  1.00  0.00     0.029 A 
ATOM     52  C   UNL A   1      39.164  33.256  35.176  1.00  0.00     0.049 A 
ATOM     53  H   UNL A   1      39.691  31.775  33.771  1.00  0.00     0.167 HD
ATOM     54  C   UNL A   1      41.046  32.054  36.259  1.00  0.00     0.074 A 
ATOM     55  C   UNL A   1      41.990  31.847  37.338  1.00  0.00     0.031 C 
ATOM     56  C   UNL A   1      40.095  33.020  36.252  1.00  0.00     0.037 A 
BRANCH  43  57
ATOM     57  C   UNL A   1      36.651  33.185  31.116  1.00  0.00     0.058 A 
ATOM     58  C   UNL A   1      36.925  33.955  29.974  1.00  0.00     0.135 A 
ATOM     59  C   UNL A   1      35.307  33.037  31.496  1.00  0.00     0.135 A 
ATOM     60  F   UNL A   1      38.192  34.143  29.572  1.00  0.00    -0.206 F 
ATOM     61  C   UNL A   1      35.910  34.578  29.255  1.00  0.00     0.059 A 
ATOM     62  C   UNL A   1      34.272  33.625  30.774  1.00  0.00     0.059 A 
ATOM     63  F   UNL A   1      34.987  32.313  32.581  1.00  0.00    -0.206 F 
ATOM     64  C   UNL A   1      34.586  34.406  29.663  1.00  0.00     0.060 A 
BRANCH  64  65
ATOM     65  S   UNL A   1      33.282  35.217  28.714  1.00  0.00     0.124 S 
ATOM     66  O   UNL A   1      32.483  35.821  29.775  1.00  0.00    -0.237 OA
ATOM     67  O   UNL A   1      34.035  36.146  27.881  1.00  0.00    -0.237 OA
ATOM     68  O   UNL A   1      32.644  34.114  28.001  1.00  0.00    -0.744 OA
ENDBRANCH  64  65
ENDBRANCH  43  57
BRANCH  44  69
ATOM     69  C   UNL A   1      44.157  28.537  35.842  1.00  0.00     0.058 A 
ATOM     70  C   UNL A   1      45.475  28.953  35.603  1.00  0.00     0.135 A 
ATOM     71  C   UNL A   1      43.959  27.492  36.759  1.00  0.00     0.135 A 
ATOM     72  F   UNL A   1      45.718  29.944  34.731  1.00  0.00    -0.206 F 
ATOM     73  C   UNL A   1      46.558  28.347  36.232  1.00  0.00     0.059 A 
ATOM     74  C   UNL A   1      45.024  26.889  37.422  1.00  0.00     0.059 A 
ATOM     75  F   UNL A   1      42.717  27.067  37.037  1.00  0.00    -0.206 F 
ATOM     76  C   UNL A   1      46.321  27.316  37.143  1.00  0.00     0.060 A 
BRANCH  76  77
ATOM     77  S   UNL A   1      47.732  26.567  37.987  1.00  0.00     0.124 S 
ATOM     78  O   UNL A   1      47.380  26.777  39.387  1.00  0.00    -0.237 OA
ATOM     79  O   UNL A   1      47.675  25.189  37.512  1.00  0.00    -0.237 OA
ATOM     80  O   UNL A   1      48.867  27.345  37.499  1.00  0.00    -0.744 OA
ENDBRANCH  76  77
ENDBRANCH  44  69
BRANCH  56  81
ATOM     81  C   UNL A   1      39.975  33.896  37.469  1.00  0.00     0.058 A 
ATOM     82  C   UNL A   1      40.636  35.131  37.565  1.00  0.00     0.135 A 
ATOM     83  C   UNL A   1      39.111  33.531  38.515  1.00  0.00     0.135 A 
ATOM     84  F   UNL A   1      41.480  35.522  36.598  1.00  0.00    -0.206 F 
ATOM     85  C   UNL A   1      40.448  35.969  38.659  1.00  0.00     0.059 A 
ATOM     86  C   UNL A   1      38.886  34.367  39.603  1.00  0.00     0.059 A 
ATOM     87  F   UNL A   1      38.449  32.364  38.468  1.00  0.00    -0.206 F 
ATOM     88  C   UNL A   1      39.563  35.584  39.669  1.00  0.00     0.060 A 
BRANCH  88  89
ATOM     89  S   UNL A   1      39.278  36.713  41.047  1.00  0.00     0.124 S 
ATOM     90  O   UNL A   1      38.528  37.785  40.400  1.00  0.00    -0.237 OA
ATOM     91  O   UNL A   1      38.519  35.882  41.977  1.00  0.00    -0.237 OA
ATOM     92  O   UNL A   1      40.625  37.065  41.485  1.00  0.00    -0.744 OA
ENDBRANCH  88  89
ENDBRANCH  56  81
ENDBRANCH  30  31
ENDBRANCH  22  25
ENDBRANCH  20  21
ENDBRANCH   1  20
TORSDOF 15
ENDMDL
