MODEL 1
REMARK VINA RESULT:     -11.1      0.000      0.000
REMARK SMILES CC[C@@H](C)[C@@H](C)Nc1cccc(F)c1C(=O)NCCCNC(=O)c1ccc(-c2c3nc(c(-c4c(F)cc(S(=O)(=O)[O-])cc4F)c4ccc([nH]4)c(-c4c(F)cc(S(=O)(=O)[O-])cc4F)c4nc(c(-c5c(F)cc(S(=O)(=O)[O-])cc5F)c5ccc2[nH]5)C=C4)C=C3)cc1
REMARK SMILES IDX 18 1 17 2 15 3 16 4 14 6 8 7 9 8 10 9 12 10 11 11 13 12 7 13
REMARK SMILES IDX 5 15 6 16 3 17 4 18 2 19 1 20 19 21 20 22 21 23 22 24 23 26
REMARK SMILES IDX 24 27 25 28 89 29 26 30 88 31 27 32 28 33 29 34 82 35 30 36
REMARK SMILES IDX 87 37 81 38 83 39 31 40 86 41 80 42 79 43 32 45 66 46 45 47
REMARK SMILES IDX 65 48 46 49 49 50 64 51 84 52 47 53 48 54 63 56 85 57 50 58
REMARK SMILES IDX 33 59 34 60 43 61 35 62 36 63 42 64 44 65 37 66 38 67 39 68
REMARK SMILES IDX 40 69 41 70 67 71 68 72 77 73 69 74 70 75 76 76 78 77 71 78
REMARK SMILES IDX 72 79 73 80 74 81 75 82 51 83 52 84 61 85 53 86 54 87 60 88
REMARK SMILES IDX 62 89 55 90 56 91 57 92 58 93 59 94
REMARK H PARENT 17 5 7 14 21 25 83 44 49 55
REMARK Flexibility Score: inf
ROOT
ATOM      1  C   UNL A   1      33.277  30.056  27.397  1.00  0.00     0.118 C 
ENDROOT
BRANCH   1   2
ATOM      2  N   UNL A   1      32.428  28.890  27.553  1.00  0.00    -0.352 N 
ATOM      3  C   UNL A   1      31.905  27.963  26.689  1.00  0.00     0.256 C 
ATOM      4  O   UNL A   1      31.122  27.160  27.209  1.00  0.00    -0.269 OA
ATOM      5  H   UNL A   1      32.170  28.727  28.490  1.00  0.00     0.163 HD
BRANCH   3   6
ATOM      6  C   UNL A   1      32.261  27.807  25.240  1.00  0.00     0.098 A 
ATOM      7  C   UNL A   1      32.949  26.622  24.839  1.00  0.00     0.050 A 
ATOM      8  C   UNL A   1      33.305  26.466  23.484  1.00  0.00     0.027 A 
ATOM      9  C   UNL A   1      33.009  27.437  22.533  1.00  0.00     0.005 A 
ATOM     10  C   UNL A   1      31.928  28.738  24.250  1.00  0.00     0.138 A 
ATOM     11  C   UNL A   1      32.321  28.575  22.921  1.00  0.00     0.040 A 
ATOM     12  F   UNL A   1      31.167  29.808  24.504  1.00  0.00    -0.206 F 
BRANCH   7  13
ATOM     13  N   UNL A   1      33.299  25.642  25.761  1.00  0.00    -0.382 N 
ATOM     14  H   UNL A   1      33.824  25.928  26.544  1.00  0.00     0.160 HD
BRANCH  13  15
ATOM     15  C   UNL A   1      32.956  24.232  25.671  1.00  0.00     0.079 C 
ATOM     16  C   UNL A   1      32.001  23.908  26.823  1.00  0.00     0.031 C 
BRANCH  15  17
ATOM     17  C   UNL A   1      34.265  23.382  25.707  1.00  0.00     0.008 C 
ATOM     18  C   UNL A   1      34.436  22.697  27.076  1.00  0.00     0.010 C 
BRANCH  17  19
ATOM     19  C   UNL A   1      35.496  24.255  25.378  1.00  0.00     0.002 C 
ATOM     20  C   UNL A   1      36.783  23.801  26.052  1.00  0.00     0.004 C 
ENDBRANCH  17  19
ENDBRANCH  15  17
ENDBRANCH  13  15
ENDBRANCH   7  13
ENDBRANCH   3   6
ENDBRANCH   1   2
BRANCH   1  21
ATOM     21  C   UNL A   1      34.747  29.672  27.581  1.00  0.00     0.042 C 
BRANCH  21  22
ATOM     22  C   UNL A   1      35.600  30.806  28.148  1.00  0.00     0.118 C 
BRANCH  22  23
ATOM     23  N   UNL A   1      35.586  30.822  29.605  1.00  0.00    -0.352 N 
ATOM     24  C   UNL A   1      36.471  30.272  30.500  1.00  0.00     0.251 C 
ATOM     25  H   UNL A   1      34.826  31.299  30.010  1.00  0.00     0.163 HD
ATOM     26  O   UNL A   1      36.154  30.174  31.682  1.00  0.00    -0.269 OA
BRANCH  24  27
ATOM     27  C   UNL A   1      37.796  29.798  30.045  1.00  0.00     0.039 A 
ATOM     28  C   UNL A   1      38.140  29.930  28.696  1.00  0.00     0.014 A 
ATOM     29  C   UNL A   1      38.681  29.190  30.938  1.00  0.00     0.014 A 
ATOM     30  C   UNL A   1      39.397  29.509  28.258  1.00  0.00     0.010 A 
ATOM     31  C   UNL A   1      39.961  28.840  30.515  1.00  0.00     0.010 A 
ATOM     32  C   UNL A   1      40.331  28.993  29.170  1.00  0.00    -0.014 A 
BRANCH  32  33
ATOM     33  C   UNL A   1      41.702  28.603  28.750  1.00  0.00     0.031 A 
ATOM     34  C   UNL A   1      42.790  29.639  28.682  1.00  0.00     0.074 A 
ATOM     35  C   UNL A   1      41.944  27.336  28.360  1.00  0.00     0.049 A 
ATOM     36  N   UNL A   1      44.010  29.527  28.225  1.00  0.00    -0.248 NA
ATOM     37  C   UNL A   1      42.453  30.988  29.166  1.00  0.00     0.031 C 
ATOM     38  C   UNL A   1      40.962  26.249  28.360  1.00  0.00     0.029 A 
ATOM     39  N   UNL A   1      43.087  26.747  27.878  1.00  0.00    -0.354 N 
ATOM     40  C   UNL A   1      44.581  30.786  28.357  1.00  0.00     0.074 A 
ATOM     41  C   UNL A   1      43.558  31.663  28.882  1.00  0.00     0.031 C 
ATOM     42  C   UNL A   1      41.551  25.123  27.926  1.00  0.00     0.029 A 
ATOM     43  C   UNL A   1      42.936  25.415  27.569  1.00  0.00     0.049 A 
ATOM     44  H   UNL A   1      43.935  27.233  27.765  1.00  0.00     0.167 HD
ATOM     45  C   UNL A   1      45.851  31.170  28.088  1.00  0.00     0.037 A 
ATOM     46  C   UNL A   1      43.808  24.532  27.045  1.00  0.00     0.037 A 
ATOM     47  C   UNL A   1      46.868  30.283  27.587  1.00  0.00     0.049 A 
ATOM     48  C   UNL A   1      45.203  24.990  26.719  1.00  0.00     0.074 A 
ATOM     49  C   UNL A   1      48.195  30.564  27.317  1.00  0.00     0.029 A 
ATOM     50  N   UNL A   1      46.673  28.943  27.285  1.00  0.00    -0.354 N 
ATOM     51  N   UNL A   1      45.738  26.177  26.879  1.00  0.00    -0.248 NA
ATOM     52  C   UNL A   1      46.116  23.995  26.139  1.00  0.00     0.031 C 
ATOM     53  C   UNL A   1      48.791  29.406  26.808  1.00  0.00     0.029 A 
ATOM     54  C   UNL A   1      47.850  28.388  26.812  1.00  0.00     0.049 A 
ATOM     55  H   UNL A   1      45.823  28.458  27.391  1.00  0.00     0.167 HD
ATOM     56  C   UNL A   1      47.054  26.065  26.446  1.00  0.00     0.074 A 
ATOM     57  C   UNL A   1      47.238  24.693  26.023  1.00  0.00     0.031 C 
ATOM     58  C   UNL A   1      48.022  27.015  26.407  1.00  0.00     0.037 A 
BRANCH  45  59
ATOM     59  C   UNL A   1      46.224  32.605  28.345  1.00  0.00     0.058 A 
ATOM     60  C   UNL A   1      46.123  33.566  27.327  1.00  0.00     0.135 A 
ATOM     61  C   UNL A   1      46.737  33.019  29.586  1.00  0.00     0.135 A 
ATOM     62  F   UNL A   1      45.635  33.230  26.122  1.00  0.00    -0.206 F 
ATOM     63  C   UNL A   1      46.529  34.882  27.525  1.00  0.00     0.059 A 
ATOM     64  C   UNL A   1      47.122  34.337  29.815  1.00  0.00     0.059 A 
ATOM     65  F   UNL A   1      46.836  32.147  30.601  1.00  0.00    -0.206 F 
ATOM     66  C   UNL A   1      47.028  35.259  28.773  1.00  0.00     0.060 A 
BRANCH  66  67
ATOM     67  S   UNL A   1      47.519  36.978  29.025  1.00  0.00     0.124 S 
ATOM     68  O   UNL A   1      46.856  37.299  30.283  1.00  0.00    -0.237 OA
ATOM     69  O   UNL A   1      48.976  36.872  29.080  1.00  0.00    -0.237 OA
ATOM     70  O   UNL A   1      46.995  37.657  27.843  1.00  0.00    -0.744 OA
ENDBRANCH  66  67
ENDBRANCH  45  59
BRANCH  46  71
ATOM     71  C   UNL A   1      43.389  23.121  26.831  1.00  0.00     0.058 A 
ATOM     72  C   UNL A   1      43.239  22.227  27.902  1.00  0.00     0.135 A 
ATOM     73  C   UNL A   1      43.175  22.626  25.535  1.00  0.00     0.135 A 
ATOM     74  F   UNL A   1      43.442  22.644  29.162  1.00  0.00    -0.206 F 
ATOM     75  C   UNL A   1      42.925  20.888  27.696  1.00  0.00     0.059 A 
ATOM     76  C   UNL A   1      42.834  21.297  25.304  1.00  0.00     0.059 A 
ATOM     77  F   UNL A   1      43.293  23.446  24.478  1.00  0.00    -0.206 F 
ATOM     78  C   UNL A   1      42.730  20.430  26.392  1.00  0.00     0.060 A 
BRANCH  78  79
ATOM     79  S   UNL A   1      42.346  18.683  26.145  1.00  0.00     0.124 S 
ATOM     80  O   UNL A   1      40.956  18.749  25.706  1.00  0.00    -0.237 OA
ATOM     81  O   UNL A   1      43.317  18.299  25.126  1.00  0.00    -0.237 OA
ATOM     82  O   UNL A   1      42.560  18.099  27.465  1.00  0.00    -0.744 OA
ENDBRANCH  78  79
ENDBRANCH  46  71
BRANCH  58  83
ATOM     83  C   UNL A   1      49.384  26.613  25.917  1.00  0.00     0.058 A 
ATOM     84  C   UNL A   1      50.325  26.069  26.808  1.00  0.00     0.135 A 
ATOM     85  C   UNL A   1      49.800  26.878  24.604  1.00  0.00     0.135 A 
ATOM     86  F   UNL A   1      49.979  25.801  28.077  1.00  0.00    -0.206 F 
ATOM     87  C   UNL A   1      51.640  25.836  26.423  1.00  0.00     0.059 A 
ATOM     88  C   UNL A   1      51.105  26.626  24.189  1.00  0.00     0.059 A 
ATOM     89  F   UNL A   1      48.936  27.386  23.710  1.00  0.00    -0.206 F 
ATOM     90  C   UNL A   1      52.023  26.127  25.114  1.00  0.00     0.060 A 
BRANCH  90  91
ATOM     91  S   UNL A   1      53.743  25.848  24.642  1.00  0.00     0.124 S 
ATOM     92  O   UNL A   1      53.738  26.248  23.238  1.00  0.00    -0.237 OA
ATOM     93  O   UNL A   1      54.459  26.735  25.552  1.00  0.00    -0.237 OA
ATOM     94  O   UNL A   1      53.935  24.421  24.887  1.00  0.00    -0.744 OA
ENDBRANCH  90  91
ENDBRANCH  58  83
ENDBRANCH  32  33
ENDBRANCH  24  27
ENDBRANCH  22  23
ENDBRANCH  21  22
ENDBRANCH   1  21
TORSDOF 17
ENDMDL
MODEL 2
REMARK VINA RESULT:     -11.0      6.641     13.488
REMARK SMILES CC[C@@H](C)[C@@H](C)Nc1cccc(F)c1C(=O)NCCCNC(=O)c1ccc(-c2c3nc(c(-c4c(F)cc(S(=O)(=O)[O-])cc4F)c4ccc([nH]4)c(-c4c(F)cc(S(=O)(=O)[O-])cc4F)c4nc(c(-c5c(F)cc(S(=O)(=O)[O-])cc5F)c5ccc2[nH]5)C=C4)C=C3)cc1
REMARK SMILES IDX 18 1 17 2 15 3 16 4 14 6 8 7 9 8 10 9 12 10 11 11 13 12 7 13
REMARK SMILES IDX 5 15 6 16 3 17 4 18 2 19 1 20 19 21 20 22 21 23 22 24 23 26
REMARK SMILES IDX 24 27 25 28 89 29 26 30 88 31 27 32 28 33 29 34 82 35 30 36
REMARK SMILES IDX 87 37 81 38 83 39 31 40 86 41 80 42 79 43 32 45 66 46 45 47
REMARK SMILES IDX 65 48 46 49 49 50 64 51 84 52 47 53 48 54 63 56 85 57 50 58
REMARK SMILES IDX 33 59 34 60 43 61 35 62 36 63 42 64 44 65 37 66 38 67 39 68
REMARK SMILES IDX 40 69 41 70 67 71 68 72 77 73 69 74 70 75 76 76 78 77 71 78
REMARK SMILES IDX 72 79 73 80 74 81 75 82 51 83 52 84 61 85 53 86 54 87 60 88
REMARK SMILES IDX 62 89 55 90 56 91 57 92 58 93 59 94
REMARK H PARENT 17 5 7 14 21 25 83 44 49 55
REMARK Flexibility Score: inf
ROOT
ATOM      1  C   UNL A   1      45.136  26.080  25.650  1.00  0.00     0.118 C 
ENDROOT
BRANCH   1   2
ATOM      2  N   UNL A   1      46.252  25.320  26.179  1.00  0.00    -0.352 N 
ATOM      3  C   UNL A   1      46.436  24.531  27.285  1.00  0.00     0.256 C 
ATOM      4  O   UNL A   1      47.596  24.131  27.444  1.00  0.00    -0.269 OA
ATOM      5  H   UNL A   1      47.058  25.384  25.616  1.00  0.00     0.163 HD
BRANCH   3   6
ATOM      6  C   UNL A   1      45.365  24.070  28.228  1.00  0.00     0.098 A 
ATOM      7  C   UNL A   1      45.265  24.711  29.500  1.00  0.00     0.050 A 
ATOM      8  C   UNL A   1      44.274  24.281  30.405  1.00  0.00     0.027 A 
ATOM      9  C   UNL A   1      43.399  23.245  30.093  1.00  0.00     0.005 A 
ATOM     10  C   UNL A   1      44.434  23.070  27.924  1.00  0.00     0.138 A 
ATOM     11  C   UNL A   1      43.484  22.639  28.850  1.00  0.00     0.040 A 
ATOM     12  F   UNL A   1      44.361  22.509  26.712  1.00  0.00    -0.206 F 
BRANCH   7  13
ATOM     13  N   UNL A   1      46.141  25.726  29.869  1.00  0.00    -0.382 N 
ATOM     14  H   UNL A   1      47.104  25.518  29.846  1.00  0.00     0.160 HD
BRANCH  13  15
ATOM     15  C   UNL A   1      45.761  27.066  30.285  1.00  0.00     0.079 C 
ATOM     16  C   UNL A   1      45.975  28.004  29.094  1.00  0.00     0.031 C 
BRANCH  15  17
ATOM     17  C   UNL A   1      46.598  27.472  31.538  1.00  0.00     0.008 C 
ATOM     18  C   UNL A   1      47.643  28.543  31.175  1.00  0.00     0.010 C 
BRANCH  17  19
ATOM     19  C   UNL A   1      47.281  26.236  32.166  1.00  0.00     0.002 C 
ATOM     20  C   UNL A   1      46.387  25.436  33.102  1.00  0.00     0.004 C 
ENDBRANCH  17  19
ENDBRANCH  15  17
ENDBRANCH  13  15
ENDBRANCH   7  13
ENDBRANCH   3   6
ENDBRANCH   1   2
BRANCH   1  21
ATOM     21  C   UNL A   1      44.146  25.151  24.944  1.00  0.00     0.042 C 
BRANCH  21  22
ATOM     22  C   UNL A   1      42.691  25.598  25.087  1.00  0.00     0.118 C 
BRANCH  22  23
ATOM     23  N   UNL A   1      41.823  24.499  25.492  1.00  0.00    -0.352 N 
ATOM     24  C   UNL A   1      41.171  24.284  26.681  1.00  0.00     0.251 C 
ATOM     25  H   UNL A   1      41.682  23.805  24.807  1.00  0.00     0.163 HD
ATOM     26  O   UNL A   1      40.694  23.179  26.918  1.00  0.00    -0.269 OA
BRANCH  24  27
ATOM     27  C   UNL A   1      41.049  25.374  27.674  1.00  0.00     0.039 A 
ATOM     28  C   UNL A   1      39.833  25.554  28.340  1.00  0.00     0.014 A 
ATOM     29  C   UNL A   1      42.117  26.239  27.919  1.00  0.00     0.014 A 
ATOM     30  C   UNL A   1      39.710  26.563  29.298  1.00  0.00     0.010 A 
ATOM     31  C   UNL A   1      42.017  27.196  28.925  1.00  0.00     0.010 A 
ATOM     32  C   UNL A   1      40.812  27.370  29.623  1.00  0.00    -0.014 A 
BRANCH  32  33
ATOM     33  C   UNL A   1      40.737  28.405  30.687  1.00  0.00     0.031 A 
ATOM     34  C   UNL A   1      41.652  28.324  31.878  1.00  0.00     0.074 A 
ATOM     35  C   UNL A   1      39.798  29.368  30.614  1.00  0.00     0.049 A 
ATOM     36  N   UNL A   1      41.659  29.053  32.964  1.00  0.00    -0.248 NA
ATOM     37  C   UNL A   1      42.677  27.268  31.858  1.00  0.00     0.031 C 
ATOM     38  C   UNL A   1      38.839  29.533  29.519  1.00  0.00     0.029 A 
ATOM     39  N   UNL A   1      39.486  30.385  31.482  1.00  0.00    -0.354 N 
ATOM     40  C   UNL A   1      42.677  28.539  33.758  1.00  0.00     0.074 A 
ATOM     41  C   UNL A   1      43.228  27.401  33.057  1.00  0.00     0.031 C 
ATOM     42  C   UNL A   1      38.065  30.601  29.768  1.00  0.00     0.029 A 
ATOM     43  C   UNL A   1      38.436  31.169  31.061  1.00  0.00     0.049 A 
ATOM     44  H   UNL A   1      39.967  30.540  32.325  1.00  0.00     0.167 HD
ATOM     45  C   UNL A   1      43.127  28.992  34.952  1.00  0.00     0.037 A 
ATOM     46  C   UNL A   1      37.830  32.216  31.654  1.00  0.00     0.037 A 
ATOM     47  C   UNL A   1      42.585  30.140  35.630  1.00  0.00     0.049 A 
ATOM     48  C   UNL A   1      38.323  32.679  32.998  1.00  0.00     0.074 A 
ATOM     49  C   UNL A   1      42.995  30.703  36.826  1.00  0.00     0.029 A 
ATOM     50  N   UNL A   1      41.521  30.903  35.172  1.00  0.00    -0.354 N 
ATOM     51  N   UNL A   1      39.308  32.201  33.722  1.00  0.00    -0.248 NA
ATOM     52  C   UNL A   1      37.625  33.817  33.611  1.00  0.00     0.031 C 
ATOM     53  C   UNL A   1      42.148  31.777  37.114  1.00  0.00     0.029 A 
ATOM     54  C   UNL A   1      41.247  31.920  36.070  1.00  0.00     0.049 A 
ATOM     55  H   UNL A   1      41.033  30.745  34.332  1.00  0.00     0.167 HD
ATOM     56  C   UNL A   1      39.365  32.997  34.860  1.00  0.00     0.074 A 
ATOM     57  C   UNL A   1      38.320  33.991  34.728  1.00  0.00     0.031 C 
ATOM     58  C   UNL A   1      40.211  32.912  35.917  1.00  0.00     0.037 A 
BRANCH  45  59
ATOM     59  C   UNL A   1      44.273  28.259  35.597  1.00  0.00     0.058 A 
ATOM     60  C   UNL A   1      45.599  28.540  35.234  1.00  0.00     0.135 A 
ATOM     61  C   UNL A   1      44.054  27.236  36.535  1.00  0.00     0.135 A 
ATOM     62  F   UNL A   1      45.869  29.510  34.346  1.00  0.00    -0.206 F 
ATOM     63  C   UNL A   1      46.667  27.824  35.767  1.00  0.00     0.059 A 
ATOM     64  C   UNL A   1      45.108  26.528  37.103  1.00  0.00     0.059 A 
ATOM     65  F   UNL A   1      42.807  26.941  36.934  1.00  0.00    -0.206 F 
ATOM     66  C   UNL A   1      46.412  26.819  36.702  1.00  0.00     0.060 A 
BRANCH  66  67
ATOM     67  S   UNL A   1      47.809  25.922  37.410  1.00  0.00     0.124 S 
ATOM     68  O   UNL A   1      48.904  26.865  37.210  1.00  0.00    -0.237 OA
ATOM     69  O   UNL A   1      47.378  25.729  38.792  1.00  0.00    -0.237 OA
ATOM     70  O   UNL A   1      47.872  24.704  36.607  1.00  0.00    -0.744 OA
ENDBRANCH  66  67
ENDBRANCH  45  59
BRANCH  46  71
ATOM     71  C   UNL A   1      36.715  32.913  30.959  1.00  0.00     0.058 A 
ATOM     72  C   UNL A   1      36.949  33.796  29.894  1.00  0.00     0.135 A 
ATOM     73  C   UNL A   1      35.388  32.743  31.384  1.00  0.00     0.135 A 
ATOM     74  F   UNL A   1      38.200  34.005  29.454  1.00  0.00    -0.206 F 
ATOM     75  C   UNL A   1      35.915  34.508  29.296  1.00  0.00     0.059 A 
ATOM     76  C   UNL A   1      34.333  33.424  30.786  1.00  0.00     0.059 A 
ATOM     77  F   UNL A   1      35.112  31.899  32.391  1.00  0.00    -0.206 F 
ATOM     78  C   UNL A   1      34.609  34.320  29.753  1.00  0.00     0.060 A 
BRANCH  78  79
ATOM     79  S   UNL A   1      33.285  35.272  28.979  1.00  0.00     0.124 S 
ATOM     80  O   UNL A   1      32.552  35.755  30.146  1.00  0.00    -0.237 OA
ATOM     81  O   UNL A   1      34.029  36.281  28.234  1.00  0.00    -0.237 OA
ATOM     82  O   UNL A   1      32.586  34.282  28.166  1.00  0.00    -0.744 OA
ENDBRANCH  78  79
ENDBRANCH  46  71
BRANCH  58  83
ATOM     83  C   UNL A   1      40.074  33.930  37.014  1.00  0.00     0.058 A 
ATOM     84  C   UNL A   1      39.273  33.658  38.136  1.00  0.00     0.135 A 
ATOM     85  C   UNL A   1      40.629  35.213  36.898  1.00  0.00     0.135 A 
ATOM     86  F   UNL A   1      38.715  32.447  38.292  1.00  0.00    -0.206 F 
ATOM     87  C   UNL A   1      39.000  34.635  39.087  1.00  0.00     0.059 A 
ATOM     88  C   UNL A   1      40.391  36.198  37.853  1.00  0.00     0.059 A 
ATOM     89  F   UNL A   1      41.411  35.519  35.850  1.00  0.00    -0.206 F 
ATOM     90  C   UNL A   1      39.555  35.905  38.931  1.00  0.00     0.060 A 
BRANCH  90  91
ATOM     91  S   UNL A   1      39.162  37.169  40.159  1.00  0.00     0.124 S 
ATOM     92  O   UNL A   1      40.487  37.518  40.663  1.00  0.00    -0.237 OA
ATOM     93  O   UNL A   1      38.501  38.187  39.350  1.00  0.00    -0.237 OA
ATOM     94  O   UNL A   1      38.296  36.468  41.103  1.00  0.00    -0.744 OA
ENDBRANCH  90  91
ENDBRANCH  58  83
ENDBRANCH  32  33
ENDBRANCH  24  27
ENDBRANCH  22  23
ENDBRANCH  21  22
ENDBRANCH   1  21
TORSDOF 17
ENDMDL
MODEL 3
REMARK VINA RESULT:     -11.0      4.643     10.383
REMARK SMILES CC[C@@H](C)[C@@H](C)Nc1cccc(F)c1C(=O)NCCCNC(=O)c1ccc(-c2c3nc(c(-c4c(F)cc(S(=O)(=O)[O-])cc4F)c4ccc([nH]4)c(-c4c(F)cc(S(=O)(=O)[O-])cc4F)c4nc(c(-c5c(F)cc(S(=O)(=O)[O-])cc5F)c5ccc2[nH]5)C=C4)C=C3)cc1
REMARK SMILES IDX 18 1 17 2 15 3 16 4 14 6 8 7 9 8 10 9 12 10 11 11 13 12 7 13
REMARK SMILES IDX 5 15 6 16 3 17 4 18 2 19 1 20 19 21 20 22 21 23 22 24 23 26
REMARK SMILES IDX 24 27 25 28 89 29 26 30 88 31 27 32 28 33 29 34 82 35 30 36
REMARK SMILES IDX 87 37 81 38 83 39 31 40 86 41 80 42 79 43 32 45 66 46 45 47
REMARK SMILES IDX 65 48 46 49 49 50 64 51 84 52 47 53 48 54 63 56 85 57 50 58
REMARK SMILES IDX 33 59 34 60 43 61 35 62 36 63 42 64 44 65 37 66 38 67 39 68
REMARK SMILES IDX 40 69 41 70 67 71 68 72 77 73 69 74 70 75 76 76 78 77 71 78
REMARK SMILES IDX 72 79 73 80 74 81 75 82 51 83 52 84 61 85 53 86 54 87 60 88
REMARK SMILES IDX 62 89 55 90 56 91 57 92 58 93 59 94
REMARK H PARENT 17 5 7 14 21 25 83 44 49 55
REMARK Flexibility Score: inf
ROOT
ATOM      1  C   UNL A   1      33.721  25.002  25.945  1.00  0.00     0.118 C 
ENDROOT
BRANCH   1   2
ATOM      2  N   UNL A   1      34.059  25.799  24.780  1.00  0.00    -0.352 N 
ATOM      3  C   UNL A   1      33.852  27.105  24.420  1.00  0.00     0.256 C 
ATOM      4  O   UNL A   1      34.209  27.383  23.269  1.00  0.00    -0.269 OA
ATOM      5  H   UNL A   1      34.546  25.286  24.095  1.00  0.00     0.163 HD
BRANCH   3   6
ATOM      6  C   UNL A   1      33.325  28.193  25.308  1.00  0.00     0.098 A 
ATOM      7  C   UNL A   1      32.070  28.786  24.975  1.00  0.00     0.050 A 
ATOM      8  C   UNL A   1      31.567  29.820  25.789  1.00  0.00     0.027 A 
ATOM      9  C   UNL A   1      32.264  30.280  26.902  1.00  0.00     0.005 A 
ATOM     10  C   UNL A   1      33.974  28.639  26.464  1.00  0.00     0.138 A 
ATOM     11  C   UNL A   1      33.471  29.688  27.236  1.00  0.00     0.040 A 
ATOM     12  F   UNL A   1      35.081  28.053  26.932  1.00  0.00    -0.206 F 
BRANCH   7  13
ATOM     13  N   UNL A   1      31.356  28.384  23.852  1.00  0.00    -0.382 N 
ATOM     14  H   UNL A   1      31.828  28.405  22.987  1.00  0.00     0.160 HD
BRANCH  13  15
ATOM     15  C   UNL A   1      29.973  27.935  23.841  1.00  0.00     0.079 C 
ATOM     16  C   UNL A   1      29.979  26.403  23.828  1.00  0.00     0.031 C 
BRANCH  15  17
ATOM     17  C   UNL A   1      29.241  28.551  22.608  1.00  0.00     0.008 C 
ATOM     18  C   UNL A   1      30.060  29.708  22.007  1.00  0.00     0.010 C 
BRANCH  17  19
ATOM     19  C   UNL A   1      27.824  29.031  22.995  1.00  0.00     0.002 C 
ATOM     20  C   UNL A   1      27.585  30.517  22.771  1.00  0.00     0.004 C 
ENDBRANCH  17  19
ENDBRANCH  15  17
ENDBRANCH  13  15
ENDBRANCH   7  13
ENDBRANCH   3   6
ENDBRANCH   1   2
BRANCH   1  21
ATOM     21  C   UNL A   1      34.792  23.936  26.188  1.00  0.00     0.042 C 
BRANCH  21  22
ATOM     22  C   UNL A   1      36.094  24.205  25.434  1.00  0.00     0.118 C 
BRANCH  22  23
ATOM     23  N   UNL A   1      37.008  23.072  25.505  1.00  0.00    -0.352 N 
ATOM     24  C   UNL A   1      38.312  23.018  25.930  1.00  0.00     0.251 C 
ATOM     25  H   UNL A   1      36.632  22.213  25.201  1.00  0.00     0.163 HD
ATOM     26  O   UNL A   1      38.991  22.028  25.677  1.00  0.00    -0.269 OA
BRANCH  24  27
ATOM     27  C   UNL A   1      38.899  24.147  26.686  1.00  0.00     0.039 A 
ATOM     28  C   UNL A   1      39.762  25.030  26.029  1.00  0.00     0.014 A 
ATOM     29  C   UNL A   1      38.628  24.313  28.045  1.00  0.00     0.014 A 
ATOM     30  C   UNL A   1      40.303  26.114  26.723  1.00  0.00     0.010 A 
ATOM     31  C   UNL A   1      39.107  25.434  28.716  1.00  0.00     0.010 A 
ATOM     32  C   UNL A   1      39.952  26.346  28.063  1.00  0.00    -0.014 A 
BRANCH  32  33
ATOM     33  C   UNL A   1      40.453  27.529  28.809  1.00  0.00     0.031 A 
ATOM     34  C   UNL A   1      41.829  27.507  29.415  1.00  0.00     0.074 A 
ATOM     35  C   UNL A   1      39.641  28.587  29.003  1.00  0.00     0.049 A 
ATOM     36  N   UNL A   1      42.399  28.382  30.201  1.00  0.00    -0.248 NA
ATOM     37  C   UNL A   1      42.667  26.332  29.119  1.00  0.00     0.031 C 
ATOM     38  C   UNL A   1      38.277  28.711  28.485  1.00  0.00     0.029 A 
ATOM     39  N   UNL A   1      39.838  29.755  29.697  1.00  0.00    -0.354 N 
ATOM     40  C   UNL A   1      43.652  27.862  30.502  1.00  0.00     0.074 A 
ATOM     41  C   UNL A   1      43.739  26.569  29.861  1.00  0.00     0.031 C 
ATOM     42  C   UNL A   1      37.771  29.898  28.856  1.00  0.00     0.029 A 
ATOM     43  C   UNL A   1      38.752  30.599  29.679  1.00  0.00     0.049 A 
ATOM     44  H   UNL A   1      40.678  29.969  30.163  1.00  0.00     0.167 HD
ATOM     45  C   UNL A   1      44.649  28.425  31.225  1.00  0.00     0.037 A 
ATOM     46  C   UNL A   1      38.561  31.795  30.270  1.00  0.00     0.037 A 
ATOM     47  C   UNL A   1      44.559  29.724  31.839  1.00  0.00     0.049 A 
ATOM     48  C   UNL A   1      39.669  32.384  31.100  1.00  0.00     0.074 A 
ATOM     49  C   UNL A   1      45.526  30.400  32.562  1.00  0.00     0.029 A 
ATOM     50  N   UNL A   1      43.441  30.544  31.800  1.00  0.00    -0.354 N 
ATOM     51  N   UNL A   1      40.860  31.894  31.349  1.00  0.00    -0.248 NA
ATOM     52  C   UNL A   1      39.411  33.684  31.734  1.00  0.00     0.031 C 
ATOM     53  C   UNL A   1      44.977  31.609  32.999  1.00  0.00     0.029 A 
ATOM     54  C   UNL A   1      43.687  31.712  32.503  1.00  0.00     0.049 A 
ATOM     55  H   UNL A   1      42.598  30.329  31.341  1.00  0.00     0.167 HD
ATOM     56  C   UNL A   1      41.502  32.836  32.143  1.00  0.00     0.074 A 
ATOM     57  C   UNL A   1      40.571  33.929  32.330  1.00  0.00     0.031 C 
ATOM     58  C   UNL A   1      42.753  32.799  32.668  1.00  0.00     0.037 A 
BRANCH  45  59
ATOM     59  C   UNL A   1      45.931  27.652  31.380  1.00  0.00     0.058 A 
ATOM     60  C   UNL A   1      46.151  26.848  32.509  1.00  0.00     0.135 A 
ATOM     61  C   UNL A   1      46.967  27.753  30.437  1.00  0.00     0.135 A 
ATOM     62  F   UNL A   1      45.195  26.710  33.441  1.00  0.00    -0.206 F 
ATOM     63  C   UNL A   1      47.357  26.182  32.705  1.00  0.00     0.059 A 
ATOM     64  C   UNL A   1      48.170  27.072  30.598  1.00  0.00     0.059 A 
ATOM     65  F   UNL A   1      46.802  28.492  29.329  1.00  0.00    -0.206 F 
ATOM     66  C   UNL A   1      48.362  26.300  31.743  1.00  0.00     0.060 A 
BRANCH  66  67
ATOM     67  S   UNL A   1      49.909  25.403  31.994  1.00  0.00     0.124 S 
ATOM     68  O   UNL A   1      49.509  24.375  32.948  1.00  0.00    -0.237 OA
ATOM     69  O   UNL A   1      50.213  24.938  30.643  1.00  0.00    -0.237 OA
ATOM     70  O   UNL A   1      50.813  26.427  32.512  1.00  0.00    -0.744 OA
ENDBRANCH  66  67
ENDBRANCH  45  59
BRANCH  46  71
ATOM     71  C   UNL A   1      37.280  32.522  30.065  1.00  0.00     0.058 A 
ATOM     72  C   UNL A   1      37.140  33.500  29.069  1.00  0.00     0.135 A 
ATOM     73  C   UNL A   1      36.178  32.282  30.902  1.00  0.00     0.135 A 
ATOM     74  F   UNL A   1      38.165  33.777  28.248  1.00  0.00    -0.206 F 
ATOM     75  C   UNL A   1      35.968  34.236  28.928  1.00  0.00     0.059 A 
ATOM     76  C   UNL A   1      34.986  32.986  30.765  1.00  0.00     0.059 A 
ATOM     77  F   UNL A   1      36.258  31.347  31.861  1.00  0.00    -0.206 F 
ATOM     78  C   UNL A   1      34.898  33.976  29.786  1.00  0.00     0.060 A 
BRANCH  78  79
ATOM     79  S   UNL A   1      33.394  34.959  29.602  1.00  0.00     0.124 S 
ATOM     80  O   UNL A   1      33.920  36.192  29.026  1.00  0.00    -0.237 OA
ATOM     81  O   UNL A   1      32.595  34.130  28.706  1.00  0.00    -0.237 OA
ATOM     82  O   UNL A   1      32.892  35.069  30.967  1.00  0.00    -0.744 OA
ENDBRANCH  78  79
ENDBRANCH  46  71
BRANCH  58  83
ATOM     83  C   UNL A   1      43.215  33.979  33.475  1.00  0.00     0.058 A 
ATOM     84  C   UNL A   1      42.978  34.026  34.859  1.00  0.00     0.135 A 
ATOM     85  C   UNL A   1      43.777  35.111  32.865  1.00  0.00     0.135 A 
ATOM     86  F   UNL A   1      42.439  32.971  35.490  1.00  0.00    -0.206 F 
ATOM     87  C   UNL A   1      43.251  35.168  35.603  1.00  0.00     0.059 A 
ATOM     88  C   UNL A   1      44.082  36.255  33.597  1.00  0.00     0.059 A 
ATOM     89  F   UNL A   1      44.033  35.111  31.547  1.00  0.00    -0.206 F 
ATOM     90  C   UNL A   1      43.793  36.281  34.961  1.00  0.00     0.060 A 
BRANCH  90  91
ATOM     91  S   UNL A   1      44.109  37.766  35.939  1.00  0.00     0.124 S 
ATOM     92  O   UNL A   1      45.554  37.698  36.129  1.00  0.00    -0.237 OA
ATOM     93  O   UNL A   1      43.633  38.823  35.054  1.00  0.00    -0.237 OA
ATOM     94  O   UNL A   1      43.307  37.557  37.142  1.00  0.00    -0.744 OA
ENDBRANCH  90  91
ENDBRANCH  58  83
ENDBRANCH  32  33
ENDBRANCH  24  27
ENDBRANCH  22  23
ENDBRANCH  21  22
ENDBRANCH   1  21
TORSDOF 17
ENDMDL
