MODEL 1
REMARK VINA RESULT:     -12.5      0.000      0.000
REMARK SMILES O=C(NCCCNC(=O)[C@H]1C[N@H+](Cc2cccc(Cl)c2)CC12CCCCC2)c1ccc(-c2c3nc(c(-c4c(F)cc(S(=O)(=O)[O-])cc4F)c4ccc([nH]4)c(-c4c(F)cc(S(=O)(=O)[O-])cc4F)c4nc(c(-c5c(F)cc(S(=O)(=O)[O-])cc5F)c5ccc2[nH]5)C=C4)C=C3)cc1
REMARK SMILES IDX 4 1 3 2 1 3 2 4 28 6 29 7 93 8 30 9 92 10 31 11 32 12 33 13
REMARK SMILES IDX 86 14 34 15 91 16 85 17 87 18 35 19 90 20 84 21 83 22 36 24
REMARK SMILES IDX 70 25 49 26 69 27 50 28 53 29 68 30 88 31 51 32 52 33 67 35
REMARK SMILES IDX 89 36 54 37 37 38 38 39 47 40 39 41 40 42 46 43 48 44 41 45
REMARK SMILES IDX 42 46 43 47 44 48 45 49 71 50 72 51 81 52 73 53 74 54 80 55
REMARK SMILES IDX 82 56 75 57 76 58 77 59 78 60 79 61 55 62 56 63 65 64 57 65
REMARK SMILES IDX 58 66 64 67 66 68 59 69 60 70 61 71 62 72 63 73 5 74 6 75
REMARK SMILES IDX 7 76 8 77 9 79 10 80 11 81 22 82 12 83 21 84 23 85 27 86
REMARK SMILES IDX 24 88 26 89 25 90 13 91 14 92 15 93 20 94 16 95 18 96 17 97
REMARK SMILES IDX 19 98
REMARK H PARENT 3 5 87 23 53 34 7 78 12 87
REMARK Flexibility Score: inf
ROOT
ATOM      1  C   UNL A   1      38.410  24.190  26.460  1.00  0.00     0.118 C 
ENDROOT
BRANCH   1   2
ATOM      2  N   UNL A   1      39.808  24.093  26.075  1.00  0.00    -0.352 N 
ATOM      3  O   UNL A   1      41.921  24.816  25.805  1.00  0.00    -0.269 OA
ATOM      4  C   UNL A   1      40.862  24.890  26.441  1.00  0.00     0.251 C 
ATOM      5  H   UNL A   1      40.029  23.351  25.467  1.00  0.00     0.163 HD
BRANCH   4   6
ATOM      6  C   UNL A   1      40.743  25.841  27.571  1.00  0.00     0.039 A 
ATOM      7  C   UNL A   1      39.782  25.656  28.568  1.00  0.00     0.014 A 
ATOM      8  C   UNL A   1      41.633  26.916  27.664  1.00  0.00     0.014 A 
ATOM      9  C   UNL A   1      39.614  26.615  29.562  1.00  0.00     0.010 A 
ATOM     10  C   UNL A   1      41.531  27.822  28.727  1.00  0.00     0.010 A 
ATOM     11  C   UNL A   1      40.501  27.697  29.672  1.00  0.00    -0.014 A 
BRANCH  11  12
ATOM     12  C   UNL A   1      40.365  28.635  30.820  1.00  0.00     0.031 A 
ATOM     13  C   UNL A   1      41.271  28.543  32.020  1.00  0.00     0.074 A 
ATOM     14  C   UNL A   1      39.427  29.604  30.758  1.00  0.00     0.049 A 
ATOM     15  N   UNL A   1      41.305  29.304  33.084  1.00  0.00    -0.248 NA
ATOM     16  C   UNL A   1      42.256  27.451  32.035  1.00  0.00     0.031 C 
ATOM     17  C   UNL A   1      38.473  29.783  29.660  1.00  0.00     0.029 A 
ATOM     18  N   UNL A   1      39.131  30.630  31.619  1.00  0.00    -0.354 N 
ATOM     19  C   UNL A   1      42.292  28.771  33.906  1.00  0.00     0.074 A 
ATOM     20  C   UNL A   1      42.816  27.606  33.228  1.00  0.00     0.031 C 
ATOM     21  C   UNL A   1      37.744  30.886  29.882  1.00  0.00     0.029 A 
ATOM     22  C   UNL A   1      38.128  31.455  31.167  1.00  0.00     0.049 A 
ATOM     23  H   UNL A   1      39.594  30.763  32.478  1.00  0.00     0.167 HD
ATOM     24  C   UNL A   1      42.725  29.218  35.112  1.00  0.00     0.037 A 
ATOM     25  C   UNL A   1      37.566  32.544  31.726  1.00  0.00     0.037 A 
ATOM     26  C   UNL A   1      42.213  30.394  35.770  1.00  0.00     0.049 A 
ATOM     27  C   UNL A   1      38.065  33.017  33.062  1.00  0.00     0.074 A 
ATOM     28  C   UNL A   1      42.618  30.954  36.971  1.00  0.00     0.029 A 
ATOM     29  N   UNL A   1      41.184  31.192  35.290  1.00  0.00    -0.354 N 
ATOM     30  N   UNL A   1      39.025  32.520  33.805  1.00  0.00    -0.248 NA
ATOM     31  C   UNL A   1      37.405  34.195  33.636  1.00  0.00     0.031 C 
ATOM     32  C   UNL A   1      41.802  32.058  37.240  1.00  0.00     0.029 A 
ATOM     33  C   UNL A   1      40.926  32.223  36.180  1.00  0.00     0.049 A 
ATOM     34  H   UNL A   1      40.706  31.045  34.442  1.00  0.00     0.167 HD
ATOM     35  C   UNL A   1      39.103  33.342  34.923  1.00  0.00     0.074 A 
ATOM     36  C   UNL A   1      38.102  34.375  34.750  1.00  0.00     0.031 C 
ATOM     37  C   UNL A   1      39.929  33.250  35.993  1.00  0.00     0.037 A 
BRANCH  24  38
ATOM     38  C   UNL A   1      43.794  28.422  35.814  1.00  0.00     0.058 A 
ATOM     39  C   UNL A   1      43.482  27.378  36.700  1.00  0.00     0.135 A 
ATOM     40  C   UNL A   1      45.152  28.681  35.565  1.00  0.00     0.135 A 
ATOM     41  F   UNL A   1      42.202  27.092  36.986  1.00  0.00    -0.206 F 
ATOM     42  C   UNL A   1      44.478  26.640  37.335  1.00  0.00     0.059 A 
ATOM     43  C   UNL A   1      46.164  27.938  36.167  1.00  0.00     0.059 A 
ATOM     44  F   UNL A   1      45.509  29.665  34.724  1.00  0.00    -0.206 F 
ATOM     45  C   UNL A   1      45.816  26.929  37.064  1.00  0.00     0.060 A 
BRANCH  45  46
ATOM     46  S   UNL A   1      47.095  25.966  37.899  1.00  0.00     0.124 S 
ATOM     47  O   UNL A   1      46.682  26.082  39.294  1.00  0.00    -0.237 OA
ATOM     48  O   UNL A   1      46.934  24.646  37.298  1.00  0.00    -0.237 OA
ATOM     49  O   UNL A   1      48.329  26.663  37.550  1.00  0.00    -0.744 OA
ENDBRANCH  45  46
ENDBRANCH  24  38
BRANCH  25  50
ATOM     50  C   UNL A   1      36.477  33.264  31.015  1.00  0.00     0.058 A 
ATOM     51  C   UNL A   1      35.148  33.182  31.455  1.00  0.00     0.135 A 
ATOM     52  C   UNL A   1      36.746  34.067  29.895  1.00  0.00     0.135 A 
ATOM     53  F   UNL A   1      34.839  32.425  32.519  1.00  0.00    -0.206 F 
ATOM     54  C   UNL A   1      34.121  33.855  30.802  1.00  0.00     0.059 A 
ATOM     55  C   UNL A   1      35.741  34.774  29.244  1.00  0.00     0.059 A 
ATOM     56  F   UNL A   1      38.004  34.195  29.445  1.00  0.00    -0.206 F 
ATOM     57  C   UNL A   1      34.429  34.652  29.698  1.00  0.00     0.060 A 
BRANCH  57  58
ATOM     58  S   UNL A   1      33.096  35.560  28.886  1.00  0.00     0.124 S 
ATOM     59  O   UNL A   1      33.842  36.547  28.114  1.00  0.00    -0.237 OA
ATOM     60  O   UNL A   1      32.436  34.512  28.115  1.00  0.00    -0.237 OA
ATOM     61  O   UNL A   1      32.320  36.088  30.005  1.00  0.00    -0.744 OA
ENDBRANCH  57  58
ENDBRANCH  25  50
BRANCH  37  62
ATOM     62  C   UNL A   1      39.817  34.323  37.041  1.00  0.00     0.058 A 
ATOM     63  C   UNL A   1      39.064  34.144  38.211  1.00  0.00     0.135 A 
ATOM     64  C   UNL A   1      40.492  35.544  36.877  1.00  0.00     0.135 A 
ATOM     65  F   UNL A   1      38.394  32.998  38.415  1.00  0.00    -0.206 F 
ATOM     66  C   UNL A   1      38.955  35.150  39.167  1.00  0.00     0.059 A 
ATOM     67  C   UNL A   1      40.421  36.552  37.833  1.00  0.00     0.059 A 
ATOM     68  F   UNL A   1      41.235  35.765  35.780  1.00  0.00    -0.206 F 
ATOM     69  C   UNL A   1      39.636  36.352  38.967  1.00  0.00     0.060 A 
BRANCH  69  70
ATOM     70  S   UNL A   1      39.497  37.646  40.217  1.00  0.00     0.124 S 
ATOM     71  O   UNL A   1      38.971  36.900  41.355  1.00  0.00    -0.237 OA
ATOM     72  O   UNL A   1      40.876  38.108  40.344  1.00  0.00    -0.237 OA
ATOM     73  O   UNL A   1      38.576  38.604  39.614  1.00  0.00    -0.744 OA
ENDBRANCH  69  70
ENDBRANCH  37  62
ENDBRANCH  11  12
ENDBRANCH   4   6
ENDBRANCH   1   2
BRANCH   1  74
ATOM     74  C   UNL A   1      37.535  23.258  25.637  1.00  0.00     0.042 C 
BRANCH  74  75
ATOM     75  C   UNL A   1      36.152  23.820  25.332  1.00  0.00     0.117 C 
BRANCH  75  76
ATOM     76  N   UNL A   1      35.664  23.389  24.033  1.00  0.00    -0.356 N 
ATOM     77  C   UNL A   1      34.675  23.883  23.236  1.00  0.00     0.229 C 
ATOM     78  H   UNL A   1      36.129  22.604  23.664  1.00  0.00     0.163 HD
ATOM     79  O   UNL A   1      34.465  23.287  22.178  1.00  0.00    -0.275 OA
BRANCH  77  80
ATOM     80  C   UNL A   1      33.908  25.139  23.638  1.00  0.00     0.145 C 
ATOM     81  C   UNL A   1      33.554  25.942  22.380  1.00  0.00     0.276 C 
ATOM     82  C   UNL A   1      32.555  24.998  24.408  1.00  0.00     0.037 C 
ATOM     83  N   UNL A   1      32.443  26.805  22.754  1.00  0.00    -0.330 N 
ATOM     84  C   UNL A   1      31.625  26.026  23.684  1.00  0.00     0.270 C 
ATOM     85  C   UNL A   1      31.963  23.565  24.340  1.00  0.00     0.014 C 
ATOM     86  C   UNL A   1      32.730  25.426  25.885  1.00  0.00     0.014 C 
ATOM     87  H   UNL A   1      31.888  27.041  21.931  1.00  0.00     0.348 HD
ATOM     88  C   UNL A   1      30.803  23.297  25.305  1.00  0.00     0.001 C 
ATOM     89  C   UNL A   1      31.497  25.215  26.754  1.00  0.00     0.001 C 
ATOM     90  C   UNL A   1      31.086  23.756  26.731  1.00  0.00     0.000 C 
BRANCH  83  91
ATOM     91  C   UNL A   1      32.746  28.200  23.090  1.00  0.00     0.299 C 
BRANCH  91  92
ATOM     92  C   UNL A   1      32.748  28.608  24.549  1.00  0.00     0.008 A 
ATOM     93  C   UNL A   1      31.567  29.009  25.195  1.00  0.00     0.009 A 
ATOM     94  C   UNL A   1      33.950  28.638  25.278  1.00  0.00     0.030 A 
ATOM     95  C   UNL A   1      31.601  29.556  26.480  1.00  0.00     0.002 A 
ATOM     96  C   UNL A   1      33.976  29.170  26.570  1.00  0.00     0.041 A 
ATOM     97  C   UNL A   1      32.813  29.656  27.161  1.00  0.00     0.020 A 
ATOM     98  Cl  UNL A   1      35.472  29.297  27.409  1.00  0.00    -0.084 Cl
ENDBRANCH  91  92
ENDBRANCH  83  91
ENDBRANCH  77  80
ENDBRANCH  75  76
ENDBRANCH  74  75
ENDBRANCH   1  74
TORSDOF 15
ENDMDL
MODEL 2
REMARK VINA RESULT:     -12.4      6.839     12.072
REMARK SMILES O=C(NCCCNC(=O)[C@H]1C[N@H+](Cc2cccc(Cl)c2)CC12CCCCC2)c1ccc(-c2c3nc(c(-c4c(F)cc(S(=O)(=O)[O-])cc4F)c4ccc([nH]4)c(-c4c(F)cc(S(=O)(=O)[O-])cc4F)c4nc(c(-c5c(F)cc(S(=O)(=O)[O-])cc5F)c5ccc2[nH]5)C=C4)C=C3)cc1
REMARK SMILES IDX 4 1 3 2 1 3 2 4 28 6 29 7 93 8 30 9 92 10 31 11 32 12 33 13
REMARK SMILES IDX 86 14 34 15 91 16 85 17 87 18 35 19 90 20 84 21 83 22 36 24
REMARK SMILES IDX 70 25 49 26 69 27 50 28 53 29 68 30 88 31 51 32 52 33 67 35
REMARK SMILES IDX 89 36 54 37 37 38 38 39 47 40 39 41 40 42 46 43 48 44 41 45
REMARK SMILES IDX 42 46 43 47 44 48 45 49 71 50 72 51 81 52 73 53 74 54 80 55
REMARK SMILES IDX 82 56 75 57 76 58 77 59 78 60 79 61 55 62 56 63 65 64 57 65
REMARK SMILES IDX 58 66 64 67 66 68 59 69 60 70 61 71 62 72 63 73 5 74 6 75
REMARK SMILES IDX 7 76 8 77 9 79 10 80 11 81 22 82 12 83 21 84 23 85 27 86
REMARK SMILES IDX 24 88 26 89 25 90 13 91 14 92 15 93 20 94 16 95 18 96 17 97
REMARK SMILES IDX 19 98
REMARK H PARENT 3 5 87 23 53 34 7 78 12 87
REMARK Flexibility Score: inf
ROOT
ATOM      1  C   UNL A   1      35.423  30.573  27.833  1.00  0.00     0.118 C 
ENDROOT
BRANCH   1   2
ATOM      2  N   UNL A   1      35.380  30.484  29.283  1.00  0.00    -0.352 N 
ATOM      3  O   UNL A   1      35.974  29.720  31.314  1.00  0.00    -0.269 OA
ATOM      4  C   UNL A   1      36.304  29.945  30.143  1.00  0.00     0.251 C 
ATOM      5  H   UNL A   1      34.577  30.864  29.708  1.00  0.00     0.163 HD
BRANCH   4   6
ATOM      6  C   UNL A   1      37.674  29.620  29.685  1.00  0.00     0.039 A 
ATOM      7  C   UNL A   1      38.667  29.248  30.594  1.00  0.00     0.014 A 
ATOM      8  C   UNL A   1      37.967  29.644  28.317  1.00  0.00     0.014 A 
ATOM      9  C   UNL A   1      39.973  29.050  30.158  1.00  0.00     0.010 A 
ATOM     10  C   UNL A   1      39.258  29.339  27.870  1.00  0.00     0.010 A 
ATOM     11  C   UNL A   1      40.283  29.066  28.790  1.00  0.00    -0.014 A 
BRANCH  11  12
ATOM     12  C   UNL A   1      41.666  28.729  28.352  1.00  0.00     0.031 A 
ATOM     13  C   UNL A   1      42.763  29.761  28.351  1.00  0.00     0.074 A 
ATOM     14  C   UNL A   1      41.936  27.459  27.981  1.00  0.00     0.049 A 
ATOM     15  N   UNL A   1      44.025  29.619  28.033  1.00  0.00    -0.248 NA
ATOM     16  C   UNL A   1      42.397  31.130  28.744  1.00  0.00     0.031 C 
ATOM     17  C   UNL A   1      40.954  26.373  27.918  1.00  0.00     0.029 A 
ATOM     18  N   UNL A   1      43.112  26.859  27.609  1.00  0.00    -0.354 N 
ATOM     19  C   UNL A   1      44.597  30.880  28.160  1.00  0.00     0.074 A 
ATOM     20  C   UNL A   1      43.539  31.780  28.561  1.00  0.00     0.031 C 
ATOM     21  C   UNL A   1      41.577  25.231  27.594  1.00  0.00     0.029 A 
ATOM     22  C   UNL A   1      42.987  25.512  27.358  1.00  0.00     0.049 A 
ATOM     23  H   UNL A   1      43.965  27.345  27.530  1.00  0.00     0.167 HD
ATOM     24  C   UNL A   1      45.888  31.249  27.968  1.00  0.00     0.037 A 
ATOM     25  C   UNL A   1      43.900  24.601  26.970  1.00  0.00     0.037 A 
ATOM     26  C   UNL A   1      46.942  30.339  27.590  1.00  0.00     0.049 A 
ATOM     27  C   UNL A   1      45.323  25.038  26.764  1.00  0.00     0.074 A 
ATOM     28  C   UNL A   1      48.290  30.609  27.416  1.00  0.00     0.029 A 
ATOM     29  N   UNL A   1      46.772  28.988  27.327  1.00  0.00    -0.354 N 
ATOM     30  N   UNL A   1      45.851  26.228  26.926  1.00  0.00    -0.248 NA
ATOM     31  C   UNL A   1      46.273  24.011  26.322  1.00  0.00     0.031 C 
ATOM     32  C   UNL A   1      48.923  29.433  26.998  1.00  0.00     0.029 A 
ATOM     33  C   UNL A   1      47.983  28.416  26.969  1.00  0.00     0.049 A 
ATOM     34  H   UNL A   1      45.915  28.506  27.384  1.00  0.00     0.167 HD
ATOM     35  C   UNL A   1      47.201  26.086  26.632  1.00  0.00     0.074 A 
ATOM     36  C   UNL A   1      47.409  24.692  26.296  1.00  0.00     0.031 C 
ATOM     37  C   UNL A   1      48.179  27.025  26.641  1.00  0.00     0.037 A 
BRANCH  24  38
ATOM     38  C   UNL A   1      46.236  32.705  28.139  1.00  0.00     0.058 A 
ATOM     39  C   UNL A   1      46.722  33.216  29.352  1.00  0.00     0.135 A 
ATOM     40  C   UNL A   1      46.121  33.593  27.057  1.00  0.00     0.135 A 
ATOM     41  F   UNL A   1      46.843  32.416  30.425  1.00  0.00    -0.206 F 
ATOM     42  C   UNL A   1      47.052  34.562  29.496  1.00  0.00     0.059 A 
ATOM     43  C   UNL A   1      46.470  34.937  27.170  1.00  0.00     0.059 A 
ATOM     44  F   UNL A   1      45.664  33.160  25.871  1.00  0.00    -0.206 F 
ATOM     45  C   UNL A   1      46.921  35.414  28.400  1.00  0.00     0.060 A 
BRANCH  45  46
ATOM     46  S   UNL A   1      47.348  37.157  28.604  1.00  0.00     0.124 S 
ATOM     47  O   UNL A   1      48.768  37.149  28.268  1.00  0.00    -0.237 OA
ATOM     48  O   UNL A   1      46.472  37.809  27.635  1.00  0.00    -0.237 OA
ATOM     49  O   UNL A   1      47.035  37.423  30.005  1.00  0.00    -0.744 OA
ENDBRANCH  45  46
ENDBRANCH  24  38
BRANCH  25  50
ATOM     50  C   UNL A   1      43.494  23.186  26.764  1.00  0.00     0.058 A 
ATOM     51  C   UNL A   1      43.405  22.640  25.475  1.00  0.00     0.135 A 
ATOM     52  C   UNL A   1      43.208  22.345  27.851  1.00  0.00     0.135 A 
ATOM     53  F   UNL A   1      43.664  23.404  24.403  1.00  0.00    -0.206 F 
ATOM     54  C   UNL A   1      43.031  21.316  25.268  1.00  0.00     0.059 A 
ATOM     55  C   UNL A   1      42.862  21.010  27.671  1.00  0.00     0.059 A 
ATOM     56  F   UNL A   1      43.297  22.813  29.106  1.00  0.00    -0.206 F 
ATOM     57  C   UNL A   1      42.765  20.508  26.375  1.00  0.00     0.060 A 
BRANCH  57  58
ATOM     58  S   UNL A   1      42.328  18.777  26.099  1.00  0.00     0.124 S 
ATOM     59  O   UNL A   1      42.612  18.192  27.404  1.00  0.00    -0.237 OA
ATOM     60  O   UNL A   1      40.918  18.872  25.734  1.00  0.00    -0.237 OA
ATOM     61  O   UNL A   1      43.222  18.374  25.017  1.00  0.00    -0.744 OA
ENDBRANCH  57  58
ENDBRANCH  25  50
BRANCH  37  62
ATOM     62  C   UNL A   1      49.575  26.565  26.322  1.00  0.00     0.058 A 
ATOM     63  C   UNL A   1      50.140  26.735  25.049  1.00  0.00     0.135 A 
ATOM     64  C   UNL A   1      50.364  25.960  27.314  1.00  0.00     0.135 A 
ATOM     65  F   UNL A   1      49.426  27.301  24.062  1.00  0.00    -0.206 F 
ATOM     66  C   UNL A   1      51.428  26.292  24.760  1.00  0.00     0.059 A 
ATOM     67  C   UNL A   1      51.664  25.536  27.055  1.00  0.00     0.059 A 
ATOM     68  F   UNL A   1      49.876  25.781  28.552  1.00  0.00    -0.206 F 
ATOM     69  C   UNL A   1      52.181  25.691  25.770  1.00  0.00     0.060 A 
BRANCH  69  70
ATOM     70  S   UNL A   1      53.853  25.130  25.389  1.00  0.00     0.124 S 
ATOM     71  O   UNL A   1      54.618  25.726  26.478  1.00  0.00    -0.237 OA
ATOM     72  O   UNL A   1      53.713  23.677  25.432  1.00  0.00    -0.237 OA
ATOM     73  O   UNL A   1      54.105  25.689  24.064  1.00  0.00    -0.744 OA
ENDBRANCH  69  70
ENDBRANCH  37  62
ENDBRANCH  11  12
ENDBRANCH   4   6
ENDBRANCH   1   2
BRANCH   1  74
ATOM     74  C   UNL A   1      34.035  30.460  27.224  1.00  0.00     0.042 C 
BRANCH  74  75
ATOM     75  C   UNL A   1      33.737  29.095  26.616  1.00  0.00     0.117 C 
BRANCH  75  76
ATOM     76  N   UNL A   1      34.231  28.986  25.254  1.00  0.00    -0.356 N 
ATOM     77  C   UNL A   1      33.611  28.601  24.103  1.00  0.00     0.229 C 
ATOM     78  H   UNL A   1      35.177  29.234  25.143  1.00  0.00     0.163 HD
ATOM     79  O   UNL A   1      34.299  28.585  23.080  1.00  0.00    -0.275 OA
BRANCH  77  80
ATOM     80  C   UNL A   1      32.126  28.251  24.099  1.00  0.00     0.145 C 
ATOM     81  C   UNL A   1      31.527  28.599  22.731  1.00  0.00     0.276 C 
ATOM     82  C   UNL A   1      31.685  26.774  24.358  1.00  0.00     0.037 C 
ATOM     83  N   UNL A   1      30.307  27.813  22.615  1.00  0.00    -0.330 N 
ATOM     84  C   UNL A   1      30.591  26.534  23.267  1.00  0.00     0.270 C 
ATOM     85  C   UNL A   1      32.849  25.758  24.215  1.00  0.00     0.014 C 
ATOM     86  C   UNL A   1      31.041  26.643  25.759  1.00  0.00     0.014 C 
ATOM     87  H   UNL A   1      30.084  27.649  21.633  1.00  0.00     0.348 HD
ATOM     88  C   UNL A   1      32.547  24.348  24.734  1.00  0.00     0.001 C 
ATOM     89  C   UNL A   1      30.682  25.218  26.158  1.00  0.00     0.001 C 
ATOM     90  C   UNL A   1      31.917  24.339  26.123  1.00  0.00     0.000 C 
BRANCH  83  91
ATOM     91  C   UNL A   1      29.035  28.480  22.911  1.00  0.00     0.299 C 
BRANCH  91  92
ATOM     92  C   UNL A   1      28.929  29.972  22.676  1.00  0.00     0.008 A 
ATOM     93  C   UNL A   1      29.122  30.890  23.723  1.00  0.00     0.009 A 
ATOM     94  C   UNL A   1      28.590  30.471  21.407  1.00  0.00     0.030 A 
ATOM     95  C   UNL A   1      28.845  32.248  23.547  1.00  0.00     0.002 A 
ATOM     96  C   UNL A   1      28.332  31.833  21.231  1.00  0.00     0.041 A 
ATOM     97  C   UNL A   1      28.430  32.717  22.303  1.00  0.00     0.020 A 
ATOM     98  Cl  UNL A   1      27.815  32.412  19.696  1.00  0.00    -0.084 Cl
ENDBRANCH  91  92
ENDBRANCH  83  91
ENDBRANCH  77  80
ENDBRANCH  75  76
ENDBRANCH  74  75
ENDBRANCH   1  74
TORSDOF 15
ENDMDL
MODEL 3
REMARK VINA RESULT:     -12.3      2.568      3.955
REMARK SMILES O=C(NCCCNC(=O)[C@H]1C[N@H+](Cc2cccc(Cl)c2)CC12CCCCC2)c1ccc(-c2c3nc(c(-c4c(F)cc(S(=O)(=O)[O-])cc4F)c4ccc([nH]4)c(-c4c(F)cc(S(=O)(=O)[O-])cc4F)c4nc(c(-c5c(F)cc(S(=O)(=O)[O-])cc5F)c5ccc2[nH]5)C=C4)C=C3)cc1
REMARK SMILES IDX 4 1 3 2 1 3 2 4 28 6 29 7 93 8 30 9 92 10 31 11 32 12 33 13
REMARK SMILES IDX 86 14 34 15 91 16 85 17 87 18 35 19 90 20 84 21 83 22 36 24
REMARK SMILES IDX 70 25 49 26 69 27 50 28 53 29 68 30 88 31 51 32 52 33 67 35
REMARK SMILES IDX 89 36 54 37 37 38 38 39 47 40 39 41 40 42 46 43 48 44 41 45
REMARK SMILES IDX 42 46 43 47 44 48 45 49 71 50 72 51 81 52 73 53 74 54 80 55
REMARK SMILES IDX 82 56 75 57 76 58 77 59 78 60 79 61 55 62 56 63 65 64 57 65
REMARK SMILES IDX 58 66 64 67 66 68 59 69 60 70 61 71 62 72 63 73 5 74 6 75
REMARK SMILES IDX 7 76 8 77 9 79 10 80 11 81 22 82 12 83 21 84 23 85 27 86
REMARK SMILES IDX 24 88 26 89 25 90 13 91 14 92 15 93 20 94 16 95 18 96 17 97
REMARK SMILES IDX 19 98
REMARK H PARENT 3 5 87 23 53 34 7 78 12 87
REMARK Flexibility Score: inf
ROOT
ATOM      1  C   UNL A   1      38.933  24.024  26.537  1.00  0.00     0.118 C 
ENDROOT
BRANCH   1   2
ATOM      2  N   UNL A   1      40.327  24.030  26.127  1.00  0.00    -0.352 N 
ATOM      3  O   UNL A   1      42.374  24.909  25.813  1.00  0.00    -0.269 OA
ATOM      4  C   UNL A   1      41.325  24.908  26.468  1.00  0.00     0.251 C 
ATOM      5  H   UNL A   1      40.593  23.302  25.519  1.00  0.00     0.163 HD
BRANCH   4   6
ATOM      6  C   UNL A   1      41.155  25.854  27.594  1.00  0.00     0.039 A 
ATOM      7  C   UNL A   1      40.142  25.674  28.539  1.00  0.00     0.014 A 
ATOM      8  C   UNL A   1      42.046  26.922  27.737  1.00  0.00     0.014 A 
ATOM      9  C   UNL A   1      39.930  26.630  29.527  1.00  0.00     0.010 A 
ATOM     10  C   UNL A   1      41.897  27.825  28.797  1.00  0.00     0.010 A 
ATOM     11  C   UNL A   1      40.818  27.705  29.687  1.00  0.00    -0.014 A 
BRANCH  11  12
ATOM     12  C   UNL A   1      40.631  28.640  30.831  1.00  0.00     0.031 A 
ATOM     13  C   UNL A   1      41.512  28.574  32.051  1.00  0.00     0.074 A 
ATOM     14  C   UNL A   1      39.667  29.581  30.747  1.00  0.00     0.049 A 
ATOM     15  N   UNL A   1      41.501  29.336  33.115  1.00  0.00    -0.248 NA
ATOM     16  C   UNL A   1      42.526  27.510  32.090  1.00  0.00     0.031 C 
ATOM     17  C   UNL A   1      38.734  29.733  29.627  1.00  0.00     0.029 A 
ATOM     18  N   UNL A   1      39.324  30.599  31.600  1.00  0.00    -0.354 N 
ATOM     19  C   UNL A   1      42.484  28.832  33.960  1.00  0.00     0.074 A 
ATOM     20  C   UNL A   1      43.055  27.681  33.294  1.00  0.00     0.031 C 
ATOM     21  C   UNL A   1      37.970  30.815  29.831  1.00  0.00     0.029 A 
ATOM     22  C   UNL A   1      38.308  31.396  31.124  1.00  0.00     0.049 A 
ATOM     23  H   UNL A   1      39.763  30.747  32.468  1.00  0.00     0.167 HD
ATOM     24  C   UNL A   1      42.877  29.291  35.174  1.00  0.00     0.037 A 
ATOM     25  C   UNL A   1      37.704  32.469  31.669  1.00  0.00     0.037 A 
ATOM     26  C   UNL A   1      42.317  30.453  35.819  1.00  0.00     0.049 A 
ATOM     27  C   UNL A   1      38.160  32.956  33.015  1.00  0.00     0.074 A 
ATOM     28  C   UNL A   1      42.680  31.024  37.028  1.00  0.00     0.029 A 
ATOM     29  N   UNL A   1      41.277  31.221  35.315  1.00  0.00    -0.354 N 
ATOM     30  N   UNL A   1      39.116  32.487  33.780  1.00  0.00    -0.248 NA
ATOM     31  C   UNL A   1      37.455  34.117  33.573  1.00  0.00     0.031 C 
ATOM     32  C   UNL A   1      41.827  32.106  37.277  1.00  0.00     0.029 A 
ATOM     33  C   UNL A   1      40.971  32.245  36.198  1.00  0.00     0.049 A 
ATOM     34  H   UNL A   1      40.823  31.061  34.456  1.00  0.00     0.167 HD
ATOM     35  C   UNL A   1      39.146  33.312  34.898  1.00  0.00     0.074 A 
ATOM     36  C   UNL A   1      38.121  34.316  34.701  1.00  0.00     0.031 C 
ATOM     37  C   UNL A   1      39.950  33.244  35.987  1.00  0.00     0.037 A 
BRANCH  24  38
ATOM     38  C   UNL A   1      43.951  28.525  35.901  1.00  0.00     0.058 A 
ATOM     39  C   UNL A   1      43.650  27.462  36.767  1.00  0.00     0.135 A 
ATOM     40  C   UNL A   1      45.306  28.835  35.696  1.00  0.00     0.135 A 
ATOM     41  F   UNL A   1      42.373  27.128  37.011  1.00  0.00    -0.206 F 
ATOM     42  C   UNL A   1      44.652  26.753  37.425  1.00  0.00     0.059 A 
ATOM     43  C   UNL A   1      46.325  28.122  36.322  1.00  0.00     0.059 A 
ATOM     44  F   UNL A   1      45.653  29.841  34.877  1.00  0.00    -0.206 F 
ATOM     45  C   UNL A   1      45.986  27.092  37.198  1.00  0.00     0.060 A 
BRANCH  45  46
ATOM     46  S   UNL A   1      47.273  26.166  38.063  1.00  0.00     0.124 S 
ATOM     47  O   UNL A   1      46.630  25.906  39.347  1.00  0.00    -0.237 OA
ATOM     48  O   UNL A   1      47.455  25.004  37.199  1.00  0.00    -0.237 OA
ATOM     49  O   UNL A   1      48.396  27.097  38.100  1.00  0.00    -0.744 OA
ENDBRANCH  45  46
ENDBRANCH  24  38
BRANCH  25  50
ATOM     50  C   UNL A   1      36.612  33.159  30.933  1.00  0.00     0.058 A 
ATOM     51  C   UNL A   1      35.271  32.998  31.312  1.00  0.00     0.135 A 
ATOM     52  C   UNL A   1      36.888  34.008  29.850  1.00  0.00     0.135 A 
ATOM     53  F   UNL A   1      34.956  32.193  32.338  1.00  0.00    -0.206 F 
ATOM     54  C   UNL A   1      34.240  33.641  30.634  1.00  0.00     0.059 A 
ATOM     55  C   UNL A   1      35.877  34.686  29.177  1.00  0.00     0.059 A 
ATOM     56  F   UNL A   1      38.156  34.212  29.459  1.00  0.00    -0.206 F 
ATOM     57  C   UNL A   1      34.555  34.487  29.569  1.00  0.00     0.060 A 
BRANCH  57  58
ATOM     58  S   UNL A   1      33.214  35.355  28.727  1.00  0.00     0.124 S 
ATOM     59  O   UNL A   1      33.952  36.304  27.902  1.00  0.00    -0.237 OA
ATOM     60  O   UNL A   1      32.547  34.271  28.014  1.00  0.00    -0.237 OA
ATOM     61  O   UNL A   1      32.448  35.936  29.826  1.00  0.00    -0.744 OA
ENDBRANCH  57  58
ENDBRANCH  25  50
BRANCH  37  62
ATOM     62  C   UNL A   1      39.785  34.315  37.030  1.00  0.00     0.058 A 
ATOM     63  C   UNL A   1      38.978  34.129  38.164  1.00  0.00     0.135 A 
ATOM     64  C   UNL A   1      40.461  35.539  36.900  1.00  0.00     0.135 A 
ATOM     65  F   UNL A   1      38.305  32.980  38.334  1.00  0.00    -0.206 F 
ATOM     66  C   UNL A   1      38.821  35.133  39.115  1.00  0.00     0.059 A 
ATOM     67  C   UNL A   1      40.341  36.544  37.854  1.00  0.00     0.059 A 
ATOM     68  F   UNL A   1      41.253  35.766  35.840  1.00  0.00    -0.206 F 
ATOM     69  C   UNL A   1      39.505  36.338  38.950  1.00  0.00     0.060 A 
BRANCH  69  70
ATOM     70  S   UNL A   1      39.302  37.629  40.195  1.00  0.00     0.124 S 
ATOM     71  O   UNL A   1      38.941  36.847  41.372  1.00  0.00    -0.237 OA
ATOM     72  O   UNL A   1      40.625  38.246  40.225  1.00  0.00    -0.237 OA
ATOM     73  O   UNL A   1      38.240  38.466  39.646  1.00  0.00    -0.744 OA
ENDBRANCH  69  70
ENDBRANCH  37  62
ENDBRANCH  11  12
ENDBRANCH   4   6
ENDBRANCH   1   2
BRANCH   1  74
ATOM     74  C   UNL A   1      38.108  23.056  25.705  1.00  0.00     0.042 C 
BRANCH  74  75
ATOM     75  C   UNL A   1      36.675  23.517  25.465  1.00  0.00     0.117 C 
BRANCH  75  76
ATOM     76  N   UNL A   1      35.819  23.250  26.608  1.00  0.00    -0.356 N 
ATOM     77  C   UNL A   1      34.619  22.610  26.701  1.00  0.00     0.229 C 
ATOM     78  H   UNL A   1      36.166  23.590  27.464  1.00  0.00     0.163 HD
ATOM     79  O   UNL A   1      34.106  22.553  27.821  1.00  0.00    -0.275 OA
BRANCH  77  80
ATOM     80  C   UNL A   1      33.983  21.968  25.473  1.00  0.00     0.145 C 
ATOM     81  C   UNL A   1      33.040  20.844  25.918  1.00  0.00     0.276 C 
ATOM     82  C   UNL A   1      33.122  22.845  24.508  1.00  0.00     0.037 C 
ATOM     83  N   UNL A   1      32.123  20.626  24.809  1.00  0.00    -0.330 N 
ATOM     84  C   UNL A   1      31.873  21.946  24.230  1.00  0.00     0.270 C 
ATOM     85  C   UNL A   1      32.704  24.204  25.131  1.00  0.00     0.014 C 
ATOM     86  C   UNL A   1      33.878  23.086  23.179  1.00  0.00     0.014 C 
ATOM     87  H   UNL A   1      31.244  20.234  25.149  1.00  0.00     0.348 HD
ATOM     88  C   UNL A   1      32.112  25.215  24.143  1.00  0.00     0.001 C 
ATOM     89  C   UNL A   1      33.174  24.028  22.213  1.00  0.00     0.001 C 
ATOM     90  C   UNL A   1      32.941  25.374  22.873  1.00  0.00     0.000 C 
BRANCH  83  91
ATOM     91  C   UNL A   1      32.402  19.507  23.903  1.00  0.00     0.299 C 
BRANCH  91  92
ATOM     92  C   UNL A   1      33.101  18.284  24.458  1.00  0.00     0.008 A 
ATOM     93  C   UNL A   1      34.481  18.088  24.278  1.00  0.00     0.009 A 
ATOM     94  C   UNL A   1      32.369  17.290  25.131  1.00  0.00     0.030 A 
ATOM     95  C   UNL A   1      35.086  16.879  24.629  1.00  0.00     0.002 A 
ATOM     96  C   UNL A   1      32.983  16.089  25.496  1.00  0.00     0.041 A 
ATOM     97  C   UNL A   1      34.331  15.869  25.221  1.00  0.00     0.020 A 
ATOM     98  Cl  UNL A   1      32.050  14.841  26.224  1.00  0.00    -0.084 Cl
ENDBRANCH  91  92
ENDBRANCH  83  91
ENDBRANCH  77  80
ENDBRANCH  75  76
ENDBRANCH  74  75
ENDBRANCH   1  74
TORSDOF 15
ENDMDL
