MODEL 1
REMARK VINA RESULT:     -12.0      0.000      0.000
REMARK SMILES CC[C@@H](C)NC(=O)Cn1cccc1C(=O)NCCCNC(=O)c1ccc(-c2c3nc(c(-c4c(F)cc(S(=O)(=O)[O-])cc4F)c4ccc([nH]4)c(-c4c(F)cc(S(=O)(=O)[O-])cc4F)c4nc(c(-c5c(F)cc(S(=O)(=O)[O-])cc5F)c5ccc2[nH]5)C=C4)C=C3)cc1
REMARK SMILES IDX 17 1 16 2 14 3 15 4 13 6 9 7 10 8 11 9 12 10 8 11 6 12 5 13
REMARK SMILES IDX 7 15 3 16 4 17 2 18 1 19 18 20 19 21 20 22 21 23 22 25 23 26
REMARK SMILES IDX 24 27 88 28 25 29 87 30 26 31 27 32 28 33 81 34 29 35 86 36
REMARK SMILES IDX 80 37 82 38 30 39 85 40 79 41 78 42 31 44 65 45 44 46 64 47
REMARK SMILES IDX 45 48 48 49 63 50 83 51 46 52 47 53 62 55 84 56 49 57 32 58
REMARK SMILES IDX 33 59 42 60 34 61 35 62 41 63 43 64 36 65 37 66 38 67 39 68
REMARK SMILES IDX 40 69 66 70 67 71 76 72 68 73 69 74 75 75 77 76 70 77 71 78
REMARK SMILES IDX 72 79 73 80 74 81 50 82 51 83 60 84 52 85 53 86 59 87 61 88
REMARK SMILES IDX 54 89 55 90 56 91 57 92 58 93
REMARK H PARENT 16 5 5 14 20 24 82 43 48 54
REMARK Flexibility Score: inf
ROOT
ATOM      1  C   UNL A   1      32.014  29.257  26.203  1.00  0.00     0.118 C 
ENDROOT
BRANCH   1   2
ATOM      2  N   UNL A   1      31.398  27.979  26.451  1.00  0.00    -0.351 N 
ATOM      3  C   UNL A   1      31.359  26.743  25.879  1.00  0.00     0.267 C 
ATOM      4  O   UNL A   1      30.853  25.910  26.643  1.00  0.00    -0.268 OA
ATOM      5  H   UNL A   1      30.848  28.005  27.267  1.00  0.00     0.163 HD
BRANCH   3   6
ATOM      6  C   UNL A   1      31.809  26.320  24.551  1.00  0.00     0.107 A 
ATOM      7  N   UNL A   1      31.461  26.581  23.227  1.00  0.00    -0.334 N 
ATOM      8  C   UNL A   1      32.072  25.660  22.396  1.00  0.00     0.087 A 
ATOM      9  C   UNL A   1      32.965  24.926  23.125  1.00  0.00     0.020 A 
ATOM     10  C   UNL A   1      32.807  25.339  24.455  1.00  0.00     0.033 A 
BRANCH   7  11
ATOM     11  C   UNL A   1      30.591  27.619  22.695  1.00  0.00     0.222 C 
BRANCH  11  12
ATOM     12  C   UNL A   1      31.245  28.946  22.354  1.00  0.00     0.240 C 
ATOM     13  N   UNL A   1      30.480  29.994  21.918  1.00  0.00    -0.352 N 
ATOM     14  H   UNL A   1      30.976  30.751  21.532  1.00  0.00     0.163 HD
ATOM     15  O   UNL A   1      32.470  29.089  22.381  1.00  0.00    -0.273 OA
BRANCH  13  16
ATOM     16  C   UNL A   1      29.024  30.141  21.950  1.00  0.00     0.078 C 
ATOM     17  C   UNL A   1      28.594  31.228  20.968  1.00  0.00     0.031 C 
BRANCH  16  18
ATOM     18  C   UNL A   1      28.587  30.449  23.390  1.00  0.00     0.021 C 
ATOM     19  C   UNL A   1      27.574  31.579  23.481  1.00  0.00     0.006 C 
ENDBRANCH  16  18
ENDBRANCH  13  16
ENDBRANCH  11  12
ENDBRANCH   7  11
ENDBRANCH   3   6
ENDBRANCH   1   2
BRANCH   1  20
ATOM     20  C   UNL A   1      33.437  29.123  25.656  1.00  0.00     0.042 C 
BRANCH  20  21
ATOM     21  C   UNL A   1      34.467  29.065  26.781  1.00  0.00     0.118 C 
BRANCH  21  22
ATOM     22  N   UNL A   1      34.789  30.414  27.227  1.00  0.00    -0.352 N 
ATOM     23  C   UNL A   1      35.790  30.874  28.043  1.00  0.00     0.251 C 
ATOM     24  H   UNL A   1      34.186  31.113  26.886  1.00  0.00     0.163 HD
ATOM     25  O   UNL A   1      35.688  31.997  28.517  1.00  0.00    -0.269 OA
BRANCH  23  26
ATOM     26  C   UNL A   1      36.958  30.036  28.378  1.00  0.00     0.039 A 
ATOM     27  C   UNL A   1      38.027  30.028  27.472  1.00  0.00     0.014 A 
ATOM     28  C   UNL A   1      36.985  29.219  29.513  1.00  0.00     0.014 A 
ATOM     29  C   UNL A   1      39.151  29.258  27.740  1.00  0.00     0.010 A 
ATOM     30  C   UNL A   1      38.120  28.471  29.801  1.00  0.00     0.010 A 
ATOM     31  C   UNL A   1      39.208  28.510  28.923  1.00  0.00    -0.014 A 
BRANCH  31  32
ATOM     32  C   UNL A   1      40.508  27.928  29.326  1.00  0.00     0.031 A 
ATOM     33  C   UNL A   1      40.763  26.590  28.564  1.00  0.00     0.074 A 
ATOM     34  C   UNL A   1      41.199  28.626  30.281  1.00  0.00     0.049 A 
ATOM     35  N   UNL A   1      41.356  25.489  28.928  1.00  0.00    -0.248 NA
ATOM     36  C   UNL A   1      40.143  26.430  27.213  1.00  0.00     0.031 C 
ATOM     37  C   UNL A   1      40.781  29.920  30.874  1.00  0.00     0.029 A 
ATOM     38  N   UNL A   1      42.375  28.409  30.959  1.00  0.00    -0.354 N 
ATOM     39  C   UNL A   1      41.342  24.604  27.815  1.00  0.00     0.074 A 
ATOM     40  C   UNL A   1      40.471  25.190  26.843  1.00  0.00     0.031 C 
ATOM     41  C   UNL A   1      41.612  30.295  31.872  1.00  0.00     0.029 A 
ATOM     42  C   UNL A   1      42.649  29.300  32.038  1.00  0.00     0.049 A 
ATOM     43  H   UNL A   1      42.991  27.682  30.713  1.00  0.00     0.167 HD
ATOM     44  C   UNL A   1      42.163  23.518  27.690  1.00  0.00     0.037 A 
ATOM     45  C   UNL A   1      43.578  29.169  33.044  1.00  0.00     0.037 A 
ATOM     46  C   UNL A   1      43.041  23.438  28.806  1.00  0.00     0.049 A 
ATOM     47  C   UNL A   1      44.229  27.884  32.740  1.00  0.00     0.074 A 
ATOM     48  C   UNL A   1      43.075  22.793  30.015  1.00  0.00     0.029 A 
ATOM     49  N   UNL A   1      44.141  24.249  28.719  1.00  0.00    -0.354 N 
ATOM     50  N   UNL A   1      45.045  27.663  31.757  1.00  0.00    -0.248 NA
ATOM     51  C   UNL A   1      43.639  26.717  33.390  1.00  0.00     0.031 C 
ATOM     52  C   UNL A   1      44.153  23.379  30.723  1.00  0.00     0.029 A 
ATOM     53  C   UNL A   1      44.560  24.496  29.995  1.00  0.00     0.049 A 
ATOM     54  H   UNL A   1      44.553  24.590  27.893  1.00  0.00     0.167 HD
ATOM     55  C   UNL A   1      44.876  26.324  31.484  1.00  0.00     0.074 A 
ATOM     56  C   UNL A   1      44.043  25.778  32.546  1.00  0.00     0.031 C 
ATOM     57  C   UNL A   1      45.118  25.791  30.262  1.00  0.00     0.037 A 
BRANCH  44  58
ATOM     58  C   UNL A   1      42.549  22.627  26.515  1.00  0.00     0.058 A 
ATOM     59  C   UNL A   1      42.247  21.241  26.615  1.00  0.00     0.135 A 
ATOM     60  C   UNL A   1      43.511  22.963  25.550  1.00  0.00     0.135 A 
ATOM     61  F   UNL A   1      41.275  20.807  27.436  1.00  0.00    -0.206 F 
ATOM     62  C   UNL A   1      42.967  20.254  25.945  1.00  0.00     0.059 A 
ATOM     63  C   UNL A   1      44.210  21.987  24.819  1.00  0.00     0.059 A 
ATOM     64  F   UNL A   1      43.857  24.241  25.339  1.00  0.00    -0.206 F 
ATOM     65  C   UNL A   1      43.975  20.635  25.073  1.00  0.00     0.060 A 
BRANCH  65  66
ATOM     66  S   UNL A   1      44.968  19.336  24.302  1.00  0.00     0.124 S 
ATOM     67  O   UNL A   1      44.535  18.150  25.032  1.00  0.00    -0.237 OA
ATOM     68  O   UNL A   1      44.541  19.406  22.906  1.00  0.00    -0.237 OA
ATOM     69  O   UNL A   1      46.339  19.769  24.547  1.00  0.00    -0.744 OA
ENDBRANCH  65  66
ENDBRANCH  44  58
BRANCH  45  70
ATOM     70  C   UNL A   1      43.818  29.764  34.420  1.00  0.00     0.058 A 
ATOM     71  C   UNL A   1      42.876  29.880  35.448  1.00  0.00     0.135 A 
ATOM     72  C   UNL A   1      45.139  30.146  34.801  1.00  0.00     0.135 A 
ATOM     73  F   UNL A   1      41.568  29.729  35.201  1.00  0.00    -0.206 F 
ATOM     74  C   UNL A   1      43.241  30.158  36.781  1.00  0.00     0.059 A 
ATOM     75  C   UNL A   1      45.535  30.383  36.117  1.00  0.00     0.059 A 
ATOM     76  F   UNL A   1      46.124  30.263  33.899  1.00  0.00    -0.206 F 
ATOM     77  C   UNL A   1      44.582  30.345  37.116  1.00  0.00     0.060 A 
BRANCH  77  78
ATOM     78  S   UNL A   1      45.105  30.407  38.847  1.00  0.00     0.124 S 
ATOM     79  O   UNL A   1      44.073  31.242  39.449  1.00  0.00    -0.237 OA
ATOM     80  O   UNL A   1      45.087  28.998  39.229  1.00  0.00    -0.237 OA
ATOM     81  O   UNL A   1      46.436  31.003  38.774  1.00  0.00    -0.744 OA
ENDBRANCH  77  78
ENDBRANCH  45  70
BRANCH  57  82
ATOM     82  C   UNL A   1      45.586  26.772  29.201  1.00  0.00     0.058 A 
ATOM     83  C   UNL A   1      46.934  27.101  29.059  1.00  0.00     0.135 A 
ATOM     84  C   UNL A   1      44.691  27.447  28.340  1.00  0.00     0.135 A 
ATOM     85  F   UNL A   1      47.849  26.522  29.852  1.00  0.00    -0.206 F 
ATOM     86  C   UNL A   1      47.375  28.018  28.096  1.00  0.00     0.059 A 
ATOM     87  C   UNL A   1      45.100  28.355  27.363  1.00  0.00     0.059 A 
ATOM     88  F   UNL A   1      43.378  27.213  28.417  1.00  0.00    -0.206 F 
ATOM     89  C   UNL A   1      46.453  28.633  27.244  1.00  0.00     0.060 A 
BRANCH  89  90
ATOM     90  S   UNL A   1      47.046  29.775  25.973  1.00  0.00     0.124 S 
ATOM     91  O   UNL A   1      48.245  30.332  26.591  1.00  0.00    -0.237 OA
ATOM     92  O   UNL A   1      47.275  28.881  24.843  1.00  0.00    -0.237 OA
ATOM     93  O   UNL A   1      45.941  30.716  25.808  1.00  0.00    -0.744 OA
ENDBRANCH  89  90
ENDBRANCH  57  82
ENDBRANCH  31  32
ENDBRANCH  23  26
ENDBRANCH  21  22
ENDBRANCH  20  21
ENDBRANCH   1  20
TORSDOF 17
ENDMDL
MODEL 2
REMARK VINA RESULT:     -12.0      2.232      3.836
REMARK SMILES CC[C@@H](C)NC(=O)Cn1cccc1C(=O)NCCCNC(=O)c1ccc(-c2c3nc(c(-c4c(F)cc(S(=O)(=O)[O-])cc4F)c4ccc([nH]4)c(-c4c(F)cc(S(=O)(=O)[O-])cc4F)c4nc(c(-c5c(F)cc(S(=O)(=O)[O-])cc5F)c5ccc2[nH]5)C=C4)C=C3)cc1
REMARK SMILES IDX 17 1 16 2 14 3 15 4 13 6 9 7 10 8 11 9 12 10 8 11 6 12 5 13
REMARK SMILES IDX 7 15 3 16 4 17 2 18 1 19 18 20 19 21 20 22 21 23 22 25 23 26
REMARK SMILES IDX 24 27 88 28 25 29 87 30 26 31 27 32 28 33 81 34 29 35 86 36
REMARK SMILES IDX 80 37 82 38 30 39 85 40 79 41 78 42 31 44 65 45 44 46 64 47
REMARK SMILES IDX 45 48 48 49 63 50 83 51 46 52 47 53 62 55 84 56 49 57 32 58
REMARK SMILES IDX 33 59 42 60 34 61 35 62 41 63 43 64 36 65 37 66 38 67 39 68
REMARK SMILES IDX 40 69 66 70 67 71 76 72 68 73 69 74 75 75 77 76 70 77 71 78
REMARK SMILES IDX 72 79 73 80 74 81 50 82 51 83 60 84 52 85 53 86 59 87 61 88
REMARK SMILES IDX 54 89 55 90 56 91 57 92 58 93
REMARK H PARENT 16 5 5 14 20 24 82 43 48 54
REMARK Flexibility Score: inf
ROOT
ATOM      1  C   UNL A   1      32.430  27.323  26.444  1.00  0.00     0.118 C 
ENDROOT
BRANCH   1   2
ATOM      2  N   UNL A   1      33.506  26.525  25.913  1.00  0.00    -0.351 N 
ATOM      3  C   UNL A   1      33.718  25.237  25.525  1.00  0.00     0.267 C 
ATOM      4  O   UNL A   1      34.785  25.125  24.905  1.00  0.00    -0.268 OA
ATOM      5  H   UNL A   1      34.321  27.066  25.797  1.00  0.00     0.163 HD
BRANCH   3   6
ATOM      6  C   UNL A   1      32.890  24.051  25.749  1.00  0.00     0.107 A 
ATOM      7  N   UNL A   1      32.856  22.733  25.298  1.00  0.00    -0.334 N 
ATOM      8  C   UNL A   1      31.656  22.149  25.658  1.00  0.00     0.087 A 
ATOM      9  C   UNL A   1      30.987  22.991  26.502  1.00  0.00     0.020 A 
ATOM     10  C   UNL A   1      31.753  24.163  26.564  1.00  0.00     0.033 A 
BRANCH   7  11
ATOM     11  C   UNL A   1      33.861  21.995  24.547  1.00  0.00     0.222 C 
BRANCH  11  12
ATOM     12  C   UNL A   1      34.840  21.163  25.357  1.00  0.00     0.240 C 
ATOM     13  N   UNL A   1      34.707  19.801  25.402  1.00  0.00    -0.352 N 
ATOM     14  H   UNL A   1      35.243  19.344  26.089  1.00  0.00     0.163 HD
ATOM     15  O   UNL A   1      35.717  21.687  26.047  1.00  0.00    -0.273 OA
BRANCH  13  16
ATOM     16  C   UNL A   1      33.875  18.934  24.567  1.00  0.00     0.078 C 
ATOM     17  C   UNL A   1      32.602  18.558  25.321  1.00  0.00     0.031 C 
BRANCH  16  18
ATOM     18  C   UNL A   1      34.697  17.701  24.158  1.00  0.00     0.021 C 
ATOM     19  C   UNL A   1      33.855  16.597  23.539  1.00  0.00     0.006 C 
ENDBRANCH  16  18
ENDBRANCH  13  16
ENDBRANCH  11  12
ENDBRANCH   7  11
ENDBRANCH   3   6
ENDBRANCH   1   2
BRANCH   1  20
ATOM     20  C   UNL A   1      32.925  28.627  27.072  1.00  0.00     0.042 C 
BRANCH  20  21
ATOM     21  C   UNL A   1      34.388  28.896  26.727  1.00  0.00     0.118 C 
BRANCH  21  22
ATOM     22  N   UNL A   1      34.732  30.270  27.063  1.00  0.00    -0.352 N 
ATOM     23  C   UNL A   1      35.756  30.779  27.818  1.00  0.00     0.251 C 
ATOM     24  H   UNL A   1      34.125  30.948  26.687  1.00  0.00     0.163 HD
ATOM     25  O   UNL A   1      35.675  31.936  28.210  1.00  0.00    -0.269 OA
BRANCH  23  26
ATOM     26  C   UNL A   1      36.926  29.958  28.185  1.00  0.00     0.039 A 
ATOM     27  C   UNL A   1      38.000  29.928  27.287  1.00  0.00     0.014 A 
ATOM     28  C   UNL A   1      36.949  29.175  29.344  1.00  0.00     0.014 A 
ATOM     29  C   UNL A   1      39.126  29.172  27.584  1.00  0.00     0.010 A 
ATOM     30  C   UNL A   1      38.086  28.441  29.661  1.00  0.00     0.010 A 
ATOM     31  C   UNL A   1      39.180  28.460  28.789  1.00  0.00    -0.014 A 
BRANCH  31  32
ATOM     32  C   UNL A   1      40.480  27.896  29.217  1.00  0.00     0.031 A 
ATOM     33  C   UNL A   1      40.765  26.557  28.467  1.00  0.00     0.074 A 
ATOM     34  C   UNL A   1      41.145  28.607  30.181  1.00  0.00     0.049 A 
ATOM     35  N   UNL A   1      41.365  25.466  28.846  1.00  0.00    -0.248 NA
ATOM     36  C   UNL A   1      40.170  26.383  27.106  1.00  0.00     0.031 C 
ATOM     37  C   UNL A   1      40.701  29.898  30.760  1.00  0.00     0.029 A 
ATOM     38  N   UNL A   1      42.312  28.408  30.880  1.00  0.00    -0.354 N 
ATOM     39  C   UNL A   1      41.381  24.576  27.737  1.00  0.00     0.074 A 
ATOM     40  C   UNL A   1      40.520  25.146  26.747  1.00  0.00     0.031 C 
ATOM     41  C   UNL A   1      41.510  30.289  31.770  1.00  0.00     0.029 A 
ATOM     42  C   UNL A   1      42.556  29.307  31.958  1.00  0.00     0.049 A 
ATOM     43  H   UNL A   1      42.942  27.688  30.648  1.00  0.00     0.167 HD
ATOM     44  C   UNL A   1      42.218  23.499  27.632  1.00  0.00     0.037 A 
ATOM     45  C   UNL A   1      43.469  29.193  32.981  1.00  0.00     0.037 A 
ATOM     46  C   UNL A   1      43.078  23.436  28.763  1.00  0.00     0.049 A 
ATOM     47  C   UNL A   1      44.142  27.916  32.695  1.00  0.00     0.074 A 
ATOM     48  C   UNL A   1      43.099  22.797  29.975  1.00  0.00     0.029 A 
ATOM     49  N   UNL A   1      44.168  24.260  28.691  1.00  0.00    -0.354 N 
ATOM     50  N   UNL A   1      44.977  27.700  31.727  1.00  0.00    -0.248 NA
ATOM     51  C   UNL A   1      43.555  26.744  33.340  1.00  0.00     0.031 C 
ATOM     52  C   UNL A   1      44.157  23.400  30.699  1.00  0.00     0.029 A 
ATOM     53  C   UNL A   1      44.562  24.518  29.973  1.00  0.00     0.049 A 
ATOM     54  H   UNL A   1      44.590  24.602  27.870  1.00  0.00     0.167 HD
ATOM     55  C   UNL A   1      44.829  26.358  31.458  1.00  0.00     0.074 A 
ATOM     56  C   UNL A   1      43.986  25.806  32.508  1.00  0.00     0.031 C 
ATOM     57  C   UNL A   1      45.099  25.822  30.243  1.00  0.00     0.037 A 
BRANCH  44  58
ATOM     58  C   UNL A   1      42.635  22.607  26.468  1.00  0.00     0.058 A 
ATOM     59  C   UNL A   1      42.336  21.221  26.563  1.00  0.00     0.135 A 
ATOM     60  C   UNL A   1      43.619  22.945  25.526  1.00  0.00     0.135 A 
ATOM     61  F   UNL A   1      41.346  20.785  27.361  1.00  0.00    -0.206 F 
ATOM     62  C   UNL A   1      43.075  20.236  25.913  1.00  0.00     0.059 A 
ATOM     63  C   UNL A   1      44.339  21.971  24.814  1.00  0.00     0.059 A 
ATOM     64  F   UNL A   1      43.966  24.224  25.321  1.00  0.00    -0.206 F 
ATOM     65  C   UNL A   1      44.103  20.618  25.064  1.00  0.00     0.060 A 
BRANCH  65  66
ATOM     66  S   UNL A   1      45.118  19.321  24.320  1.00  0.00     0.124 S 
ATOM     67  O   UNL A   1      44.776  18.162  25.136  1.00  0.00    -0.237 OA
ATOM     68  O   UNL A   1      44.625  19.292  22.945  1.00  0.00    -0.237 OA
ATOM     69  O   UNL A   1      46.478  19.828  24.474  1.00  0.00    -0.744 OA
ENDBRANCH  65  66
ENDBRANCH  44  58
BRANCH  45  70
ATOM     70  C   UNL A   1      43.678  29.797  34.358  1.00  0.00     0.058 A 
ATOM     71  C   UNL A   1      42.739  29.842  35.395  1.00  0.00     0.135 A 
ATOM     72  C   UNL A   1      44.972  30.271  34.730  1.00  0.00     0.135 A 
ATOM     73  F   UNL A   1      41.443  29.598  35.158  1.00  0.00    -0.206 F 
ATOM     74  C   UNL A   1      43.095  30.139  36.725  1.00  0.00     0.059 A 
ATOM     75  C   UNL A   1      45.360  30.530  36.044  1.00  0.00     0.059 A 
ATOM     76  F   UNL A   1      45.938  30.463  33.820  1.00  0.00    -0.206 F 
ATOM     77  C   UNL A   1      44.421  30.420  37.051  1.00  0.00     0.060 A 
BRANCH  77  78
ATOM     78  S   UNL A   1      44.954  30.512  38.777  1.00  0.00     0.124 S 
ATOM     79  O   UNL A   1      46.279  31.108  38.659  1.00  0.00    -0.237 OA
ATOM     80  O   UNL A   1      43.926  31.358  39.376  1.00  0.00    -0.237 OA
ATOM     81  O   UNL A   1      44.926  29.117  39.211  1.00  0.00    -0.744 OA
ENDBRANCH  77  78
ENDBRANCH  45  70
BRANCH  57  82
ATOM     82  C   UNL A   1      45.573  26.804  29.185  1.00  0.00     0.058 A 
ATOM     83  C   UNL A   1      46.921  27.142  29.059  1.00  0.00     0.135 A 
ATOM     84  C   UNL A   1      44.683  27.471  28.312  1.00  0.00     0.135 A 
ATOM     85  F   UNL A   1      47.829  26.571  29.863  1.00  0.00    -0.206 F 
ATOM     86  C   UNL A   1      47.366  28.059  28.098  1.00  0.00     0.059 A 
ATOM     87  C   UNL A   1      45.098  28.380  27.338  1.00  0.00     0.059 A 
ATOM     88  F   UNL A   1      43.371  27.228  28.374  1.00  0.00    -0.206 F 
ATOM     89  C   UNL A   1      46.450  28.667  27.235  1.00  0.00     0.060 A 
BRANCH  89  90
ATOM     90  S   UNL A   1      47.051  29.809  25.968  1.00  0.00     0.124 S 
ATOM     91  O   UNL A   1      48.263  30.343  26.580  1.00  0.00    -0.237 OA
ATOM     92  O   UNL A   1      47.257  28.922  24.829  1.00  0.00    -0.237 OA
ATOM     93  O   UNL A   1      45.959  30.769  25.820  1.00  0.00    -0.744 OA
ENDBRANCH  89  90
ENDBRANCH  57  82
ENDBRANCH  31  32
ENDBRANCH  23  26
ENDBRANCH  21  22
ENDBRANCH  20  21
ENDBRANCH   1  20
TORSDOF 17
ENDMDL
MODEL 3
REMARK VINA RESULT:     -11.4      4.325      7.881
REMARK SMILES CC[C@@H](C)NC(=O)Cn1cccc1C(=O)NCCCNC(=O)c1ccc(-c2c3nc(c(-c4c(F)cc(S(=O)(=O)[O-])cc4F)c4ccc([nH]4)c(-c4c(F)cc(S(=O)(=O)[O-])cc4F)c4nc(c(-c5c(F)cc(S(=O)(=O)[O-])cc5F)c5ccc2[nH]5)C=C4)C=C3)cc1
REMARK SMILES IDX 17 1 16 2 14 3 15 4 13 6 9 7 10 8 11 9 12 10 8 11 6 12 5 13
REMARK SMILES IDX 7 15 3 16 4 17 2 18 1 19 18 20 19 21 20 22 21 23 22 25 23 26
REMARK SMILES IDX 24 27 88 28 25 29 87 30 26 31 27 32 28 33 81 34 29 35 86 36
REMARK SMILES IDX 80 37 82 38 30 39 85 40 79 41 78 42 31 44 65 45 44 46 64 47
REMARK SMILES IDX 45 48 48 49 63 50 83 51 46 52 47 53 62 55 84 56 49 57 32 58
REMARK SMILES IDX 33 59 42 60 34 61 35 62 41 63 43 64 36 65 37 66 38 67 39 68
REMARK SMILES IDX 40 69 66 70 67 71 76 72 68 73 69 74 75 75 77 76 70 77 71 78
REMARK SMILES IDX 72 79 73 80 74 81 50 82 51 83 60 84 52 85 53 86 59 87 61 88
REMARK SMILES IDX 54 89 55 90 56 91 57 92 58 93
REMARK H PARENT 16 5 5 14 20 24 82 43 48 54
REMARK Flexibility Score: inf
ROOT
ATOM      1  C   UNL A   1      35.669  22.268  23.891  1.00  0.00     0.118 C 
ENDROOT
BRANCH   1   2
ATOM      2  N   UNL A   1      34.778  23.035  23.059  1.00  0.00    -0.351 N 
ATOM      3  C   UNL A   1      33.956  24.114  23.178  1.00  0.00     0.267 C 
ATOM      4  O   UNL A   1      33.584  24.520  22.068  1.00  0.00    -0.268 OA
ATOM      5  H   UNL A   1      34.758  22.677  22.142  1.00  0.00     0.163 HD
BRANCH   3   6
ATOM      6  C   UNL A   1      33.487  24.796  24.387  1.00  0.00     0.107 A 
ATOM      7  N   UNL A   1      32.319  24.834  25.146  1.00  0.00    -0.334 N 
ATOM      8  C   UNL A   1      32.378  25.891  26.036  1.00  0.00     0.087 A 
ATOM      9  C   UNL A   1      33.637  26.423  26.012  1.00  0.00     0.020 A 
ATOM     10  C   UNL A   1      34.324  25.741  24.999  1.00  0.00     0.033 A 
BRANCH   7  11
ATOM     11  C   UNL A   1      31.156  23.962  25.083  1.00  0.00     0.222 C 
BRANCH  11  12
ATOM     12  C   UNL A   1      30.859  23.135  26.321  1.00  0.00     0.240 C 
ATOM     13  N   UNL A   1      31.548  21.974  26.550  1.00  0.00    -0.352 N 
ATOM     14  H   UNL A   1      31.180  21.393  27.253  1.00  0.00     0.163 HD
ATOM     15  O   UNL A   1      29.951  23.438  27.099  1.00  0.00    -0.273 OA
BRANCH  13  16
ATOM     16  C   UNL A   1      32.759  21.482  25.890  1.00  0.00     0.078 C 
ATOM     17  C   UNL A   1      32.446  20.192  25.137  1.00  0.00     0.031 C 
BRANCH  16  18
ATOM     18  C   UNL A   1      33.858  21.290  26.946  1.00  0.00     0.021 C 
ATOM     19  C   UNL A   1      34.240  22.580  27.655  1.00  0.00     0.006 C 
ENDBRANCH  16  18
ENDBRANCH  13  16
ENDBRANCH  11  12
ENDBRANCH   7  11
ENDBRANCH   3   6
ENDBRANCH   1   2
BRANCH   1  20
ATOM     20  C   UNL A   1      37.015  22.964  24.102  1.00  0.00     0.042 C 
BRANCH  20  21
ATOM     21  C   UNL A   1      37.419  22.968  25.576  1.00  0.00     0.118 C 
BRANCH  21  22
ATOM     22  N   UNL A   1      38.661  22.228  25.750  1.00  0.00    -0.352 N 
ATOM     23  C   UNL A   1      39.909  22.648  26.134  1.00  0.00     0.251 C 
ATOM     24  H   UNL A   1      38.594  21.265  25.560  1.00  0.00     0.163 HD
ATOM     25  O   UNL A   1      40.863  21.912  25.923  1.00  0.00    -0.269 OA
BRANCH  23  26
ATOM     26  C   UNL A   1      40.120  23.967  26.760  1.00  0.00     0.039 A 
ATOM     27  C   UNL A   1      39.517  24.194  28.004  1.00  0.00     0.014 A 
ATOM     28  C   UNL A   1      40.828  24.989  26.120  1.00  0.00     0.014 A 
ATOM     29  C   UNL A   1      39.685  25.418  28.638  1.00  0.00     0.010 A 
ATOM     30  C   UNL A   1      41.025  26.205  26.764  1.00  0.00     0.010 A 
ATOM     31  C   UNL A   1      40.469  26.407  28.032  1.00  0.00    -0.014 A 
BRANCH  31  32
ATOM     32  C   UNL A   1      40.868  27.583  28.837  1.00  0.00     0.031 A 
ATOM     33  C   UNL A   1      42.226  27.314  29.556  1.00  0.00     0.074 A 
ATOM     34  C   UNL A   1      39.987  28.632  28.829  1.00  0.00     0.049 A 
ATOM     35  N   UNL A   1      42.677  27.691  30.718  1.00  0.00    -0.248 NA
ATOM     36  C   UNL A   1      43.183  26.367  28.904  1.00  0.00     0.031 C 
ATOM     37  C   UNL A   1      38.731  28.697  28.041  1.00  0.00     0.029 A 
ATOM     38  N   UNL A   1      39.942  29.847  29.470  1.00  0.00    -0.354 N 
ATOM     39  C   UNL A   1      44.003  27.194  30.847  1.00  0.00     0.074 A 
ATOM     40  C   UNL A   1      44.203  26.284  29.761  1.00  0.00     0.031 C 
ATOM     41  C   UNL A   1      38.022  29.809  28.337  1.00  0.00     0.029 A 
ATOM     42  C   UNL A   1      38.728  30.581  29.337  1.00  0.00     0.049 A 
ATOM     43  H   UNL A   1      40.705  30.190  29.989  1.00  0.00     0.167 HD
ATOM     44  C   UNL A   1      44.915  27.671  31.748  1.00  0.00     0.037 A 
ATOM     45  C   UNL A   1      38.295  31.665  30.066  1.00  0.00     0.037 A 
ATOM     46  C   UNL A   1      44.352  28.745  32.491  1.00  0.00     0.049 A 
ATOM     47  C   UNL A   1      39.392  31.890  31.021  1.00  0.00     0.074 A 
ATOM     48  C   UNL A   1      43.713  28.911  33.692  1.00  0.00     0.029 A 
ATOM     49  N   UNL A   1      44.388  29.955  31.851  1.00  0.00    -0.354 N 
ATOM     50  N   UNL A   1      40.563  32.367  30.731  1.00  0.00    -0.248 NA
ATOM     51  C   UNL A   1      39.251  31.208  32.305  1.00  0.00     0.031 C 
ATOM     52  C   UNL A   1      43.214  30.237  33.672  1.00  0.00     0.029 A 
ATOM     53  C   UNL A   1      43.382  30.716  32.374  1.00  0.00     0.049 A 
ATOM     54  H   UNL A   1      45.019  30.226  31.146  1.00  0.00     0.167 HD
ATOM     55  C   UNL A   1      41.387  31.816  31.686  1.00  0.00     0.074 A 
ATOM     56  C   UNL A   1      40.528  31.156  32.659  1.00  0.00     0.031 C 
ATOM     57  C   UNL A   1      42.712  31.620  31.482  1.00  0.00     0.037 A 
BRANCH  44  58
ATOM     58  C   UNL A   1      46.428  27.534  31.879  1.00  0.00     0.058 A 
ATOM     59  C   UNL A   1      47.220  27.894  30.754  1.00  0.00     0.135 A 
ATOM     60  C   UNL A   1      47.070  26.726  32.829  1.00  0.00     0.135 A 
ATOM     61  F   UNL A   1      46.746  28.741  29.824  1.00  0.00    -0.206 F 
ATOM     62  C   UNL A   1      48.477  27.351  30.503  1.00  0.00     0.059 A 
ATOM     63  C   UNL A   1      48.362  26.213  32.625  1.00  0.00     0.059 A 
ATOM     64  F   UNL A   1      46.438  26.347  33.950  1.00  0.00    -0.206 F 
ATOM     65  C   UNL A   1      49.029  26.480  31.429  1.00  0.00     0.060 A 
BRANCH  65  66
ATOM     66  S   UNL A   1      50.612  25.703  31.029  1.00  0.00     0.124 S 
ATOM     67  O   UNL A   1      50.794  26.088  29.634  1.00  0.00    -0.237 OA
ATOM     68  O   UNL A   1      51.519  26.339  31.981  1.00  0.00    -0.237 OA
ATOM     69  O   UNL A   1      50.362  24.286  31.270  1.00  0.00    -0.744 OA
ENDBRANCH  65  66
ENDBRANCH  44  58
BRANCH  45  70
ATOM     70  C   UNL A   1      36.977  32.366  30.340  1.00  0.00     0.058 A 
ATOM     71  C   UNL A   1      35.909  31.860  31.091  1.00  0.00     0.135 A 
ATOM     72  C   UNL A   1      36.798  33.718  29.921  1.00  0.00     0.135 A 
ATOM     73  F   UNL A   1      35.847  30.560  31.405  1.00  0.00    -0.206 F 
ATOM     74  C   UNL A   1      34.856  32.675  31.551  1.00  0.00     0.059 A 
ATOM     75  C   UNL A   1      35.790  34.557  30.396  1.00  0.00     0.059 A 
ATOM     76  F   UNL A   1      37.637  34.300  29.051  1.00  0.00    -0.206 F 
ATOM     77  C   UNL A   1      34.839  34.037  31.251  1.00  0.00     0.060 A 
BRANCH  77  78
ATOM     78  S   UNL A   1      33.673  35.152  32.068  1.00  0.00     0.124 S 
ATOM     79  O   UNL A   1      34.558  35.991  32.866  1.00  0.00    -0.237 OA
ATOM     80  O   UNL A   1      33.023  35.807  30.937  1.00  0.00    -0.237 OA
ATOM     81  O   UNL A   1      32.814  34.244  32.824  1.00  0.00    -0.744 OA
ENDBRANCH  77  78
ENDBRANCH  45  70
BRANCH  57  82
ATOM     82  C   UNL A   1      43.234  32.043  30.119  1.00  0.00     0.058 A 
ATOM     83  C   UNL A   1      43.319  31.138  29.060  1.00  0.00     0.135 A 
ATOM     84  C   UNL A   1      43.714  33.346  29.859  1.00  0.00     0.135 A 
ATOM     85  F   UNL A   1      42.904  29.874  29.228  1.00  0.00    -0.206 F 
ATOM     86  C   UNL A   1      43.815  31.513  27.805  1.00  0.00     0.059 A 
ATOM     87  C   UNL A   1      44.203  33.753  28.617  1.00  0.00     0.059 A 
ATOM     88  F   UNL A   1      43.694  34.275  30.819  1.00  0.00    -0.206 F 
ATOM     89  C   UNL A   1      44.246  32.825  27.588  1.00  0.00     0.060 A 
BRANCH  89  90
ATOM     90  S   UNL A   1      44.835  33.304  25.946  1.00  0.00     0.124 S 
ATOM     91  O   UNL A   1      46.173  32.721  25.914  1.00  0.00    -0.237 OA
ATOM     92  O   UNL A   1      43.851  32.675  25.073  1.00  0.00    -0.237 OA
ATOM     93  O   UNL A   1      44.799  34.764  25.976  1.00  0.00    -0.744 OA
ENDBRANCH  89  90
ENDBRANCH  57  82
ENDBRANCH  31  32
ENDBRANCH  23  26
ENDBRANCH  21  22
ENDBRANCH  20  21
ENDBRANCH   1  20
TORSDOF 17
ENDMDL
