MODEL 1
REMARK VINA RESULT:     -12.2      0.000      0.000
REMARK SMILES Nc1ccc([C@H]([NH3+])C(=O)NCCCNC(=O)c2ccc(-c3c4nc(c(-c5c(F)cc(S(=O)(=O)[O-])cc5F)c5ccc([nH]5)c(-c5c(F)cc(S(=O)(=O)[O-])cc5F)c5nc(c(-c6c(F)cc(S(=O)(=O)[O-])cc6F)c6ccc3[nH]6)C=C5)C=C4)cc2)cc1C(F)(F)F
REMARK SMILES IDX 12 1 11 2 10 3 8 4 9 5 6 7 5 8 2 9 3 10 84 11 4 12 83 13
REMARK SMILES IDX 1 14 85 17 86 18 87 19 88 20 7 21 13 25 14 26 15 27 16 29
REMARK SMILES IDX 17 30 18 31 82 32 19 33 81 34 20 35 21 36 22 37 75 38 23 39
REMARK SMILES IDX 80 40 74 41 76 42 24 43 79 44 73 45 72 46 25 48 59 49 38 50
REMARK SMILES IDX 58 51 39 52 42 53 57 54 77 55 40 56 41 57 56 59 78 60 43 61
REMARK SMILES IDX 26 62 27 63 36 64 28 65 29 66 35 67 37 68 30 69 31 70 32 71
REMARK SMILES IDX 33 72 34 73 60 74 61 75 70 76 62 77 63 78 69 79 71 80 64 81
REMARK SMILES IDX 65 82 66 83 67 84 68 85 44 86 45 87 54 88 46 89 47 90 53 91
REMARK SMILES IDX 55 92 48 93 49 94 50 95 51 96 52 97
REMARK H PARENT 10 6 1 15 1 16 7 22 7 23 7 24 14 28 76 47 42 58
REMARK Flexibility Score: inf
ROOT
ATOM      1  C   UNL A   1      39.045  23.060  26.573  1.00  0.00     0.042 C 
ENDROOT
BRANCH   1   2
ATOM      2  C   UNL A   1      38.634  21.852  25.754  1.00  0.00     0.118 C 
BRANCH   2   3
ATOM      3  N   UNL A   1      37.754  22.172  24.637  1.00  0.00    -0.351 N 
ATOM      4  C   UNL A   1      36.405  21.977  24.499  1.00  0.00     0.283 C 
ATOM      5  O   UNL A   1      35.860  22.485  23.512  1.00  0.00    -0.268 OA
ATOM      6  H   UNL A   1      38.195  22.593  23.864  1.00  0.00     0.163 HD
BRANCH   4   7
ATOM      7  C   UNL A   1      35.575  21.154  25.518  1.00  0.00     0.302 C 
BRANCH   7   8
ATOM      8  C   UNL A   1      34.478  20.266  24.944  1.00  0.00     0.020 A 
ATOM      9  C   UNL A   1      32.628  18.706  23.442  1.00  0.00     0.044 A 
ATOM     10  C   UNL A   1      32.450  20.086  23.610  1.00  0.00     0.026 A 
ATOM     11  C   UNL A   1      33.727  18.100  24.053  1.00  0.00     0.079 A 
ATOM     12  C   UNL A   1      33.367  20.859  24.332  1.00  0.00     0.012 A 
ATOM     13  C   UNL A   1      34.581  18.877  24.862  1.00  0.00     0.025 A 
BRANCH   9  14
ATOM     14  N   UNL A   1      31.774  18.023  22.594  1.00  0.00    -0.398 N 
ATOM     15  H   UNL A   1      31.855  18.133  21.619  1.00  0.00     0.156 HD
ATOM     16  H   UNL A   1      31.085  17.425  22.966  1.00  0.00     0.156 HD
ENDBRANCH   9  14
BRANCH  11  17
ATOM     17  C   UNL A   1      34.138  16.668  23.813  1.00  0.00     0.418 C 
ATOM     18  F   UNL A   1      35.256  16.335  24.520  1.00  0.00    -0.166 F 
ATOM     19  F   UNL A   1      33.182  15.776  24.205  1.00  0.00    -0.166 F 
ATOM     20  F   UNL A   1      34.415  16.360  22.513  1.00  0.00    -0.166 F 
ENDBRANCH  11  17
ENDBRANCH   7   8
BRANCH   7  21
ATOM     21  N   UNL A   1      35.029  22.041  26.569  1.00  0.00    -0.343 N 
ATOM     22  H   UNL A   1      35.564  21.918  27.429  1.00  0.00     0.345 HD
ATOM     23  H   UNL A   1      34.053  21.805  26.740  1.00  0.00     0.345 HD
ATOM     24  H   UNL A   1      35.096  23.012  26.263  1.00  0.00     0.345 HD
ENDBRANCH   7  21
ENDBRANCH   4   7
ENDBRANCH   2   3
ENDBRANCH   1   2
BRANCH   1  25
ATOM     25  C   UNL A   1      40.480  23.001  27.077  1.00  0.00     0.118 C 
BRANCH  25  26
ATOM     26  N   UNL A   1      41.460  23.572  26.155  1.00  0.00    -0.352 N 
ATOM     27  C   UNL A   1      41.951  24.855  26.048  1.00  0.00     0.251 C 
ATOM     28  H   UNL A   1      41.828  22.934  25.502  1.00  0.00     0.163 HD
ATOM     29  O   UNL A   1      42.682  25.153  25.115  1.00  0.00    -0.269 OA
BRANCH  27  30
ATOM     30  C   UNL A   1      41.565  25.875  27.047  1.00  0.00     0.039 A 
ATOM     31  C   UNL A   1      40.707  25.520  28.090  1.00  0.00     0.014 A 
ATOM     32  C   UNL A   1      42.075  27.171  26.970  1.00  0.00     0.014 A 
ATOM     33  C   UNL A   1      40.446  26.437  29.110  1.00  0.00     0.010 A 
ATOM     34  C   UNL A   1      41.911  28.038  28.041  1.00  0.00     0.010 A 
ATOM     35  C   UNL A   1      41.091  27.684  29.123  1.00  0.00    -0.014 A 
BRANCH  35  36
ATOM     36  C   UNL A   1      40.934  28.640  30.249  1.00  0.00     0.031 A 
ATOM     37  C   UNL A   1      41.796  28.501  31.476  1.00  0.00     0.074 A 
ATOM     38  C   UNL A   1      39.950  29.561  30.212  1.00  0.00     0.049 A 
ATOM     39  N   UNL A   1      41.733  29.151  32.610  1.00  0.00    -0.248 NA
ATOM     40  C   UNL A   1      42.839  27.463  31.440  1.00  0.00     0.031 C 
ATOM     41  C   UNL A   1      39.001  29.746  29.113  1.00  0.00     0.029 A 
ATOM     42  N   UNL A   1      39.574  30.506  31.135  1.00  0.00    -0.354 N 
ATOM     43  C   UNL A   1      42.700  28.579  33.427  1.00  0.00     0.074 A 
ATOM     44  C   UNL A   1      43.294  27.490  32.682  1.00  0.00     0.031 C 
ATOM     45  C   UNL A   1      38.171  30.759  29.411  1.00  0.00     0.029 A 
ATOM     46  C   UNL A   1      38.499  31.268  30.738  1.00  0.00     0.049 A 
ATOM     47  H   UNL A   1      40.029  30.626  31.999  1.00  0.00     0.167 HD
ATOM     48  C   UNL A   1      43.080  28.943  34.675  1.00  0.00     0.037 A 
ATOM     49  C   UNL A   1      37.849  32.261  31.374  1.00  0.00     0.037 A 
ATOM     50  C   UNL A   1      42.516  30.058  35.389  1.00  0.00     0.049 A 
ATOM     51  C   UNL A   1      38.314  32.681  32.740  1.00  0.00     0.074 A 
ATOM     52  C   UNL A   1      42.885  30.567  36.621  1.00  0.00     0.029 A 
ATOM     53  N   UNL A   1      41.465  30.841  34.930  1.00  0.00    -0.354 N 
ATOM     54  N   UNL A   1      39.280  32.176  33.471  1.00  0.00    -0.248 NA
ATOM     55  C   UNL A   1      37.611  33.808  33.367  1.00  0.00     0.031 C 
ATOM     56  C   UNL A   1      42.032  31.634  36.925  1.00  0.00     0.029 A 
ATOM     57  C   UNL A   1      41.161  31.818  35.863  1.00  0.00     0.049 A 
ATOM     58  H   UNL A   1      41.004  30.718  34.070  1.00  0.00     0.167 HD
ATOM     59  C   UNL A   1      39.314  32.937  34.635  1.00  0.00     0.074 A 
ATOM     60  C   UNL A   1      38.280  33.944  34.504  1.00  0.00     0.031 C 
ATOM     61  C   UNL A   1      40.128  32.813  35.712  1.00  0.00     0.037 A 
BRANCH  48  62
ATOM     62  C   UNL A   1      44.159  28.130  35.336  1.00  0.00     0.058 A 
ATOM     63  C   UNL A   1      43.859  27.032  36.158  1.00  0.00     0.135 A 
ATOM     64  C   UNL A   1      45.513  28.451  35.144  1.00  0.00     0.135 A 
ATOM     65  F   UNL A   1      42.580  26.688  36.388  1.00  0.00    -0.206 F 
ATOM     66  C   UNL A   1      44.857  26.310  36.803  1.00  0.00     0.059 A 
ATOM     67  C   UNL A   1      46.530  27.723  35.755  1.00  0.00     0.059 A 
ATOM     68  F   UNL A   1      45.859  29.489  34.367  1.00  0.00    -0.206 F 
ATOM     69  C   UNL A   1      46.191  26.667  36.601  1.00  0.00     0.060 A 
BRANCH  69  70
ATOM     70  S   UNL A   1      47.474  25.732  37.458  1.00  0.00     0.124 S 
ATOM     71  O   UNL A   1      48.664  26.516  37.139  1.00  0.00    -0.237 OA
ATOM     72  O   UNL A   1      47.031  25.792  38.847  1.00  0.00    -0.237 OA
ATOM     73  O   UNL A   1      47.408  24.414  36.836  1.00  0.00    -0.744 OA
ENDBRANCH  69  70
ENDBRANCH  48  62
BRANCH  49  74
ATOM     74  C   UNL A   1      36.714  32.948  30.702  1.00  0.00     0.058 A 
ATOM     75  C   UNL A   1      35.392  32.716  31.110  1.00  0.00     0.135 A 
ATOM     76  C   UNL A   1      36.928  33.879  29.674  1.00  0.00     0.135 A 
ATOM     77  F   UNL A   1      35.136  31.831  32.085  1.00  0.00    -0.206 F 
ATOM     78  C   UNL A   1      34.320  33.378  30.519  1.00  0.00     0.059 A 
ATOM     79  C   UNL A   1      35.874  34.570  29.083  1.00  0.00     0.059 A 
ATOM     80  F   UNL A   1      38.176  34.149  29.260  1.00  0.00    -0.206 F 
ATOM     81  C   UNL A   1      34.572  34.309  29.509  1.00  0.00     0.060 A 
BRANCH  81  82
ATOM     82  S   UNL A   1      33.180  35.215  28.801  1.00  0.00     0.124 S 
ATOM     83  O   UNL A   1      32.434  35.590  29.996  1.00  0.00    -0.237 OA
ATOM     84  O   UNL A   1      33.849  36.306  28.098  1.00  0.00    -0.237 OA
ATOM     85  O   UNL A   1      32.539  34.226  27.939  1.00  0.00    -0.744 OA
ENDBRANCH  81  82
ENDBRANCH  49  74
BRANCH  61  86
ATOM     86  C   UNL A   1      39.954  33.807  36.826  1.00  0.00     0.058 A 
ATOM     87  C   UNL A   1      40.574  35.065  36.795  1.00  0.00     0.135 A 
ATOM     88  C   UNL A   1      39.110  33.517  37.911  1.00  0.00     0.135 A 
ATOM     89  F   UNL A   1      41.394  35.389  35.782  1.00  0.00    -0.206 F 
ATOM     90  C   UNL A   1      40.381  35.995  37.811  1.00  0.00     0.059 A 
ATOM     91  C   UNL A   1      38.883  34.440  38.925  1.00  0.00     0.059 A 
ATOM     92  F   UNL A   1      38.485  32.330  37.983  1.00  0.00    -0.206 F 
ATOM     93  C   UNL A   1      39.532  35.673  38.872  1.00  0.00     0.060 A 
BRANCH  93  94
ATOM     94  S   UNL A   1      39.260  36.901  40.167  1.00  0.00     0.124 S 
ATOM     95  O   UNL A   1      40.619  37.120  40.652  1.00  0.00    -0.237 OA
ATOM     96  O   UNL A   1      38.663  38.009  39.429  1.00  0.00    -0.237 OA
ATOM     97  O   UNL A   1      38.363  36.221  41.097  1.00  0.00    -0.744 OA
ENDBRANCH  93  94
ENDBRANCH  61  86
ENDBRANCH  35  36
ENDBRANCH  27  30
ENDBRANCH  25  26
ENDBRANCH   1  25
TORSDOF 17
ENDMDL
MODEL 2
REMARK VINA RESULT:     -12.2      6.201     11.267
REMARK SMILES Nc1ccc([C@H]([NH3+])C(=O)NCCCNC(=O)c2ccc(-c3c4nc(c(-c5c(F)cc(S(=O)(=O)[O-])cc5F)c5ccc([nH]5)c(-c5c(F)cc(S(=O)(=O)[O-])cc5F)c5nc(c(-c6c(F)cc(S(=O)(=O)[O-])cc6F)c6ccc3[nH]6)C=C5)C=C4)cc2)cc1C(F)(F)F
REMARK SMILES IDX 12 1 11 2 10 3 8 4 9 5 6 7 5 8 2 9 3 10 84 11 4 12 83 13
REMARK SMILES IDX 1 14 85 17 86 18 87 19 88 20 7 21 13 25 14 26 15 27 16 29
REMARK SMILES IDX 17 30 18 31 82 32 19 33 81 34 20 35 21 36 22 37 75 38 23 39
REMARK SMILES IDX 80 40 74 41 76 42 24 43 79 44 73 45 72 46 25 48 59 49 38 50
REMARK SMILES IDX 58 51 39 52 42 53 57 54 77 55 40 56 41 57 56 59 78 60 43 61
REMARK SMILES IDX 26 62 27 63 36 64 28 65 29 66 35 67 37 68 30 69 31 70 32 71
REMARK SMILES IDX 33 72 34 73 60 74 61 75 70 76 62 77 63 78 69 79 71 80 64 81
REMARK SMILES IDX 65 82 66 83 67 84 68 85 44 86 45 87 54 88 46 89 47 90 53 91
REMARK SMILES IDX 55 92 48 93 49 94 50 95 51 96 52 97
REMARK H PARENT 10 6 1 15 1 16 7 22 7 23 7 24 14 28 76 47 42 58
REMARK Flexibility Score: inf
ROOT
ATOM      1  C   UNL A   1      33.803  27.947  26.206  1.00  0.00     0.042 C 
ENDROOT
BRANCH   1   2
ATOM      2  C   UNL A   1      33.129  26.649  25.805  1.00  0.00     0.118 C 
BRANCH   2   3
ATOM      3  N   UNL A   1      33.358  26.274  24.415  1.00  0.00    -0.351 N 
ATOM      4  C   UNL A   1      33.155  26.994  23.268  1.00  0.00     0.283 C 
ATOM      5  O   UNL A   1      33.581  26.507  22.214  1.00  0.00    -0.268 OA
ATOM      6  H   UNL A   1      33.713  25.366  24.281  1.00  0.00     0.163 HD
BRANCH   4   7
ATOM      7  C   UNL A   1      32.420  28.359  23.261  1.00  0.00     0.302 C 
BRANCH   7   8
ATOM      8  C   UNL A   1      30.920  28.324  22.995  1.00  0.00     0.020 A 
ATOM      9  C   UNL A   1      28.074  28.425  22.951  1.00  0.00     0.044 A 
ATOM     10  C   UNL A   1      28.756  27.327  23.490  1.00  0.00     0.026 A 
ATOM     11  C   UNL A   1      28.825  29.470  22.406  1.00  0.00     0.079 A 
ATOM     12  C   UNL A   1      30.154  27.282  23.531  1.00  0.00     0.012 A 
ATOM     13  C   UNL A   1      30.230  29.358  22.362  1.00  0.00     0.025 A 
BRANCH   9  14
ATOM     14  N   UNL A   1      26.697  28.482  23.075  1.00  0.00    -0.398 N 
ATOM     15  H   UNL A   1      26.259  28.112  23.876  1.00  0.00     0.156 HD
ATOM     16  H   UNL A   1      26.155  28.893  22.364  1.00  0.00     0.156 HD
ENDBRANCH   9  14
BRANCH  11  17
ATOM     17  C   UNL A   1      28.234  30.782  21.955  1.00  0.00     0.418 C 
ATOM     18  F   UNL A   1      29.191  31.743  21.799  1.00  0.00    -0.166 F 
ATOM     19  F   UNL A   1      27.614  30.689  20.743  1.00  0.00    -0.166 F 
ATOM     20  F   UNL A   1      27.306  31.316  22.801  1.00  0.00    -0.166 F 
ENDBRANCH  11  17
ENDBRANCH   7   8
BRANCH   7  21
ATOM     21  N   UNL A   1      33.091  29.296  22.333  1.00  0.00    -0.343 N 
ATOM     22  H   UNL A   1      32.423  29.617  21.633  1.00  0.00     0.345 HD
ATOM     23  H   UNL A   1      33.866  28.821  21.871  1.00  0.00     0.345 HD
ATOM     24  H   UNL A   1      33.447  30.096  22.857  1.00  0.00     0.345 HD
ENDBRANCH   7  21
ENDBRANCH   4   7
ENDBRANCH   2   3
ENDBRANCH   1   2
BRANCH   1  25
ATOM     25  C   UNL A   1      33.375  28.466  27.572  1.00  0.00     0.118 C 
BRANCH  25  26
ATOM     26  N   UNL A   1      33.474  29.917  27.715  1.00  0.00    -0.352 N 
ATOM     27  C   UNL A   1      34.537  30.713  28.081  1.00  0.00     0.251 C 
ATOM     28  H   UNL A   1      32.642  30.406  27.517  1.00  0.00     0.163 HD
ATOM     29  O   UNL A   1      34.370  31.910  28.261  1.00  0.00    -0.269 OA
BRANCH  27  30
ATOM     30  C   UNL A   1      35.871  30.108  28.287  1.00  0.00     0.039 A 
ATOM     31  C   UNL A   1      36.777  30.074  27.225  1.00  0.00     0.014 A 
ATOM     32  C   UNL A   1      36.236  29.604  29.536  1.00  0.00     0.014 A 
ATOM     33  C   UNL A   1      38.082  29.629  27.447  1.00  0.00     0.010 A 
ATOM     34  C   UNL A   1      37.562  29.276  29.783  1.00  0.00     0.010 A 
ATOM     35  C   UNL A   1      38.501  29.280  28.741  1.00  0.00    -0.014 A 
BRANCH  35  36
ATOM     36  C   UNL A   1      39.910  28.917  29.041  1.00  0.00     0.031 A 
ATOM     37  C   UNL A   1      40.842  29.947  29.622  1.00  0.00     0.074 A 
ATOM     38  C   UNL A   1      40.375  27.700  28.695  1.00  0.00     0.049 A 
ATOM     39  N   UNL A   1      42.129  29.868  29.840  1.00  0.00    -0.248 NA
ATOM     40  C   UNL A   1      40.257  31.255  29.960  1.00  0.00     0.031 C 
ATOM     41  C   UNL A   1      39.590  26.641  28.057  1.00  0.00     0.029 A 
ATOM     42  N   UNL A   1      41.628  27.153  28.816  1.00  0.00    -0.354 N 
ATOM     43  C   UNL A   1      42.510  31.121  30.307  1.00  0.00     0.074 A 
ATOM     44  C   UNL A   1      41.331  31.958  30.283  1.00  0.00     0.031 C 
ATOM     45  C   UNL A   1      40.371  25.565  27.868  1.00  0.00     0.029 A 
ATOM     46  C   UNL A   1      41.720  25.869  28.332  1.00  0.00     0.049 A 
ATOM     47  H   UNL A   1      42.390  27.635  29.211  1.00  0.00     0.167 HD
ATOM     48  C   UNL A   1      43.725  31.530  30.743  1.00  0.00     0.037 A 
ATOM     49  C   UNL A   1      42.774  25.032  28.265  1.00  0.00     0.037 A 
ATOM     50  C   UNL A   1      44.881  30.676  30.808  1.00  0.00     0.049 A 
ATOM     51  C   UNL A   1      44.104  25.490  28.795  1.00  0.00     0.074 A 
ATOM     52  C   UNL A   1      46.137  30.962  31.312  1.00  0.00     0.029 A 
ATOM     53  N   UNL A   1      44.920  29.363  30.358  1.00  0.00    -0.354 N 
ATOM     54  N   UNL A   1      44.431  26.656  29.301  1.00  0.00    -0.248 NA
ATOM     55  C   UNL A   1      45.207  24.521  28.753  1.00  0.00     0.031 C 
ATOM     56  C   UNL A   1      46.947  29.836  31.133  1.00  0.00     0.029 A 
ATOM     57  C   UNL A   1      46.184  28.832  30.557  1.00  0.00     0.049 A 
ATOM     58  H   UNL A   1      44.162  28.881  29.957  1.00  0.00     0.167 HD
ATOM     59  C   UNL A   1      45.770  26.553  29.659  1.00  0.00     0.074 A 
ATOM     60  C   UNL A   1      46.189  25.207  29.322  1.00  0.00     0.031 C 
ATOM     61  C   UNL A   1      46.579  27.488  30.216  1.00  0.00     0.037 A 
BRANCH  48  62
ATOM     62  C   UNL A   1      43.855  32.961  31.188  1.00  0.00     0.058 A 
ATOM     63  C   UNL A   1      43.593  33.351  32.511  1.00  0.00     0.135 A 
ATOM     64  C   UNL A   1      44.248  33.958  30.279  1.00  0.00     0.135 A 
ATOM     65  F   UNL A   1      43.200  32.442  33.419  1.00  0.00    -0.206 F 
ATOM     66  C   UNL A   1      43.670  34.682  32.908  1.00  0.00     0.059 A 
ATOM     67  C   UNL A   1      44.362  35.292  30.662  1.00  0.00     0.059 A 
ATOM     68  F   UNL A   1      44.512  33.644  29.001  1.00  0.00    -0.206 F 
ATOM     69  C   UNL A   1      44.050  35.647  31.974  1.00  0.00     0.060 A 
BRANCH  69  70
ATOM     70  S   UNL A   1      44.129  37.372  32.499  1.00  0.00     0.124 S 
ATOM     71  O   UNL A   1      43.838  38.068  31.248  1.00  0.00    -0.237 OA
ATOM     72  O   UNL A   1      43.086  37.438  33.516  1.00  0.00    -0.237 OA
ATOM     73  O   UNL A   1      45.494  37.515  32.992  1.00  0.00    -0.744 OA
ENDBRANCH  69  70
ENDBRANCH  48  62
BRANCH  49  74
ATOM     74  C   UNL A   1      42.596  23.666  27.707  1.00  0.00     0.058 A 
ATOM     75  C   UNL A   1      42.656  23.442  26.323  1.00  0.00     0.135 A 
ATOM     76  C   UNL A   1      42.407  22.553  28.542  1.00  0.00     0.135 A 
ATOM     77  F   UNL A   1      42.830  24.474  25.484  1.00  0.00    -0.206 F 
ATOM     78  C   UNL A   1      42.531  22.164  25.785  1.00  0.00     0.059 A 
ATOM     79  C   UNL A   1      42.301  21.264  28.029  1.00  0.00     0.059 A 
ATOM     80  F   UNL A   1      42.360  22.713  29.874  1.00  0.00    -0.206 F 
ATOM     81  C   UNL A   1      42.359  21.080  26.648  1.00  0.00     0.060 A 
BRANCH  81  82
ATOM     82  S   UNL A   1      42.270  19.420  25.943  1.00  0.00     0.124 S 
ATOM     83  O   UNL A   1      40.850  19.305  25.637  1.00  0.00    -0.237 OA
ATOM     84  O   UNL A   1      43.165  19.525  24.794  1.00  0.00    -0.237 OA
ATOM     85  O   UNL A   1      42.754  18.569  27.026  1.00  0.00    -0.744 OA
ENDBRANCH  81  82
ENDBRANCH  49  74
BRANCH  61  86
ATOM     86  C   UNL A   1      47.993  27.082  30.523  1.00  0.00     0.058 A 
ATOM     87  C   UNL A   1      49.060  27.436  29.683  1.00  0.00     0.135 A 
ATOM     88  C   UNL A   1      48.290  26.376  31.701  1.00  0.00     0.135 A 
ATOM     89  F   UNL A   1      48.829  28.105  28.543  1.00  0.00    -0.206 F 
ATOM     90  C   UNL A   1      50.371  27.087  29.990  1.00  0.00     0.059 A 
ATOM     91  C   UNL A   1      49.596  26.039  32.040  1.00  0.00     0.059 A 
ATOM     92  F   UNL A   1      47.306  26.022  32.543  1.00  0.00    -0.206 F 
ATOM     93  C   UNL A   1      50.629  26.390  31.172  1.00  0.00     0.060 A 
BRANCH  93  94
ATOM     94  S   UNL A   1      52.338  25.974  31.577  1.00  0.00     0.124 S 
ATOM     95  O   UNL A   1      52.961  25.977  30.257  1.00  0.00    -0.237 OA
ATOM     96  O   UNL A   1      52.725  27.066  32.464  1.00  0.00    -0.237 OA
ATOM     97  O   UNL A   1      52.228  24.666  32.216  1.00  0.00    -0.744 OA
ENDBRANCH  93  94
ENDBRANCH  61  86
ENDBRANCH  35  36
ENDBRANCH  27  30
ENDBRANCH  25  26
ENDBRANCH   1  25
TORSDOF 17
ENDMDL
MODEL 3
REMARK VINA RESULT:     -12.1      7.452     12.868
REMARK SMILES Nc1ccc([C@H]([NH3+])C(=O)NCCCNC(=O)c2ccc(-c3c4nc(c(-c5c(F)cc(S(=O)(=O)[O-])cc5F)c5ccc([nH]5)c(-c5c(F)cc(S(=O)(=O)[O-])cc5F)c5nc(c(-c6c(F)cc(S(=O)(=O)[O-])cc6F)c6ccc3[nH]6)C=C5)C=C4)cc2)cc1C(F)(F)F
REMARK SMILES IDX 12 1 11 2 10 3 8 4 9 5 6 7 5 8 2 9 3 10 84 11 4 12 83 13
REMARK SMILES IDX 1 14 85 17 86 18 87 19 88 20 7 21 13 25 14 26 15 27 16 29
REMARK SMILES IDX 17 30 18 31 82 32 19 33 81 34 20 35 21 36 22 37 75 38 23 39
REMARK SMILES IDX 80 40 74 41 76 42 24 43 79 44 73 45 72 46 25 48 59 49 38 50
REMARK SMILES IDX 58 51 39 52 42 53 57 54 77 55 40 56 41 57 56 59 78 60 43 61
REMARK SMILES IDX 26 62 27 63 36 64 28 65 29 66 35 67 37 68 30 69 31 70 32 71
REMARK SMILES IDX 33 72 34 73 60 74 61 75 70 76 62 77 63 78 69 79 71 80 64 81
REMARK SMILES IDX 65 82 66 83 67 84 68 85 44 86 45 87 54 88 46 89 47 90 53 91
REMARK SMILES IDX 55 92 48 93 49 94 50 95 51 96 52 97
REMARK H PARENT 10 6 1 15 1 16 7 22 7 23 7 24 14 28 76 47 42 58
REMARK Flexibility Score: inf
ROOT
ATOM      1  C   UNL A   1      34.775  29.472  27.398  1.00  0.00     0.042 C 
ENDROOT
BRANCH   1   2
ATOM      2  C   UNL A   1      33.329  29.908  27.272  1.00  0.00     0.118 C 
BRANCH   2   3
ATOM      3  N   UNL A   1      32.370  28.846  27.549  1.00  0.00    -0.351 N 
ATOM      4  C   UNL A   1      31.841  27.902  26.710  1.00  0.00     0.283 C 
ATOM      5  O   UNL A   1      31.164  27.005  27.227  1.00  0.00    -0.268 OA
ATOM      6  H   UNL A   1      32.055  28.801  28.480  1.00  0.00     0.163 HD
BRANCH   4   7
ATOM      7  C   UNL A   1      32.060  27.935  25.175  1.00  0.00     0.302 C 
BRANCH   7   8
ATOM      8  C   UNL A   1      30.827  28.187  24.316  1.00  0.00     0.020 A 
ATOM      9  C   UNL A   1      28.279  28.638  23.127  1.00  0.00     0.044 A 
ATOM     10  C   UNL A   1      28.734  27.343  23.406  1.00  0.00     0.026 A 
ATOM     11  C   UNL A   1      29.118  29.714  23.423  1.00  0.00     0.079 A 
ATOM     12  C   UNL A   1      29.977  27.118  24.007  1.00  0.00     0.012 A 
ATOM     13  C   UNL A   1      30.409  29.461  23.931  1.00  0.00     0.025 A 
BRANCH   9  14
ATOM     14  N   UNL A   1      26.982  28.806  22.674  1.00  0.00    -0.398 N 
ATOM     15  H   UNL A   1      26.487  28.040  22.299  1.00  0.00     0.156 HD
ATOM     16  H   UNL A   1      26.552  29.690  22.726  1.00  0.00     0.156 HD
ENDBRANCH   9  14
BRANCH  11  17
ATOM     17  C   UNL A   1      28.692  31.159  23.341  1.00  0.00     0.418 C 
ATOM     18  F   UNL A   1      29.278  31.916  24.313  1.00  0.00    -0.166 F 
ATOM     19  F   UNL A   1      29.049  31.745  22.161  1.00  0.00    -0.166 F 
ATOM     20  F   UNL A   1      27.350  31.370  23.464  1.00  0.00    -0.166 F 
ENDBRANCH  11  17
ENDBRANCH   7   8
BRANCH   7  21
ATOM     21  N   UNL A   1      32.762  26.710  24.732  1.00  0.00    -0.343 N 
ATOM     22  H   UNL A   1      32.078  25.977  24.543  1.00  0.00     0.345 HD
ATOM     23  H   UNL A   1      33.399  26.400  25.465  1.00  0.00     0.345 HD
ATOM     24  H   UNL A   1      33.291  26.910  23.883  1.00  0.00     0.345 HD
ENDBRANCH   7  21
ENDBRANCH   4   7
ENDBRANCH   2   3
ENDBRANCH   1   2
BRANCH   1  25
ATOM     25  C   UNL A   1      35.659  30.475  28.128  1.00  0.00     0.118 C 
BRANCH  25  26
ATOM     26  N   UNL A   1      35.544  30.421  29.584  1.00  0.00    -0.352 N 
ATOM     27  C   UNL A   1      36.490  30.155  30.550  1.00  0.00     0.251 C 
ATOM     28  H   UNL A   1      34.641  30.605  29.932  1.00  0.00     0.163 HD
ATOM     29  O   UNL A   1      36.153  30.036  31.719  1.00  0.00    -0.269 OA
BRANCH  27  30
ATOM     30  C   UNL A   1      37.907  29.981  30.163  1.00  0.00     0.039 A 
ATOM     31  C   UNL A   1      38.847  29.649  31.142  1.00  0.00     0.014 A 
ATOM     32  C   UNL A   1      38.300  30.114  28.831  1.00  0.00     0.014 A 
ATOM     33  C   UNL A   1      40.158  29.352  30.765  1.00  0.00     0.010 A 
ATOM     34  C   UNL A   1      39.568  29.703  28.445  1.00  0.00     0.010 A 
ATOM     35  C   UNL A   1      40.514  29.321  29.407  1.00  0.00    -0.014 A 
BRANCH  35  36
ATOM     36  C   UNL A   1      41.864  28.893  28.957  1.00  0.00     0.031 A 
ATOM     37  C   UNL A   1      42.974  29.905  28.851  1.00  0.00     0.074 A 
ATOM     38  C   UNL A   1      42.062  27.624  28.548  1.00  0.00     0.049 A 
ATOM     39  N   UNL A   1      44.181  29.761  28.366  1.00  0.00    -0.248 NA
ATOM     40  C   UNL A   1      42.672  31.271  29.307  1.00  0.00     0.031 C 
ATOM     41  C   UNL A   1      41.046  26.569  28.532  1.00  0.00     0.029 A 
ATOM     42  N   UNL A   1      43.183  27.009  28.048  1.00  0.00    -0.354 N 
ATOM     43  C   UNL A   1      44.765  31.020  28.430  1.00  0.00     0.074 A 
ATOM     44  C   UNL A   1      43.762  31.928  28.942  1.00  0.00     0.031 C 
ATOM     45  C   UNL A   1      41.596  25.432  28.075  1.00  0.00     0.029 A 
ATOM     46  C   UNL A   1      42.990  25.685  27.725  1.00  0.00     0.049 A 
ATOM     47  H   UNL A   1      44.043  27.471  27.931  1.00  0.00     0.167 HD
ATOM     48  C   UNL A   1      46.032  31.385  28.116  1.00  0.00     0.037 A 
ATOM     49  C   UNL A   1      43.839  24.780  27.201  1.00  0.00     0.037 A 
ATOM     50  C   UNL A   1      47.036  30.466  27.652  1.00  0.00     0.049 A 
ATOM     51  C   UNL A   1      45.253  25.193  26.902  1.00  0.00     0.074 A 
ATOM     52  C   UNL A   1      48.372  30.711  27.388  1.00  0.00     0.029 A 
ATOM     53  N   UNL A   1      46.817  29.120  27.389  1.00  0.00    -0.354 N 
ATOM     54  N   UNL A   1      45.811  26.372  27.037  1.00  0.00    -0.248 NA
ATOM     55  C   UNL A   1      46.155  24.154  26.389  1.00  0.00     0.031 C 
ATOM     56  C   UNL A   1      48.951  29.523  26.928  1.00  0.00     0.029 A 
ATOM     57  C   UNL A   1      47.988  28.527  26.948  1.00  0.00     0.049 A 
ATOM     58  H   UNL A   1      45.956  28.657  27.499  1.00  0.00     0.167 HD
ATOM     59  C   UNL A   1      47.136  26.213  26.645  1.00  0.00     0.074 A 
ATOM     60  C   UNL A   1      47.297  24.820  26.281  1.00  0.00     0.031 C 
ATOM     61  C   UNL A   1      48.128  27.136  26.593  1.00  0.00     0.037 A 
BRANCH  48  62
ATOM     62  C   UNL A   1      46.393  32.836  28.274  1.00  0.00     0.058 A 
ATOM     63  C   UNL A   1      46.247  33.754  27.221  1.00  0.00     0.135 A 
ATOM     64  C   UNL A   1      46.894  33.318  29.495  1.00  0.00     0.135 A 
ATOM     65  F   UNL A   1      45.787  33.345  26.026  1.00  0.00    -0.206 F 
ATOM     66  C   UNL A   1      46.625  35.085  27.356  1.00  0.00     0.059 A 
ATOM     67  C   UNL A   1      47.249  34.654  29.663  1.00  0.00     0.059 A 
ATOM     68  F   UNL A   1      47.054  32.487  30.536  1.00  0.00    -0.206 F 
ATOM     69  C   UNL A   1      47.131  35.525  28.579  1.00  0.00     0.060 A 
BRANCH  69  70
ATOM     70  S   UNL A   1      47.634  37.252  28.735  1.00  0.00     0.124 S 
ATOM     71  O   UNL A   1      46.498  37.940  28.128  1.00  0.00    -0.237 OA
ATOM     72  O   UNL A   1      47.771  37.409  30.179  1.00  0.00    -0.237 OA
ATOM     73  O   UNL A   1      48.880  37.312  27.979  1.00  0.00    -0.744 OA
ENDBRANCH  69  70
ENDBRANCH  48  62
BRANCH  49  74
ATOM     74  C   UNL A   1      43.376  23.386  26.966  1.00  0.00     0.058 A 
ATOM     75  C   UNL A   1      43.137  22.919  25.665  1.00  0.00     0.135 A 
ATOM     76  C   UNL A   1      43.208  22.483  28.028  1.00  0.00     0.135 A 
ATOM     77  F   UNL A   1      43.279  23.746  24.619  1.00  0.00    -0.206 F 
ATOM     78  C   UNL A   1      42.742  21.607  25.424  1.00  0.00     0.059 A 
ATOM     79  C   UNL A   1      42.835  21.160  27.809  1.00  0.00     0.059 A 
ATOM     80  F   UNL A   1      43.442  22.876  29.289  1.00  0.00    -0.206 F 
ATOM     81  C   UNL A   1      42.599  20.733  26.503  1.00  0.00     0.060 A 
BRANCH  81  82
ATOM     82  S   UNL A   1      42.156  19.013  26.170  1.00  0.00     0.124 S 
ATOM     83  O   UNL A   1      42.408  18.389  27.464  1.00  0.00    -0.237 OA
ATOM     84  O   UNL A   1      40.755  19.127  25.778  1.00  0.00    -0.237 OA
ATOM     85  O   UNL A   1      43.070  18.633  25.097  1.00  0.00    -0.744 OA
ENDBRANCH  81  82
ENDBRANCH  49  74
BRANCH  61  86
ATOM     86  C   UNL A   1      49.485  26.666  26.151  1.00  0.00     0.058 A 
ATOM     87  C   UNL A   1      49.959  26.902  24.852  1.00  0.00     0.135 A 
ATOM     88  C   UNL A   1      50.342  26.019  27.056  1.00  0.00     0.135 A 
ATOM     89  F   UNL A   1      49.177  27.511  23.947  1.00  0.00    -0.206 F 
ATOM     90  C   UNL A   1      51.230  26.495  24.458  1.00  0.00     0.059 A 
ATOM     91  C   UNL A   1      51.625  25.626  26.692  1.00  0.00     0.059 A 
ATOM     92  F   UNL A   1      49.939  25.778  28.315  1.00  0.00    -0.206 F 
ATOM     93  C   UNL A   1      52.056  25.859  25.387  1.00  0.00     0.060 A 
BRANCH  93  94
ATOM     94  S   UNL A   1      53.716  25.368  24.875  1.00  0.00     0.124 S 
ATOM     95  O   UNL A   1      53.835  26.038  23.585  1.00  0.00    -0.237 OA
ATOM     96  O   UNL A   1      54.547  25.903  25.949  1.00  0.00    -0.237 OA
ATOM     97  O   UNL A   1      53.638  23.911  24.821  1.00  0.00    -0.744 OA
ENDBRANCH  93  94
ENDBRANCH  61  86
ENDBRANCH  35  36
ENDBRANCH  27  30
ENDBRANCH  25  26
ENDBRANCH   1  25
TORSDOF 17
ENDMDL
