MODEL 1
REMARK VINA RESULT:     -12.9      0.000      0.000
REMARK SMILES Cc1cccc([C@@H](CC(F)(F)F)C(=O)NCCCNC(=O)c2ccc(-c3c4nc(c(-c5c(F)cc(S(=O)(=O)[O-])cc5F)c5ccc([nH]5)c(-c5c(F)cc(S(=O)(=O)[O-])cc5F)c5nc(c(-c6c(F)cc(S(=O)(=O)[O-])cc6F)c6ccc3[nH]6)C=C5)C=C4)cc2)c1
REMARK SMILES IDX 17 1 16 2 15 3 13 4 14 5 7 7 6 8 1 9 2 10 3 11 88 12 4 13
REMARK SMILES IDX 5 14 8 15 9 16 10 17 11 18 12 19 18 20 19 21 20 22 21 24
REMARK SMILES IDX 22 25 23 26 87 27 24 28 86 29 25 30 26 31 27 32 80 33 28 34
REMARK SMILES IDX 85 35 79 36 81 37 29 38 84 39 78 40 77 41 30 43 64 44 43 45
REMARK SMILES IDX 63 46 44 47 47 48 62 49 82 50 45 51 46 52 61 54 83 55 48 56
REMARK SMILES IDX 31 57 32 58 41 59 33 60 34 61 40 62 42 63 35 64 36 65 37 66
REMARK SMILES IDX 38 67 39 68 65 69 66 70 75 71 67 72 68 73 74 74 76 75 69 76
REMARK SMILES IDX 70 77 71 78 72 79 73 80 49 81 50 82 59 83 51 84 52 85 58 86
REMARK SMILES IDX 60 87 53 88 54 89 55 90 56 91 57 92
REMARK H PARENT 15 6 19 23 81 42 47 53
REMARK Flexibility Score: inf
ROOT
ATOM      1  C   UNL A   1      33.110  30.300  27.288  1.00  0.00     0.042 C 
ENDROOT
BRANCH   1   2
ATOM      2  C   UNL A   1      32.307  30.169  26.004  1.00  0.00     0.117 C 
BRANCH   2   3
ATOM      3  N   UNL A   1      33.136  29.811  24.862  1.00  0.00    -0.356 N 
ATOM      4  C   UNL A   1      33.288  28.688  24.123  1.00  0.00     0.227 C 
ATOM      5  O   UNL A   1      34.089  28.766  23.180  1.00  0.00    -0.274 OA
ATOM      6  H   UNL A   1      33.713  30.550  24.561  1.00  0.00     0.163 HD
BRANCH   4   7
ATOM      7  C   UNL A   1      32.542  27.363  24.333  1.00  0.00     0.117 C 
BRANCH   7   8
ATOM      8  C   UNL A   1      31.041  27.372  24.056  1.00  0.00    -0.035 A 
ATOM      9  C   UNL A   1      28.550  29.653  22.233  1.00  0.00     0.044 C 
ATOM     10  C   UNL A   1      29.119  28.497  23.001  1.00  0.00    -0.051 A 
ATOM     11  C   UNL A   1      28.286  27.462  23.425  1.00  0.00     0.003 A 
ATOM     12  C   UNL A   1      30.491  28.426  23.292  1.00  0.00     0.008 A 
ATOM     13  C   UNL A   1      28.805  26.420  24.189  1.00  0.00     0.001 A 
ATOM     14  C   UNL A   1      30.161  26.400  24.532  1.00  0.00     0.004 A 
ENDBRANCH   7   8
BRANCH   7  15
ATOM     15  C   UNL A   1      33.315  26.062  24.083  1.00  0.00     0.133 C 
BRANCH  15  16
ATOM     16  C   UNL A   1      33.680  25.174  25.238  1.00  0.00     0.390 C 
ATOM     17  F   UNL A   1      33.257  23.910  25.061  1.00  0.00    -0.171 F 
ATOM     18  F   UNL A   1      35.032  25.123  25.352  1.00  0.00    -0.171 F 
ATOM     19  F   UNL A   1      33.214  25.635  26.413  1.00  0.00    -0.171 F 
ENDBRANCH  15  16
ENDBRANCH   7  15
ENDBRANCH   4   7
ENDBRANCH   2   3
ENDBRANCH   1   2
BRANCH   1  20
ATOM     20  C   UNL A   1      34.607  30.138  27.082  1.00  0.00     0.118 C 
BRANCH  20  21
ATOM     21  N   UNL A   1      35.377  31.239  27.661  1.00  0.00    -0.352 N 
ATOM     22  C   UNL A   1      36.633  31.180  28.244  1.00  0.00     0.251 C 
ATOM     23  H   UNL A   1      34.952  32.127  27.634  1.00  0.00     0.163 HD
ATOM     24  O   UNL A   1      37.154  32.144  28.777  1.00  0.00    -0.269 OA
BRANCH  22  25
ATOM     25  C   UNL A   1      37.339  29.887  28.142  1.00  0.00     0.039 A 
ATOM     26  C   UNL A   1      37.398  29.094  29.289  1.00  0.00     0.014 A 
ATOM     27  C   UNL A   1      38.214  29.697  27.076  1.00  0.00     0.014 A 
ATOM     28  C   UNL A   1      38.481  28.238  29.462  1.00  0.00     0.010 A 
ATOM     29  C   UNL A   1      39.338  28.926  27.298  1.00  0.00     0.010 A 
ATOM     30  C   UNL A   1      39.503  28.241  28.514  1.00  0.00    -0.014 A 
BRANCH  30  31
ATOM     31  C   UNL A   1      40.827  27.671  28.756  1.00  0.00     0.031 A 
ATOM     32  C   UNL A   1      41.072  26.230  28.498  1.00  0.00     0.074 A 
ATOM     33  C   UNL A   1      41.862  28.455  29.145  1.00  0.00     0.049 A 
ATOM     34  N   UNL A   1      42.134  25.599  28.876  1.00  0.00    -0.248 NA
ATOM     35  C   UNL A   1      40.091  25.346  27.864  1.00  0.00     0.031 C 
ATOM     36  C   UNL A   1      43.286  28.143  29.039  1.00  0.00     0.029 A 
ATOM     37  N   UNL A   1      41.830  29.614  29.919  1.00  0.00    -0.354 N 
ATOM     38  C   UNL A   1      42.120  24.363  28.279  1.00  0.00     0.074 A 
ATOM     39  C   UNL A   1      40.781  24.205  27.777  1.00  0.00     0.031 C 
ATOM     40  C   UNL A   1      43.975  28.923  29.882  1.00  0.00     0.029 A 
ATOM     41  C   UNL A   1      43.014  29.666  30.676  1.00  0.00     0.049 A 
ATOM     42  H   UNL A   1      41.106  30.282  29.933  1.00  0.00     0.167 HD
ATOM     43  C   UNL A   1      43.289  23.679  28.158  1.00  0.00     0.037 A 
ATOM     44  C   UNL A   1      42.997  29.681  32.042  1.00  0.00     0.037 A 
ATOM     45  C   UNL A   1      44.305  24.213  29.063  1.00  0.00     0.049 A 
ATOM     46  C   UNL A   1      43.656  28.486  32.695  1.00  0.00     0.074 A 
ATOM     47  C   UNL A   1      45.467  24.941  28.891  1.00  0.00     0.029 A 
ATOM     48  N   UNL A   1      44.047  24.203  30.433  1.00  0.00    -0.354 N 
ATOM     49  N   UNL A   1      44.046  27.420  32.051  1.00  0.00    -0.248 NA
ATOM     50  C   UNL A   1      43.896  28.378  34.133  1.00  0.00     0.031 C 
ATOM     51  C   UNL A   1      45.839  25.469  30.160  1.00  0.00     0.029 A 
ATOM     52  C   UNL A   1      44.936  25.015  31.107  1.00  0.00     0.049 A 
ATOM     53  H   UNL A   1      43.326  23.688  30.862  1.00  0.00     0.167 HD
ATOM     54  C   UNL A   1      44.478  26.473  32.941  1.00  0.00     0.074 A 
ATOM     55  C   UNL A   1      44.419  27.143  34.228  1.00  0.00     0.031 C 
ATOM     56  C   UNL A   1      44.811  25.206  32.549  1.00  0.00     0.037 A 
BRANCH  43  57
ATOM     57  C   UNL A   1      43.569  22.641  27.088  1.00  0.00     0.058 A 
ATOM     58  C   UNL A   1      42.880  21.407  27.090  1.00  0.00     0.135 A 
ATOM     59  C   UNL A   1      44.606  22.731  26.131  1.00  0.00     0.135 A 
ATOM     60  F   UNL A   1      41.890  21.172  27.964  1.00  0.00    -0.206 F 
ATOM     61  C   UNL A   1      43.203  20.352  26.226  1.00  0.00     0.059 A 
ATOM     62  C   UNL A   1      44.909  21.713  25.225  1.00  0.00     0.059 A 
ATOM     63  F   UNL A   1      45.438  23.777  26.070  1.00  0.00    -0.206 F 
ATOM     64  C   UNL A   1      44.223  20.514  25.297  1.00  0.00     0.060 A 
BRANCH  64  65
ATOM     65  S   UNL A   1      44.681  19.149  24.211  1.00  0.00     0.124 S 
ATOM     66  O   UNL A   1      46.084  18.948  24.559  1.00  0.00    -0.237 OA
ATOM     67  O   UNL A   1      43.763  18.094  24.624  1.00  0.00    -0.237 OA
ATOM     68  O   UNL A   1      44.443  19.687  22.874  1.00  0.00    -0.744 OA
ENDBRANCH  64  65
ENDBRANCH  43  57
BRANCH  44  69
ATOM     69  C   UNL A   1      41.868  30.464  32.606  1.00  0.00     0.058 A 
ATOM     70  C   UNL A   1      40.766  29.735  33.090  1.00  0.00     0.135 A 
ATOM     71  C   UNL A   1      42.063  31.761  33.102  1.00  0.00     0.135 A 
ATOM     72  F   UNL A   1      40.519  28.502  32.618  1.00  0.00    -0.206 F 
ATOM     73  C   UNL A   1      40.016  30.186  34.168  1.00  0.00     0.059 A 
ATOM     74  C   UNL A   1      41.316  32.237  34.180  1.00  0.00     0.059 A 
ATOM     75  F   UNL A   1      43.092  32.504  32.666  1.00  0.00    -0.206 F 
ATOM     76  C   UNL A   1      40.358  31.401  34.757  1.00  0.00     0.060 A 
BRANCH  76  77
ATOM     77  S   UNL A   1      39.704  31.743  36.407  1.00  0.00     0.124 S 
ATOM     78  O   UNL A   1      40.900  31.654  37.237  1.00  0.00    -0.237 OA
ATOM     79  O   UNL A   1      39.156  33.087  36.223  1.00  0.00    -0.237 OA
ATOM     80  O   UNL A   1      38.718  30.686  36.602  1.00  0.00    -0.744 OA
ENDBRANCH  76  77
ENDBRANCH  44  69
BRANCH  56  81
ATOM     81  C   UNL A   1      45.093  24.041  33.475  1.00  0.00     0.058 A 
ATOM     82  C   UNL A   1      44.169  23.023  33.775  1.00  0.00     0.135 A 
ATOM     83  C   UNL A   1      46.394  23.851  34.000  1.00  0.00     0.135 A 
ATOM     84  F   UNL A   1      42.940  23.015  33.240  1.00  0.00    -0.206 F 
ATOM     85  C   UNL A   1      44.486  21.940  34.602  1.00  0.00     0.059 A 
ATOM     86  C   UNL A   1      46.747  22.750  34.779  1.00  0.00     0.059 A 
ATOM     87  F   UNL A   1      47.377  24.732  33.762  1.00  0.00    -0.206 F 
ATOM     88  C   UNL A   1      45.776  21.813  35.103  1.00  0.00     0.060 A 
BRANCH  88  89
ATOM     89  S   UNL A   1      46.215  20.397  36.130  1.00  0.00     0.124 S 
ATOM     90  O   UNL A   1      45.516  19.314  35.448  1.00  0.00    -0.237 OA
ATOM     91  O   UNL A   1      47.672  20.362  36.038  1.00  0.00    -0.237 OA
ATOM     92  O   UNL A   1      45.689  20.766  37.440  1.00  0.00    -0.744 OA
ENDBRANCH  88  89
ENDBRANCH  56  81
ENDBRANCH  30  31
ENDBRANCH  22  25
ENDBRANCH  20  21
ENDBRANCH   1  20
TORSDOF 16
ENDMDL
MODEL 2
REMARK VINA RESULT:     -12.8      1.636      2.589
REMARK SMILES Cc1cccc([C@@H](CC(F)(F)F)C(=O)NCCCNC(=O)c2ccc(-c3c4nc(c(-c5c(F)cc(S(=O)(=O)[O-])cc5F)c5ccc([nH]5)c(-c5c(F)cc(S(=O)(=O)[O-])cc5F)c5nc(c(-c6c(F)cc(S(=O)(=O)[O-])cc6F)c6ccc3[nH]6)C=C5)C=C4)cc2)c1
REMARK SMILES IDX 17 1 16 2 15 3 13 4 14 5 7 7 6 8 1 9 2 10 3 11 88 12 4 13
REMARK SMILES IDX 5 14 8 15 9 16 10 17 11 18 12 19 18 20 19 21 20 22 21 24
REMARK SMILES IDX 22 25 23 26 87 27 24 28 86 29 25 30 26 31 27 32 80 33 28 34
REMARK SMILES IDX 85 35 79 36 81 37 29 38 84 39 78 40 77 41 30 43 64 44 43 45
REMARK SMILES IDX 63 46 44 47 47 48 62 49 82 50 45 51 46 52 61 54 83 55 48 56
REMARK SMILES IDX 31 57 32 58 41 59 33 60 34 61 40 62 42 63 35 64 36 65 37 66
REMARK SMILES IDX 38 67 39 68 65 69 66 70 75 71 67 72 68 73 74 74 76 75 69 76
REMARK SMILES IDX 70 77 71 78 72 79 73 80 49 81 50 82 59 83 51 84 52 85 58 86
REMARK SMILES IDX 60 87 53 88 54 89 55 90 56 91 57 92
REMARK H PARENT 15 6 19 23 81 42 47 53
REMARK Flexibility Score: inf
ROOT
ATOM      1  C   UNL A   1      32.162  30.605  26.499  1.00  0.00     0.042 C 
ENDROOT
BRANCH   1   2
ATOM      2  C   UNL A   1      31.907  29.614  25.375  1.00  0.00     0.117 C 
BRANCH   2   3
ATOM      3  N   UNL A   1      33.001  29.564  24.416  1.00  0.00    -0.356 N 
ATOM      4  C   UNL A   1      33.286  28.777  23.353  1.00  0.00     0.227 C 
ATOM      5  O   UNL A   1      34.324  29.059  22.736  1.00  0.00    -0.274 OA
ATOM      6  H   UNL A   1      33.684  30.255  24.577  1.00  0.00     0.163 HD
BRANCH   4   7
ATOM      7  C   UNL A   1      32.432  27.610  22.840  1.00  0.00     0.117 C 
BRANCH   7   8
ATOM      8  C   UNL A   1      33.028  26.212  22.979  1.00  0.00    -0.035 A 
ATOM      9  C   UNL A   1      35.084  24.300  25.596  1.00  0.00     0.044 C 
ATOM     10  C   UNL A   1      34.301  24.613  24.355  1.00  0.00    -0.051 A 
ATOM     11  C   UNL A   1      34.120  23.634  23.379  1.00  0.00     0.003 A 
ATOM     12  C   UNL A   1      33.727  25.879  24.162  1.00  0.00     0.008 A 
ATOM     13  C   UNL A   1      33.444  23.944  22.202  1.00  0.00     0.001 A 
ATOM     14  C   UNL A   1      32.939  25.231  21.991  1.00  0.00     0.004 A 
ENDBRANCH   7   8
BRANCH   7  15
ATOM     15  C   UNL A   1      30.906  27.756  22.915  1.00  0.00     0.133 C 
BRANCH  15  16
ATOM     16  C   UNL A   1      30.105  26.818  23.772  1.00  0.00     0.390 C 
ATOM     17  F   UNL A   1      30.553  26.780  25.039  1.00  0.00    -0.171 F 
ATOM     18  F   UNL A   1      28.819  27.249  23.823  1.00  0.00    -0.171 F 
ATOM     19  F   UNL A   1      30.071  25.567  23.277  1.00  0.00    -0.171 F 
ENDBRANCH  15  16
ENDBRANCH   7  15
ENDBRANCH   4   7
ENDBRANCH   2   3
ENDBRANCH   1   2
BRANCH   1  20
ATOM     20  C   UNL A   1      33.414  30.294  27.304  1.00  0.00     0.118 C 
BRANCH  20  21
ATOM     21  N   UNL A   1      33.985  31.483  27.937  1.00  0.00    -0.352 N 
ATOM     22  C   UNL A   1      35.170  31.575  28.652  1.00  0.00     0.251 C 
ATOM     23  H   UNL A   1      33.467  32.315  27.846  1.00  0.00     0.163 HD
ATOM     24  O   UNL A   1      35.515  32.599  29.216  1.00  0.00    -0.269 OA
BRANCH  22  25
ATOM     25  C   UNL A   1      36.025  30.373  28.653  1.00  0.00     0.039 A 
ATOM     26  C   UNL A   1      36.241  29.738  29.879  1.00  0.00     0.014 A 
ATOM     27  C   UNL A   1      36.863  30.159  27.563  1.00  0.00     0.014 A 
ATOM     28  C   UNL A   1      37.430  29.045  30.078  1.00  0.00     0.010 A 
ATOM     29  C   UNL A   1      38.085  29.560  27.798  1.00  0.00     0.010 A 
ATOM     30  C   UNL A   1      38.396  29.053  29.072  1.00  0.00    -0.014 A 
BRANCH  30  31
ATOM     31  C   UNL A   1      39.791  28.678  29.292  1.00  0.00     0.031 A 
ATOM     32  C   UNL A   1      40.252  27.307  28.954  1.00  0.00     0.074 A 
ATOM     33  C   UNL A   1      40.695  29.586  29.732  1.00  0.00     0.049 A 
ATOM     34  N   UNL A   1      41.397  26.825  29.304  1.00  0.00    -0.248 NA
ATOM     35  C   UNL A   1      39.416  26.322  28.265  1.00  0.00     0.031 C 
ATOM     36  C   UNL A   1      42.150  29.501  29.619  1.00  0.00     0.029 A 
ATOM     37  N   UNL A   1      40.488  30.682  30.569  1.00  0.00    -0.354 N 
ATOM     38  C   UNL A   1      41.571  25.637  28.640  1.00  0.00     0.074 A 
ATOM     39  C   UNL A   1      40.271  25.305  28.120  1.00  0.00     0.031 C 
ATOM     40  C   UNL A   1      42.713  30.328  30.510  1.00  0.00     0.029 A 
ATOM     41  C   UNL A   1      41.652  30.870  31.337  1.00  0.00     0.049 A 
ATOM     42  H   UNL A   1      39.671  31.230  30.614  1.00  0.00     0.167 HD
ATOM     43  C   UNL A   1      42.830  25.146  28.489  1.00  0.00     0.037 A 
ATOM     44  C   UNL A   1      41.634  30.805  32.701  1.00  0.00     0.037 A 
ATOM     45  C   UNL A   1      43.755  25.776  29.431  1.00  0.00     0.049 A 
ATOM     46  C   UNL A   1      42.468  29.689  33.291  1.00  0.00     0.074 A 
ATOM     47  C   UNL A   1      44.792  26.681  29.308  1.00  0.00     0.029 A 
ATOM     48  N   UNL A   1      43.502  25.650  30.796  1.00  0.00    -0.354 N 
ATOM     49  N   UNL A   1      43.014  28.732  32.591  1.00  0.00    -0.248 NA
ATOM     50  C   UNL A   1      42.723  29.538  34.722  1.00  0.00     0.031 C 
ATOM     51  C   UNL A   1      45.081  27.186  30.607  1.00  0.00     0.029 A 
ATOM     52  C   UNL A   1      44.258  26.548  31.521  1.00  0.00     0.049 A 
ATOM     53  H   UNL A   1      42.868  25.007  31.190  1.00  0.00     0.167 HD
ATOM     54  C   UNL A   1      43.586  27.813  33.430  1.00  0.00     0.074 A 
ATOM     55  C   UNL A   1      43.427  28.393  34.752  1.00  0.00     0.031 C 
ATOM     56  C   UNL A   1      44.107  26.636  32.970  1.00  0.00     0.037 A 
BRANCH  43  57
ATOM     57  C   UNL A   1      43.264  24.224  27.365  1.00  0.00     0.058 A 
ATOM     58  C   UNL A   1      43.003  22.837  27.436  1.00  0.00     0.135 A 
ATOM     59  C   UNL A   1      44.071  24.614  26.271  1.00  0.00     0.135 A 
ATOM     60  F   UNL A   1      42.272  22.324  28.437  1.00  0.00    -0.206 F 
ATOM     61  C   UNL A   1      43.511  21.918  26.509  1.00  0.00     0.059 A 
ATOM     62  C   UNL A   1      44.543  23.722  25.306  1.00  0.00     0.059 A 
ATOM     63  F   UNL A   1      44.516  25.866  26.117  1.00  0.00    -0.206 F 
ATOM     64  C   UNL A   1      44.285  22.371  25.447  1.00  0.00     0.060 A 
BRANCH  64  65
ATOM     65  S   UNL A   1      44.985  21.194  24.273  1.00  0.00     0.124 S 
ATOM     66  O   UNL A   1      46.403  21.240  24.614  1.00  0.00    -0.237 OA
ATOM     67  O   UNL A   1      44.286  19.958  24.608  1.00  0.00    -0.237 OA
ATOM     68  O   UNL A   1      44.639  21.767  22.974  1.00  0.00    -0.744 OA
ENDBRANCH  64  65
ENDBRANCH  43  57
BRANCH  44  69
ATOM     69  C   UNL A   1      40.399  31.375  33.299  1.00  0.00     0.058 A 
ATOM     70  C   UNL A   1      39.395  30.464  33.675  1.00  0.00     0.135 A 
ATOM     71  C   UNL A   1      40.410  32.630  33.923  1.00  0.00     0.135 A 
ATOM     72  F   UNL A   1      39.324  29.261  33.081  1.00  0.00    -0.206 F 
ATOM     73  C   UNL A   1      38.570  30.704  34.767  1.00  0.00     0.059 A 
ATOM     74  C   UNL A   1      39.585  32.896  35.016  1.00  0.00     0.059 A 
ATOM     75  F   UNL A   1      41.339  33.540  33.593  1.00  0.00    -0.206 F 
ATOM     76  C   UNL A   1      38.735  31.890  35.479  1.00  0.00     0.060 A 
BRANCH  76  77
ATOM     77  S   UNL A   1      38.009  31.979  37.132  1.00  0.00     0.124 S 
ATOM     78  O   UNL A   1      36.933  32.945  36.944  1.00  0.00    -0.237 OA
ATOM     79  O   UNL A   1      37.589  30.592  37.333  1.00  0.00    -0.237 OA
ATOM     80  O   UNL A   1      39.121  32.423  37.963  1.00  0.00    -0.744 OA
ENDBRANCH  76  77
ENDBRANCH  44  69
BRANCH  56  81
ATOM     81  C   UNL A   1      44.563  25.477  33.831  1.00  0.00     0.058 A 
ATOM     82  C   UNL A   1      43.704  24.672  34.602  1.00  0.00     0.135 A 
ATOM     83  C   UNL A   1      45.916  25.057  33.798  1.00  0.00     0.135 A 
ATOM     84  F   UNL A   1      42.380  24.883  34.620  1.00  0.00    -0.206 F 
ATOM     85  C   UNL A   1      44.163  23.582  35.349  1.00  0.00     0.059 A 
ATOM     86  C   UNL A   1      46.383  23.941  34.489  1.00  0.00     0.059 A 
ATOM     87  F   UNL A   1      46.833  25.719  33.076  1.00  0.00    -0.206 F 
ATOM     88  C   UNL A   1      45.505  23.226  35.291  1.00  0.00     0.060 A 
BRANCH  88  89
ATOM     89  S   UNL A   1      46.104  21.794  36.209  1.00  0.00     0.124 S 
ATOM     90  O   UNL A   1      45.338  20.714  35.598  1.00  0.00    -0.237 OA
ATOM     91  O   UNL A   1      47.536  21.792  35.919  1.00  0.00    -0.237 OA
ATOM     92  O   UNL A   1      45.755  22.119  37.588  1.00  0.00    -0.744 OA
ENDBRANCH  88  89
ENDBRANCH  56  81
ENDBRANCH  30  31
ENDBRANCH  22  25
ENDBRANCH  20  21
ENDBRANCH   1  20
TORSDOF 16
ENDMDL
MODEL 3
REMARK VINA RESULT:     -12.7      1.744      2.728
REMARK SMILES Cc1cccc([C@@H](CC(F)(F)F)C(=O)NCCCNC(=O)c2ccc(-c3c4nc(c(-c5c(F)cc(S(=O)(=O)[O-])cc5F)c5ccc([nH]5)c(-c5c(F)cc(S(=O)(=O)[O-])cc5F)c5nc(c(-c6c(F)cc(S(=O)(=O)[O-])cc6F)c6ccc3[nH]6)C=C5)C=C4)cc2)c1
REMARK SMILES IDX 17 1 16 2 15 3 13 4 14 5 7 7 6 8 1 9 2 10 3 11 88 12 4 13
REMARK SMILES IDX 5 14 8 15 9 16 10 17 11 18 12 19 18 20 19 21 20 22 21 24
REMARK SMILES IDX 22 25 23 26 87 27 24 28 86 29 25 30 26 31 27 32 80 33 28 34
REMARK SMILES IDX 85 35 79 36 81 37 29 38 84 39 78 40 77 41 30 43 64 44 43 45
REMARK SMILES IDX 63 46 44 47 47 48 62 49 82 50 45 51 46 52 61 54 83 55 48 56
REMARK SMILES IDX 31 57 32 58 41 59 33 60 34 61 40 62 42 63 35 64 36 65 37 66
REMARK SMILES IDX 38 67 39 68 65 69 66 70 75 71 67 72 68 73 74 74 76 75 69 76
REMARK SMILES IDX 70 77 71 78 72 79 73 80 49 81 50 82 59 83 51 84 52 85 58 86
REMARK SMILES IDX 60 87 53 88 54 89 55 90 56 91 57 92
REMARK H PARENT 15 6 19 23 81 42 47 53
REMARK Flexibility Score: inf
ROOT
ATOM      1  C   UNL A   1      33.681  30.038  26.451  1.00  0.00     0.042 C 
ENDROOT
BRANCH   1   2
ATOM      2  C   UNL A   1      32.181  30.083  26.694  1.00  0.00     0.117 C 
BRANCH   2   3
ATOM      3  N   UNL A   1      31.644  28.795  27.106  1.00  0.00    -0.356 N 
ATOM      4  C   UNL A   1      31.429  27.618  26.472  1.00  0.00     0.227 C 
ATOM      5  O   UNL A   1      30.971  26.704  27.173  1.00  0.00    -0.274 OA
ATOM      6  H   UNL A   1      31.379  28.774  28.054  1.00  0.00     0.163 HD
BRANCH   4   7
ATOM      7  C   UNL A   1      31.729  27.320  24.997  1.00  0.00     0.117 C 
BRANCH   7   8
ATOM      8  C   UNL A   1      32.745  26.217  24.715  1.00  0.00    -0.035 A 
ATOM      9  C   UNL A   1      33.252  23.502  22.051  1.00  0.00     0.044 C 
ATOM     10  C   UNL A   1      33.477  24.378  23.247  1.00  0.00    -0.051 A 
ATOM     11  C   UNL A   1      34.597  24.185  24.054  1.00  0.00     0.003 A 
ATOM     12  C   UNL A   1      32.581  25.411  23.566  1.00  0.00     0.008 A 
ATOM     13  C   UNL A   1      34.773  24.960  25.197  1.00  0.00     0.001 A 
ATOM     14  C   UNL A   1      33.834  25.938  25.542  1.00  0.00     0.004 A 
ENDBRANCH   7   8
BRANCH   7  15
ATOM     15  C   UNL A   1      30.601  27.542  23.981  1.00  0.00     0.133 C 
BRANCH  15  16
ATOM     16  C   UNL A   1      30.511  28.842  23.234  1.00  0.00     0.390 C 
ATOM     17  F   UNL A   1      30.492  29.902  24.060  1.00  0.00    -0.171 F 
ATOM     18  F   UNL A   1      31.606  28.980  22.444  1.00  0.00    -0.171 F 
ATOM     19  F   UNL A   1      29.442  28.897  22.419  1.00  0.00    -0.171 F 
ENDBRANCH  15  16
ENDBRANCH   7  15
ENDBRANCH   4   7
ENDBRANCH   2   3
ENDBRANCH   1   2
BRANCH   1  20
ATOM     20  C   UNL A   1      34.492  29.859  27.725  1.00  0.00     0.118 C 
BRANCH  20  21
ATOM     21  N   UNL A   1      35.308  31.032  28.042  1.00  0.00    -0.352 N 
ATOM     22  C   UNL A   1      36.640  31.058  28.425  1.00  0.00     0.251 C 
ATOM     23  H   UNL A   1      34.858  31.905  27.976  1.00  0.00     0.163 HD
ATOM     24  O   UNL A   1      37.207  32.086  28.752  1.00  0.00    -0.269 OA
BRANCH  22  25
ATOM     25  C   UNL A   1      37.360  29.771  28.369  1.00  0.00     0.039 A 
ATOM     26  C   UNL A   1      37.455  29.035  29.552  1.00  0.00     0.014 A 
ATOM     27  C   UNL A   1      38.214  29.540  27.294  1.00  0.00     0.014 A 
ATOM     28  C   UNL A   1      38.553  28.202  29.740  1.00  0.00     0.010 A 
ATOM     29  C   UNL A   1      39.353  28.795  27.527  1.00  0.00     0.010 A 
ATOM     30  C   UNL A   1      39.554  28.172  28.770  1.00  0.00    -0.014 A 
BRANCH  30  31
ATOM     31  C   UNL A   1      40.891  27.630  29.009  1.00  0.00     0.031 A 
ATOM     32  C   UNL A   1      41.186  26.212  28.680  1.00  0.00     0.074 A 
ATOM     33  C   UNL A   1      41.892  28.423  29.460  1.00  0.00     0.049 A 
ATOM     34  N   UNL A   1      42.259  25.595  29.046  1.00  0.00    -0.248 NA
ATOM     35  C   UNL A   1      40.245  25.334  27.981  1.00  0.00     0.031 C 
ATOM     36  C   UNL A   1      43.327  28.161  29.367  1.00  0.00     0.029 A 
ATOM     37  N   UNL A   1      41.809  29.538  30.293  1.00  0.00    -0.354 N 
ATOM     38  C   UNL A   1      42.296  24.393  28.385  1.00  0.00     0.074 A 
ATOM     39  C   UNL A   1      40.972  24.221  27.848  1.00  0.00     0.031 C 
ATOM     40  C   UNL A   1      43.975  28.915  30.264  1.00  0.00     0.029 A 
ATOM     41  C   UNL A   1      42.977  29.585  31.076  1.00  0.00     0.049 A 
ATOM     42  H   UNL A   1      41.064  30.181  30.327  1.00  0.00     0.167 HD
ATOM     43  C   UNL A   1      43.488  23.752  28.252  1.00  0.00     0.037 A 
ATOM     44  C   UNL A   1      42.934  29.527  32.440  1.00  0.00     0.037 A 
ATOM     45  C   UNL A   1      44.469  24.267  29.205  1.00  0.00     0.049 A 
ATOM     46  C   UNL A   1      43.618  28.319  33.043  1.00  0.00     0.074 A 
ATOM     47  C   UNL A   1      45.611  25.039  29.095  1.00  0.00     0.029 A 
ATOM     48  N   UNL A   1      44.185  24.177  30.567  1.00  0.00    -0.354 N 
ATOM     49  N   UNL A   1      44.052  27.301  32.351  1.00  0.00    -0.248 NA
ATOM     50  C   UNL A   1      43.833  28.143  34.478  1.00  0.00     0.031 C 
ATOM     51  C   UNL A   1      45.942  25.510  30.397  1.00  0.00     0.029 A 
ATOM     52  C   UNL A   1      45.036  24.979  31.301  1.00  0.00     0.049 A 
ATOM     53  H   UNL A   1      43.473  23.618  30.953  1.00  0.00     0.167 HD
ATOM     54  C   UNL A   1      44.498  26.322  33.200  1.00  0.00     0.074 A 
ATOM     55  C   UNL A   1      44.393  26.921  34.518  1.00  0.00     0.031 C 
ATOM     56  C   UNL A   1      44.877  25.088  32.747  1.00  0.00     0.037 A 
BRANCH  43  57
ATOM     57  C   UNL A   1      43.821  22.781  27.135  1.00  0.00     0.058 A 
ATOM     58  C   UNL A   1      43.094  21.577  26.993  1.00  0.00     0.135 A 
ATOM     59  C   UNL A   1      44.935  22.899  26.272  1.00  0.00     0.135 A 
ATOM     60  F   UNL A   1      42.029  21.320  27.767  1.00  0.00    -0.206 F 
ATOM     61  C   UNL A   1      43.452  20.574  26.083  1.00  0.00     0.059 A 
ATOM     62  C   UNL A   1      45.277  21.937  25.321  1.00  0.00     0.059 A 
ATOM     63  F   UNL A   1      45.801  23.915  26.353  1.00  0.00    -0.206 F 
ATOM     64  C   UNL A   1      44.550  20.762  25.251  1.00  0.00     0.060 A 
BRANCH  64  65
ATOM     65  S   UNL A   1      45.051  19.460  24.108  1.00  0.00     0.124 S 
ATOM     66  O   UNL A   1      44.499  19.942  22.846  1.00  0.00    -0.237 OA
ATOM     67  O   UNL A   1      46.505  19.483  24.219  1.00  0.00    -0.237 OA
ATOM     68  O   UNL A   1      44.408  18.267  24.653  1.00  0.00    -0.744 OA
ENDBRANCH  64  65
ENDBRANCH  43  57
BRANCH  44  69
ATOM     69  C   UNL A   1      41.770  30.244  33.021  1.00  0.00     0.058 A 
ATOM     70  C   UNL A   1      41.927  31.622  33.262  1.00  0.00     0.135 A 
ATOM     71  C   UNL A   1      40.466  29.752  32.869  1.00  0.00     0.135 A 
ATOM     72  F   UNL A   1      43.155  32.134  33.448  1.00  0.00    -0.206 F 
ATOM     73  C   UNL A   1      40.860  32.504  33.148  1.00  0.00     0.059 A 
ATOM     74  C   UNL A   1      39.379  30.619  32.759  1.00  0.00     0.059 A 
ATOM     75  F   UNL A   1      40.259  28.445  32.648  1.00  0.00    -0.206 F 
ATOM     76  C   UNL A   1      39.608  31.995  32.812  1.00  0.00     0.060 A 
BRANCH  76  77
ATOM     77  S   UNL A   1      38.365  33.164  32.213  1.00  0.00     0.124 S 
ATOM     78  O   UNL A   1      38.401  34.203  33.236  1.00  0.00    -0.237 OA
ATOM     79  O   UNL A   1      38.925  33.532  30.913  1.00  0.00    -0.237 OA
ATOM     80  O   UNL A   1      37.147  32.364  32.166  1.00  0.00    -0.744 OA
ENDBRANCH  76  77
ENDBRANCH  44  69
BRANCH  56  81
ATOM     81  C   UNL A   1      45.178  23.885  33.617  1.00  0.00     0.058 A 
ATOM     82  C   UNL A   1      44.232  22.906  33.974  1.00  0.00     0.135 A 
ATOM     83  C   UNL A   1      46.509  23.615  34.019  1.00  0.00     0.135 A 
ATOM     84  F   UNL A   1      42.962  22.976  33.551  1.00  0.00    -0.206 F 
ATOM     85  C   UNL A   1      44.563  21.786  34.743  1.00  0.00     0.059 A 
ATOM     86  C   UNL A   1      46.870  22.476  34.736  1.00  0.00     0.059 A 
ATOM     87  F   UNL A   1      47.512  24.452  33.715  1.00  0.00    -0.206 F 
ATOM     88  C   UNL A   1      45.884  21.580  35.124  1.00  0.00     0.060 A 
BRANCH  88  89
ATOM     89  S   UNL A   1      46.337  20.115  36.073  1.00  0.00     0.124 S 
ATOM     90  O   UNL A   1      47.790  20.239  36.125  1.00  0.00    -0.237 OA
ATOM     91  O   UNL A   1      45.644  20.317  37.342  1.00  0.00    -0.237 OA
ATOM     92  O   UNL A   1      45.823  19.022  35.256  1.00  0.00    -0.744 OA
ENDBRANCH  88  89
ENDBRANCH  56  81
ENDBRANCH  30  31
ENDBRANCH  22  25
ENDBRANCH  20  21
ENDBRANCH   1  20
TORSDOF 16
ENDMDL
