MODEL 1
REMARK VINA RESULT:     -10.6      0.000      0.000
REMARK SMILES CC1=C(C)C(=O)N(C[C@H](CC(C)C)C(=O)NCCCNC(=O)c2ccc(-c3c4nc(c(-c5c(F)cc(S(=O)(=O)[O-])cc5F)c5ccc([nH]5)c(-c5c(F)cc(S(=O)(=O)[O-])cc5F)c5nc(c(-c6c(F)cc(S(=O)(=O)[O-])cc6F)c6ccc3[nH]6)C=C5)C=C4)cc2)C1=O
REMARK SMILES IDX 18 1 17 2 16 3 14 4 15 5 9 7 8 8 7 9 1 10 2 11 3 12 89 13
REMARK SMILES IDX 4 14 5 15 90 16 6 17 10 18 11 19 12 20 13 21 19 22 20 23
REMARK SMILES IDX 21 24 22 26 23 27 24 28 88 29 25 30 87 31 26 32 27 33 28 34
REMARK SMILES IDX 81 35 29 36 86 37 80 38 82 39 30 40 85 41 79 42 78 43 31 45
REMARK SMILES IDX 65 46 44 47 64 48 45 49 48 50 63 51 83 52 46 53 47 54 62 56
REMARK SMILES IDX 84 57 49 58 32 59 33 60 42 61 34 62 35 63 41 64 43 65 36 66
REMARK SMILES IDX 37 67 38 68 39 69 40 70 66 71 67 72 76 73 68 74 69 75 75 76
REMARK SMILES IDX 77 77 70 78 71 79 72 80 73 81 74 82 50 83 51 84 60 85 52 86
REMARK SMILES IDX 53 87 59 88 61 89 54 90 55 91 56 92 57 93 58 94
REMARK H PARENT 16 6 20 25 82 44 48 55
REMARK Flexibility Score: inf
ROOT
ATOM      1  C   UNL A   1      33.896  28.045  25.480  1.00  0.00     0.042 C 
ENDROOT
BRANCH   1   2
ATOM      2  C   UNL A   1      32.669  27.729  24.634  1.00  0.00     0.117 C 
BRANCH   2   3
ATOM      3  N   UNL A   1      33.014  27.511  23.242  1.00  0.00    -0.356 N 
ATOM      4  C   UNL A   1      33.391  26.392  22.574  1.00  0.00     0.224 C 
ATOM      5  O   UNL A   1      33.639  26.511  21.372  1.00  0.00    -0.275 OA
ATOM      6  H   UNL A   1      32.966  28.319  22.682  1.00  0.00     0.163 HD
BRANCH   4   7
ATOM      7  C   UNL A   1      33.476  25.031  23.254  1.00  0.00     0.099 C 
BRANCH   7   8
ATOM      8  C   UNL A   1      34.881  24.895  23.886  1.00  0.00     0.142 C 
BRANCH   8   9
ATOM      9  N   UNL A   1      35.028  23.640  24.599  1.00  0.00    -0.274 N 
ATOM     10  C   UNL A   1      34.112  21.324  27.290  1.00  0.00     0.051 C 
ATOM     11  C   UNL A   1      34.746  21.983  26.127  1.00  0.00     0.023 C 
ATOM     12  C   UNL A   1      35.586  21.519  25.196  1.00  0.00     0.023 C 
ATOM     13  C   UNL A   1      34.439  23.380  25.792  1.00  0.00     0.256 C 
ATOM     14  C   UNL A   1      36.208  20.183  25.062  1.00  0.00     0.051 C 
ATOM     15  C   UNL A   1      35.803  22.598  24.213  1.00  0.00     0.256 C 
ATOM     16  O   UNL A   1      33.779  24.125  26.492  1.00  0.00    -0.269 OA
ATOM     17  O   UNL A   1      36.547  22.521  23.253  1.00  0.00    -0.269 OA
ENDBRANCH   8   9
ENDBRANCH   7   8
BRANCH   7  18
ATOM     18  C   UNL A   1      33.106  23.836  22.355  1.00  0.00     0.018 C 
BRANCH  18  19
ATOM     19  C   UNL A   1      31.939  22.950  22.851  1.00  0.00    -0.017 C 
ATOM     20  C   UNL A   1      32.348  21.540  23.275  1.00  0.00     0.007 C 
ATOM     21  C   UNL A   1      31.241  23.641  24.028  1.00  0.00     0.007 C 
ENDBRANCH  18  19
ENDBRANCH   7  18
ENDBRANCH   4   7
ENDBRANCH   2   3
ENDBRANCH   1   2
BRANCH   1  22
ATOM     22  C   UNL A   1      33.583  28.260  26.955  1.00  0.00     0.118 C 
BRANCH  22  23
ATOM     23  N   UNL A   1      33.469  29.670  27.299  1.00  0.00    -0.352 N 
ATOM     24  C   UNL A   1      34.343  30.489  27.969  1.00  0.00     0.251 C 
ATOM     25  H   UNL A   1      32.635  30.104  27.005  1.00  0.00     0.163 HD
ATOM     26  O   UNL A   1      33.962  31.592  28.352  1.00  0.00    -0.269 OA
BRANCH  24  27
ATOM     27  C   UNL A   1      35.726  30.042  28.242  1.00  0.00     0.039 A 
ATOM     28  C   UNL A   1      36.672  30.107  27.216  1.00  0.00     0.014 A 
ATOM     29  C   UNL A   1      36.087  29.542  29.496  1.00  0.00     0.014 A 
ATOM     30  C   UNL A   1      37.992  29.730  27.468  1.00  0.00     0.010 A 
ATOM     31  C   UNL A   1      37.421  29.252  29.770  1.00  0.00     0.010 A 
ATOM     32  C   UNL A   1      38.386  29.336  28.757  1.00  0.00    -0.014 A 
BRANCH  32  33
ATOM     33  C   UNL A   1      39.802  29.006  29.065  1.00  0.00     0.031 A 
ATOM     34  C   UNL A   1      40.709  30.047  29.665  1.00  0.00     0.074 A 
ATOM     35  C   UNL A   1      40.285  27.789  28.745  1.00  0.00     0.049 A 
ATOM     36  N   UNL A   1      41.985  29.969  29.941  1.00  0.00    -0.248 NA
ATOM     37  C   UNL A   1      40.110  31.356  29.971  1.00  0.00     0.031 C 
ATOM     38  C   UNL A   1      39.518  26.714  28.111  1.00  0.00     0.029 A 
ATOM     39  N   UNL A   1      41.541  27.254  28.894  1.00  0.00    -0.354 N 
ATOM     40  C   UNL A   1      42.344  31.217  30.437  1.00  0.00     0.074 A 
ATOM     41  C   UNL A   1      41.164  32.051  30.373  1.00  0.00     0.031 C 
ATOM     42  C   UNL A   1      40.311  25.643  27.949  1.00  0.00     0.029 A 
ATOM     43  C   UNL A   1      41.652  25.967  28.423  1.00  0.00     0.049 A 
ATOM     44  H   UNL A   1      42.291  27.746  29.299  1.00  0.00     0.167 HD
ATOM     45  C   UNL A   1      43.541  31.623  30.924  1.00  0.00     0.037 A 
ATOM     46  C   UNL A   1      42.718  25.143  28.367  1.00  0.00     0.037 A 
ATOM     47  C   UNL A   1      44.705  30.779  31.004  1.00  0.00     0.049 A 
ATOM     48  C   UNL A   1      44.039  25.620  28.908  1.00  0.00     0.074 A 
ATOM     49  C   UNL A   1      45.947  31.077  31.535  1.00  0.00     0.029 A 
ATOM     50  N   UNL A   1      44.774  29.475  30.534  1.00  0.00    -0.354 N 
ATOM     51  N   UNL A   1      44.342  26.781  29.438  1.00  0.00    -0.248 NA
ATOM     52  C   UNL A   1      45.161  24.674  28.850  1.00  0.00     0.031 C 
ATOM     53  C   UNL A   1      46.783  29.972  31.339  1.00  0.00     0.029 A 
ATOM     54  C   UNL A   1      46.045  28.964  30.740  1.00  0.00     0.049 A 
ATOM     55  H   UNL A   1      44.029  28.986  30.116  1.00  0.00     0.167 HD
ATOM     56  C   UNL A   1      45.681  26.695  29.803  1.00  0.00     0.074 A 
ATOM     57  C   UNL A   1      46.125  25.363  29.445  1.00  0.00     0.031 C 
ATOM     58  C   UNL A   1      46.471  27.632  30.383  1.00  0.00     0.037 A 
BRANCH  45  59
ATOM     59  C   UNL A   1      43.654  33.044  31.408  1.00  0.00     0.058 A 
ATOM     60  C   UNL A   1      43.427  33.389  32.750  1.00  0.00     0.135 A 
ATOM     61  C   UNL A   1      44.034  34.071  30.527  1.00  0.00     0.135 A 
ATOM     62  F   UNL A   1      43.047  32.454  33.635  1.00  0.00    -0.206 F 
ATOM     63  C   UNL A   1      43.541  34.702  33.194  1.00  0.00     0.059 A 
ATOM     64  C   UNL A   1      44.186  35.386  30.956  1.00  0.00     0.059 A 
ATOM     65  F   UNL A   1      44.265  33.799  29.232  1.00  0.00    -0.206 F 
ATOM     66  C   UNL A   1      43.922  35.695  32.290  1.00  0.00     0.060 A 
BRANCH  66  67
ATOM     67  S   UNL A   1      44.072  37.392  32.886  1.00  0.00     0.124 S 
ATOM     68  O   UNL A   1      45.388  37.363  33.517  1.00  0.00    -0.237 OA
ATOM     69  O   UNL A   1      43.979  38.165  31.652  1.00  0.00    -0.237 OA
ATOM     70  O   UNL A   1      42.942  37.534  33.799  1.00  0.00    -0.744 OA
ENDBRANCH  66  67
ENDBRANCH  45  59
BRANCH  46  71
ATOM     71  C   UNL A   1      42.572  23.779  27.792  1.00  0.00     0.058 A 
ATOM     72  C   UNL A   1      42.620  23.569  26.405  1.00  0.00     0.135 A 
ATOM     73  C   UNL A   1      42.398  22.657  28.616  1.00  0.00     0.135 A 
ATOM     74  F   UNL A   1      42.778  24.611  25.575  1.00  0.00    -0.206 F 
ATOM     75  C   UNL A   1      42.482  22.300  25.854  1.00  0.00     0.059 A 
ATOM     76  C   UNL A   1      42.288  21.372  28.090  1.00  0.00     0.059 A 
ATOM     77  F   UNL A   1      42.364  22.799  29.950  1.00  0.00    -0.206 F 
ATOM     78  C   UNL A   1      42.321  21.206  26.707  1.00  0.00     0.060 A 
BRANCH  78  79
ATOM     79  S   UNL A   1      42.193  19.557  25.983  1.00  0.00     0.124 S 
ATOM     80  O   UNL A   1      42.674  18.717  27.075  1.00  0.00    -0.237 OA
ATOM     81  O   UNL A   1      40.768  19.463  25.685  1.00  0.00    -0.237 OA
ATOM     82  O   UNL A   1      43.066  19.635  24.814  1.00  0.00    -0.744 OA
ENDBRANCH  78  79
ENDBRANCH  46  71
BRANCH  58  83
ATOM     83  C   UNL A   1      47.888  27.243  30.705  1.00  0.00     0.058 A 
ATOM     84  C   UNL A   1      48.214  26.520  31.864  1.00  0.00     0.135 A 
ATOM     85  C   UNL A   1      48.929  27.551  29.811  1.00  0.00     0.135 A 
ATOM     86  F   UNL A   1      47.259  26.206  32.754  1.00  0.00    -0.206 F 
ATOM     87  C   UNL A   1      49.523  26.139  32.138  1.00  0.00     0.059 A 
ATOM     88  C   UNL A   1      50.240  27.152  30.050  1.00  0.00     0.059 A 
ATOM     89  F   UNL A   1      48.672  28.230  28.683  1.00  0.00    -0.206 F 
ATOM     90  C   UNL A   1      50.529  26.457  31.224  1.00  0.00     0.060 A 
BRANCH  90  91
ATOM     91  S   UNL A   1      52.218  25.926  31.576  1.00  0.00     0.124 S 
ATOM     92  O   UNL A   1      52.631  26.904  32.576  1.00  0.00    -0.237 OA
ATOM     93  O   UNL A   1      52.021  24.565  32.063  1.00  0.00    -0.237 OA
ATOM     94  O   UNL A   1      52.886  26.031  30.282  1.00  0.00    -0.744 OA
ENDBRANCH  90  91
ENDBRANCH  58  83
ENDBRANCH  32  33
ENDBRANCH  24  27
ENDBRANCH  22  23
ENDBRANCH   1  22
TORSDOF 17
ENDMDL
MODEL 2
REMARK VINA RESULT:     -10.6      1.014      2.379
REMARK SMILES CC1=C(C)C(=O)N(C[C@H](CC(C)C)C(=O)NCCCNC(=O)c2ccc(-c3c4nc(c(-c5c(F)cc(S(=O)(=O)[O-])cc5F)c5ccc([nH]5)c(-c5c(F)cc(S(=O)(=O)[O-])cc5F)c5nc(c(-c6c(F)cc(S(=O)(=O)[O-])cc6F)c6ccc3[nH]6)C=C5)C=C4)cc2)C1=O
REMARK SMILES IDX 18 1 17 2 16 3 14 4 15 5 9 7 8 8 7 9 1 10 2 11 3 12 89 13
REMARK SMILES IDX 4 14 5 15 90 16 6 17 10 18 11 19 12 20 13 21 19 22 20 23
REMARK SMILES IDX 21 24 22 26 23 27 24 28 88 29 25 30 87 31 26 32 27 33 28 34
REMARK SMILES IDX 81 35 29 36 86 37 80 38 82 39 30 40 85 41 79 42 78 43 31 45
REMARK SMILES IDX 65 46 44 47 64 48 45 49 48 50 63 51 83 52 46 53 47 54 62 56
REMARK SMILES IDX 84 57 49 58 32 59 33 60 42 61 34 62 35 63 41 64 43 65 36 66
REMARK SMILES IDX 37 67 38 68 39 69 40 70 66 71 67 72 76 73 68 74 69 75 75 76
REMARK SMILES IDX 77 77 70 78 71 79 72 80 73 81 74 82 50 83 51 84 60 85 52 86
REMARK SMILES IDX 53 87 59 88 61 89 54 90 55 91 56 92 57 93 58 94
REMARK H PARENT 16 6 20 25 82 44 48 55
REMARK Flexibility Score: inf
ROOT
ATOM      1  C   UNL A   1      33.945  28.119  25.921  1.00  0.00     0.042 C 
ENDROOT
BRANCH   1   2
ATOM      2  C   UNL A   1      33.421  29.162  24.944  1.00  0.00     0.117 C 
BRANCH   2   3
ATOM      3  N   UNL A   1      33.923  28.945  23.600  1.00  0.00    -0.356 N 
ATOM      4  C   UNL A   1      33.640  27.992  22.677  1.00  0.00     0.224 C 
ATOM      5  O   UNL A   1      34.243  28.053  21.604  1.00  0.00    -0.275 OA
ATOM      6  H   UNL A   1      34.589  29.608  23.305  1.00  0.00     0.163 HD
BRANCH   4   7
ATOM      7  C   UNL A   1      32.600  26.906  22.925  1.00  0.00     0.099 C 
BRANCH   7   8
ATOM      8  C   UNL A   1      33.251  25.536  22.624  1.00  0.00     0.142 C 
BRANCH   8   9
ATOM      9  N   UNL A   1      33.048  24.597  23.710  1.00  0.00    -0.274 N 
ATOM     10  C   UNL A   1      34.064  23.036  26.868  1.00  0.00     0.051 C 
ATOM     11  C   UNL A   1      33.365  23.406  25.618  1.00  0.00     0.023 C 
ATOM     12  C   UNL A   1      32.147  23.095  25.159  1.00  0.00     0.023 C 
ATOM     13  C   UNL A   1      33.986  24.317  24.648  1.00  0.00     0.256 C 
ATOM     14  C   UNL A   1      31.112  22.215  25.743  1.00  0.00     0.051 C 
ATOM     15  C   UNL A   1      31.942  23.838  23.902  1.00  0.00     0.256 C 
ATOM     16  O   UNL A   1      35.134  24.715  24.716  1.00  0.00    -0.269 OA
ATOM     17  O   UNL A   1      30.950  23.754  23.202  1.00  0.00    -0.269 OA
ENDBRANCH   8   9
ENDBRANCH   7   8
BRANCH   7  18
ATOM     18  C   UNL A   1      31.265  27.110  22.183  1.00  0.00     0.018 C 
BRANCH  18  19
ATOM     19  C   UNL A   1      30.057  27.514  23.061  1.00  0.00    -0.017 C 
ATOM     20  C   UNL A   1      30.121  27.010  24.502  1.00  0.00     0.007 C 
ATOM     21  C   UNL A   1      29.925  29.042  23.073  1.00  0.00     0.007 C 
ENDBRANCH  18  19
ENDBRANCH   7  18
ENDBRANCH   4   7
ENDBRANCH   2   3
ENDBRANCH   1   2
BRANCH   1  22
ATOM     22  C   UNL A   1      33.624  28.429  27.378  1.00  0.00     0.118 C 
BRANCH  22  23
ATOM     23  N   UNL A   1      33.572  29.859  27.643  1.00  0.00    -0.352 N 
ATOM     24  C   UNL A   1      34.504  30.684  28.221  1.00  0.00     0.251 C 
ATOM     25  H   UNL A   1      32.738  30.304  27.364  1.00  0.00     0.163 HD
ATOM     26  O   UNL A   1      34.178  31.820  28.555  1.00  0.00    -0.269 OA
BRANCH  24  27
ATOM     27  C   UNL A   1      35.883  30.206  28.454  1.00  0.00     0.039 A 
ATOM     28  C   UNL A   1      36.791  30.219  27.392  1.00  0.00     0.014 A 
ATOM     29  C   UNL A   1      36.278  29.727  29.706  1.00  0.00     0.014 A 
ATOM     30  C   UNL A   1      38.110  29.812  27.605  1.00  0.00     0.010 A 
ATOM     31  C   UNL A   1      37.612  29.408  29.938  1.00  0.00     0.010 A 
ATOM     32  C   UNL A   1      38.541  29.439  28.889  1.00  0.00    -0.014 A 
BRANCH  32  33
ATOM     33  C   UNL A   1      39.959  29.078  29.153  1.00  0.00     0.031 A 
ATOM     34  C   UNL A   1      40.906  30.097  29.728  1.00  0.00     0.074 A 
ATOM     35  C   UNL A   1      40.405  27.852  28.815  1.00  0.00     0.049 A 
ATOM     36  N   UNL A   1      42.187  29.991  29.965  1.00  0.00    -0.248 NA
ATOM     37  C   UNL A   1      40.345  31.418  30.055  1.00  0.00     0.031 C 
ATOM     38  C   UNL A   1      39.596  26.796  28.203  1.00  0.00     0.029 A 
ATOM     39  N   UNL A   1      41.653  27.290  28.924  1.00  0.00    -0.354 N 
ATOM     40  C   UNL A   1      42.588  31.230  30.453  1.00  0.00     0.074 A 
ATOM     41  C   UNL A   1      41.425  32.089  30.426  1.00  0.00     0.031 C 
ATOM     42  C   UNL A   1      40.360  25.708  28.014  1.00  0.00     0.029 A 
ATOM     43  C   UNL A   1      41.722  26.002  28.447  1.00  0.00     0.049 A 
ATOM     44  H   UNL A   1      42.425  27.764  29.308  1.00  0.00     0.167 HD
ATOM     45  C   UNL A   1      43.808  31.608  30.904  1.00  0.00     0.037 A 
ATOM     46  C   UNL A   1      42.767  25.156  28.357  1.00  0.00     0.037 A 
ATOM     47  C   UNL A   1      44.955  30.738  30.946  1.00  0.00     0.049 A 
ATOM     48  C   UNL A   1      44.115  25.602  28.858  1.00  0.00     0.074 A 
ATOM     49  C   UNL A   1      46.219  31.008  31.441  1.00  0.00     0.029 A 
ATOM     50  N   UNL A   1      44.981  29.435  30.471  1.00  0.00    -0.354 N 
ATOM     51  N   UNL A   1      44.458  26.755  29.382  1.00  0.00    -0.248 NA
ATOM     52  C   UNL A   1      45.213  24.632  28.764  1.00  0.00     0.031 C 
ATOM     53  C   UNL A   1      47.024  29.886  31.216  1.00  0.00     0.029 A 
ATOM     54  C   UNL A   1      46.246  28.896  30.637  1.00  0.00     0.049 A 
ATOM     55  H   UNL A   1      44.214  28.963  30.075  1.00  0.00     0.167 HD
ATOM     56  C   UNL A   1      45.806  26.639  29.706  1.00  0.00     0.074 A 
ATOM     57  C   UNL A   1      46.210  25.299  29.331  1.00  0.00     0.031 C 
ATOM     58  C   UNL A   1      46.633  27.557  30.264  1.00  0.00     0.037 A 
BRANCH  45  59
ATOM     59  C   UNL A   1      43.966  33.025  31.388  1.00  0.00     0.058 A 
ATOM     60  C   UNL A   1      44.154  34.095  30.497  1.00  0.00     0.135 A 
ATOM     61  C   UNL A   1      43.888  33.324  32.758  1.00  0.00     0.135 A 
ATOM     62  F   UNL A   1      44.251  33.868  29.178  1.00  0.00    -0.206 F 
ATOM     63  C   UNL A   1      44.291  35.403  30.949  1.00  0.00     0.059 A 
ATOM     64  C   UNL A   1      43.990  34.630  33.231  1.00  0.00     0.059 A 
ATOM     65  F   UNL A   1      43.708  32.341  33.655  1.00  0.00    -0.206 F 
ATOM     66  C   UNL A   1      44.206  35.661  32.318  1.00  0.00     0.060 A 
BRANCH  66  67
ATOM     67  S   UNL A   1      44.379  37.367  32.885  1.00  0.00     0.124 S 
ATOM     68  O   UNL A   1      43.028  37.653  33.360  1.00  0.00    -0.237 OA
ATOM     69  O   UNL A   1      45.401  37.249  33.919  1.00  0.00    -0.237 OA
ATOM     70  O   UNL A   1      44.786  38.086  31.682  1.00  0.00    -0.744 OA
ENDBRANCH  66  67
ENDBRANCH  45  59
BRANCH  46  71
ATOM     71  C   UNL A   1      42.575  23.797  27.782  1.00  0.00     0.058 A 
ATOM     72  C   UNL A   1      42.452  22.672  28.611  1.00  0.00     0.135 A 
ATOM     73  C   UNL A   1      42.495  23.597  26.396  1.00  0.00     0.135 A 
ATOM     74  F   UNL A   1      42.528  22.809  29.943  1.00  0.00    -0.206 F 
ATOM     75  C   UNL A   1      42.275  21.395  28.087  1.00  0.00     0.059 A 
ATOM     76  C   UNL A   1      42.289  22.334  25.848  1.00  0.00     0.059 A 
ATOM     77  F   UNL A   1      42.588  24.642  25.558  1.00  0.00    -0.206 F 
ATOM     78  C   UNL A   1      42.190  21.238  26.703  1.00  0.00     0.060 A 
BRANCH  78  79
ATOM     79  S   UNL A   1      41.911  19.583  26.036  1.00  0.00     0.124 S 
ATOM     80  O   UNL A   1      40.489  19.631  25.713  1.00  0.00    -0.237 OA
ATOM     81  O   UNL A   1      42.824  19.553  24.899  1.00  0.00    -0.237 OA
ATOM     82  O   UNL A   1      42.277  18.708  27.147  1.00  0.00    -0.744 OA
ENDBRANCH  78  79
ENDBRANCH  46  71
BRANCH  58  83
ATOM     83  C   UNL A   1      48.051  27.136  30.541  1.00  0.00     0.058 A 
ATOM     84  C   UNL A   1      49.085  27.361  29.619  1.00  0.00     0.135 A 
ATOM     85  C   UNL A   1      48.388  26.550  31.773  1.00  0.00     0.135 A 
ATOM     86  F   UNL A   1      48.817  27.913  28.424  1.00  0.00    -0.206 F 
ATOM     87  C   UNL A   1      50.398  26.996  29.896  1.00  0.00     0.059 A 
ATOM     88  C   UNL A   1      49.700  26.206  32.084  1.00  0.00     0.059 A 
ATOM     89  F   UNL A   1      47.441  26.323  32.696  1.00  0.00    -0.206 F 
ATOM     90  C   UNL A   1      50.697  26.422  31.133  1.00  0.00     0.060 A 
BRANCH  90  91
ATOM     91  S   UNL A   1      52.410  25.985  31.493  1.00  0.00     0.124 S 
ATOM     92  O   UNL A   1      52.256  24.674  32.115  1.00  0.00    -0.237 OA
ATOM     93  O   UNL A   1      53.018  25.991  30.167  1.00  0.00    -0.237 OA
ATOM     94  O   UNL A   1      52.855  27.053  32.385  1.00  0.00    -0.744 OA
ENDBRANCH  90  91
ENDBRANCH  58  83
ENDBRANCH  32  33
ENDBRANCH  24  27
ENDBRANCH  22  23
ENDBRANCH   1  22
TORSDOF 17
ENDMDL
MODEL 3
REMARK VINA RESULT:     -10.6      3.425      9.172
REMARK SMILES CC1=C(C)C(=O)N(C[C@H](CC(C)C)C(=O)NCCCNC(=O)c2ccc(-c3c4nc(c(-c5c(F)cc(S(=O)(=O)[O-])cc5F)c5ccc([nH]5)c(-c5c(F)cc(S(=O)(=O)[O-])cc5F)c5nc(c(-c6c(F)cc(S(=O)(=O)[O-])cc6F)c6ccc3[nH]6)C=C5)C=C4)cc2)C1=O
REMARK SMILES IDX 18 1 17 2 16 3 14 4 15 5 9 7 8 8 7 9 1 10 2 11 3 12 89 13
REMARK SMILES IDX 4 14 5 15 90 16 6 17 10 18 11 19 12 20 13 21 19 22 20 23
REMARK SMILES IDX 21 24 22 26 23 27 24 28 88 29 25 30 87 31 26 32 27 33 28 34
REMARK SMILES IDX 81 35 29 36 86 37 80 38 82 39 30 40 85 41 79 42 78 43 31 45
REMARK SMILES IDX 65 46 44 47 64 48 45 49 48 50 63 51 83 52 46 53 47 54 62 56
REMARK SMILES IDX 84 57 49 58 32 59 33 60 42 61 34 62 35 63 41 64 43 65 36 66
REMARK SMILES IDX 37 67 38 68 39 69 40 70 66 71 67 72 76 73 68 74 69 75 75 76
REMARK SMILES IDX 77 77 70 78 71 79 72 80 73 81 74 82 50 83 51 84 60 85 52 86
REMARK SMILES IDX 53 87 59 88 61 89 54 90 55 91 56 92 57 93 58 94
REMARK H PARENT 16 6 20 25 82 44 48 55
REMARK Flexibility Score: inf
ROOT
ATOM      1  C   UNL A   1      38.056  19.856  25.004  1.00  0.00     0.042 C 
ENDROOT
BRANCH   1   2
ATOM      2  C   UNL A   1      36.837  20.767  25.057  1.00  0.00     0.117 C 
BRANCH   2   3
ATOM      3  N   UNL A   1      35.609  20.017  25.239  1.00  0.00    -0.356 N 
ATOM      4  C   UNL A   1      34.311  20.409  25.265  1.00  0.00     0.224 C 
ATOM      5  O   UNL A   1      33.463  19.535  25.455  1.00  0.00    -0.275 OA
ATOM      6  H   UNL A   1      35.741  19.049  25.367  1.00  0.00     0.163 HD
BRANCH   4   7
ATOM      7  C   UNL A   1      33.897  21.858  25.038  1.00  0.00     0.099 C 
BRANCH   7   8
ATOM      8  C   UNL A   1      33.652  22.513  26.417  1.00  0.00     0.142 C 
BRANCH   8   9
ATOM      9  N   UNL A   1      33.255  23.902  26.287  1.00  0.00    -0.274 N 
ATOM     10  C   UNL A   1      33.847  27.343  25.170  1.00  0.00     0.051 C 
ATOM     11  C   UNL A   1      33.286  26.113  25.771  1.00  0.00     0.023 C 
ATOM     12  C   UNL A   1      32.070  25.841  26.257  1.00  0.00     0.023 C 
ATOM     13  C   UNL A   1      34.084  24.884  25.858  1.00  0.00     0.256 C 
ATOM     14  C   UNL A   1      30.890  26.721  26.404  1.00  0.00     0.051 C 
ATOM     15  C   UNL A   1      32.047  24.413  26.627  1.00  0.00     0.256 C 
ATOM     16  O   UNL A   1      35.269  24.813  25.587  1.00  0.00    -0.269 OA
ATOM     17  O   UNL A   1      31.100  23.845  27.138  1.00  0.00    -0.269 OA
ENDBRANCH   8   9
ENDBRANCH   7   8
BRANCH   7  18
ATOM     18  C   UNL A   1      32.714  22.046  24.068  1.00  0.00     0.018 C 
BRANCH  18  19
ATOM     19  C   UNL A   1      33.005  22.881  22.799  1.00  0.00    -0.017 C 
ATOM     20  C   UNL A   1      32.245  24.204  22.721  1.00  0.00     0.007 C 
ATOM     21  C   UNL A   1      34.508  23.165  22.710  1.00  0.00     0.007 C 
ENDBRANCH  18  19
ENDBRANCH   7  18
ENDBRANCH   4   7
ENDBRANCH   2   3
ENDBRANCH   1   2
BRANCH   1  22
ATOM     22  C   UNL A   1      39.285  20.438  25.690  1.00  0.00     0.118 C 
BRANCH  22  23
ATOM     23  N   UNL A   1      40.266  19.418  26.032  1.00  0.00    -0.352 N 
ATOM     24  C   UNL A   1      41.608  19.535  26.293  1.00  0.00     0.251 C 
ATOM     25  H   UNL A   1      39.911  18.500  26.085  1.00  0.00     0.163 HD
ATOM     26  O   UNL A   1      42.303  18.524  26.343  1.00  0.00    -0.269 OA
BRANCH  24  27
ATOM     27  C   UNL A   1      42.216  20.868  26.495  1.00  0.00     0.039 A 
ATOM     28  C   UNL A   1      42.467  21.672  25.380  1.00  0.00     0.014 A 
ATOM     29  C   UNL A   1      42.558  21.318  27.773  1.00  0.00     0.014 A 
ATOM     30  C   UNL A   1      43.000  22.950  25.556  1.00  0.00     0.010 A 
ATOM     31  C   UNL A   1      43.005  22.624  27.953  1.00  0.00     0.010 A 
ATOM     32  C   UNL A   1      43.238  23.452  26.846  1.00  0.00    -0.014 A 
BRANCH  32  33
ATOM     33  C   UNL A   1      43.731  24.837  27.058  1.00  0.00     0.031 A 
ATOM     34  C   UNL A   1      45.187  25.163  26.860  1.00  0.00     0.074 A 
ATOM     35  C   UNL A   1      42.877  25.786  27.491  1.00  0.00     0.049 A 
ATOM     36  N   UNL A   1      45.815  26.292  27.060  1.00  0.00    -0.248 NA
ATOM     37  C   UNL A   1      46.058  24.068  26.401  1.00  0.00     0.031 C 
ATOM     38  C   UNL A   1      41.454  25.581  27.770  1.00  0.00     0.029 A 
ATOM     39  N   UNL A   1      43.083  27.111  27.788  1.00  0.00    -0.354 N 
ATOM     40  C   UNL A   1      47.151  26.041  26.768  1.00  0.00     0.074 A 
ATOM     41  C   UNL A   1      47.253  24.639  26.430  1.00  0.00     0.031 C 
ATOM     42  C   UNL A   1      40.911  26.741  28.171  1.00  0.00     0.029 A 
ATOM     43  C   UNL A   1      41.953  27.761  28.224  1.00  0.00     0.049 A 
ATOM     44  H   UNL A   1      43.957  27.554  27.696  1.00  0.00     0.167 HD
ATOM     45  C   UNL A   1      48.193  26.907  26.759  1.00  0.00     0.037 A 
ATOM     46  C   UNL A   1      41.777  29.033  28.633  1.00  0.00     0.037 A 
ATOM     47  C   UNL A   1      48.078  28.307  27.076  1.00  0.00     0.049 A 
ATOM     48  C   UNL A   1      42.951  29.975  28.621  1.00  0.00     0.074 A 
ATOM     49  C   UNL A   1      49.061  29.280  27.038  1.00  0.00     0.029 A 
ATOM     50  N   UNL A   1      46.913  28.933  27.496  1.00  0.00    -0.354 N 
ATOM     51  N   UNL A   1      44.194  29.737  28.273  1.00  0.00    -0.248 NA
ATOM     52  C   UNL A   1      42.700  31.357  29.048  1.00  0.00     0.031 C 
ATOM     53  C   UNL A   1      48.504  30.483  27.486  1.00  0.00     0.029 A 
ATOM     54  C   UNL A   1      47.159  30.273  27.745  1.00  0.00     0.049 A 
ATOM     55  H   UNL A   1      46.040  28.490  27.601  1.00  0.00     0.167 HD
ATOM     56  C   UNL A   1      44.866  30.946  28.414  1.00  0.00     0.074 A 
ATOM     57  C   UNL A   1      43.888  31.916  28.864  1.00  0.00     0.031 C 
ATOM     58  C   UNL A   1      46.173  31.229  28.188  1.00  0.00     0.037 A 
BRANCH  45  59
ATOM     59  C   UNL A   1      49.550  26.365  26.395  1.00  0.00     0.058 A 
ATOM     60  C   UNL A   1      50.056  26.454  25.087  1.00  0.00     0.135 A 
ATOM     61  C   UNL A   1      50.373  25.785  27.374  1.00  0.00     0.135 A 
ATOM     62  F   UNL A   1      49.308  26.986  24.107  1.00  0.00    -0.206 F 
ATOM     63  C   UNL A   1      51.314  25.960  24.758  1.00  0.00     0.059 A 
ATOM     64  C   UNL A   1      51.648  25.313  27.074  1.00  0.00     0.059 A 
ATOM     65  F   UNL A   1      49.942  25.674  28.640  1.00  0.00    -0.206 F 
ATOM     66  C   UNL A   1      52.103  25.391  25.759  1.00  0.00     0.060 A 
BRANCH  66  67
ATOM     67  S   UNL A   1      53.736  24.762  25.314  1.00  0.00     0.124 S 
ATOM     68  O   UNL A   1      53.439  23.362  25.025  1.00  0.00    -0.237 OA
ATOM     69  O   UNL A   1      54.083  25.586  24.161  1.00  0.00    -0.237 OA
ATOM     70  O   UNL A   1      54.532  25.000  26.514  1.00  0.00    -0.744 OA
ENDBRANCH  66  67
ENDBRANCH  45  59
BRANCH  46  71
ATOM     71  C   UNL A   1      40.431  29.493  29.073  1.00  0.00     0.058 A 
ATOM     72  C   UNL A   1      39.405  29.719  28.144  1.00  0.00     0.135 A 
ATOM     73  C   UNL A   1      40.140  29.699  30.430  1.00  0.00     0.135 A 
ATOM     74  F   UNL A   1      39.635  29.542  26.834  1.00  0.00    -0.206 F 
ATOM     75  C   UNL A   1      38.144  30.151  28.541  1.00  0.00     0.059 A 
ATOM     76  C   UNL A   1      38.878  30.103  30.855  1.00  0.00     0.059 A 
ATOM     77  F   UNL A   1      41.081  29.479  31.362  1.00  0.00    -0.206 F 
ATOM     78  C   UNL A   1      37.889  30.337  29.901  1.00  0.00     0.060 A 
BRANCH  78  79
ATOM     79  S   UNL A   1      36.234  30.850  30.409  1.00  0.00     0.124 S 
ATOM     80  O   UNL A   1      35.468  30.625  29.187  1.00  0.00    -0.237 OA
ATOM     81  O   UNL A   1      35.957  29.940  31.514  1.00  0.00    -0.237 OA
ATOM     82  O   UNL A   1      36.419  32.249  30.789  1.00  0.00    -0.744 OA
ENDBRANCH  78  79
ENDBRANCH  46  71
BRANCH  58  83
ATOM     83  C   UNL A   1      46.620  32.652  28.386  1.00  0.00     0.058 A 
ATOM     84  C   UNL A   1      47.147  33.101  29.608  1.00  0.00     0.135 A 
ATOM     85  C   UNL A   1      46.571  33.566  27.320  1.00  0.00     0.135 A 
ATOM     86  F   UNL A   1      47.210  32.271  30.662  1.00  0.00    -0.206 F 
ATOM     87  C   UNL A   1      47.585  34.411  29.773  1.00  0.00     0.059 A 
ATOM     88  C   UNL A   1      47.033  34.872  27.453  1.00  0.00     0.059 A 
ATOM     89  F   UNL A   1      46.087  33.187  26.127  1.00  0.00    -0.206 F 
ATOM     90  C   UNL A   1      47.527  35.288  28.688  1.00  0.00     0.060 A 
BRANCH  90  91
ATOM     91  S   UNL A   1      48.132  36.974  28.907  1.00  0.00     0.124 S 
ATOM     92  O   UNL A   1      47.858  37.204  30.321  1.00  0.00    -0.237 OA
ATOM     93  O   UNL A   1      49.539  36.850  28.545  1.00  0.00    -0.237 OA
ATOM     94  O   UNL A   1      47.318  37.752  27.976  1.00  0.00    -0.744 OA
ENDBRANCH  90  91
ENDBRANCH  58  83
ENDBRANCH  32  33
ENDBRANCH  24  27
ENDBRANCH  22  23
ENDBRANCH   1  22
TORSDOF 17
ENDMDL
