MODEL 1
REMARK VINA RESULT:     -12.3      0.000      0.000
REMARK SMILES O=C1O[C@@H](c2ccc(O)c(O)c2)[C@H](C(=O)NCCCNC(=O)c2ccc(-c3c4nc(c(-c5c(F)cc(S(=O)(=O)[O-])cc5F)c5ccc([nH]5)c(-c5c(F)cc(S(=O)(=O)[O-])cc5F)c5nc(c(-c6c(F)cc(S(=O)(=O)[O-])cc6F)c6ccc3[nH]6)C=C5)C=C4)cc2)/C1=C\c1ccc(O)c(O)c1
REMARK SMILES IDX 18 1 17 2 16 3 14 4 15 5 13 7 1 8 2 9 3 10 89 11 4 12 90 13
REMARK SMILES IDX 5 14 6 15 12 16 7 17 10 18 8 19 11 20 9 22 91 24 92 25 98 26
REMARK SMILES IDX 93 27 96 28 94 29 97 30 95 32 19 34 20 35 21 36 22 38 23 39
REMARK SMILES IDX 24 40 88 41 25 42 87 43 26 44 27 45 28 46 81 47 29 48 86 49
REMARK SMILES IDX 80 50 82 51 30 52 85 53 79 54 78 55 31 57 65 58 44 59 64 60
REMARK SMILES IDX 45 61 48 62 63 63 83 64 46 65 47 66 62 68 84 69 49 70 32 71
REMARK SMILES IDX 33 72 42 73 34 74 35 75 41 76 43 77 36 78 37 79 38 80 39 81
REMARK SMILES IDX 40 82 66 83 67 84 76 85 68 86 69 87 75 88 77 89 70 90 71 91
REMARK SMILES IDX 72 92 73 93 74 94 50 95 51 96 60 97 52 98 53 99 59 100
REMARK SMILES IDX 61 101 54 102 55 103 56 104 57 105 58 106
REMARK H PARENT 16 6 11 21 9 23 97 31 95 33 20 37 82 56 48 67
REMARK Flexibility Score: inf
ROOT
ATOM      1  C   UNL A   1      32.653  27.546  27.200  1.00  0.00     0.042 C 
ENDROOT
BRANCH   1   2
ATOM      2  C   UNL A   1      32.224  26.474  26.215  1.00  0.00     0.117 C 
BRANCH   2   3
ATOM      3  N   UNL A   1      31.532  25.353  26.826  1.00  0.00    -0.355 N 
ATOM      4  C   UNL A   1      31.814  24.017  26.861  1.00  0.00     0.231 C 
ATOM      5  O   UNL A   1      31.117  23.335  27.615  1.00  0.00    -0.274 OA
ATOM      6  H   UNL A   1      30.708  25.601  27.304  1.00  0.00     0.163 HD
BRANCH   4   7
ATOM      7  C   UNL A   1      32.864  23.400  25.929  1.00  0.00     0.161 C 
ATOM      8  O   UNL A   1      31.678  20.216  24.813  1.00  0.00    -0.247 OA
ATOM      9  C   UNL A   1      32.282  21.155  25.298  1.00  0.00     0.335 C 
ATOM     10  O   UNL A   1      33.161  21.071  26.325  1.00  0.00    -0.453 OA
ATOM     11  C   UNL A   1      32.219  22.563  24.872  1.00  0.00     0.054 C 
ATOM     12  C   UNL A   1      33.742  22.354  26.610  1.00  0.00     0.224 C 
ATOM     13  C   UNL A   1      31.673  22.867  23.685  1.00  0.00     0.020 C 
BRANCH  12  14
ATOM     14  C   UNL A   1      35.219  22.415  26.211  1.00  0.00    -0.002 A 
ATOM     15  C   UNL A   1      35.972  23.602  26.370  1.00  0.00     0.012 A 
ATOM     16  C   UNL A   1      35.891  21.271  25.757  1.00  0.00     0.057 A 
ATOM     17  C   UNL A   1      37.344  23.649  26.095  1.00  0.00     0.050 A 
ATOM     18  C   UNL A   1      37.251  21.330  25.471  1.00  0.00     0.157 A 
ATOM     19  C   UNL A   1      37.976  22.504  25.645  1.00  0.00     0.157 A 
BRANCH  18  20
ATOM     20  O   UNL A   1      37.884  20.206  25.021  1.00  0.00    -0.504 OA
ATOM     21  H   UNL A   1      38.771  20.256  24.722  1.00  0.00     0.293 HD
ENDBRANCH  18  20
BRANCH  19  22
ATOM     22  O   UNL A   1      39.313  22.479  25.364  1.00  0.00    -0.504 OA
ATOM     23  H   UNL A   1      39.838  23.238  25.519  1.00  0.00     0.293 HD
ENDBRANCH  19  22
ENDBRANCH  12  14
BRANCH  13  24
ATOM     24  C   UNL A   1      31.572  24.216  23.134  1.00  0.00    -0.021 A 
ATOM     25  C   UNL A   1      30.482  25.046  23.440  1.00  0.00     0.012 A 
ATOM     26  C   UNL A   1      32.607  24.700  22.328  1.00  0.00     0.058 A 
ATOM     27  C   UNL A   1      30.407  26.342  22.921  1.00  0.00     0.051 A 
ATOM     28  C   UNL A   1      32.530  25.990  21.824  1.00  0.00     0.157 A 
ATOM     29  C   UNL A   1      31.437  26.805  22.111  1.00  0.00     0.157 A 
BRANCH  28  30
ATOM     30  O   UNL A   1      33.544  26.463  21.040  1.00  0.00    -0.504 OA
ATOM     31  H   UNL A   1      33.694  27.385  20.974  1.00  0.00     0.293 HD
ENDBRANCH  28  30
BRANCH  29  32
ATOM     32  O   UNL A   1      31.423  28.062  21.572  1.00  0.00    -0.504 OA
ATOM     33  H   UNL A   1      31.023  28.208  20.737  1.00  0.00     0.293 HD
ENDBRANCH  29  32
ENDBRANCH  13  24
ENDBRANCH   4   7
ENDBRANCH   2   3
ENDBRANCH   1   2
BRANCH   1  34
ATOM     34  C   UNL A   1      33.713  28.492  26.657  1.00  0.00     0.118 C 
BRANCH  34  35
ATOM     35  N   UNL A   1      33.614  29.830  27.228  1.00  0.00    -0.352 N 
ATOM     36  C   UNL A   1      34.483  30.524  28.034  1.00  0.00     0.251 C 
ATOM     37  H   UNL A   1      32.788  30.315  26.998  1.00  0.00     0.163 HD
ATOM     38  O   UNL A   1      34.104  31.561  28.573  1.00  0.00    -0.269 OA
BRANCH  36  39
ATOM     39  C   UNL A   1      35.852  30.021  28.271  1.00  0.00     0.039 A 
ATOM     40  C   UNL A   1      36.783  30.070  27.230  1.00  0.00     0.014 A 
ATOM     41  C   UNL A   1      36.220  29.493  29.511  1.00  0.00     0.014 A 
ATOM     42  C   UNL A   1      38.100  29.666  27.460  1.00  0.00     0.010 A 
ATOM     43  C   UNL A   1      37.553  29.189  29.767  1.00  0.00     0.010 A 
ATOM     44  C   UNL A   1      38.508  29.269  28.744  1.00  0.00    -0.014 A 
BRANCH  44  45
ATOM     45  C   UNL A   1      39.927  28.945  29.040  1.00  0.00     0.031 A 
ATOM     46  C   UNL A   1      40.841  29.999  29.608  1.00  0.00     0.074 A 
ATOM     47  C   UNL A   1      40.409  27.726  28.724  1.00  0.00     0.049 A 
ATOM     48  N   UNL A   1      42.124  29.927  29.858  1.00  0.00    -0.248 NA
ATOM     49  C   UNL A   1      40.247  31.313  29.908  1.00  0.00     0.031 C 
ATOM     50  C   UNL A   1      39.634  26.643  28.110  1.00  0.00     0.029 A 
ATOM     51  N   UNL A   1      41.668  27.194  28.856  1.00  0.00    -0.354 N 
ATOM     52  C   UNL A   1      42.491  31.186  30.320  1.00  0.00     0.074 A 
ATOM     53  C   UNL A   1      41.308  32.016  30.273  1.00  0.00     0.031 C 
ATOM     54  C   UNL A   1      40.429  25.575  27.937  1.00  0.00     0.029 A 
ATOM     55  C   UNL A   1      41.779  25.909  28.381  1.00  0.00     0.049 A 
ATOM     56  H   UNL A   1      42.421  27.688  29.254  1.00  0.00     0.167 HD
ATOM     57  C   UNL A   1      43.701  31.603  30.761  1.00  0.00     0.037 A 
ATOM     58  C   UNL A   1      42.848  25.094  28.292  1.00  0.00     0.037 A 
ATOM     59  C   UNL A   1      44.864  30.758  30.838  1.00  0.00     0.049 A 
ATOM     60  C   UNL A   1      44.180  25.581  28.801  1.00  0.00     0.074 A 
ATOM     61  C   UNL A   1      46.111  31.060  31.355  1.00  0.00     0.029 A 
ATOM     62  N   UNL A   1      44.928  29.451  30.379  1.00  0.00    -0.354 N 
ATOM     63  N   UNL A   1      44.486  26.745  29.322  1.00  0.00    -0.248 NA
ATOM     64  C   UNL A   1      45.308  24.645  28.719  1.00  0.00     0.031 C 
ATOM     65  C   UNL A   1      46.948  29.961  31.148  1.00  0.00     0.029 A 
ATOM     66  C   UNL A   1      46.205  28.947  30.566  1.00  0.00     0.049 A 
ATOM     67  H   UNL A   1      44.177  28.954  29.979  1.00  0.00     0.167 HD
ATOM     68  C   UNL A   1      45.834  26.672  29.653  1.00  0.00     0.074 A 
ATOM     69  C   UNL A   1      46.279  25.342  29.291  1.00  0.00     0.031 C 
ATOM     70  C   UNL A   1      46.632  27.618  30.205  1.00  0.00     0.037 A 
BRANCH  57  71
ATOM     71  C   UNL A   1      43.843  33.037  31.197  1.00  0.00     0.058 A 
ATOM     72  C   UNL A   1      43.582  33.444  32.515  1.00  0.00     0.135 A 
ATOM     73  C   UNL A   1      44.324  34.004  30.298  1.00  0.00     0.135 A 
ATOM     74  F   UNL A   1      43.104  32.565  33.412  1.00  0.00    -0.206 F 
ATOM     75  C   UNL A   1      43.779  34.759  32.923  1.00  0.00     0.059 A 
ATOM     76  C   UNL A   1      44.557  35.318  30.691  1.00  0.00     0.059 A 
ATOM     77  F   UNL A   1      44.585  33.671  29.023  1.00  0.00    -0.206 F 
ATOM     78  C   UNL A   1      44.276  35.687  32.006  1.00  0.00     0.060 A 
BRANCH  78  79
ATOM     79  S   UNL A   1      44.565  37.379  32.565  1.00  0.00     0.124 S 
ATOM     80  O   UNL A   1      43.846  38.147  31.554  1.00  0.00    -0.237 OA
ATOM     81  O   UNL A   1      43.969  37.370  33.898  1.00  0.00    -0.237 OA
ATOM     82  O   UNL A   1      46.019  37.505  32.532  1.00  0.00    -0.744 OA
ENDBRANCH  78  79
ENDBRANCH  57  71
BRANCH  58  83
ATOM     83  C   UNL A   1      42.711  23.740  27.688  1.00  0.00     0.058 A 
ATOM     84  C   UNL A   1      42.448  22.612  28.479  1.00  0.00     0.135 A 
ATOM     85  C   UNL A   1      42.847  23.549  26.304  1.00  0.00     0.135 A 
ATOM     86  F   UNL A   1      42.314  22.741  29.808  1.00  0.00    -0.206 F 
ATOM     87  C   UNL A   1      42.353  21.338  27.925  1.00  0.00     0.059 A 
ATOM     88  C   UNL A   1      42.724  22.291  25.723  1.00  0.00     0.059 A 
ATOM     89  F   UNL A   1      43.077  24.597  25.497  1.00  0.00    -0.206 F 
ATOM     90  C   UNL A   1      42.492  21.189  26.544  1.00  0.00     0.060 A 
BRANCH  90  91
ATOM     91  S   UNL A   1      42.335  19.539  25.828  1.00  0.00     0.124 S 
ATOM     92  O   UNL A   1      42.689  18.692  26.960  1.00  0.00    -0.237 OA
ATOM     93  O   UNL A   1      40.932  19.515  25.422  1.00  0.00    -0.237 OA
ATOM     94  O   UNL A   1      43.295  19.560  24.728  1.00  0.00    -0.744 OA
ENDBRANCH  90  91
ENDBRANCH  58  83
BRANCH  70  95
ATOM     95  C   UNL A   1      48.062  27.246  30.486  1.00  0.00     0.058 A 
ATOM     96  C   UNL A   1      49.102  27.585  29.607  1.00  0.00     0.135 A 
ATOM     97  C   UNL A   1      48.402  26.590  31.681  1.00  0.00     0.135 A 
ATOM     98  F   UNL A   1      48.832  28.205  28.447  1.00  0.00    -0.206 F 
ATOM     99  C   UNL A   1      50.426  27.265  29.890  1.00  0.00     0.059 A 
ATOM    100  C   UNL A   1      49.723  26.291  32.000  1.00  0.00     0.059 A 
ATOM    101  F   UNL A   1      47.448  26.252  32.563  1.00  0.00    -0.206 F 
ATOM    102  C   UNL A   1      50.727  26.622  31.092  1.00  0.00     0.060 A 
BRANCH 102 103
ATOM    103  S   UNL A   1      52.453  26.245  31.461  1.00  0.00     0.124 S 
ATOM    104  O   UNL A   1      53.022  26.135  30.122  1.00  0.00    -0.237 OA
ATOM    105  O   UNL A   1      52.867  27.411  32.234  1.00  0.00    -0.237 OA
ATOM    106  O   UNL A   1      52.375  24.995  32.213  1.00  0.00    -0.744 OA
ENDBRANCH 102 103
ENDBRANCH  70  95
ENDBRANCH  44  45
ENDBRANCH  36  39
ENDBRANCH  34  35
ENDBRANCH   1  34
TORSDOF 19
ENDMDL
MODEL 2
REMARK VINA RESULT:     -12.2      3.319      8.753
REMARK SMILES O=C1O[C@@H](c2ccc(O)c(O)c2)[C@H](C(=O)NCCCNC(=O)c2ccc(-c3c4nc(c(-c5c(F)cc(S(=O)(=O)[O-])cc5F)c5ccc([nH]5)c(-c5c(F)cc(S(=O)(=O)[O-])cc5F)c5nc(c(-c6c(F)cc(S(=O)(=O)[O-])cc6F)c6ccc3[nH]6)C=C5)C=C4)cc2)/C1=C\c1ccc(O)c(O)c1
REMARK SMILES IDX 18 1 17 2 16 3 14 4 15 5 13 7 1 8 2 9 3 10 89 11 4 12 90 13
REMARK SMILES IDX 5 14 6 15 12 16 7 17 10 18 8 19 11 20 9 22 91 24 92 25 98 26
REMARK SMILES IDX 93 27 96 28 94 29 97 30 95 32 19 34 20 35 21 36 22 38 23 39
REMARK SMILES IDX 24 40 88 41 25 42 87 43 26 44 27 45 28 46 81 47 29 48 86 49
REMARK SMILES IDX 80 50 82 51 30 52 85 53 79 54 78 55 31 57 65 58 44 59 64 60
REMARK SMILES IDX 45 61 48 62 63 63 83 64 46 65 47 66 62 68 84 69 49 70 32 71
REMARK SMILES IDX 33 72 42 73 34 74 35 75 41 76 43 77 36 78 37 79 38 80 39 81
REMARK SMILES IDX 40 82 66 83 67 84 76 85 68 86 69 87 75 88 77 89 70 90 71 91
REMARK SMILES IDX 72 92 73 93 74 94 50 95 51 96 60 97 52 98 53 99 59 100
REMARK SMILES IDX 61 101 54 102 55 103 56 104 57 105 58 106
REMARK H PARENT 16 6 11 21 9 23 97 31 95 33 20 37 82 56 48 67
REMARK Flexibility Score: inf
ROOT
ATOM      1  C   UNL A   1      38.001  20.132  24.984  1.00  0.00     0.042 C 
ENDROOT
BRANCH   1   2
ATOM      2  C   UNL A   1      37.363  21.291  24.242  1.00  0.00     0.117 C 
BRANCH   2   3
ATOM      3  N   UNL A   1      37.115  22.458  25.070  1.00  0.00    -0.355 N 
ATOM      4  C   UNL A   1      35.984  22.919  25.682  1.00  0.00     0.231 C 
ATOM      5  O   UNL A   1      36.135  23.857  26.466  1.00  0.00    -0.274 OA
ATOM      6  H   UNL A   1      37.908  23.022  25.217  1.00  0.00     0.163 HD
BRANCH   4   7
ATOM      7  C   UNL A   1      34.601  22.363  25.322  1.00  0.00     0.161 C 
ATOM      8  O   UNL A   1      32.495  22.567  28.205  1.00  0.00    -0.247 OA
ATOM      9  C   UNL A   1      33.166  22.233  27.245  1.00  0.00     0.335 C 
ATOM     10  O   UNL A   1      33.698  21.003  27.055  1.00  0.00    -0.453 OA
ATOM     11  C   UNL A   1      33.525  23.065  26.084  1.00  0.00     0.054 C 
ATOM     12  C   UNL A   1      34.381  20.928  25.792  1.00  0.00     0.224 C 
ATOM     13  C   UNL A   1      32.867  24.215  25.871  1.00  0.00     0.020 C 
BRANCH  12  14
ATOM     14  C   UNL A   1      33.635  20.044  24.789  1.00  0.00    -0.002 A 
ATOM     15  C   UNL A   1      32.785  20.607  23.807  1.00  0.00     0.012 A 
ATOM     16  C   UNL A   1      33.840  18.657  24.759  1.00  0.00     0.057 A 
ATOM     17  C   UNL A   1      32.167  19.821  22.828  1.00  0.00     0.050 A 
ATOM     18  C   UNL A   1      33.209  17.882  23.791  1.00  0.00     0.157 A 
ATOM     19  C   UNL A   1      32.386  18.456  22.828  1.00  0.00     0.157 A 
BRANCH  18  20
ATOM     20  O   UNL A   1      33.415  16.531  23.784  1.00  0.00    -0.504 OA
ATOM     21  H   UNL A   1      34.129  16.164  24.267  1.00  0.00     0.293 HD
ENDBRANCH  18  20
BRANCH  19  22
ATOM     22  O   UNL A   1      31.820  17.632  21.896  1.00  0.00    -0.504 OA
ATOM     23  H   UNL A   1      32.307  17.378  21.137  1.00  0.00     0.293 HD
ENDBRANCH  19  22
ENDBRANCH  12  14
BRANCH  13  24
ATOM     24  C   UNL A   1      33.106  25.117  24.747  1.00  0.00    -0.021 A 
ATOM     25  C   UNL A   1      33.550  26.433  24.952  1.00  0.00     0.012 A 
ATOM     26  C   UNL A   1      32.936  24.638  23.444  1.00  0.00     0.058 A 
ATOM     27  C   UNL A   1      33.793  27.279  23.865  1.00  0.00     0.051 A 
ATOM     28  C   UNL A   1      33.188  25.481  22.371  1.00  0.00     0.157 A 
ATOM     29  C   UNL A   1      33.606  26.793  22.577  1.00  0.00     0.157 A 
BRANCH  28  30
ATOM     30  O   UNL A   1      33.025  25.010  21.099  1.00  0.00    -0.504 OA
ATOM     31  H   UNL A   1      33.403  25.471  20.377  1.00  0.00     0.293 HD
ENDBRANCH  28  30
BRANCH  29  32
ATOM     32  O   UNL A   1      33.826  27.570  21.473  1.00  0.00    -0.504 OA
ATOM     33  H   UNL A   1      34.531  28.188  21.468  1.00  0.00     0.293 HD
ENDBRANCH  29  32
ENDBRANCH  13  24
ENDBRANCH   4   7
ENDBRANCH   2   3
ENDBRANCH   1   2
BRANCH   1  34
ATOM     34  C   UNL A   1      39.151  20.539  25.891  1.00  0.00     0.118 C 
BRANCH  34  35
ATOM     35  N   UNL A   1      40.133  19.476  26.062  1.00  0.00    -0.352 N 
ATOM     36  C   UNL A   1      41.499  19.533  26.196  1.00  0.00     0.251 C 
ATOM     37  H   UNL A   1      39.755  18.567  26.084  1.00  0.00     0.163 HD
ATOM     38  O   UNL A   1      42.154  18.497  26.117  1.00  0.00    -0.269 OA
BRANCH  36  39
ATOM     39  C   UNL A   1      42.179  20.828  26.412  1.00  0.00     0.039 A 
ATOM     40  C   UNL A   1      42.567  21.583  25.302  1.00  0.00     0.014 A 
ATOM     41  C   UNL A   1      42.443  21.297  27.700  1.00  0.00     0.014 A 
ATOM     42  C   UNL A   1      43.144  22.842  25.489  1.00  0.00     0.010 A 
ATOM     43  C   UNL A   1      42.921  22.590  27.884  1.00  0.00     0.010 A 
ATOM     44  C   UNL A   1      43.280  23.376  26.781  1.00  0.00    -0.014 A 
BRANCH  44  45
ATOM     45  C   UNL A   1      43.784  24.757  26.999  1.00  0.00     0.031 A 
ATOM     46  C   UNL A   1      45.244  25.070  26.804  1.00  0.00     0.074 A 
ATOM     47  C   UNL A   1      42.939  25.706  27.448  1.00  0.00     0.049 A 
ATOM     48  N   UNL A   1      45.881  26.192  27.021  1.00  0.00    -0.248 NA
ATOM     49  C   UNL A   1      46.108  23.974  26.332  1.00  0.00     0.031 C 
ATOM     50  C   UNL A   1      41.515  25.507  27.735  1.00  0.00     0.029 A 
ATOM     51  N   UNL A   1      43.154  27.027  27.761  1.00  0.00    -0.354 N 
ATOM     52  C   UNL A   1      47.217  25.931  26.735  1.00  0.00     0.074 A 
ATOM     53  C   UNL A   1      47.308  24.534  26.373  1.00  0.00     0.031 C 
ATOM     54  C   UNL A   1      40.984  26.663  28.162  1.00  0.00     0.029 A 
ATOM     55  C   UNL A   1      42.035  27.675  28.227  1.00  0.00     0.049 A 
ATOM     56  H   UNL A   1      44.029  27.467  27.660  1.00  0.00     0.167 HD
ATOM     57  C   UNL A   1      48.266  26.786  26.754  1.00  0.00     0.037 A 
ATOM     58  C   UNL A   1      41.872  28.935  28.676  1.00  0.00     0.037 A 
ATOM     59  C   UNL A   1      48.158  28.184  27.080  1.00  0.00     0.049 A 
ATOM     60  C   UNL A   1      43.055  29.867  28.675  1.00  0.00     0.074 A 
ATOM     61  C   UNL A   1      49.145  29.152  27.040  1.00  0.00     0.029 A 
ATOM     62  N   UNL A   1      47.000  28.812  27.515  1.00  0.00    -0.354 N 
ATOM     63  N   UNL A   1      44.292  29.627  28.311  1.00  0.00    -0.248 NA
ATOM     64  C   UNL A   1      42.821  31.241  29.137  1.00  0.00     0.031 C 
ATOM     65  C   UNL A   1      48.602  30.349  27.514  1.00  0.00     0.029 A 
ATOM     66  C   UNL A   1      47.258  30.146  27.783  1.00  0.00     0.049 A 
ATOM     67  H   UNL A   1      46.123  28.373  27.617  1.00  0.00     0.167 HD
ATOM     68  C   UNL A   1      44.977  30.825  28.476  1.00  0.00     0.074 A 
ATOM     69  C   UNL A   1      44.012  31.793  28.953  1.00  0.00     0.031 C 
ATOM     70  C   UNL A   1      46.285  31.100  28.253  1.00  0.00     0.037 A 
BRANCH  57  71
ATOM     71  C   UNL A   1      49.629  26.245  26.416  1.00  0.00     0.058 A 
ATOM     72  C   UNL A   1      50.141  26.282  25.109  1.00  0.00     0.135 A 
ATOM     73  C   UNL A   1      50.467  25.755  27.432  1.00  0.00     0.135 A 
ATOM     74  F   UNL A   1      49.379  26.725  24.096  1.00  0.00    -0.206 F 
ATOM     75  C   UNL A   1      51.428  25.839  24.819  1.00  0.00     0.059 A 
ATOM     76  C   UNL A   1      51.767  25.335  27.171  1.00  0.00     0.059 A 
ATOM     77  F   UNL A   1      50.026  25.693  28.699  1.00  0.00    -0.206 F 
ATOM     78  C   UNL A   1      52.236  25.376  25.859  1.00  0.00     0.060 A 
BRANCH  78  79
ATOM     79  S   UNL A   1      53.918  24.846  25.469  1.00  0.00     0.124 S 
ATOM     80  O   UNL A   1      54.607  25.119  26.727  1.00  0.00    -0.237 OA
ATOM     81  O   UNL A   1      53.729  23.436  25.143  1.00  0.00    -0.237 OA
ATOM     82  O   UNL A   1      54.294  25.702  24.350  1.00  0.00    -0.744 OA
ENDBRANCH  78  79
ENDBRANCH  57  71
BRANCH  58  83
ATOM     83  C   UNL A   1      40.544  29.387  29.174  1.00  0.00     0.058 A 
ATOM     84  C   UNL A   1      39.489  29.664  28.292  1.00  0.00     0.135 A 
ATOM     85  C   UNL A   1      40.306  29.556  30.548  1.00  0.00     0.135 A 
ATOM     86  F   UNL A   1      39.666  29.523  26.970  1.00  0.00    -0.206 F 
ATOM     87  C   UNL A   1      38.256  30.121  28.748  1.00  0.00     0.059 A 
ATOM     88  C   UNL A   1      39.073  29.980  31.031  1.00  0.00     0.059 A 
ATOM     89  F   UNL A   1      41.273  29.284  31.438  1.00  0.00    -0.206 F 
ATOM     90  C   UNL A   1      38.058  30.275  30.122  1.00  0.00     0.060 A 
BRANCH  90  91
ATOM     91  S   UNL A   1      36.446  30.836  30.710  1.00  0.00     0.124 S 
ATOM     92  O   UNL A   1      36.135  29.829  31.718  1.00  0.00    -0.237 OA
ATOM     93  O   UNL A   1      36.751  32.172  31.211  1.00  0.00    -0.237 OA
ATOM     94  O   UNL A   1      35.620  30.800  29.506  1.00  0.00    -0.744 OA
ENDBRANCH  90  91
ENDBRANCH  58  83
BRANCH  70  95
ATOM     95  C   UNL A   1      46.750  32.511  28.489  1.00  0.00     0.058 A 
ATOM     96  C   UNL A   1      47.322  32.908  29.708  1.00  0.00     0.135 A 
ATOM     97  C   UNL A   1      46.674  33.464  27.460  1.00  0.00     0.135 A 
ATOM     98  F   UNL A   1      47.412  32.039  30.727  1.00  0.00    -0.206 F 
ATOM     99  C   UNL A   1      47.779  34.207  29.906  1.00  0.00     0.059 A 
ATOM    100  C   UNL A   1      47.156  34.759  27.625  1.00  0.00     0.059 A 
ATOM    101  F   UNL A   1      46.147  33.135  26.270  1.00  0.00    -0.206 F 
ATOM    102  C   UNL A   1      47.696  35.124  28.857  1.00  0.00     0.060 A 
BRANCH 102 103
ATOM    103  S   UNL A   1      48.325  36.795  29.119  1.00  0.00     0.124 S 
ATOM    104  O   UNL A   1      47.807  37.100  30.448  1.00  0.00    -0.237 OA
ATOM    105  O   UNL A   1      49.768  36.601  29.030  1.00  0.00    -0.237 OA
ATOM    106  O   UNL A   1      47.731  37.558  28.024  1.00  0.00    -0.744 OA
ENDBRANCH 102 103
ENDBRANCH  70  95
ENDBRANCH  44  45
ENDBRANCH  36  39
ENDBRANCH  34  35
ENDBRANCH   1  34
TORSDOF 19
ENDMDL
MODEL 3
REMARK VINA RESULT:     -12.2      0.512      8.045
REMARK SMILES O=C1O[C@@H](c2ccc(O)c(O)c2)[C@H](C(=O)NCCCNC(=O)c2ccc(-c3c4nc(c(-c5c(F)cc(S(=O)(=O)[O-])cc5F)c5ccc([nH]5)c(-c5c(F)cc(S(=O)(=O)[O-])cc5F)c5nc(c(-c6c(F)cc(S(=O)(=O)[O-])cc6F)c6ccc3[nH]6)C=C5)C=C4)cc2)/C1=C\c1ccc(O)c(O)c1
REMARK SMILES IDX 18 1 17 2 16 3 14 4 15 5 13 7 1 8 2 9 3 10 89 11 4 12 90 13
REMARK SMILES IDX 5 14 6 15 12 16 7 17 10 18 8 19 11 20 9 22 91 24 92 25 98 26
REMARK SMILES IDX 93 27 96 28 94 29 97 30 95 32 19 34 20 35 21 36 22 38 23 39
REMARK SMILES IDX 24 40 88 41 25 42 87 43 26 44 27 45 28 46 81 47 29 48 86 49
REMARK SMILES IDX 80 50 82 51 30 52 85 53 79 54 78 55 31 57 65 58 44 59 64 60
REMARK SMILES IDX 45 61 48 62 63 63 83 64 46 65 47 66 62 68 84 69 49 70 32 71
REMARK SMILES IDX 33 72 42 73 34 74 35 75 41 76 43 77 36 78 37 79 38 80 39 81
REMARK SMILES IDX 40 82 66 83 67 84 76 85 68 86 69 87 75 88 77 89 70 90 71 91
REMARK SMILES IDX 72 92 73 93 74 94 50 95 51 96 60 97 52 98 53 99 59 100
REMARK SMILES IDX 61 101 54 102 55 103 56 104 57 105 58 106
REMARK H PARENT 16 6 11 21 9 23 97 31 95 33 20 37 82 56 48 67
REMARK Flexibility Score: inf
ROOT
ATOM      1  C   UNL A   1      32.661  27.397  27.413  1.00  0.00     0.042 C 
ENDROOT
BRANCH   1   2
ATOM      2  C   UNL A   1      32.021  26.506  26.365  1.00  0.00     0.117 C 
BRANCH   2   3
ATOM      3  N   UNL A   1      31.351  25.340  26.910  1.00  0.00    -0.355 N 
ATOM      4  C   UNL A   1      31.674  24.012  26.895  1.00  0.00     0.231 C 
ATOM      5  O   UNL A   1      30.981  23.277  27.602  1.00  0.00    -0.274 OA
ATOM      6  H   UNL A   1      30.508  25.541  27.377  1.00  0.00     0.163 HD
BRANCH   4   7
ATOM      7  C   UNL A   1      32.765  23.468  25.965  1.00  0.00     0.161 C 
ATOM      8  O   UNL A   1      31.730  20.276  24.727  1.00  0.00    -0.247 OA
ATOM      9  C   UNL A   1      32.287  21.223  25.253  1.00  0.00     0.335 C 
ATOM     10  O   UNL A   1      33.149  21.142  26.293  1.00  0.00    -0.453 OA
ATOM     11  C   UNL A   1      32.174  22.641  24.870  1.00  0.00     0.054 C 
ATOM     12  C   UNL A   1      33.673  22.438  26.630  1.00  0.00     0.224 C 
ATOM     13  C   UNL A   1      31.638  22.960  23.683  1.00  0.00     0.020 C 
BRANCH  12  14
ATOM     14  C   UNL A   1      35.152  22.571  26.261  1.00  0.00    -0.002 A 
ATOM     15  C   UNL A   1      35.834  23.803  26.400  1.00  0.00     0.012 A 
ATOM     16  C   UNL A   1      35.898  21.454  25.858  1.00  0.00     0.057 A 
ATOM     17  C   UNL A   1      37.207  23.920  26.154  1.00  0.00     0.050 A 
ATOM     18  C   UNL A   1      37.259  21.582  25.600  1.00  0.00     0.157 A 
ATOM     19  C   UNL A   1      37.913  22.801  25.753  1.00  0.00     0.157 A 
BRANCH  18  20
ATOM     20  O   UNL A   1      37.966  20.484  25.199  1.00  0.00    -0.504 OA
ATOM     21  H   UNL A   1      37.726  20.033  24.414  1.00  0.00     0.293 HD
ENDBRANCH  18  20
BRANCH  19  22
ATOM     22  O   UNL A   1      39.255  22.843  25.503  1.00  0.00    -0.504 OA
ATOM     23  H   UNL A   1      39.658  22.168  24.994  1.00  0.00     0.293 HD
ENDBRANCH  19  22
ENDBRANCH  12  14
BRANCH  13  24
ATOM     24  C   UNL A   1      31.491  24.321  23.172  1.00  0.00    -0.021 A 
ATOM     25  C   UNL A   1      30.351  25.088  23.464  1.00  0.00     0.012 A 
ATOM     26  C   UNL A   1      32.531  24.881  22.423  1.00  0.00     0.058 A 
ATOM     27  C   UNL A   1      30.233  26.396  22.985  1.00  0.00     0.051 A 
ATOM     28  C   UNL A   1      32.409  26.183  21.959  1.00  0.00     0.157 A 
ATOM     29  C   UNL A   1      31.268  26.935  22.230  1.00  0.00     0.157 A 
BRANCH  28  30
ATOM     30  O   UNL A   1      33.427  26.730  21.231  1.00  0.00    -0.504 OA
ATOM     31  H   UNL A   1      33.778  27.565  21.470  1.00  0.00     0.293 HD
ENDBRANCH  28  30
BRANCH  29  32
ATOM     32  O   UNL A   1      31.213  28.207  21.732  1.00  0.00    -0.504 OA
ATOM     33  H   UNL A   1      31.090  28.345  20.813  1.00  0.00     0.293 HD
ENDBRANCH  29  32
ENDBRANCH  13  24
ENDBRANCH   4   7
ENDBRANCH   2   3
ENDBRANCH   1   2
BRANCH   1  34
ATOM     34  C   UNL A   1      33.779  28.277  26.875  1.00  0.00     0.118 C 
BRANCH  34  35
ATOM     35  N   UNL A   1      33.686  29.652  27.348  1.00  0.00    -0.352 N 
ATOM     36  C   UNL A   1      34.583  30.417  28.054  1.00  0.00     0.251 C 
ATOM     37  H   UNL A   1      32.841  30.108  27.126  1.00  0.00     0.163 HD
ATOM     38  O   UNL A   1      34.213  31.487  28.533  1.00  0.00    -0.269 OA
BRANCH  36  39
ATOM     39  C   UNL A   1      35.971  29.952  28.256  1.00  0.00     0.039 A 
ATOM     40  C   UNL A   1      36.884  30.065  27.204  1.00  0.00     0.014 A 
ATOM     41  C   UNL A   1      36.374  29.397  29.472  1.00  0.00     0.014 A 
ATOM     42  C   UNL A   1      38.217  29.698  27.403  1.00  0.00     0.010 A 
ATOM     43  C   UNL A   1      37.720  29.129  29.700  1.00  0.00     0.010 A 
ATOM     44  C   UNL A   1      38.656  29.273  28.667  1.00  0.00    -0.014 A 
BRANCH  44  45
ATOM     45  C   UNL A   1      40.090  28.987  28.934  1.00  0.00     0.031 A 
ATOM     46  C   UNL A   1      40.678  27.652  28.559  1.00  0.00     0.074 A 
ATOM     47  C   UNL A   1      40.838  29.901  29.584  1.00  0.00     0.049 A 
ATOM     48  N   UNL A   1      41.882  27.191  28.782  1.00  0.00    -0.248 NA
ATOM     49  C   UNL A   1      39.791  26.697  27.871  1.00  0.00     0.031 C 
ATOM     50  C   UNL A   1      40.362  31.206  30.053  1.00  0.00     0.029 A 
ATOM     51  N   UNL A   1      42.153  29.870  29.979  1.00  0.00    -0.354 N 
ATOM     52  C   UNL A   1      41.890  25.893  28.284  1.00  0.00     0.074 A 
ATOM     53  C   UNL A   1      40.559  25.621  27.789  1.00  0.00     0.031 C 
ATOM     54  C   UNL A   1      41.372  31.854  30.654  1.00  0.00     0.029 A 
ATOM     55  C   UNL A   1      42.554  30.997  30.658  1.00  0.00     0.049 A 
ATOM     56  H   UNL A   1      42.753  29.111  29.794  1.00  0.00     0.167 HD
ATOM     57  C   UNL A   1      42.920  25.017  28.229  1.00  0.00     0.037 A 
ATOM     58  C   UNL A   1      43.731  31.301  31.238  1.00  0.00     0.037 A 
ATOM     59  C   UNL A   1      44.251  25.311  28.691  1.00  0.00     0.049 A 
ATOM     60  C   UNL A   1      44.863  30.311  31.150  1.00  0.00     0.074 A 
ATOM     61  C   UNL A   1      45.386  24.525  28.596  1.00  0.00     0.029 A 
ATOM     62  N   UNL A   1      44.627  26.477  29.343  1.00  0.00    -0.354 N 
ATOM     63  N   UNL A   1      44.878  29.125  30.592  1.00  0.00    -0.248 NA
ATOM     64  C   UNL A   1      46.140  30.702  31.762  1.00  0.00     0.031 C 
ATOM     65  C   UNL A   1      46.430  25.184  29.250  1.00  0.00     0.029 A 
ATOM     66  C   UNL A   1      45.967  26.413  29.690  1.00  0.00     0.049 A 
ATOM     67  H   UNL A   1      44.029  27.237  29.531  1.00  0.00     0.167 HD
ATOM     68  C   UNL A   1      46.170  28.640  30.762  1.00  0.00     0.074 A 
ATOM     69  C   UNL A   1      46.912  29.669  31.459  1.00  0.00     0.031 C 
ATOM     70  C   UNL A   1      46.694  27.450  30.379  1.00  0.00     0.037 A 
BRANCH  57  71
ATOM     71  C   UNL A   1      42.662  23.652  27.650  1.00  0.00     0.058 A 
ATOM     72  C   UNL A   1      42.724  23.404  26.270  1.00  0.00     0.135 A 
ATOM     73  C   UNL A   1      42.426  22.558  28.500  1.00  0.00     0.135 A 
ATOM     74  F   UNL A   1      42.930  24.416  25.410  1.00  0.00    -0.206 F 
ATOM     75  C   UNL A   1      42.548  22.126  25.751  1.00  0.00     0.059 A 
ATOM     76  C   UNL A   1      42.277  21.265  28.006  1.00  0.00     0.059 A 
ATOM     77  F   UNL A   1      42.351  22.738  29.829  1.00  0.00    -0.206 F 
ATOM     78  C   UNL A   1      42.334  21.061  26.629  1.00  0.00     0.060 A 
BRANCH  78  79
ATOM     79  S   UNL A   1      42.150  19.403  25.940  1.00  0.00     0.124 S 
ATOM     80  O   UNL A   1      40.707  19.332  25.733  1.00  0.00    -0.237 OA
ATOM     81  O   UNL A   1      42.962  19.479  24.729  1.00  0.00    -0.237 OA
ATOM     82  O   UNL A   1      42.676  18.537  26.991  1.00  0.00    -0.744 OA
ENDBRANCH  78  79
ENDBRANCH  57  71
BRANCH  58  83
ATOM     83  C   UNL A   1      43.899  32.591  31.961  1.00  0.00     0.058 A 
ATOM     84  C   UNL A   1      44.294  33.758  31.289  1.00  0.00     0.135 A 
ATOM     85  C   UNL A   1      43.674  32.680  33.344  1.00  0.00     0.135 A 
ATOM     86  F   UNL A   1      44.527  33.725  29.968  1.00  0.00    -0.206 F 
ATOM     87  C   UNL A   1      44.487  34.960  31.965  1.00  0.00     0.059 A 
ATOM     88  C   UNL A   1      43.828  33.876  34.036  1.00  0.00     0.059 A 
ATOM     89  F   UNL A   1      43.273  31.599  34.032  1.00  0.00    -0.206 F 
ATOM     90  C   UNL A   1      44.250  35.008  33.340  1.00  0.00     0.060 A 
BRANCH  90  91
ATOM     91  S   UNL A   1      44.470  36.577  34.205  1.00  0.00     0.124 S 
ATOM     92  O   UNL A   1      44.035  37.533  33.193  1.00  0.00    -0.237 OA
ATOM     93  O   UNL A   1      43.588  36.417  35.357  1.00  0.00    -0.237 OA
ATOM     94  O   UNL A   1      45.897  36.591  34.516  1.00  0.00    -0.744 OA
ENDBRANCH  90  91
ENDBRANCH  58  83
BRANCH  70  95
ATOM     95  C   UNL A   1      48.149  27.203  30.672  1.00  0.00     0.058 A 
ATOM     96  C   UNL A   1      48.575  26.635  31.882  1.00  0.00     0.135 A 
ATOM     97  C   UNL A   1      49.125  27.487  29.702  1.00  0.00     0.135 A 
ATOM     98  F   UNL A   1      47.685  26.352  32.846  1.00  0.00    -0.206 F 
ATOM     99  C   UNL A   1      49.920  26.381  32.131  1.00  0.00     0.059 A 
ATOM    100  C   UNL A   1      50.471  27.210  29.916  1.00  0.00     0.059 A 
ATOM    101  F   UNL A   1      48.771  28.021  28.521  1.00  0.00    -0.206 F 
ATOM    102  C   UNL A   1      50.860  26.668  31.140  1.00  0.00     0.060 A 
BRANCH 102 103
ATOM    103  S   UNL A   1      52.597  26.300  31.465  1.00  0.00     0.124 S 
ATOM    104  O   UNL A   1      53.194  26.513  30.152  1.00  0.00    -0.237 OA
ATOM    105  O   UNL A   1      52.937  27.285  32.485  1.00  0.00    -0.237 OA
ATOM    106  O   UNL A   1      52.570  24.913  31.924  1.00  0.00    -0.744 OA
ENDBRANCH 102 103
ENDBRANCH  70  95
ENDBRANCH  44  45
ENDBRANCH  36  39
ENDBRANCH  34  35
ENDBRANCH   1  34
TORSDOF 19
ENDMDL
