MODEL 1
REMARK VINA RESULT:     -13.6      0.000      0.000
REMARK SMILES Cc1ccc(-c2cncc(C#N)c2)cc1C(=O)NCCCNC(=O)c1ccc(-c2c3nc(c(-c4c(F)cc(S(=O)(=O)[O-])cc4F)c4ccc([nH]4)c(-c4c(F)cc(S(=O)(=O)[O-])cc4F)c4nc(c(-c5c(F)cc(S(=O)(=O)[O-])cc5F)c5ccc2[nH]5)C=C4)C=C3)cc1
REMARK SMILES IDX 20 1 19 2 18 3 16 4 17 5 15 7 1 8 2 9 3 10 4 11 14 12 5 13
REMARK SMILES IDX 6 14 7 15 13 16 8 17 10 18 9 19 11 20 12 21 21 22 22 23
REMARK SMILES IDX 23 24 24 26 25 27 26 28 90 29 27 30 89 31 28 32 29 33 30 34
REMARK SMILES IDX 83 35 31 36 88 37 82 38 84 39 32 40 87 41 81 42 80 43 33 45
REMARK SMILES IDX 67 46 46 47 66 48 47 49 50 50 65 51 85 52 48 53 49 54 64 56
REMARK SMILES IDX 86 57 51 58 34 59 35 60 44 61 36 62 37 63 43 64 45 65 38 66
REMARK SMILES IDX 39 67 40 68 41 69 42 70 68 71 69 72 78 73 70 74 71 75 77 76
REMARK SMILES IDX 79 77 72 78 73 79 74 80 75 81 76 82 52 83 53 84 62 85 54 86
REMARK SMILES IDX 55 87 61 88 63 89 56 90 57 91 58 92 59 93 60 94
REMARK H PARENT 18 6 22 25 84 44 50 55
REMARK Flexibility Score: inf
ROOT
ATOM      1  C   UNL A   1      32.385  28.256  24.421  1.00  0.00     0.042 C 
ENDROOT
BRANCH   1   2
ATOM      2  C   UNL A   1      33.230  26.875  24.491  1.00  0.00     0.118 C 
BRANCH   2   3
ATOM      3  N   UNL A   1      32.742  25.851  25.423  1.00  0.00    -0.352 N 
ATOM      4  C   UNL A   1      33.147  24.557  25.663  1.00  0.00     0.251 C 
ATOM      5  O   UNL A   1      32.649  23.924  26.596  1.00  0.00    -0.269 OA
ATOM      6  H   UNL A   1      31.984  26.143  25.980  1.00  0.00     0.163 HD
BRANCH   4   7
ATOM      7  C   UNL A   1      34.298  23.946  24.935  1.00  0.00     0.043 A 
ATOM      8  C   UNL A   1      33.073  23.103  22.828  1.00  0.00     0.045 C 
ATOM      9  C   UNL A   1      34.290  23.448  23.622  1.00  0.00    -0.038 A 
ATOM     10  C   UNL A   1      35.501  23.158  22.989  1.00  0.00     0.005 A 
ATOM     11  C   UNL A   1      36.674  23.102  23.718  1.00  0.00     0.009 A 
ATOM     12  C   UNL A   1      35.487  23.834  25.680  1.00  0.00     0.023 A 
ATOM     13  C   UNL A   1      36.662  23.346  25.096  1.00  0.00    -0.016 A 
BRANCH  13  14
ATOM     14  C   UNL A   1      37.830  22.966  25.883  1.00  0.00     0.001 A 
ATOM     15  C   UNL A   1      38.475  23.876  26.719  1.00  0.00     0.119 A 
ATOM     16  C   UNL A   1      38.446  21.722  25.687  1.00  0.00     0.031 A 
ATOM     17  N   UNL A   1      39.668  23.652  27.316  1.00  0.00    -0.263 NA
ATOM     18  C   UNL A   1      39.680  21.461  26.279  1.00  0.00     0.071 A 
ATOM     19  C   UNL A   1      40.246  22.453  27.069  1.00  0.00     0.130 A 
BRANCH  18  20
ATOM     20  C   UNL A   1      40.373  20.244  26.050  1.00  0.00     0.101 C 
ATOM     21  N   UNL A   1      40.927  19.229  25.833  1.00  0.00    -0.192 NA
ENDBRANCH  18  20
ENDBRANCH  13  14
ENDBRANCH   4   7
ENDBRANCH   2   3
ENDBRANCH   1   2
BRANCH   1  22
ATOM     22  C   UNL A   1      33.005  29.315  25.354  1.00  0.00     0.118 C 
BRANCH  22  23
ATOM     23  N   UNL A   1      34.450  29.476  26.264  1.00  0.00    -0.352 N 
ATOM     24  C   UNL A   1      35.270  30.093  27.507  1.00  0.00     0.251 C 
ATOM     25  H   UNL A   1      35.103  28.910  25.792  1.00  0.00     0.163 HD
ATOM     26  O   UNL A   1      36.054  29.210  27.933  1.00  0.00    -0.269 OA
BRANCH  24  27
ATOM     27  C   UNL A   1      35.346  31.535  28.553  1.00  0.00     0.039 A 
ATOM     28  C   UNL A   1      36.344  32.567  28.399  1.00  0.00     0.014 A 
ATOM     29  C   UNL A   1      34.774  31.735  29.805  1.00  0.00     0.014 A 
ATOM     30  C   UNL A   1      37.161  33.002  29.570  1.00  0.00     0.010 A 
ATOM     31  C   UNL A   1      35.601  32.022  30.934  1.00  0.00     0.010 A 
ATOM     32  C   UNL A   1      36.930  32.390  30.817  1.00  0.00    -0.014 A 
BRANCH  32  33
ATOM     33  C   UNL A   1      37.899  31.941  31.929  1.00  0.00     0.031 A 
ATOM     34  C   UNL A   1      38.197  32.997  32.886  1.00  0.00     0.074 A 
ATOM     35  C   UNL A   1      38.404  30.709  32.296  1.00  0.00     0.049 A 
ATOM     36  N   UNL A   1      39.328  33.593  33.045  1.00  0.00    -0.248 NA
ATOM     37  C   UNL A   1      37.094  33.564  33.655  1.00  0.00     0.031 C 
ATOM     38  C   UNL A   1      39.335  30.241  33.356  1.00  0.00     0.029 A 
ATOM     39  N   UNL A   1      38.249  29.492  31.663  1.00  0.00    -0.354 N 
ATOM     40  C   UNL A   1      39.146  34.320  34.204  1.00  0.00     0.074 A 
ATOM     41  C   UNL A   1      37.728  34.562  34.260  1.00  0.00     0.031 C 
ATOM     42  C   UNL A   1      39.959  29.100  32.952  1.00  0.00     0.029 A 
ATOM     43  C   UNL A   1      39.464  28.795  31.632  1.00  0.00     0.049 A 
ATOM     44  H   UNL A   1      37.402  29.160  31.287  1.00  0.00     0.167 HD
ATOM     45  C   UNL A   1      40.038  34.219  35.238  1.00  0.00     0.037 A 
ATOM     46  C   UNL A   1      40.140  28.737  30.436  1.00  0.00     0.037 A 
ATOM     47  C   UNL A   1      41.053  33.183  34.946  1.00  0.00     0.049 A 
ATOM     48  C   UNL A   1      41.320  29.674  30.433  1.00  0.00     0.074 A 
ATOM     49  C   UNL A   1      41.370  31.943  35.481  1.00  0.00     0.029 A 
ATOM     50  N   UNL A   1      41.717  33.224  33.731  1.00  0.00    -0.354 N 
ATOM     51  N   UNL A   1      41.607  30.401  31.471  1.00  0.00    -0.248 NA
ATOM     52  C   UNL A   1      42.225  29.934  29.315  1.00  0.00     0.031 C 
ATOM     53  C   UNL A   1      42.218  31.250  34.551  1.00  0.00     0.029 A 
ATOM     54  C   UNL A   1      42.434  32.076  33.464  1.00  0.00     0.049 A 
ATOM     55  H   UNL A   1      41.681  33.994  33.120  1.00  0.00     0.167 HD
ATOM     56  C   UNL A   1      42.672  31.201  31.223  1.00  0.00     0.074 A 
ATOM     57  C   UNL A   1      43.003  30.904  29.835  1.00  0.00     0.031 C 
ATOM     58  C   UNL A   1      43.171  32.013  32.203  1.00  0.00     0.037 A 
BRANCH  45  59
ATOM     59  C   UNL A   1      39.827  34.847  36.615  1.00  0.00     0.058 A 
ATOM     60  C   UNL A   1      40.309  36.142  36.895  1.00  0.00     0.135 A 
ATOM     61  C   UNL A   1      39.092  34.274  37.682  1.00  0.00     0.135 A 
ATOM     62  F   UNL A   1      40.937  36.869  35.961  1.00  0.00    -0.206 F 
ATOM     63  C   UNL A   1      40.126  36.781  38.128  1.00  0.00     0.059 A 
ATOM     64  C   UNL A   1      38.948  34.863  38.941  1.00  0.00     0.059 A 
ATOM     65  F   UNL A   1      38.378  33.153  37.547  1.00  0.00    -0.206 F 
ATOM     66  C   UNL A   1      39.455  36.128  39.153  1.00  0.00     0.060 A 
BRANCH  66  67
ATOM     67  S   UNL A   1      39.166  36.979  40.713  1.00  0.00     0.124 S 
ATOM     68  O   UNL A   1      38.318  36.030  41.427  1.00  0.00    -0.237 OA
ATOM     69  O   UNL A   1      40.522  37.134  41.231  1.00  0.00    -0.237 OA
ATOM     70  O   UNL A   1      38.508  38.220  40.313  1.00  0.00    -0.744 OA
ENDBRANCH  66  67
ENDBRANCH  45  59
BRANCH  46  71
ATOM     71  C   UNL A   1      39.205  28.509  29.262  1.00  0.00     0.058 A 
ATOM     72  C   UNL A   1      39.403  29.414  28.229  1.00  0.00     0.135 A 
ATOM     73  C   UNL A   1      39.182  27.217  28.790  1.00  0.00     0.135 A 
ATOM     74  F   UNL A   1      38.733  30.575  28.230  1.00  0.00    -0.206 F 
ATOM     75  C   UNL A   1      40.084  29.053  27.036  1.00  0.00     0.059 A 
ATOM     76  C   UNL A   1      39.988  26.923  27.658  1.00  0.00     0.059 A 
ATOM     77  F   UNL A   1      38.785  26.213  29.588  1.00  0.00    -0.206 F 
ATOM     78  C   UNL A   1      40.655  27.793  26.833  1.00  0.00     0.060 A 
BRANCH  78  79
ATOM     79  S   UNL A   1      42.356  27.197  25.593  1.00  0.00     0.124 S 
ATOM     80  O   UNL A   1      42.564  28.191  24.548  1.00  0.00    -0.237 OA
ATOM     81  O   UNL A   1      43.455  27.228  26.537  1.00  0.00    -0.237 OA
ATOM     82  O   UNL A   1      42.047  25.913  24.971  1.00  0.00    -0.744 OA
ENDBRANCH  78  79
ENDBRANCH  46  71
BRANCH  58  83
ATOM     83  C   UNL A   1      44.387  32.879  32.034  1.00  0.00     0.058 A 
ATOM     84  C   UNL A   1      45.579  32.662  32.736  1.00  0.00     0.135 A 
ATOM     85  C   UNL A   1      44.370  34.026  31.204  1.00  0.00     0.135 A 
ATOM     86  F   UNL A   1      45.653  31.757  33.724  1.00  0.00    -0.206 F 
ATOM     87  C   UNL A   1      46.725  33.409  32.490  1.00  0.00     0.059 A 
ATOM     88  C   UNL A   1      45.483  34.814  30.981  1.00  0.00     0.059 A 
ATOM     89  F   UNL A   1      43.273  34.455  30.571  1.00  0.00    -0.206 F 
ATOM     90  C   UNL A   1      46.671  34.469  31.590  1.00  0.00     0.060 A 
BRANCH  90  91
ATOM     91  S   UNL A   1      48.147  35.435  31.280  1.00  0.00     0.124 S 
ATOM     92  O   UNL A   1      48.174  36.329  32.432  1.00  0.00    -0.237 OA
ATOM     93  O   UNL A   1      49.172  34.397  31.256  1.00  0.00    -0.237 OA
ATOM     94  O   UNL A   1      47.874  36.079  29.999  1.00  0.00    -0.744 OA
ENDBRANCH  90  91
ENDBRANCH  58  83
ENDBRANCH  32  33
ENDBRANCH  24  27
ENDBRANCH  22  23
ENDBRANCH   1  22
TORSDOF 15
ENDMDL
MODEL 2
REMARK VINA RESULT:     -13.6      1.641      2.600
REMARK SMILES Cc1ccc(-c2cncc(C#N)c2)cc1C(=O)NCCCNC(=O)c1ccc(-c2c3nc(c(-c4c(F)cc(S(=O)(=O)[O-])cc4F)c4ccc([nH]4)c(-c4c(F)cc(S(=O)(=O)[O-])cc4F)c4nc(c(-c5c(F)cc(S(=O)(=O)[O-])cc5F)c5ccc2[nH]5)C=C4)C=C3)cc1
REMARK SMILES IDX 20 1 19 2 18 3 16 4 17 5 15 7 1 8 2 9 3 10 4 11 14 12 5 13
REMARK SMILES IDX 6 14 7 15 13 16 8 17 10 18 9 19 11 20 12 21 21 22 22 23
REMARK SMILES IDX 23 24 24 26 25 27 26 28 90 29 27 30 89 31 28 32 29 33 30 34
REMARK SMILES IDX 83 35 31 36 88 37 82 38 84 39 32 40 87 41 81 42 80 43 33 45
REMARK SMILES IDX 67 46 46 47 66 48 47 49 50 50 65 51 85 52 48 53 49 54 64 56
REMARK SMILES IDX 86 57 51 58 34 59 35 60 44 61 36 62 37 63 43 64 45 65 38 66
REMARK SMILES IDX 39 67 40 68 41 69 42 70 68 71 69 72 78 73 70 74 71 75 77 76
REMARK SMILES IDX 79 77 72 78 73 79 74 80 75 81 76 82 52 83 53 84 62 85 54 86
REMARK SMILES IDX 55 87 61 88 63 89 56 90 57 91 58 92 59 93 60 94
REMARK H PARENT 18 6 22 25 84 44 50 55
REMARK Flexibility Score: inf
ROOT
ATOM      1  C   UNL A   1      33.136  29.293  23.389  1.00  0.00     0.042 C 
ENDROOT
BRANCH   1   2
ATOM      2  C   UNL A   1      33.835  27.975  22.755  1.00  0.00     0.118 C 
BRANCH   2   3
ATOM      3  N   UNL A   1      33.070  27.254  21.730  1.00  0.00    -0.352 N 
ATOM      4  C   UNL A   1      32.016  26.371  21.820  1.00  0.00     0.251 C 
ATOM      5  O   UNL A   1      31.455  25.983  20.793  1.00  0.00    -0.269 OA
ATOM      6  H   UNL A   1      33.364  27.434  20.808  1.00  0.00     0.163 HD
BRANCH   4   7
ATOM      7  C   UNL A   1      31.415  25.995  23.133  1.00  0.00     0.043 A 
ATOM      8  C   UNL A   1      29.844  28.011  23.477  1.00  0.00     0.045 C 
ATOM      9  C   UNL A   1      30.348  26.639  23.780  1.00  0.00    -0.038 A 
ATOM     10  C   UNL A   1      29.724  26.015  24.863  1.00  0.00     0.005 A 
ATOM     11  C   UNL A   1      30.304  24.913  25.464  1.00  0.00     0.009 A 
ATOM     12  C   UNL A   1      32.027  24.907  23.783  1.00  0.00     0.023 A 
ATOM     13  C   UNL A   1      31.517  24.405  24.987  1.00  0.00    -0.016 A 
BRANCH  13  14
ATOM     14  C   UNL A   1      32.259  23.468  25.822  1.00  0.00     0.001 A 
ATOM     15  C   UNL A   1      31.932  23.267  27.163  1.00  0.00     0.119 A 
ATOM     16  C   UNL A   1      33.439  22.874  25.351  1.00  0.00     0.031 A 
ATOM     17  N   UNL A   1      32.694  22.573  28.039  1.00  0.00    -0.263 NA
ATOM     18  C   UNL A   1      34.253  22.160  26.228  1.00  0.00     0.071 A 
ATOM     19  C   UNL A   1      33.842  22.049  27.551  1.00  0.00     0.130 A 
BRANCH  18  20
ATOM     20  C   UNL A   1      35.489  21.604  25.811  1.00  0.00     0.101 C 
ATOM     21  N   UNL A   1      36.501  21.111  25.471  1.00  0.00    -0.192 NA
ENDBRANCH  18  20
ENDBRANCH  13  14
ENDBRANCH   4   7
ENDBRANCH   2   3
ENDBRANCH   1   2
BRANCH   1  22
ATOM     22  C   UNL A   1      33.305  29.308  24.921  1.00  0.00     0.118 C 
BRANCH  22  23
ATOM     23  N   UNL A   1      34.616  29.343  26.027  1.00  0.00    -0.352 N 
ATOM     24  C   UNL A   1      35.322  29.922  27.356  1.00  0.00     0.251 C 
ATOM     25  H   UNL A   1      35.255  28.681  25.675  1.00  0.00     0.163 HD
ATOM     26  O   UNL A   1      35.923  28.975  27.920  1.00  0.00    -0.269 OA
BRANCH  24  27
ATOM     27  C   UNL A   1      35.428  31.396  28.353  1.00  0.00     0.039 A 
ATOM     28  C   UNL A   1      36.464  32.386  28.186  1.00  0.00     0.014 A 
ATOM     29  C   UNL A   1      34.838  31.659  29.585  1.00  0.00     0.014 A 
ATOM     30  C   UNL A   1      37.273  32.834  29.358  1.00  0.00     0.010 A 
ATOM     31  C   UNL A   1      35.652  31.956  30.721  1.00  0.00     0.010 A 
ATOM     32  C   UNL A   1      36.995  32.274  30.620  1.00  0.00    -0.014 A 
BRANCH  32  33
ATOM     33  C   UNL A   1      37.926  31.831  31.767  1.00  0.00     0.031 A 
ATOM     34  C   UNL A   1      38.215  32.900  32.711  1.00  0.00     0.074 A 
ATOM     35  C   UNL A   1      38.399  30.599  32.171  1.00  0.00     0.049 A 
ATOM     36  N   UNL A   1      39.352  33.480  32.890  1.00  0.00    -0.248 NA
ATOM     37  C   UNL A   1      37.102  33.501  33.438  1.00  0.00     0.031 C 
ATOM     38  C   UNL A   1      39.293  30.136  33.265  1.00  0.00     0.029 A 
ATOM     39  N   UNL A   1      38.240  29.371  31.558  1.00  0.00    -0.354 N 
ATOM     40  C   UNL A   1      39.150  34.233  34.030  1.00  0.00     0.074 A 
ATOM     41  C   UNL A   1      37.736  34.500  34.042  1.00  0.00     0.031 C 
ATOM     42  C   UNL A   1      39.908  28.977  32.901  1.00  0.00     0.029 A 
ATOM     43  C   UNL A   1      39.444  28.654  31.574  1.00  0.00     0.049 A 
ATOM     44  H   UNL A   1      37.398  29.046  31.165  1.00  0.00     0.167 HD
ATOM     45  C   UNL A   1      40.012  34.138  35.089  1.00  0.00     0.037 A 
ATOM     46  C   UNL A   1      40.151  28.561  30.399  1.00  0.00     0.037 A 
ATOM     47  C   UNL A   1      41.016  33.080  34.845  1.00  0.00     0.049 A 
ATOM     48  C   UNL A   1      41.347  29.478  30.410  1.00  0.00     0.074 A 
ATOM     49  C   UNL A   1      41.297  31.845  35.413  1.00  0.00     0.029 A 
ATOM     50  N   UNL A   1      41.715  33.086  33.649  1.00  0.00    -0.354 N 
ATOM     51  N   UNL A   1      41.618  30.221  31.442  1.00  0.00    -0.248 NA
ATOM     52  C   UNL A   1      42.286  29.700  29.313  1.00  0.00     0.031 C 
ATOM     53  C   UNL A   1      42.158  31.120  34.520  1.00  0.00     0.029 A 
ATOM     54  C   UNL A   1      42.418  31.920  33.424  1.00  0.00     0.049 A 
ATOM     55  H   UNL A   1      41.708  33.844  33.023  1.00  0.00     0.167 HD
ATOM     56  C   UNL A   1      42.702  30.998  31.208  1.00  0.00     0.074 A 
ATOM     57  C   UNL A   1      43.066  30.668  29.835  1.00  0.00     0.031 C 
ATOM     58  C   UNL A   1      43.188  31.820  32.186  1.00  0.00     0.037 A 
BRANCH  45  59
ATOM     59  C   UNL A   1      39.774  34.796  36.448  1.00  0.00     0.058 A 
ATOM     60  C   UNL A   1      40.303  36.073  36.729  1.00  0.00     0.135 A 
ATOM     61  C   UNL A   1      38.971  34.274  37.492  1.00  0.00     0.135 A 
ATOM     62  F   UNL A   1      41.001  36.756  35.812  1.00  0.00    -0.206 F 
ATOM     63  C   UNL A   1      40.100  36.738  37.945  1.00  0.00     0.059 A 
ATOM     64  C   UNL A   1      38.804  34.888  38.735  1.00  0.00     0.059 A 
ATOM     65  F   UNL A   1      38.213  33.184  37.342  1.00  0.00    -0.206 F 
ATOM     66  C   UNL A   1      39.359  36.132  38.951  1.00  0.00     0.060 A 
BRANCH  66  67
ATOM     67  S   UNL A   1      39.046  37.020  40.485  1.00  0.00     0.124 S 
ATOM     68  O   UNL A   1      38.243  38.149  40.027  1.00  0.00    -0.237 OA
ATOM     69  O   UNL A   1      38.340  36.018  41.278  1.00  0.00    -0.237 OA
ATOM     70  O   UNL A   1      40.382  37.363  40.965  1.00  0.00    -0.744 OA
ENDBRANCH  66  67
ENDBRANCH  45  59
BRANCH  46  71
ATOM     71  C   UNL A   1      39.245  28.326  29.204  1.00  0.00     0.058 A 
ATOM     72  C   UNL A   1      39.451  29.240  28.180  1.00  0.00     0.135 A 
ATOM     73  C   UNL A   1      39.251  27.036  28.724  1.00  0.00     0.135 A 
ATOM     74  F   UNL A   1      38.764  30.391  28.172  1.00  0.00    -0.206 F 
ATOM     75  C   UNL A   1      40.162  28.895  27.000  1.00  0.00     0.059 A 
ATOM     76  C   UNL A   1      40.086  26.760  27.608  1.00  0.00     0.059 A 
ATOM     77  F   UNL A   1      38.853  26.022  29.509  1.00  0.00    -0.206 F 
ATOM     78  C   UNL A   1      40.757  27.645  26.802  1.00  0.00     0.060 A 
BRANCH  78  79
ATOM     79  S   UNL A   1      42.492  27.082  25.596  1.00  0.00     0.124 S 
ATOM     80  O   UNL A   1      42.261  25.774  24.996  1.00  0.00    -0.237 OA
ATOM     81  O   UNL A   1      42.504  28.106  24.570  1.00  0.00    -0.237 OA
ATOM     82  O   UNL A   1      43.658  27.003  26.472  1.00  0.00    -0.744 OA
ENDBRANCH  78  79
ENDBRANCH  46  71
BRANCH  58  83
ATOM     83  C   UNL A   1      44.423  32.663  32.033  1.00  0.00     0.058 A 
ATOM     84  C   UNL A   1      45.639  32.349  32.653  1.00  0.00     0.135 A 
ATOM     85  C   UNL A   1      44.406  33.880  31.310  1.00  0.00     0.135 A 
ATOM     86  F   UNL A   1      45.729  31.356  33.552  1.00  0.00    -0.206 F 
ATOM     87  C   UNL A   1      46.797  33.081  32.417  1.00  0.00     0.059 A 
ATOM     88  C   UNL A   1      45.533  34.652  31.103  1.00  0.00     0.059 A 
ATOM     89  F   UNL A   1      43.295  34.396  30.773  1.00  0.00    -0.206 F 
ATOM     90  C   UNL A   1      46.736  34.219  31.619  1.00  0.00     0.060 A 
BRANCH  90  91
ATOM     91  S   UNL A   1      48.227  35.166  31.322  1.00  0.00     0.124 S 
ATOM     92  O   UNL A   1      47.784  36.527  31.606  1.00  0.00    -0.237 OA
ATOM     93  O   UNL A   1      49.141  34.579  32.296  1.00  0.00    -0.237 OA
ATOM     94  O   UNL A   1      48.537  34.891  29.923  1.00  0.00    -0.744 OA
ENDBRANCH  90  91
ENDBRANCH  58  83
ENDBRANCH  32  33
ENDBRANCH  24  27
ENDBRANCH  22  23
ENDBRANCH   1  22
TORSDOF 15
ENDMDL
MODEL 3
REMARK VINA RESULT:     -13.4      5.480      8.770
REMARK SMILES Cc1ccc(-c2cncc(C#N)c2)cc1C(=O)NCCCNC(=O)c1ccc(-c2c3nc(c(-c4c(F)cc(S(=O)(=O)[O-])cc4F)c4ccc([nH]4)c(-c4c(F)cc(S(=O)(=O)[O-])cc4F)c4nc(c(-c5c(F)cc(S(=O)(=O)[O-])cc5F)c5ccc2[nH]5)C=C4)C=C3)cc1
REMARK SMILES IDX 20 1 19 2 18 3 16 4 17 5 15 7 1 8 2 9 3 10 4 11 14 12 5 13
REMARK SMILES IDX 6 14 7 15 13 16 8 17 10 18 9 19 11 20 12 21 21 22 22 23
REMARK SMILES IDX 23 24 24 26 25 27 26 28 90 29 27 30 89 31 28 32 29 33 30 34
REMARK SMILES IDX 83 35 31 36 88 37 82 38 84 39 32 40 87 41 81 42 80 43 33 45
REMARK SMILES IDX 67 46 46 47 66 48 47 49 50 50 65 51 85 52 48 53 49 54 64 56
REMARK SMILES IDX 86 57 51 58 34 59 35 60 44 61 36 62 37 63 43 64 45 65 38 66
REMARK SMILES IDX 39 67 40 68 41 69 42 70 68 71 69 72 78 73 70 74 71 75 77 76
REMARK SMILES IDX 79 77 72 78 73 79 74 80 75 81 76 82 52 83 53 84 62 85 54 86
REMARK SMILES IDX 55 87 61 88 63 89 56 90 57 91 58 92 59 93 60 94
REMARK H PARENT 18 6 22 25 84 44 50 55
REMARK Flexibility Score: inf
ROOT
ATOM      1  C   UNL A   1      33.966  31.417  27.821  1.00  0.00     0.042 C 
ENDROOT
BRANCH   1   2
ATOM      2  C   UNL A   1      34.144  30.117  26.869  1.00  0.00     0.118 C 
BRANCH   2   3
ATOM      3  N   UNL A   1      33.355  30.094  25.631  1.00  0.00    -0.352 N 
ATOM      4  C   UNL A   1      32.754  29.064  24.942  1.00  0.00     0.251 C 
ATOM      5  O   UNL A   1      32.033  29.316  23.974  1.00  0.00    -0.269 OA
ATOM      6  H   UNL A   1      33.232  30.979  25.216  1.00  0.00     0.163 HD
BRANCH   4   7
ATOM      7  C   UNL A   1      32.808  27.655  25.430  1.00  0.00     0.043 A 
ATOM      8  C   UNL A   1      31.456  27.905  27.611  1.00  0.00     0.045 C 
ATOM      9  C   UNL A   1      32.105  27.119  26.520  1.00  0.00    -0.038 A 
ATOM     10  C   UNL A   1      32.048  25.733  26.688  1.00  0.00     0.005 A 
ATOM     11  C   UNL A   1      32.884  24.907  25.960  1.00  0.00     0.009 A 
ATOM     12  C   UNL A   1      33.693  26.812  24.731  1.00  0.00     0.023 A 
ATOM     13  C   UNL A   1      33.786  25.449  25.039  1.00  0.00    -0.016 A 
BRANCH  13  14
ATOM     14  C   UNL A   1      34.863  24.604  24.534  1.00  0.00     0.001 A 
ATOM     15  C   UNL A   1      34.767  23.955  23.304  1.00  0.00     0.119 A 
ATOM     16  C   UNL A   1      35.953  24.274  25.353  1.00  0.00     0.031 A 
ATOM     17  N   UNL A   1      35.629  23.008  22.870  1.00  0.00    -0.263 NA
ATOM     18  C   UNL A   1      36.855  23.295  24.942  1.00  0.00     0.071 A 
ATOM     19  C   UNL A   1      36.644  22.693  23.708  1.00  0.00     0.130 A 
BRANCH  18  20
ATOM     20  C   UNL A   1      37.930  22.880  25.770  1.00  0.00     0.101 C 
ATOM     21  N   UNL A   1      38.832  22.515  26.430  1.00  0.00    -0.192 NA
ENDBRANCH  18  20
ENDBRANCH  13  14
ENDBRANCH   4   7
ENDBRANCH   2   3
ENDBRANCH   1   2
BRANCH   1  22
ATOM     22  C   UNL A   1      35.341  31.945  28.273  1.00  0.00     0.118 C 
BRANCH  22  23
ATOM     23  N   UNL A   1      36.791  31.268  28.891  1.00  0.00    -0.352 N 
ATOM     24  C   UNL A   1      38.174  30.466  28.677  1.00  0.00     0.251 C 
ATOM     25  H   UNL A   1      36.767  31.469  29.854  1.00  0.00     0.163 HD
ATOM     26  O   UNL A   1      39.037  30.972  29.436  1.00  0.00    -0.269 OA
BRANCH  24  27
ATOM     27  C   UNL A   1      38.919  29.214  27.650  1.00  0.00     0.039 A 
ATOM     28  C   UNL A   1      39.017  27.829  28.044  1.00  0.00     0.014 A 
ATOM     29  C   UNL A   1      39.786  29.372  26.574  1.00  0.00     0.014 A 
ATOM     30  C   UNL A   1      40.332  27.125  27.993  1.00  0.00     0.010 A 
ATOM     31  C   UNL A   1      41.091  28.792  26.614  1.00  0.00     0.010 A 
ATOM     32  C   UNL A   1      41.462  27.840  27.548  1.00  0.00    -0.014 A 
BRANCH  32  33
ATOM     33  C   UNL A   1      42.925  27.841  28.033  1.00  0.00     0.031 A 
ATOM     34  C   UNL A   1      43.576  29.133  27.877  1.00  0.00     0.074 A 
ATOM     35  C   UNL A   1      43.684  26.924  28.734  1.00  0.00     0.049 A 
ATOM     36  N   UNL A   1      44.533  29.417  27.063  1.00  0.00    -0.248 NA
ATOM     37  C   UNL A   1      43.019  30.278  28.589  1.00  0.00     0.031 C 
ATOM     38  C   UNL A   1      45.089  26.891  29.217  1.00  0.00     0.029 A 
ATOM     39  N   UNL A   1      43.346  25.642  29.120  1.00  0.00    -0.354 N 
ATOM     40  C   UNL A   1      44.935  30.674  27.469  1.00  0.00     0.074 A 
ATOM     41  C   UNL A   1      43.763  31.251  28.074  1.00  0.00     0.031 C 
ATOM     42  C   UNL A   1      45.514  25.601  29.313  1.00  0.00     0.029 A 
ATOM     43  C   UNL A   1      44.415  24.764  28.898  1.00  0.00     0.049 A 
ATOM     44  H   UNL A   1      42.476  25.382  29.499  1.00  0.00     0.167 HD
ATOM     45  C   UNL A   1      46.253  30.931  27.740  1.00  0.00     0.037 A 
ATOM     46  C   UNL A   1      44.327  23.902  27.830  1.00  0.00     0.037 A 
ATOM     47  C   UNL A   1      47.051  29.689  27.650  1.00  0.00     0.049 A 
ATOM     48  C   UNL A   1      45.198  24.361  26.688  1.00  0.00     0.074 A 
ATOM     49  C   UNL A   1      47.747  28.903  28.557  1.00  0.00     0.029 A 
ATOM     50  N   UNL A   1      46.932  28.900  26.518  1.00  0.00    -0.354 N 
ATOM     51  N   UNL A   1      45.922  25.436  26.782  1.00  0.00    -0.248 NA
ATOM     52  C   UNL A   1      45.305  23.740  25.370  1.00  0.00     0.031 C 
ATOM     53  C   UNL A   1      48.019  27.633  27.944  1.00  0.00     0.029 A 
ATOM     54  C   UNL A   1      47.509  27.655  26.660  1.00  0.00     0.049 A 
ATOM     55  H   UNL A   1      46.480  29.197  25.696  1.00  0.00     0.167 HD
ATOM     56  C   UNL A   1      46.578  25.680  25.622  1.00  0.00     0.074 A 
ATOM     57  C   UNL A   1      46.125  24.608  24.744  1.00  0.00     0.031 C 
ATOM     58  C   UNL A   1      47.436  26.739  25.523  1.00  0.00     0.037 A 
BRANCH  45  59
ATOM     59  C   UNL A   1      46.761  32.233  28.358  1.00  0.00     0.058 A 
ATOM     60  C   UNL A   1      47.150  33.313  27.537  1.00  0.00     0.135 A 
ATOM     61  C   UNL A   1      46.817  32.526  29.743  1.00  0.00     0.135 A 
ATOM     62  F   UNL A   1      47.060  33.242  26.203  1.00  0.00    -0.206 F 
ATOM     63  C   UNL A   1      47.601  34.539  28.043  1.00  0.00     0.059 A 
ATOM     64  C   UNL A   1      47.321  33.717  30.273  1.00  0.00     0.059 A 
ATOM     65  F   UNL A   1      46.295  31.722  30.672  1.00  0.00    -0.206 F 
ATOM     66  C   UNL A   1      47.697  34.729  29.414  1.00  0.00     0.060 A 
BRANCH  66  67
ATOM     67  S   UNL A   1      48.214  36.329  30.058  1.00  0.00     0.124 S 
ATOM     68  O   UNL A   1      47.570  37.254  29.132  1.00  0.00    -0.237 OA
ATOM     69  O   UNL A   1      47.669  36.302  31.412  1.00  0.00    -0.237 OA
ATOM     70  O   UNL A   1      49.671  36.280  29.975  1.00  0.00    -0.744 OA
ENDBRANCH  66  67
ENDBRANCH  45  59
BRANCH  46  71
ATOM     71  C   UNL A   1      42.935  23.316  27.683  1.00  0.00     0.058 A 
ATOM     72  C   UNL A   1      42.512  23.249  26.363  1.00  0.00     0.135 A 
ATOM     73  C   UNL A   1      42.749  22.112  28.323  1.00  0.00     0.135 A 
ATOM     74  F   UNL A   1      41.870  24.293  25.820  1.00  0.00    -0.206 F 
ATOM     75  C   UNL A   1      42.496  22.025  25.642  1.00  0.00     0.059 A 
ATOM     76  C   UNL A   1      42.868  20.933  27.539  1.00  0.00     0.059 A 
ATOM     77  F   UNL A   1      42.886  22.028  29.656  1.00  0.00    -0.206 F 
ATOM     78  C   UNL A   1      42.955  20.817  26.175  1.00  0.00     0.060 A 
BRANCH  78  79
ATOM     79  S   UNL A   1      43.798  19.064  25.177  1.00  0.00     0.124 S 
ATOM     80  O   UNL A   1      45.033  18.673  25.845  1.00  0.00    -0.237 OA
ATOM     81  O   UNL A   1      42.775  18.060  25.393  1.00  0.00    -0.237 OA
ATOM     82  O   UNL A   1      44.101  19.420  23.793  1.00  0.00    -0.744 OA
ENDBRANCH  78  79
ENDBRANCH  46  71
BRANCH  58  83
ATOM     83  C   UNL A   1      48.253  27.042  24.298  1.00  0.00     0.058 A 
ATOM     84  C   UNL A   1      49.618  26.743  24.201  1.00  0.00     0.135 A 
ATOM     85  C   UNL A   1      47.701  27.728  23.190  1.00  0.00     0.135 A 
ATOM     86  F   UNL A   1      50.315  26.308  25.263  1.00  0.00    -0.206 F 
ATOM     87  C   UNL A   1      50.333  26.934  23.024  1.00  0.00     0.059 A 
ATOM     88  C   UNL A   1      48.405  27.975  22.026  1.00  0.00     0.059 A 
ATOM     89  F   UNL A   1      46.453  28.208  23.173  1.00  0.00    -0.206 F 
ATOM     90  C   UNL A   1      49.708  27.531  21.934  1.00  0.00     0.060 A 
BRANCH  90  91
ATOM     91  S   UNL A   1      50.632  27.784  20.420  1.00  0.00     0.124 S 
ATOM     92  O   UNL A   1      51.882  27.089  20.707  1.00  0.00    -0.237 OA
ATOM     93  O   UNL A   1      49.760  27.146  19.439  1.00  0.00    -0.237 OA
ATOM     94  O   UNL A   1      50.735  29.236  20.320  1.00  0.00    -0.744 OA
ENDBRANCH  90  91
ENDBRANCH  58  83
ENDBRANCH  32  33
ENDBRANCH  24  27
ENDBRANCH  22  23
ENDBRANCH   1  22
TORSDOF 15
ENDMDL
