MODEL 1
REMARK VINA RESULT:     -12.7      0.000      0.000
REMARK SMILES Cc1c2c([nH]c(=O)c1C(=O)NCCCNC(=O)c1ccc(-c3c4nc(c(-c5c(F)cc(S(=O)(=O)[O-])cc5F)c5ccc([nH]5)c(-c5c(F)cc(S(=O)(=O)[O-])cc5F)c5nc(c(-c6c(F)cc(S(=O)(=O)[O-])cc6F)c6ccc3[nH]6)C=C5)C=C4)cc1)CC(C)(C)CC2=O
REMARK SMILES IDX 15 1 16 2 17 3 14 5 13 6 12 7 11 8 9 9 10 10 8 12 1 13 2 14
REMARK SMILES IDX 3 15 4 16 89 17 6 18 5 19 84 20 88 21 90 22 7 23 85 25 86 26
REMARK SMILES IDX 87 27 18 28 19 29 83 30 20 31 82 32 21 33 22 34 23 35 76 36
REMARK SMILES IDX 24 37 81 38 75 39 77 40 25 41 80 42 74 43 73 44 26 46 60 47
REMARK SMILES IDX 39 48 59 49 40 50 43 51 58 52 78 53 41 54 42 55 57 57 79 58
REMARK SMILES IDX 44 59 27 60 28 61 37 62 29 63 30 64 36 65 38 66 31 67 32 68
REMARK SMILES IDX 33 69 34 70 35 71 61 72 62 73 71 74 63 75 64 76 70 77 72 78
REMARK SMILES IDX 65 79 66 80 67 81 68 82 69 83 45 84 46 85 55 86 47 87 48 88
REMARK SMILES IDX 54 89 56 90 49 91 50 92 51 93 52 94 53 95
REMARK H PARENT 15 4 11 11 5 24 77 45 43 56
REMARK Flexibility Score: inf
ROOT
ATOM      1  N   UNL A   1      33.377  29.779  27.578  1.00  0.00    -0.352 N 
ATOM      2  C   UNL A   1      34.379  30.565  28.098  1.00  0.00     0.251 C 
ATOM      3  O   UNL A   1      34.113  31.718  28.437  1.00  0.00    -0.269 OA
ATOM      4  H   UNL A   1      32.528  30.258  27.433  1.00  0.00     0.163 HD
ENDROOT
BRANCH   1   5
ATOM      5  C   UNL A   1      33.333  28.371  27.202  1.00  0.00     0.118 C 
BRANCH   5   6
ATOM      6  C   UNL A   1      32.446  28.076  25.999  1.00  0.00     0.042 C 
BRANCH   6   7
ATOM      7  C   UNL A   1      33.123  28.265  24.653  1.00  0.00     0.118 C 
BRANCH   7   8
ATOM      8  N   UNL A   1      32.217  28.532  23.543  1.00  0.00    -0.352 N 
ATOM      9  C   UNL A   1      31.472  27.661  22.792  1.00  0.00     0.257 C 
ATOM     10  O   UNL A   1      30.627  28.111  22.022  1.00  0.00    -0.269 OA
ATOM     11  H   UNL A   1      32.128  29.480  23.294  1.00  0.00     0.163 HD
BRANCH   9  12
ATOM     12  C   UNL A   1      31.714  26.199  22.909  1.00  0.00     0.108 A 
ATOM     13  C   UNL A   1      29.846  25.866  24.573  1.00  0.00     0.046 C 
ATOM     14  C   UNL A   1      31.062  25.415  23.801  1.00  0.00    -0.020 A 
ATOM     15  C   UNL A   1      31.471  24.016  23.972  1.00  0.00     0.041 A 
ATOM     16  C   UNL A   1      32.185  23.406  23.008  1.00  0.00     0.030 A 
ATOM     17  C   UNL A   1      31.188  23.249  25.231  1.00  0.00     0.165 C 
ATOM     18  C   UNL A   1      32.593  25.534  21.895  1.00  0.00     0.261 A 
ATOM     19  N   UNL A   1      32.681  24.162  21.970  1.00  0.00    -0.325 N 
ATOM     20  C   UNL A   1      32.566  21.948  23.012  1.00  0.00     0.061 C 
ATOM     21  C   UNL A   1      31.397  21.754  25.229  1.00  0.00     0.088 C 
ATOM     22  O   UNL A   1      30.779  23.812  26.246  1.00  0.00    -0.294 OA
ATOM     23  O   UNL A   1      33.203  26.139  21.020  1.00  0.00    -0.269 OA
ATOM     24  H   UNL A   1      33.128  23.690  21.232  1.00  0.00     0.169 HD
ATOM     25  C   UNL A   1      32.630  21.327  24.420  1.00  0.00    -0.023 C 
ATOM     26  C   UNL A   1      33.930  21.758  25.130  1.00  0.00     0.012 C 
ATOM     27  C   UNL A   1      32.628  19.793  24.307  1.00  0.00     0.012 C 
ENDBRANCH   9  12
ENDBRANCH   7   8
ENDBRANCH   6   7
ENDBRANCH   5   6
ENDBRANCH   1   5
BRANCH   2  28
ATOM     28  C   UNL A   1      35.748  30.040  28.299  1.00  0.00     0.039 A 
ATOM     29  C   UNL A   1      36.654  30.088  27.234  1.00  0.00     0.014 A 
ATOM     30  C   UNL A   1      36.149  29.484  29.512  1.00  0.00     0.014 A 
ATOM     31  C   UNL A   1      37.977  29.674  27.421  1.00  0.00     0.010 A 
ATOM     32  C   UNL A   1      37.490  29.187  29.734  1.00  0.00     0.010 A 
ATOM     33  C   UNL A   1      38.422  29.273  28.691  1.00  0.00    -0.014 A 
BRANCH  33  34
ATOM     34  C   UNL A   1      39.842  28.921  28.957  1.00  0.00     0.031 A 
ATOM     35  C   UNL A   1      40.777  29.950  29.541  1.00  0.00     0.074 A 
ATOM     36  C   UNL A   1      40.315  27.710  28.597  1.00  0.00     0.049 A 
ATOM     37  N   UNL A   1      42.072  29.889  29.713  1.00  0.00    -0.248 NA
ATOM     38  C   UNL A   1      40.180  31.234  29.948  1.00  0.00     0.031 C 
ATOM     39  C   UNL A   1      39.529  26.640  27.976  1.00  0.00     0.029 A 
ATOM     40  N   UNL A   1      41.575  27.175  28.695  1.00  0.00    -0.354 N 
ATOM     41  C   UNL A   1      42.445  31.130  30.216  1.00  0.00     0.074 A 
ATOM     42  C   UNL A   1      41.251  31.944  30.268  1.00  0.00     0.031 C 
ATOM     43  C   UNL A   1      40.314  25.568  27.786  1.00  0.00     0.029 A 
ATOM     44  C   UNL A   1      41.668  25.885  28.226  1.00  0.00     0.049 A 
ATOM     45  H   UNL A   1      42.343  27.668  29.066  1.00  0.00     0.167 HD
ATOM     46  C   UNL A   1      43.666  31.546  30.630  1.00  0.00     0.037 A 
ATOM     47  C   UNL A   1      42.725  25.052  28.155  1.00  0.00     0.037 A 
ATOM     48  C   UNL A   1      44.840  30.715  30.634  1.00  0.00     0.049 A 
ATOM     49  C   UNL A   1      44.066  25.526  28.642  1.00  0.00     0.074 A 
ATOM     50  C   UNL A   1      46.110  31.020  31.091  1.00  0.00     0.029 A 
ATOM     51  N   UNL A   1      44.882  29.406  30.177  1.00  0.00    -0.354 N 
ATOM     52  N   UNL A   1      44.394  26.693  29.143  1.00  0.00    -0.248 NA
ATOM     53  C   UNL A   1      45.182  24.573  28.554  1.00  0.00     0.031 C 
ATOM     54  C   UNL A   1      46.927  29.905  30.886  1.00  0.00     0.029 A 
ATOM     55  C   UNL A   1      46.159  28.892  30.333  1.00  0.00     0.049 A 
ATOM     56  H   UNL A   1      44.118  28.914  29.796  1.00  0.00     0.167 HD
ATOM     57  C   UNL A   1      45.747  26.610  29.446  1.00  0.00     0.074 A 
ATOM     58  C   UNL A   1      46.175  25.275  29.085  1.00  0.00     0.031 C 
ATOM     59  C   UNL A   1      46.563  27.555  29.974  1.00  0.00     0.037 A 
BRANCH  46  60
ATOM     60  C   UNL A   1      43.786  32.954  31.142  1.00  0.00     0.058 A 
ATOM     61  C   UNL A   1      44.104  34.019  30.284  1.00  0.00     0.135 A 
ATOM     62  C   UNL A   1      43.554  33.249  32.496  1.00  0.00     0.135 A 
ATOM     63  F   UNL A   1      44.354  33.789  28.985  1.00  0.00    -0.206 F 
ATOM     64  C   UNL A   1      44.216  35.324  30.754  1.00  0.00     0.059 A 
ATOM     65  C   UNL A   1      43.633  34.552  32.982  1.00  0.00     0.059 A 
ATOM     66  F   UNL A   1      43.248  32.269  33.359  1.00  0.00    -0.206 F 
ATOM     67  C   UNL A   1      43.979  35.580  32.105  1.00  0.00     0.060 A 
BRANCH  67  68
ATOM     68  S   UNL A   1      44.121  37.280  32.694  1.00  0.00     0.124 S 
ATOM     69  O   UNL A   1      43.046  37.337  33.680  1.00  0.00    -0.237 OA
ATOM     70  O   UNL A   1      45.477  37.311  33.234  1.00  0.00    -0.237 OA
ATOM     71  O   UNL A   1      43.910  38.075  31.489  1.00  0.00    -0.744 OA
ENDBRANCH  67  68
ENDBRANCH  46  60
BRANCH  47  72
ATOM     72  C   UNL A   1      42.545  23.669  27.636  1.00  0.00     0.058 A 
ATOM     73  C   UNL A   1      42.582  23.414  26.258  1.00  0.00     0.135 A 
ATOM     74  C   UNL A   1      42.365  22.578  28.499  1.00  0.00     0.135 A 
ATOM     75  F   UNL A   1      42.746  24.428  25.394  1.00  0.00    -0.206 F 
ATOM     76  C   UNL A   1      42.440  22.128  25.750  1.00  0.00     0.059 A 
ATOM     77  C   UNL A   1      42.241  21.278  28.017  1.00  0.00     0.059 A 
ATOM     78  F   UNL A   1      42.338  22.767  29.828  1.00  0.00    -0.206 F 
ATOM     79  C   UNL A   1      42.274  21.064  26.638  1.00  0.00     0.060 A 
BRANCH  79  80
ATOM     80  S   UNL A   1      42.153  19.390  25.970  1.00  0.00     0.124 S 
ATOM     81  O   UNL A   1      40.718  19.271  25.735  1.00  0.00    -0.237 OA
ATOM     82  O   UNL A   1      42.989  19.477  24.776  1.00  0.00    -0.237 OA
ATOM     83  O   UNL A   1      42.690  18.560  27.043  1.00  0.00    -0.744 OA
ENDBRANCH  79  80
ENDBRANCH  47  72
BRANCH  59  84
ATOM     84  C   UNL A   1      47.997  27.181  30.210  1.00  0.00     0.058 A 
ATOM     85  C   UNL A   1      48.993  27.467  29.264  1.00  0.00     0.135 A 
ATOM     86  C   UNL A   1      48.392  26.606  31.428  1.00  0.00     0.135 A 
ATOM     87  F   UNL A   1      48.663  28.012  28.081  1.00  0.00    -0.206 F 
ATOM     88  C   UNL A   1      50.331  27.187  29.514  1.00  0.00     0.059 A 
ATOM     89  C   UNL A   1      49.727  26.338  31.708  1.00  0.00     0.059 A 
ATOM     90  F   UNL A   1      47.477  26.323  32.370  1.00  0.00    -0.206 F 
ATOM     91  C   UNL A   1      50.689  26.628  30.742  1.00  0.00     0.060 A 
BRANCH  91  92
ATOM     92  S   UNL A   1      52.437  26.321  31.072  1.00  0.00     0.124 S 
ATOM     93  O   UNL A   1      52.382  25.056  31.798  1.00  0.00    -0.237 OA
ATOM     94  O   UNL A   1      53.002  26.257  29.728  1.00  0.00    -0.237 OA
ATOM     95  O   UNL A   1      52.843  27.480  31.861  1.00  0.00    -0.744 OA
ENDBRANCH  91  92
ENDBRANCH  59  84
ENDBRANCH  33  34
ENDBRANCH   2  28
TORSDOF 13
ENDMDL
MODEL 2
REMARK VINA RESULT:     -12.7      4.927     10.660
REMARK SMILES Cc1c2c([nH]c(=O)c1C(=O)NCCCNC(=O)c1ccc(-c3c4nc(c(-c5c(F)cc(S(=O)(=O)[O-])cc5F)c5ccc([nH]5)c(-c5c(F)cc(S(=O)(=O)[O-])cc5F)c5nc(c(-c6c(F)cc(S(=O)(=O)[O-])cc6F)c6ccc3[nH]6)C=C5)C=C4)cc1)CC(C)(C)CC2=O
REMARK SMILES IDX 15 1 16 2 17 3 14 5 13 6 12 7 11 8 9 9 10 10 8 12 1 13 2 14
REMARK SMILES IDX 3 15 4 16 89 17 6 18 5 19 84 20 88 21 90 22 7 23 85 25 86 26
REMARK SMILES IDX 87 27 18 28 19 29 83 30 20 31 82 32 21 33 22 34 23 35 76 36
REMARK SMILES IDX 24 37 81 38 75 39 77 40 25 41 80 42 74 43 73 44 26 46 60 47
REMARK SMILES IDX 39 48 59 49 40 50 43 51 58 52 78 53 41 54 42 55 57 57 79 58
REMARK SMILES IDX 44 59 27 60 28 61 37 62 29 63 30 64 36 65 38 66 31 67 32 68
REMARK SMILES IDX 33 69 34 70 35 71 61 72 62 73 71 74 63 75 64 76 70 77 72 78
REMARK SMILES IDX 65 79 66 80 67 81 68 82 69 83 45 84 46 85 55 86 47 87 48 88
REMARK SMILES IDX 54 89 56 90 49 91 50 92 51 93 52 94 53 95
REMARK H PARENT 15 4 11 11 5 24 77 45 43 56
REMARK Flexibility Score: inf
ROOT
ATOM      1  N   UNL A   1      39.475  23.877  26.128  1.00  0.00    -0.352 N 
ATOM      2  C   UNL A   1      40.553  24.548  26.656  1.00  0.00     0.251 C 
ATOM      3  O   UNL A   1      41.685  24.238  26.286  1.00  0.00    -0.269 OA
ATOM      4  H   UNL A   1      39.722  23.118  25.550  1.00  0.00     0.163 HD
ENDROOT
BRANCH   1   5
ATOM      5  C   UNL A   1      38.037  24.077  26.261  1.00  0.00     0.118 C 
BRANCH   5   6
ATOM      6  C   UNL A   1      37.196  23.080  25.474  1.00  0.00     0.042 C 
BRANCH   6   7
ATOM      7  C   UNL A   1      36.831  23.530  24.071  1.00  0.00     0.118 C 
BRANCH   7   8
ATOM      8  N   UNL A   1      35.659  22.876  23.502  1.00  0.00    -0.352 N 
ATOM      9  C   UNL A   1      34.356  23.299  23.453  1.00  0.00     0.257 C 
ATOM     10  O   UNL A   1      33.555  22.678  22.759  1.00  0.00    -0.269 OA
ATOM     11  H   UNL A   1      35.829  21.998  23.091  1.00  0.00     0.163 HD
BRANCH   9  12
ATOM     12  C   UNL A   1      33.939  24.480  24.252  1.00  0.00     0.108 A 
ATOM     13  C   UNL A   1      33.556  25.918  22.213  1.00  0.00     0.046 C 
ATOM     14  C   UNL A   1      33.696  25.693  23.699  1.00  0.00    -0.020 A 
ATOM     15  C   UNL A   1      33.450  26.850  24.568  1.00  0.00     0.041 A 
ATOM     16  C   UNL A   1      33.071  26.658  25.845  1.00  0.00     0.030 A 
ATOM     17  C   UNL A   1      33.681  28.259  24.106  1.00  0.00     0.165 C 
ATOM     18  C   UNL A   1      33.615  24.287  25.701  1.00  0.00     0.261 A 
ATOM     19  N   UNL A   1      33.109  25.384  26.364  1.00  0.00    -0.325 N 
ATOM     20  C   UNL A   1      32.679  27.755  26.800  1.00  0.00     0.061 C 
ATOM     21  C   UNL A   1      33.155  29.393  24.953  1.00  0.00     0.088 C 
ATOM     22  O   UNL A   1      34.272  28.500  23.054  1.00  0.00    -0.294 OA
ATOM     23  O   UNL A   1      33.760  23.227  26.298  1.00  0.00    -0.269 OA
ATOM     24  H   UNL A   1      32.751  25.247  27.270  1.00  0.00     0.169 HD
ATOM     25  C   UNL A   1      33.294  29.126  26.458  1.00  0.00    -0.023 C 
ATOM     26  C   UNL A   1      34.776  29.162  26.887  1.00  0.00     0.012 C 
ATOM     27  C   UNL A   1      32.544  30.232  27.219  1.00  0.00     0.012 C 
ENDBRANCH   9  12
ENDBRANCH   7   8
ENDBRANCH   6   7
ENDBRANCH   5   6
ENDBRANCH   1   5
BRANCH   2  28
ATOM     28  C   UNL A   1      40.378  25.659  27.619  1.00  0.00     0.039 A 
ATOM     29  C   UNL A   1      39.458  25.511  28.663  1.00  0.00     0.014 A 
ATOM     30  C   UNL A   1      41.087  26.852  27.499  1.00  0.00     0.014 A 
ATOM     31  C   UNL A   1      39.332  26.512  29.632  1.00  0.00     0.010 A 
ATOM     32  C   UNL A   1      41.051  27.791  28.524  1.00  0.00     0.010 A 
ATOM     33  C   UNL A   1      40.170  27.638  29.602  1.00  0.00    -0.014 A 
BRANCH  33  34
ATOM     34  C   UNL A   1      40.138  28.676  30.667  1.00  0.00     0.031 A 
ATOM     35  C   UNL A   1      41.062  28.567  31.853  1.00  0.00     0.074 A 
ATOM     36  C   UNL A   1      39.225  29.667  30.615  1.00  0.00     0.049 A 
ATOM     37  N   UNL A   1      41.091  29.281  32.948  1.00  0.00    -0.248 NA
ATOM     38  C   UNL A   1      42.060  27.483  31.820  1.00  0.00     0.031 C 
ATOM     39  C   UNL A   1      38.239  29.859  29.548  1.00  0.00     0.029 A 
ATOM     40  N   UNL A   1      38.972  30.699  31.483  1.00  0.00    -0.354 N 
ATOM     41  C   UNL A   1      42.084  28.717  33.742  1.00  0.00     0.074 A 
ATOM     42  C   UNL A   1      42.593  27.566  33.030  1.00  0.00     0.031 C 
ATOM     43  C   UNL A   1      37.517  30.961  29.806  1.00  0.00     0.029 A 
ATOM     44  C   UNL A   1      37.953  31.530  31.076  1.00  0.00     0.049 A 
ATOM     45  H   UNL A   1      39.472  30.833  32.321  1.00  0.00     0.167 HD
ATOM     46  C   UNL A   1      42.553  29.137  34.941  1.00  0.00     0.037 A 
ATOM     47  C   UNL A   1      37.427  32.624  31.662  1.00  0.00     0.037 A 
ATOM     48  C   UNL A   1      42.086  30.316  35.619  1.00  0.00     0.049 A 
ATOM     49  C   UNL A   1      37.980  33.086  32.982  1.00  0.00     0.074 A 
ATOM     50  C   UNL A   1      42.537  30.862  36.807  1.00  0.00     0.029 A 
ATOM     51  N   UNL A   1      41.072  31.143  35.157  1.00  0.00    -0.354 N 
ATOM     52  N   UNL A   1      38.939  32.556  33.703  1.00  0.00    -0.248 NA
ATOM     53  C   UNL A   1      37.380  34.292  33.569  1.00  0.00     0.031 C 
ATOM     54  C   UNL A   1      41.780  32.006  37.077  1.00  0.00     0.029 A 
ATOM     55  C   UNL A   1      40.880  32.192  36.041  1.00  0.00     0.049 A 
ATOM     56  H   UNL A   1      40.564  31.005  34.325  1.00  0.00     0.167 HD
ATOM     57  C   UNL A   1      39.069  33.372  34.819  1.00  0.00     0.074 A 
ATOM     58  C   UNL A   1      38.101  34.439  34.674  1.00  0.00     0.031 C 
ATOM     59  C   UNL A   1      39.913  33.249  35.872  1.00  0.00     0.037 A 
BRANCH  46  60
ATOM     60  C   UNL A   1      43.649  28.331  35.582  1.00  0.00     0.058 A 
ATOM     61  C   UNL A   1      43.362  27.310  36.501  1.00  0.00     0.135 A 
ATOM     62  C   UNL A   1      44.995  28.560  35.254  1.00  0.00     0.135 A 
ATOM     63  F   UNL A   1      42.093  27.062  36.864  1.00  0.00    -0.206 F 
ATOM     64  C   UNL A   1      44.373  26.561  37.096  1.00  0.00     0.059 A 
ATOM     65  C   UNL A   1      46.021  27.805  35.816  1.00  0.00     0.059 A 
ATOM     66  F   UNL A   1      45.324  29.524  34.382  1.00  0.00    -0.206 F 
ATOM     67  C   UNL A   1      45.700  26.818  36.747  1.00  0.00     0.060 A 
BRANCH  67  68
ATOM     68  S   UNL A   1      46.997  25.831  37.524  1.00  0.00     0.124 S 
ATOM     69  O   UNL A   1      46.210  24.872  38.294  1.00  0.00    -0.237 OA
ATOM     70  O   UNL A   1      47.708  25.287  36.372  1.00  0.00    -0.237 OA
ATOM     71  O   UNL A   1      47.740  26.809  38.313  1.00  0.00    -0.744 OA
ENDBRANCH  67  68
ENDBRANCH  46  60
BRANCH  47  72
ATOM     72  C   UNL A   1      36.342  33.379  30.980  1.00  0.00     0.058 A 
ATOM     73  C   UNL A   1      35.031  33.346  31.476  1.00  0.00     0.135 A 
ATOM     74  C   UNL A   1      36.595  34.168  29.847  1.00  0.00     0.135 A 
ATOM     75  F   UNL A   1      34.740  32.600  32.552  1.00  0.00    -0.206 F 
ATOM     76  C   UNL A   1      34.004  34.062  30.870  1.00  0.00     0.059 A 
ATOM     77  C   UNL A   1      35.589  34.911  29.236  1.00  0.00     0.059 A 
ATOM     78  F   UNL A   1      37.837  34.246  29.344  1.00  0.00    -0.206 F 
ATOM     79  C   UNL A   1      34.294  34.846  29.752  1.00  0.00     0.060 A 
BRANCH  79  80
ATOM     80  S   UNL A   1      32.965  35.821  29.012  1.00  0.00     0.124 S 
ATOM     81  O   UNL A   1      32.172  36.173  30.184  1.00  0.00    -0.237 OA
ATOM     82  O   UNL A   1      33.701  36.916  28.387  1.00  0.00    -0.237 OA
ATOM     83  O   UNL A   1      32.340  34.885  28.082  1.00  0.00    -0.744 OA
ENDBRANCH  79  80
ENDBRANCH  47  72
BRANCH  59  84
ATOM     84  C   UNL A   1      39.844  34.297  36.944  1.00  0.00     0.058 A 
ATOM     85  C   UNL A   1      40.537  35.512  36.826  1.00  0.00     0.135 A 
ATOM     86  C   UNL A   1      39.014  34.119  38.063  1.00  0.00     0.135 A 
ATOM     87  F   UNL A   1      41.349  35.726  35.777  1.00  0.00    -0.206 F 
ATOM     88  C   UNL A   1      40.415  36.512  37.783  1.00  0.00     0.059 A 
ATOM     89  C   UNL A   1      38.860  35.114  39.021  1.00  0.00     0.059 A 
ATOM     90  F   UNL A   1      38.323  32.978  38.216  1.00  0.00    -0.206 F 
ATOM     91  C   UNL A   1      39.569  36.306  38.875  1.00  0.00     0.060 A 
BRANCH  91  92
ATOM     92  S   UNL A   1      39.379  37.636  40.081  1.00  0.00     0.124 S 
ATOM     93  O   UNL A   1      38.250  38.376  39.528  1.00  0.00    -0.237 OA
ATOM     94  O   UNL A   1      39.114  36.902  41.315  1.00  0.00    -0.237 OA
ATOM     95  O   UNL A   1      40.666  38.324  40.033  1.00  0.00    -0.744 OA
ENDBRANCH  91  92
ENDBRANCH  59  84
ENDBRANCH  33  34
ENDBRANCH   2  28
TORSDOF 13
ENDMDL
MODEL 3
REMARK VINA RESULT:     -12.6      4.902     10.560
REMARK SMILES Cc1c2c([nH]c(=O)c1C(=O)NCCCNC(=O)c1ccc(-c3c4nc(c(-c5c(F)cc(S(=O)(=O)[O-])cc5F)c5ccc([nH]5)c(-c5c(F)cc(S(=O)(=O)[O-])cc5F)c5nc(c(-c6c(F)cc(S(=O)(=O)[O-])cc6F)c6ccc3[nH]6)C=C5)C=C4)cc1)CC(C)(C)CC2=O
REMARK SMILES IDX 15 1 16 2 17 3 14 5 13 6 12 7 11 8 9 9 10 10 8 12 1 13 2 14
REMARK SMILES IDX 3 15 4 16 89 17 6 18 5 19 84 20 88 21 90 22 7 23 85 25 86 26
REMARK SMILES IDX 87 27 18 28 19 29 83 30 20 31 82 32 21 33 22 34 23 35 76 36
REMARK SMILES IDX 24 37 81 38 75 39 77 40 25 41 80 42 74 43 73 44 26 46 60 47
REMARK SMILES IDX 39 48 59 49 40 50 43 51 58 52 78 53 41 54 42 55 57 57 79 58
REMARK SMILES IDX 44 59 27 60 28 61 37 62 29 63 30 64 36 65 38 66 31 67 32 68
REMARK SMILES IDX 33 69 34 70 35 71 61 72 62 73 71 74 63 75 64 76 70 77 72 78
REMARK SMILES IDX 65 79 66 80 67 81 68 82 69 83 45 84 46 85 55 86 47 87 48 88
REMARK SMILES IDX 54 89 56 90 49 91 50 92 51 93 52 94 53 95
REMARK H PARENT 15 4 11 11 5 24 77 45 43 56
REMARK Flexibility Score: inf
ROOT
ATOM      1  N   UNL A   1      39.679  23.895  26.106  1.00  0.00    -0.352 N 
ATOM      2  C   UNL A   1      40.750  24.559  26.656  1.00  0.00     0.251 C 
ATOM      3  O   UNL A   1      41.887  24.240  26.311  1.00  0.00    -0.269 OA
ATOM      4  H   UNL A   1      39.932  23.134  25.534  1.00  0.00     0.163 HD
ENDROOT
BRANCH   1   5
ATOM      5  C   UNL A   1      38.239  24.105  26.209  1.00  0.00     0.118 C 
BRANCH   5   6
ATOM      6  C   UNL A   1      37.424  22.819  26.240  1.00  0.00     0.042 C 
BRANCH   6   7
ATOM      7  C   UNL A   1      37.082  22.253  24.873  1.00  0.00     0.118 C 
BRANCH   7   8
ATOM      8  N   UNL A   1      35.972  21.308  24.860  1.00  0.00    -0.352 N 
ATOM      9  C   UNL A   1      34.639  21.526  24.627  1.00  0.00     0.257 C 
ATOM     10  O   UNL A   1      33.896  20.559  24.477  1.00  0.00    -0.269 OA
ATOM     11  H   UNL A   1      36.217  20.374  25.046  1.00  0.00     0.163 HD
BRANCH   9  12
ATOM     12  C   UNL A   1      34.121  22.918  24.582  1.00  0.00     0.108 A 
ATOM     13  C   UNL A   1      33.590  22.964  27.049  1.00  0.00     0.046 C 
ATOM     14  C   UNL A   1      33.537  23.520  25.647  1.00  0.00    -0.020 A 
ATOM     15  C   UNL A   1      32.902  24.832  25.480  1.00  0.00     0.041 A 
ATOM     16  C   UNL A   1      33.230  25.604  24.427  1.00  0.00     0.030 A 
ATOM     17  C   UNL A   1      31.829  25.324  26.407  1.00  0.00     0.165 C 
ATOM     18  C   UNL A   1      34.396  23.747  23.366  1.00  0.00     0.261 A 
ATOM     19  N   UNL A   1      34.008  25.067  23.428  1.00  0.00    -0.325 N 
ATOM     20  C   UNL A   1      32.737  27.011  24.206  1.00  0.00     0.061 C 
ATOM     21  C   UNL A   1      31.420  26.775  26.334  1.00  0.00     0.088 C 
ATOM     22  O   UNL A   1      31.296  24.574  27.225  1.00  0.00    -0.294 OA
ATOM     23  O   UNL A   1      34.949  23.319  22.359  1.00  0.00    -0.269 OA
ATOM     24  H   UNL A   1      34.308  25.667  22.707  1.00  0.00     0.169 HD
ATOM     25  C   UNL A   1      31.394  27.315  24.898  1.00  0.00    -0.023 C 
ATOM     26  C   UNL A   1      30.234  26.689  24.096  1.00  0.00     0.012 C 
ATOM     27  C   UNL A   1      31.177  28.836  24.954  1.00  0.00     0.012 C 
ENDBRANCH   9  12
ENDBRANCH   7   8
ENDBRANCH   6   7
ENDBRANCH   5   6
ENDBRANCH   1   5
BRANCH   2  28
ATOM     28  C   UNL A   1      40.562  25.672  27.614  1.00  0.00     0.039 A 
ATOM     29  C   UNL A   1      39.603  25.540  28.624  1.00  0.00     0.014 A 
ATOM     30  C   UNL A   1      41.299  26.850  27.522  1.00  0.00     0.014 A 
ATOM     31  C   UNL A   1      39.462  26.543  29.590  1.00  0.00     0.010 A 
ATOM     32  C   UNL A   1      41.245  27.788  28.547  1.00  0.00     0.010 A 
ATOM     33  C   UNL A   1      40.323  27.651  29.593  1.00  0.00    -0.014 A 
BRANCH  33  34
ATOM     34  C   UNL A   1      40.273  28.688  30.658  1.00  0.00     0.031 A 
ATOM     35  C   UNL A   1      41.201  28.595  31.844  1.00  0.00     0.074 A 
ATOM     36  C   UNL A   1      39.343  29.663  30.607  1.00  0.00     0.049 A 
ATOM     37  N   UNL A   1      41.218  29.309  32.939  1.00  0.00    -0.248 NA
ATOM     38  C   UNL A   1      42.217  27.530  31.809  1.00  0.00     0.031 C 
ATOM     39  C   UNL A   1      38.352  29.838  29.542  1.00  0.00     0.029 A 
ATOM     40  N   UNL A   1      39.072  30.690  31.476  1.00  0.00    -0.354 N 
ATOM     41  C   UNL A   1      42.221  28.763  33.731  1.00  0.00     0.074 A 
ATOM     42  C   UNL A   1      42.750  27.621  33.019  1.00  0.00     0.031 C 
ATOM     43  C   UNL A   1      37.611  30.926  29.801  1.00  0.00     0.029 A 
ATOM     44  C   UNL A   1      38.038  31.502  31.071  1.00  0.00     0.049 A 
ATOM     45  H   UNL A   1      39.571  30.832  32.314  1.00  0.00     0.167 HD
ATOM     46  C   UNL A   1      42.684  29.191  34.930  1.00  0.00     0.037 A 
ATOM     47  C   UNL A   1      37.494  32.587  31.657  1.00  0.00     0.037 A 
ATOM     48  C   UNL A   1      42.196  30.361  35.609  1.00  0.00     0.049 A 
ATOM     49  C   UNL A   1      38.039  33.058  32.976  1.00  0.00     0.074 A 
ATOM     50  C   UNL A   1      42.639  30.915  36.797  1.00  0.00     0.029 A 
ATOM     51  N   UNL A   1      41.168  31.170  35.148  1.00  0.00    -0.354 N 
ATOM     52  N   UNL A   1      39.008  32.545  33.696  1.00  0.00    -0.248 NA
ATOM     53  C   UNL A   1      37.418  34.253  33.565  1.00  0.00     0.031 C 
ATOM     54  C   UNL A   1      41.862  32.045  37.068  1.00  0.00     0.029 A 
ATOM     55  C   UNL A   1      40.958  32.215  36.033  1.00  0.00     0.049 A 
ATOM     56  H   UNL A   1      40.662  31.023  34.317  1.00  0.00     0.167 HD
ATOM     57  C   UNL A   1      39.125  33.363  34.813  1.00  0.00     0.074 A 
ATOM     58  C   UNL A   1      38.138  34.413  34.669  1.00  0.00     0.031 C 
ATOM     59  C   UNL A   1      39.972  33.255  35.865  1.00  0.00     0.037 A 
BRANCH  46  60
ATOM     60  C   UNL A   1      43.794  28.404  35.569  1.00  0.00     0.058 A 
ATOM     61  C   UNL A   1      43.527  27.377  36.488  1.00  0.00     0.135 A 
ATOM     62  C   UNL A   1      45.136  28.659  35.242  1.00  0.00     0.135 A 
ATOM     63  F   UNL A   1      42.263  27.105  36.850  1.00  0.00    -0.206 F 
ATOM     64  C   UNL A   1      44.552  26.646  37.081  1.00  0.00     0.059 A 
ATOM     65  C   UNL A   1      46.177  27.922  35.803  1.00  0.00     0.059 A 
ATOM     66  F   UNL A   1      45.447  29.631  34.371  1.00  0.00    -0.206 F 
ATOM     67  C   UNL A   1      45.874  26.928  36.732  1.00  0.00     0.060 A 
BRANCH  67  68
ATOM     68  S   UNL A   1      47.189  25.965  37.508  1.00  0.00     0.124 S 
ATOM     69  O   UNL A   1      46.780  24.601  37.184  1.00  0.00    -0.237 OA
ATOM     70  O   UNL A   1      48.380  26.449  36.818  1.00  0.00    -0.237 OA
ATOM     71  O   UNL A   1      47.091  26.330  38.917  1.00  0.00    -0.744 OA
ENDBRANCH  67  68
ENDBRANCH  46  60
BRANCH  47  72
ATOM     72  C   UNL A   1      36.395  33.323  30.977  1.00  0.00     0.058 A 
ATOM     73  C   UNL A   1      35.083  33.259  31.468  1.00  0.00     0.135 A 
ATOM     74  C   UNL A   1      36.633  34.124  29.849  1.00  0.00     0.135 A 
ATOM     75  F   UNL A   1      34.805  32.501  32.540  1.00  0.00    -0.206 F 
ATOM     76  C   UNL A   1      34.043  33.957  30.864  1.00  0.00     0.059 A 
ATOM     77  C   UNL A   1      35.613  34.848  29.239  1.00  0.00     0.059 A 
ATOM     78  F   UNL A   1      37.875  34.230  29.350  1.00  0.00    -0.206 F 
ATOM     79  C   UNL A   1      34.319  34.753  29.751  1.00  0.00     0.060 A 
BRANCH  79  80
ATOM     80  S   UNL A   1      32.971  35.703  29.013  1.00  0.00     0.124 S 
ATOM     81  O   UNL A   1      32.354  34.709  28.143  1.00  0.00    -0.237 OA
ATOM     82  O   UNL A   1      32.195  36.095  30.186  1.00  0.00    -0.237 OA
ATOM     83  O   UNL A   1      33.663  36.796  28.335  1.00  0.00    -0.744 OA
ENDBRANCH  79  80
ENDBRANCH  47  72
BRANCH  59  84
ATOM     84  C   UNL A   1      39.886  34.301  36.938  1.00  0.00     0.058 A 
ATOM     85  C   UNL A   1      40.546  35.533  36.813  1.00  0.00     0.135 A 
ATOM     86  C   UNL A   1      39.070  34.103  38.063  1.00  0.00     0.135 A 
ATOM     87  F   UNL A   1      41.343  35.768  35.757  1.00  0.00    -0.206 F 
ATOM     88  C   UNL A   1      40.406  36.530  37.771  1.00  0.00     0.059 A 
ATOM     89  C   UNL A   1      38.898  35.094  39.023  1.00  0.00     0.059 A 
ATOM     90  F   UNL A   1      38.409  32.944  38.223  1.00  0.00    -0.206 F 
ATOM     91  C   UNL A   1      39.575  36.303  38.870  1.00  0.00     0.060 A 
BRANCH  91  92
ATOM     92  S   UNL A   1      39.362  37.628  40.078  1.00  0.00     0.124 S 
ATOM     93  O   UNL A   1      40.653  38.304  40.005  1.00  0.00    -0.237 OA
ATOM     94  O   UNL A   1      38.227  38.367  39.534  1.00  0.00    -0.237 OA
ATOM     95  O   UNL A   1      39.097  36.913  41.323  1.00  0.00    -0.744 OA
ENDBRANCH  91  92
ENDBRANCH  59  84
ENDBRANCH  33  34
ENDBRANCH   2  28
TORSDOF 13
ENDMDL
