MODEL 1
REMARK VINA RESULT:     -14.1      0.000      0.000
REMARK SMILES Cc1cc(C(=O)N[C@H]2C=C[C@H](C(=O)NCCCNC(=O)c3ccc(-c4c5nc(c(-c6c(F)cc(S(=O)(=O)[O-])cc6F)c6ccc([nH]6)c(-c6c(F)cc(S(=O)(=O)[O-])cc6F)c6nc(c(-c7c(F)cc(S(=O)(=O)[O-])cc7F)c7ccc4[nH]7)C=C6)C=C5)cc3)C2)ccc1F
REMARK SMILES IDX 16 1 15 2 14 3 12 4 13 5 11 7 8 8 9 9 87 10 10 11 7 12 5 13
REMARK SMILES IDX 6 14 4 16 1 17 2 18 3 19 90 20 89 21 91 22 88 23 17 24 18 25
REMARK SMILES IDX 19 26 20 28 21 29 22 30 86 31 23 32 85 33 24 34 25 35 26 36
REMARK SMILES IDX 79 37 27 38 84 39 78 40 80 41 28 42 83 43 77 44 76 45 29 47
REMARK SMILES IDX 63 48 42 49 62 50 43 51 46 52 61 53 81 54 44 55 45 56 60 58
REMARK SMILES IDX 82 59 47 60 30 61 31 62 40 63 32 64 33 65 39 66 41 67 34 68
REMARK SMILES IDX 35 69 36 70 37 71 38 72 64 73 65 74 74 75 66 76 67 77 73 78
REMARK SMILES IDX 75 79 68 80 69 81 70 82 71 83 72 84 48 85 49 86 58 87 50 88
REMARK SMILES IDX 51 89 57 90 59 91 52 92 53 93 54 94 55 95 56 96
REMARK H PARENT 14 6 7 15 18 27 80 46 46 57
REMARK Flexibility Score: inf
ROOT
ATOM      1  C   UNL A   1      33.480  29.274  27.106  1.00  0.00     0.042 C 
ENDROOT
BRANCH   1   2
ATOM      2  C   UNL A   1      33.058  29.649  25.690  1.00  0.00     0.117 C 
BRANCH   2   3
ATOM      3  N   UNL A   1      33.430  28.598  24.760  1.00  0.00    -0.356 N 
ATOM      4  C   UNL A   1      32.684  27.580  24.265  1.00  0.00     0.227 C 
ATOM      5  O   UNL A   1      33.294  26.662  23.706  1.00  0.00    -0.274 OA
ATOM      6  H   UNL A   1      34.360  28.630  24.442  1.00  0.00     0.163 HD
BRANCH   4   7
ATOM      7  C   UNL A   1      31.136  27.575  24.291  1.00  0.00     0.103 C 
ATOM      8  C   UNL A   1      30.731  25.474  25.357  1.00  0.00     0.106 C 
ATOM      9  C   UNL A   1      30.093  25.480  24.006  1.00  0.00    -0.006 C 
ATOM     10  C   UNL A   1      30.752  26.975  25.650  1.00  0.00     0.047 C 
ATOM     11  C   UNL A   1      30.340  26.655  23.404  1.00  0.00    -0.016 C 
BRANCH   8  12
ATOM     12  N   UNL A   1      29.994  24.698  26.309  1.00  0.00    -0.346 N 
ATOM     13  C   UNL A   1      30.278  23.457  26.831  1.00  0.00     0.251 C 
ATOM     14  O   UNL A   1      29.520  22.999  27.686  1.00  0.00    -0.269 OA
ATOM     15  H   UNL A   1      29.163  25.113  26.637  1.00  0.00     0.164 HD
BRANCH  13  16
ATOM     16  C   UNL A   1      31.507  22.684  26.467  1.00  0.00     0.040 A 
ATOM     17  C   UNL A   1      32.863  20.207  23.901  1.00  0.00     0.047 C 
ATOM     18  C   UNL A   1      32.786  21.121  25.087  1.00  0.00    -0.015 A 
ATOM     19  C   UNL A   1      31.563  21.694  25.476  1.00  0.00     0.020 A 
ATOM     20  C   UNL A   1      33.935  21.446  25.806  1.00  0.00     0.126 A 
ATOM     21  C   UNL A   1      33.888  22.353  26.859  1.00  0.00     0.040 A 
ATOM     22  F   UNL A   1      35.107  20.881  25.486  1.00  0.00    -0.207 F 
ATOM     23  C   UNL A   1      32.681  22.984  27.175  1.00  0.00     0.017 A 
ENDBRANCH  13  16
ENDBRANCH   8  12
ENDBRANCH   4   7
ENDBRANCH   2   3
ENDBRANCH   1   2
BRANCH   1  24
ATOM     24  C   UNL A   1      34.927  28.882  27.069  1.00  0.00     0.118 C 
BRANCH  24  25
ATOM     25  N   UNL A   1      35.788  30.043  27.253  1.00  0.00    -0.352 N 
ATOM     26  C   UNL A   1      36.462  30.135  28.460  1.00  0.00     0.251 C 
ATOM     27  H   UNL A   1      35.886  30.729  26.554  1.00  0.00     0.163 HD
ATOM     28  O   UNL A   1      35.967  30.582  29.477  1.00  0.00    -0.269 OA
BRANCH  26  29
ATOM     29  C   UNL A   1      37.712  29.335  28.467  1.00  0.00     0.039 A 
ATOM     30  C   UNL A   1      38.691  29.473  27.482  1.00  0.00     0.014 A 
ATOM     31  C   UNL A   1      37.956  28.579  29.616  1.00  0.00     0.014 A 
ATOM     32  C   UNL A   1      39.916  28.836  27.659  1.00  0.00     0.010 A 
ATOM     33  C   UNL A   1      39.196  28.135  29.883  1.00  0.00     0.010 A 
ATOM     34  C   UNL A   1      40.138  28.179  28.865  1.00  0.00    -0.014 A 
BRANCH  34  35
ATOM     35  C   UNL A   1      41.307  27.440  29.266  1.00  0.00     0.031 A 
ATOM     36  C   UNL A   1      41.448  26.068  28.785  1.00  0.00     0.074 A 
ATOM     37  C   UNL A   1      42.311  28.254  29.667  1.00  0.00     0.049 A 
ATOM     38  N   UNL A   1      42.282  25.220  29.258  1.00  0.00    -0.248 NA
ATOM     39  C   UNL A   1      40.635  25.526  27.695  1.00  0.00     0.031 C 
ATOM     40  C   UNL A   1      43.750  28.075  29.674  1.00  0.00     0.029 A 
ATOM     41  N   UNL A   1      42.140  29.526  30.224  1.00  0.00    -0.354 N 
ATOM     42  C   UNL A   1      42.387  24.203  28.332  1.00  0.00     0.074 A 
ATOM     43  C   UNL A   1      41.242  24.357  27.470  1.00  0.00     0.031 C 
ATOM     44  C   UNL A   1      44.290  29.009  30.486  1.00  0.00     0.029 A 
ATOM     45  C   UNL A   1      43.190  29.742  31.113  1.00  0.00     0.049 A 
ATOM     46  H   UNL A   1      41.410  30.154  30.024  1.00  0.00     0.167 HD
ATOM     47  C   UNL A   1      43.551  23.491  28.293  1.00  0.00     0.037 A 
ATOM     48  C   UNL A   1      42.859  29.695  32.442  1.00  0.00     0.037 A 
ATOM     49  C   UNL A   1      44.480  24.039  29.291  1.00  0.00     0.049 A 
ATOM     50  C   UNL A   1      43.354  28.406  33.062  1.00  0.00     0.074 A 
ATOM     51  C   UNL A   1      45.522  24.947  29.179  1.00  0.00     0.029 A 
ATOM     52  N   UNL A   1      44.138  24.006  30.641  1.00  0.00    -0.354 N 
ATOM     53  N   UNL A   1      43.561  27.299  32.398  1.00  0.00    -0.248 NA
ATOM     54  C   UNL A   1      43.779  28.311  34.453  1.00  0.00     0.031 C 
ATOM     55  C   UNL A   1      45.732  25.533  30.456  1.00  0.00     0.029 A 
ATOM     56  C   UNL A   1      44.818  24.988  31.344  1.00  0.00     0.049 A 
ATOM     57  H   UNL A   1      43.501  23.372  31.041  1.00  0.00     0.167 HD
ATOM     58  C   UNL A   1      44.182  26.387  33.205  1.00  0.00     0.074 A 
ATOM     59  C   UNL A   1      44.285  27.065  34.487  1.00  0.00     0.031 C 
ATOM     60  C   UNL A   1      44.600  25.158  32.774  1.00  0.00     0.037 A 
BRANCH  47  61
ATOM     61  C   UNL A   1      43.976  22.544  27.185  1.00  0.00     0.058 A 
ATOM     62  C   UNL A   1      43.212  21.388  26.903  1.00  0.00     0.135 A 
ATOM     63  C   UNL A   1      45.103  22.712  26.352  1.00  0.00     0.135 A 
ATOM     64  F   UNL A   1      42.081  21.114  27.566  1.00  0.00    -0.206 F 
ATOM     65  C   UNL A   1      43.559  20.458  25.922  1.00  0.00     0.059 A 
ATOM     66  C   UNL A   1      45.494  21.772  25.388  1.00  0.00     0.059 A 
ATOM     67  F   UNL A   1      45.845  23.826  26.391  1.00  0.00    -0.206 F 
ATOM     68  C   UNL A   1      44.709  20.650  25.173  1.00  0.00     0.060 A 
BRANCH  68  69
ATOM     69  S   UNL A   1      45.114  19.449  23.891  1.00  0.00     0.124 S 
ATOM     70  O   UNL A   1      46.574  19.434  23.936  1.00  0.00    -0.237 OA
ATOM     71  O   UNL A   1      44.452  18.246  24.384  1.00  0.00    -0.237 OA
ATOM     72  O   UNL A   1      44.537  20.031  22.683  1.00  0.00    -0.744 OA
ENDBRANCH  68  69
ENDBRANCH  47  61
BRANCH  48  73
ATOM     73  C   UNL A   1      41.554  30.412  32.704  1.00  0.00     0.058 A 
ATOM     74  C   UNL A   1      40.453  29.591  33.039  1.00  0.00     0.135 A 
ATOM     75  C   UNL A   1      41.509  31.739  33.170  1.00  0.00     0.135 A 
ATOM     76  F   UNL A   1      40.411  28.322  32.597  1.00  0.00    -0.206 F 
ATOM     77  C   UNL A   1      39.484  29.985  33.963  1.00  0.00     0.059 A 
ATOM     78  C   UNL A   1      40.536  32.159  34.093  1.00  0.00     0.059 A 
ATOM     79  F   UNL A   1      42.500  32.594  32.874  1.00  0.00    -0.206 F 
ATOM     80  C   UNL A   1      39.588  31.241  34.551  1.00  0.00     0.060 A 
BRANCH  80  81
ATOM     81  S   UNL A   1      38.586  31.575  36.028  1.00  0.00     0.124 S 
ATOM     82  O   UNL A   1      39.465  32.437  36.811  1.00  0.00    -0.237 OA
ATOM     83  O   UNL A   1      37.407  32.233  35.458  1.00  0.00    -0.237 OA
ATOM     84  O   UNL A   1      38.349  30.250  36.587  1.00  0.00    -0.744 OA
ENDBRANCH  80  81
ENDBRANCH  48  73
BRANCH  60  85
ATOM     85  C   UNL A   1      44.926  24.001  33.686  1.00  0.00     0.058 A 
ATOM     86  C   UNL A   1      43.982  23.037  34.073  1.00  0.00     0.135 A 
ATOM     87  C   UNL A   1      46.269  23.725  34.047  1.00  0.00     0.135 A 
ATOM     88  F   UNL A   1      42.699  23.113  33.688  1.00  0.00    -0.206 F 
ATOM     89  C   UNL A   1      44.325  21.924  34.832  1.00  0.00     0.059 A 
ATOM     90  C   UNL A   1      46.644  22.577  34.733  1.00  0.00     0.059 A 
ATOM     91  F   UNL A   1      47.274  24.553  33.726  1.00  0.00    -0.206 F 
ATOM     92  C   UNL A   1      45.659  21.700  35.154  1.00  0.00     0.060 A 
BRANCH  92  93
ATOM     93  S   UNL A   1      46.102  20.233  36.093  1.00  0.00     0.124 S 
ATOM     94  O   UNL A   1      47.533  20.143  35.818  1.00  0.00    -0.237 OA
ATOM     95  O   UNL A   1      45.743  20.606  37.457  1.00  0.00    -0.237 OA
ATOM     96  O   UNL A   1      45.275  19.190  35.497  1.00  0.00    -0.744 OA
ENDBRANCH  92  93
ENDBRANCH  60  85
ENDBRANCH  34  35
ENDBRANCH  26  29
ENDBRANCH  24  25
ENDBRANCH   1  24
TORSDOF 15
ENDMDL
MODEL 2
REMARK VINA RESULT:     -13.6      2.327      3.174
REMARK SMILES Cc1cc(C(=O)N[C@H]2C=C[C@H](C(=O)NCCCNC(=O)c3ccc(-c4c5nc(c(-c6c(F)cc(S(=O)(=O)[O-])cc6F)c6ccc([nH]6)c(-c6c(F)cc(S(=O)(=O)[O-])cc6F)c6nc(c(-c7c(F)cc(S(=O)(=O)[O-])cc7F)c7ccc4[nH]7)C=C6)C=C5)cc3)C2)ccc1F
REMARK SMILES IDX 16 1 15 2 14 3 12 4 13 5 11 7 8 8 9 9 87 10 10 11 7 12 5 13
REMARK SMILES IDX 6 14 4 16 1 17 2 18 3 19 90 20 89 21 91 22 88 23 17 24 18 25
REMARK SMILES IDX 19 26 20 28 21 29 22 30 86 31 23 32 85 33 24 34 25 35 26 36
REMARK SMILES IDX 79 37 27 38 84 39 78 40 80 41 28 42 83 43 77 44 76 45 29 47
REMARK SMILES IDX 63 48 42 49 62 50 43 51 46 52 61 53 81 54 44 55 45 56 60 58
REMARK SMILES IDX 82 59 47 60 30 61 31 62 40 63 32 64 33 65 39 66 41 67 34 68
REMARK SMILES IDX 35 69 36 70 37 71 38 72 64 73 65 74 74 75 66 76 67 77 73 78
REMARK SMILES IDX 75 79 68 80 69 81 70 82 71 83 72 84 48 85 49 86 58 87 50 88
REMARK SMILES IDX 51 89 57 90 59 91 52 92 53 93 54 94 55 95 56 96
REMARK H PARENT 14 6 7 15 18 27 80 46 46 57
REMARK Flexibility Score: inf
ROOT
ATOM      1  C   UNL A   1      33.963  27.978  25.279  1.00  0.00     0.042 C 
ENDROOT
BRANCH   1   2
ATOM      2  C   UNL A   1      33.548  28.901  24.140  1.00  0.00     0.117 C 
BRANCH   2   3
ATOM      3  N   UNL A   1      32.979  28.128  23.050  1.00  0.00    -0.356 N 
ATOM      4  C   UNL A   1      31.761  27.540  22.952  1.00  0.00     0.227 C 
ATOM      5  O   UNL A   1      31.612  26.714  22.045  1.00  0.00    -0.274 OA
ATOM      6  H   UNL A   1      33.564  28.015  22.267  1.00  0.00     0.163 HD
BRANCH   4   7
ATOM      7  C   UNL A   1      30.561  27.928  23.850  1.00  0.00     0.103 C 
ATOM      8  C   UNL A   1      30.026  25.798  24.795  1.00  0.00     0.106 C 
ATOM      9  C   UNL A   1      28.844  26.324  24.048  1.00  0.00    -0.006 C 
ATOM     10  C   UNL A   1      30.733  27.111  25.137  1.00  0.00     0.047 C 
ATOM     11  C   UNL A   1      29.156  27.511  23.503  1.00  0.00    -0.016 C 
BRANCH   8  12
ATOM     12  N   UNL A   1      29.652  25.016  25.936  1.00  0.00    -0.346 N 
ATOM     13  C   UNL A   1      30.273  23.917  26.481  1.00  0.00     0.251 C 
ATOM     14  O   UNL A   1      29.796  23.430  27.507  1.00  0.00    -0.269 OA
ATOM     15  H   UNL A   1      28.831  25.308  26.396  1.00  0.00     0.164 HD
BRANCH  13  16
ATOM     16  C   UNL A   1      31.542  23.343  25.932  1.00  0.00     0.040 A 
ATOM     17  C   UNL A   1      35.299  23.973  25.733  1.00  0.00     0.047 C 
ATOM     18  C   UNL A   1      33.956  23.334  25.544  1.00  0.00    -0.015 A 
ATOM     19  C   UNL A   1      32.781  23.997  25.938  1.00  0.00     0.020 A 
ATOM     20  C   UNL A   1      33.851  22.054  25.003  1.00  0.00     0.126 A 
ATOM     21  C   UNL A   1      32.618  21.421  24.895  1.00  0.00     0.040 A 
ATOM     22  F   UNL A   1      34.949  21.415  24.578  1.00  0.00    -0.207 F 
ATOM     23  C   UNL A   1      31.470  22.056  25.376  1.00  0.00     0.017 A 
ENDBRANCH  13  16
ENDBRANCH   8  12
ENDBRANCH   4   7
ENDBRANCH   2   3
ENDBRANCH   1   2
BRANCH   1  24
ATOM     24  C   UNL A   1      33.832  28.740  26.564  1.00  0.00     0.118 C 
BRANCH  24  25
ATOM     25  N   UNL A   1      34.410  30.073  26.444  1.00  0.00    -0.352 N 
ATOM     26  C   UNL A   1      34.579  30.788  27.617  1.00  0.00     0.251 C 
ATOM     27  H   UNL A   1      34.666  30.447  25.570  1.00  0.00     0.163 HD
ATOM     28  O   UNL A   1      33.693  31.429  28.151  1.00  0.00    -0.269 OA
BRANCH  26  29
ATOM     29  C   UNL A   1      35.831  30.420  28.322  1.00  0.00     0.039 A 
ATOM     30  C   UNL A   1      35.830  29.706  29.522  1.00  0.00     0.014 A 
ATOM     31  C   UNL A   1      37.021  30.644  27.626  1.00  0.00     0.014 A 
ATOM     32  C   UNL A   1      37.039  29.228  30.021  1.00  0.00     0.010 A 
ATOM     33  C   UNL A   1      38.150  30.016  27.996  1.00  0.00     0.010 A 
ATOM     34  C   UNL A   1      38.176  29.397  29.238  1.00  0.00    -0.014 A 
BRANCH  34  35
ATOM     35  C   UNL A   1      39.527  29.007  29.548  1.00  0.00     0.031 A 
ATOM     36  C   UNL A   1      39.962  27.669  29.152  1.00  0.00     0.074 A 
ATOM     37  C   UNL A   1      40.328  30.075  29.768  1.00  0.00     0.049 A 
ATOM     38  N   UNL A   1      41.024  27.100  29.581  1.00  0.00    -0.248 NA
ATOM     39  C   UNL A   1      39.208  26.842  28.208  1.00  0.00     0.031 C 
ATOM     40  C   UNL A   1      41.759  30.252  29.616  1.00  0.00     0.029 A 
ATOM     41  N   UNL A   1      39.897  31.316  30.250  1.00  0.00    -0.354 N 
ATOM     42  C   UNL A   1      41.291  26.052  28.724  1.00  0.00     0.074 A 
ATOM     43  C   UNL A   1      40.065  25.838  27.996  1.00  0.00     0.031 C 
ATOM     44  C   UNL A   1      42.123  31.365  30.289  1.00  0.00     0.029 A 
ATOM     45  C   UNL A   1      40.940  31.867  30.989  1.00  0.00     0.049 A 
ATOM     46  H   UNL A   1      39.016  31.726  30.094  1.00  0.00     0.167 HD
ATOM     47  C   UNL A   1      42.588  25.644  28.598  1.00  0.00     0.037 A 
ATOM     48  C   UNL A   1      40.763  31.872  32.348  1.00  0.00     0.037 A 
ATOM     49  C   UNL A   1      43.441  26.497  29.437  1.00  0.00     0.049 A 
ATOM     50  C   UNL A   1      41.624  30.809  32.995  1.00  0.00     0.074 A 
ATOM     51  C   UNL A   1      44.205  27.614  29.137  1.00  0.00     0.029 A 
ATOM     52  N   UNL A   1      43.252  26.514  30.817  1.00  0.00    -0.354 N 
ATOM     53  N   UNL A   1      42.039  29.725  32.392  1.00  0.00    -0.248 NA
ATOM     54  C   UNL A   1      42.194  30.957  34.329  1.00  0.00     0.031 C 
ATOM     55  C   UNL A   1      44.384  28.357  30.335  1.00  0.00     0.029 A 
ATOM     56  C   UNL A   1      43.727  27.696  31.362  1.00  0.00     0.049 A 
ATOM     57  H   UNL A   1      42.837  25.787  31.334  1.00  0.00     0.167 HD
ATOM     58  C   UNL A   1      42.945  29.075  33.181  1.00  0.00     0.074 A 
ATOM     59  C   UNL A   1      42.998  29.881  34.391  1.00  0.00     0.031 C 
ATOM     60  C   UNL A   1      43.614  27.948  32.792  1.00  0.00     0.037 A 
BRANCH  47  61
ATOM     61  C   UNL A   1      43.127  24.724  27.517  1.00  0.00     0.058 A 
ATOM     62  C   UNL A   1      43.323  23.349  27.783  1.00  0.00     0.135 A 
ATOM     63  C   UNL A   1      43.456  25.113  26.201  1.00  0.00     0.135 A 
ATOM     64  F   UNL A   1      43.005  22.811  28.967  1.00  0.00    -0.206 F 
ATOM     65  C   UNL A   1      43.845  22.453  26.850  1.00  0.00     0.059 A 
ATOM     66  C   UNL A   1      44.019  24.241  25.259  1.00  0.00     0.059 A 
ATOM     67  F   UNL A   1      43.191  26.344  25.746  1.00  0.00    -0.206 F 
ATOM     68  C   UNL A   1      44.202  22.906  25.590  1.00  0.00     0.060 A 
BRANCH  68  69
ATOM     69  S   UNL A   1      44.842  21.719  24.394  1.00  0.00     0.124 S 
ATOM     70  O   UNL A   1      44.527  22.365  23.123  1.00  0.00    -0.237 OA
ATOM     71  O   UNL A   1      46.257  21.668  24.747  1.00  0.00    -0.237 OA
ATOM     72  O   UNL A   1      44.083  20.505  24.678  1.00  0.00    -0.744 OA
ENDBRANCH  68  69
ENDBRANCH  47  61
BRANCH  48  73
ATOM     73  C   UNL A   1      39.351  32.273  32.712  1.00  0.00     0.058 A 
ATOM     74  C   UNL A   1      39.024  33.634  32.517  1.00  0.00     0.135 A 
ATOM     75  C   UNL A   1      38.280  31.360  32.672  1.00  0.00     0.135 A 
ATOM     76  F   UNL A   1      39.992  34.566  32.578  1.00  0.00    -0.206 F 
ATOM     77  C   UNL A   1      37.761  34.043  32.086  1.00  0.00     0.059 A 
ATOM     78  C   UNL A   1      36.999  31.754  32.250  1.00  0.00     0.059 A 
ATOM     79  F   UNL A   1      38.498  30.052  32.875  1.00  0.00    -0.206 F 
ATOM     80  C   UNL A   1      36.781  33.079  31.870  1.00  0.00     0.060 A 
BRANCH  80  81
ATOM     81  S   UNL A   1      35.305  33.562  30.928  1.00  0.00     0.124 S 
ATOM     82  O   UNL A   1      34.403  32.442  31.170  1.00  0.00    -0.237 OA
ATOM     83  O   UNL A   1      34.928  34.823  31.574  1.00  0.00    -0.237 OA
ATOM     84  O   UNL A   1      35.798  33.687  29.562  1.00  0.00    -0.744 OA
ENDBRANCH  80  81
ENDBRANCH  48  73
BRANCH  60  85
ATOM     85  C   UNL A   1      44.309  27.000  33.738  1.00  0.00     0.058 A 
ATOM     86  C   UNL A   1      43.623  26.079  34.546  1.00  0.00     0.135 A 
ATOM     87  C   UNL A   1      45.720  26.864  33.716  1.00  0.00     0.135 A 
ATOM     88  F   UNL A   1      42.283  26.017  34.561  1.00  0.00    -0.206 F 
ATOM     89  C   UNL A   1      44.285  25.147  35.337  1.00  0.00     0.059 A 
ATOM     90  C   UNL A   1      46.395  25.885  34.434  1.00  0.00     0.059 A 
ATOM     91  F   UNL A   1      46.497  27.668  32.974  1.00  0.00    -0.206 F 
ATOM     92  C   UNL A   1      45.671  25.054  35.272  1.00  0.00     0.060 A 
BRANCH  92  93
ATOM     93  S   UNL A   1      46.517  23.813  36.258  1.00  0.00     0.124 S 
ATOM     94  O   UNL A   1      47.709  24.546  36.672  1.00  0.00    -0.237 OA
ATOM     95  O   UNL A   1      45.550  23.531  37.314  1.00  0.00    -0.237 OA
ATOM     96  O   UNL A   1      46.737  22.725  35.312  1.00  0.00    -0.744 OA
ENDBRANCH  92  93
ENDBRANCH  60  85
ENDBRANCH  34  35
ENDBRANCH  26  29
ENDBRANCH  24  25
ENDBRANCH   1  24
TORSDOF 15
ENDMDL
MODEL 3
REMARK VINA RESULT:     -13.6      5.231     11.573
REMARK SMILES Cc1cc(C(=O)N[C@H]2C=C[C@H](C(=O)NCCCNC(=O)c3ccc(-c4c5nc(c(-c6c(F)cc(S(=O)(=O)[O-])cc6F)c6ccc([nH]6)c(-c6c(F)cc(S(=O)(=O)[O-])cc6F)c6nc(c(-c7c(F)cc(S(=O)(=O)[O-])cc7F)c7ccc4[nH]7)C=C6)C=C5)cc3)C2)ccc1F
REMARK SMILES IDX 16 1 15 2 14 3 12 4 13 5 11 7 8 8 9 9 87 10 10 11 7 12 5 13
REMARK SMILES IDX 6 14 4 16 1 17 2 18 3 19 90 20 89 21 91 22 88 23 17 24 18 25
REMARK SMILES IDX 19 26 20 28 21 29 22 30 86 31 23 32 85 33 24 34 25 35 26 36
REMARK SMILES IDX 79 37 27 38 84 39 78 40 80 41 28 42 83 43 77 44 76 45 29 47
REMARK SMILES IDX 63 48 42 49 62 50 43 51 46 52 61 53 81 54 44 55 45 56 60 58
REMARK SMILES IDX 82 59 47 60 30 61 31 62 40 63 32 64 33 65 39 66 41 67 34 68
REMARK SMILES IDX 35 69 36 70 37 71 38 72 64 73 65 74 74 75 66 76 67 77 73 78
REMARK SMILES IDX 75 79 68 80 69 81 70 82 71 83 72 84 48 85 49 86 58 87 50 88
REMARK SMILES IDX 51 89 57 90 59 91 52 92 53 93 54 94 55 95 56 96
REMARK H PARENT 14 6 7 15 18 27 80 46 46 57
REMARK Flexibility Score: inf
ROOT
ATOM      1  C   UNL A   1      37.438  23.060  25.182  1.00  0.00     0.042 C 
ENDROOT
BRANCH   1   2
ATOM      2  C   UNL A   1      36.785  21.823  25.786  1.00  0.00     0.117 C 
BRANCH   2   3
ATOM      3  N   UNL A   1      35.524  22.177  26.414  1.00  0.00    -0.356 N 
ATOM      4  C   UNL A   1      34.277  22.223  25.883  1.00  0.00     0.227 C 
ATOM      5  O   UNL A   1      33.413  22.812  26.541  1.00  0.00    -0.274 OA
ATOM      6  H   UNL A   1      35.584  22.417  27.366  1.00  0.00     0.163 HD
BRANCH   4   7
ATOM      7  C   UNL A   1      33.892  21.504  24.568  1.00  0.00     0.103 C 
ATOM      8  C   UNL A   1      33.230  23.375  23.234  1.00  0.00     0.106 C 
ATOM      9  C   UNL A   1      32.084  22.425  23.366  1.00  0.00    -0.006 C 
ATOM     10  C   UNL A   1      34.401  22.413  23.441  1.00  0.00     0.047 C 
ATOM     11  C   UNL A   1      32.456  21.385  24.132  1.00  0.00    -0.016 C 
BRANCH   8  12
ATOM     12  N   UNL A   1      33.239  24.052  21.971  1.00  0.00    -0.346 N 
ATOM     13  C   UNL A   1      32.916  25.356  21.679  1.00  0.00     0.251 C 
ATOM     14  O   UNL A   1      33.049  25.741  20.517  1.00  0.00    -0.269 OA
ATOM     15  H   UNL A   1      33.518  23.504  21.202  1.00  0.00     0.164 HD
BRANCH  13  16
ATOM     16  C   UNL A   1      32.492  26.343  22.722  1.00  0.00     0.040 A 
ATOM     17  C   UNL A   1      33.849  28.503  25.558  1.00  0.00     0.047 C 
ATOM     18  C   UNL A   1      32.896  27.863  24.594  1.00  0.00    -0.015 A 
ATOM     19  C   UNL A   1      33.318  26.825  23.746  1.00  0.00     0.020 A 
ATOM     20  C   UNL A   1      31.580  28.311  24.498  1.00  0.00     0.126 A 
ATOM     21  C   UNL A   1      30.709  27.778  23.554  1.00  0.00     0.040 A 
ATOM     22  F   UNL A   1      31.136  29.269  25.323  1.00  0.00    -0.207 F 
ATOM     23  C   UNL A   1      31.170  26.811  22.656  1.00  0.00     0.017 A 
ENDBRANCH  13  16
ENDBRANCH   8  12
ENDBRANCH   4   7
ENDBRANCH   2   3
ENDBRANCH   1   2
BRANCH   1  24
ATOM     24  C   UNL A   1      37.523  24.108  26.251  1.00  0.00     0.118 C 
BRANCH  24  25
ATOM     25  N   UNL A   1      38.640  23.847  27.151  1.00  0.00    -0.352 N 
ATOM     26  C   UNL A   1      39.775  24.622  26.979  1.00  0.00     0.251 C 
ATOM     27  H   UNL A   1      38.590  23.153  27.848  1.00  0.00     0.163 HD
ATOM     28  O   UNL A   1      40.635  24.385  26.152  1.00  0.00    -0.269 OA
BRANCH  26  29
ATOM     29  C   UNL A   1      39.665  25.936  27.660  1.00  0.00     0.039 A 
ATOM     30  C   UNL A   1      39.246  26.056  28.986  1.00  0.00     0.014 A 
ATOM     31  C   UNL A   1      40.194  27.033  26.976  1.00  0.00     0.014 A 
ATOM     32  C   UNL A   1      39.355  27.293  29.616  1.00  0.00     0.010 A 
ATOM     33  C   UNL A   1      40.486  28.166  27.637  1.00  0.00     0.010 A 
ATOM     34  C   UNL A   1      39.978  28.323  28.919  1.00  0.00    -0.014 A 
BRANCH  34  35
ATOM     35  C   UNL A   1      40.188  29.681  29.352  1.00  0.00     0.031 A 
ATOM     36  C   UNL A   1      39.072  30.617  29.232  1.00  0.00     0.074 A 
ATOM     37  C   UNL A   1      41.234  29.789  30.203  1.00  0.00     0.049 A 
ATOM     38  N   UNL A   1      39.185  31.888  29.328  1.00  0.00    -0.248 NA
ATOM     39  C   UNL A   1      37.698  30.180  28.987  1.00  0.00     0.031 C 
ATOM     40  C   UNL A   1      41.529  30.748  31.248  1.00  0.00     0.029 A 
ATOM     41  N   UNL A   1      42.343  28.935  30.223  1.00  0.00    -0.354 N 
ATOM     42  C   UNL A   1      37.917  32.388  29.541  1.00  0.00     0.074 A 
ATOM     43  C   UNL A   1      37.023  31.320  29.164  1.00  0.00     0.031 C 
ATOM     44  C   UNL A   1      42.837  30.641  31.567  1.00  0.00     0.029 A 
ATOM     45  C   UNL A   1      43.442  29.681  30.643  1.00  0.00     0.049 A 
ATOM     46  H   UNL A   1      42.346  27.980  29.986  1.00  0.00     0.167 HD
ATOM     47  C   UNL A   1      37.798  33.571  30.211  1.00  0.00     0.037 A 
ATOM     48  C   UNL A   1      44.357  29.983  29.670  1.00  0.00     0.037 A 
ATOM     49  C   UNL A   1      39.138  34.038  30.595  1.00  0.00     0.049 A 
ATOM     50  C   UNL A   1      44.241  31.439  29.271  1.00  0.00     0.074 A 
ATOM     51  C   UNL A   1      39.849  33.921  31.779  1.00  0.00     0.029 A 
ATOM     52  N   UNL A   1      40.074  34.331  29.607  1.00  0.00    -0.354 N 
ATOM     53  N   UNL A   1      43.153  32.154  29.392  1.00  0.00    -0.248 NA
ATOM     54  C   UNL A   1      45.384  32.231  28.832  1.00  0.00     0.031 C 
ATOM     55  C   UNL A   1      41.231  34.044  31.474  1.00  0.00     0.029 A 
ATOM     56  C   UNL A   1      41.363  34.231  30.107  1.00  0.00     0.049 A 
ATOM     57  H   UNL A   1      39.852  34.575  28.680  1.00  0.00     0.167 HD
ATOM     58  C   UNL A   1      43.431  33.465  29.126  1.00  0.00     0.074 A 
ATOM     59  C   UNL A   1      44.840  33.460  28.767  1.00  0.00     0.031 C 
ATOM     60  C   UNL A   1      42.511  34.471  29.243  1.00  0.00     0.037 A 
BRANCH  47  61
ATOM     61  C   UNL A   1      36.515  34.138  30.791  1.00  0.00     0.058 A 
ATOM     62  C   UNL A   1      35.438  34.480  29.940  1.00  0.00     0.135 A 
ATOM     63  C   UNL A   1      36.263  34.357  32.162  1.00  0.00     0.135 A 
ATOM     64  F   UNL A   1      35.497  34.279  28.617  1.00  0.00    -0.206 F 
ATOM     65  C   UNL A   1      34.243  35.035  30.399  1.00  0.00     0.059 A 
ATOM     66  C   UNL A   1      35.088  34.950  32.643  1.00  0.00     0.059 A 
ATOM     67  F   UNL A   1      37.121  33.950  33.106  1.00  0.00    -0.206 F 
ATOM     68  C   UNL A   1      34.077  35.278  31.753  1.00  0.00     0.060 A 
BRANCH  68  69
ATOM     69  S   UNL A   1      32.510  35.965  32.320  1.00  0.00     0.124 S 
ATOM     70  O   UNL A   1      31.978  36.564  31.100  1.00  0.00    -0.237 OA
ATOM     71  O   UNL A   1      31.814  34.775  32.799  1.00  0.00    -0.237 OA
ATOM     72  O   UNL A   1      32.908  36.915  33.355  1.00  0.00    -0.744 OA
ENDBRANCH  68  69
ENDBRANCH  47  61
BRANCH  48  73
ATOM     73  C   UNL A   1      44.613  28.792  28.774  1.00  0.00     0.058 A 
ATOM     74  C   UNL A   1      44.073  28.870  27.470  1.00  0.00     0.135 A 
ATOM     75  C   UNL A   1      45.739  27.962  28.936  1.00  0.00     0.135 A 
ATOM     76  F   UNL A   1      42.975  29.615  27.249  1.00  0.00    -0.206 F 
ATOM     77  C   UNL A   1      44.731  28.345  26.357  1.00  0.00     0.059 A 
ATOM     78  C   UNL A   1      46.411  27.416  27.829  1.00  0.00     0.059 A 
ATOM     79  F   UNL A   1      46.298  27.810  30.145  1.00  0.00    -0.206 F 
ATOM     80  C   UNL A   1      45.949  27.697  26.542  1.00  0.00     0.060 A 
BRANCH  80  81
ATOM     81  S   UNL A   1      46.982  27.395  25.079  1.00  0.00     0.124 S 
ATOM     82  O   UNL A   1      48.318  27.300  25.657  1.00  0.00    -0.237 OA
ATOM     83  O   UNL A   1      46.429  26.138  24.567  1.00  0.00    -0.237 OA
ATOM     84  O   UNL A   1      46.743  28.565  24.244  1.00  0.00    -0.744 OA
ENDBRANCH  80  81
ENDBRANCH  48  73
BRANCH  60  85
ATOM     85  C   UNL A   1      42.651  35.832  28.608  1.00  0.00     0.058 A 
ATOM     86  C   UNL A   1      42.178  36.131  27.320  1.00  0.00     0.135 A 
ATOM     87  C   UNL A   1      43.106  36.939  29.368  1.00  0.00     0.135 A 
ATOM     88  F   UNL A   1      41.606  35.199  26.545  1.00  0.00    -0.206 F 
ATOM     89  C   UNL A   1      42.227  37.416  26.791  1.00  0.00     0.059 A 
ATOM     90  C   UNL A   1      43.085  38.242  28.888  1.00  0.00     0.059 A 
ATOM     91  F   UNL A   1      43.569  36.797  30.619  1.00  0.00    -0.206 F 
ATOM     92  C   UNL A   1      42.679  38.466  27.583  1.00  0.00     0.060 A 
BRANCH  92  93
ATOM     93  S   UNL A   1      42.692  40.132  26.911  1.00  0.00     0.124 S 
ATOM     94  O   UNL A   1      42.856  40.926  28.125  1.00  0.00    -0.237 OA
ATOM     95  O   UNL A   1      43.843  40.105  26.013  1.00  0.00    -0.237 OA
ATOM     96  O   UNL A   1      41.395  40.240  26.253  1.00  0.00    -0.744 OA
ENDBRANCH  92  93
ENDBRANCH  60  85
ENDBRANCH  34  35
ENDBRANCH  26  29
ENDBRANCH  24  25
ENDBRANCH   1  24
TORSDOF 15
ENDMDL
