MODEL 1
REMARK VINA RESULT:     -12.6      0.000      0.000
REMARK SMILES Cc1cc2[nH]ccc2nc1C(=O)NCCCNC(=O)c1ccc(-c2c3nc(c(-c4c(F)cc(S(=O)(=O)[O-])cc4F)c4ccc([nH]4)c(-c4c(F)cc(S(=O)(=O)[O-])cc4F)c4nc(c(-c5c(F)cc(S(=O)(=O)[O-])cc5F)c5ccc2[nH]5)C=C4)C=C3)cc1
REMARK SMILES IDX 17 1 18 2 19 3 16 5 15 6 14 7 13 8 11 9 12 10 10 12 1 13
REMARK SMILES IDX 2 14 3 15 4 16 9 17 5 18 8 19 6 20 7 22 20 23 21 24 85 25
REMARK SMILES IDX 22 26 84 27 23 28 24 29 25 30 78 31 26 32 83 33 77 34 79 35
REMARK SMILES IDX 27 36 82 37 76 38 75 39 28 41 62 42 41 43 61 44 42 45 45 46
REMARK SMILES IDX 60 47 80 48 43 49 44 50 59 52 81 53 46 54 29 55 30 56 39 57
REMARK SMILES IDX 31 58 32 59 38 60 40 61 33 62 34 63 35 64 36 65 37 66 63 67
REMARK SMILES IDX 64 68 73 69 65 70 66 71 72 72 74 73 67 74 68 75 69 76 70 77
REMARK SMILES IDX 71 78 47 79 48 80 57 81 49 82 50 83 56 84 58 85 51 86 52 87
REMARK SMILES IDX 53 88 54 89 55 90
REMARK H PARENT 17 4 13 11 5 21 79 40 45 51
REMARK Flexibility Score: inf
ROOT
ATOM      1  N   UNL A   1      40.366  21.610  25.861  1.00  0.00    -0.352 N 
ATOM      2  C   UNL A   1      41.363  22.558  25.928  1.00  0.00     0.251 C 
ATOM      3  O   UNL A   1      42.357  22.464  25.211  1.00  0.00    -0.269 OA
ATOM      4  H   UNL A   1      40.619  20.746  25.466  1.00  0.00     0.163 HD
ENDROOT
BRANCH   1   5
ATOM      5  C   UNL A   1      38.976  21.731  26.305  1.00  0.00     0.118 C 
BRANCH   5   6
ATOM      6  C   UNL A   1      38.022  21.580  25.142  1.00  0.00     0.042 C 
BRANCH   6   7
ATOM      7  C   UNL A   1      36.897  22.619  25.169  1.00  0.00     0.118 C 
BRANCH   7   8
ATOM      8  N   UNL A   1      35.951  22.355  26.223  1.00  0.00    -0.351 N 
ATOM      9  C   UNL A   1      34.825  21.595  26.392  1.00  0.00     0.270 C 
ATOM     10  O   UNL A   1      34.442  21.608  27.573  1.00  0.00    -0.268 OA
ATOM     11  H   UNL A   1      36.175  22.855  27.041  1.00  0.00     0.163 HD
BRANCH   9  12
ATOM     12  C   UNL A   1      34.020  20.767  25.382  1.00  0.00     0.131 A 
ATOM     13  C   UNL A   1      31.830  22.136  24.982  1.00  0.00     0.047 C 
ATOM     14  C   UNL A   1      32.759  20.985  24.788  1.00  0.00    -0.018 A 
ATOM     15  C   UNL A   1      32.213  19.992  23.940  1.00  0.00     0.034 A 
ATOM     16  C   UNL A   1      32.924  18.816  23.798  1.00  0.00     0.064 A 
ATOM     17  N   UNL A   1      34.718  19.618  25.157  1.00  0.00    -0.241 NA
ATOM     18  N   UNL A   1      32.639  17.649  23.137  1.00  0.00    -0.360 N 
ATOM     19  C   UNL A   1      34.150  18.659  24.411  1.00  0.00     0.089 A 
ATOM     20  C   UNL A   1      33.652  16.747  23.335  1.00  0.00     0.085 A 
ATOM     21  H   UNL A   1      31.830  17.484  22.601  1.00  0.00     0.166 HD
ATOM     22  C   UNL A   1      34.611  17.356  24.116  1.00  0.00     0.048 A 
ENDBRANCH   9  12
ENDBRANCH   7   8
ENDBRANCH   6   7
ENDBRANCH   5   6
ENDBRANCH   1   5
BRANCH   2  23
ATOM     23  C   UNL A   1      41.192  23.686  26.853  1.00  0.00     0.039 A 
ATOM     24  C   UNL A   1      42.027  23.840  27.957  1.00  0.00     0.014 A 
ATOM     25  C   UNL A   1      40.233  24.649  26.539  1.00  0.00     0.014 A 
ATOM     26  C   UNL A   1      41.953  25.024  28.680  1.00  0.00     0.010 A 
ATOM     27  C   UNL A   1      40.291  25.882  27.135  1.00  0.00     0.010 A 
ATOM     28  C   UNL A   1      41.115  26.065  28.236  1.00  0.00    -0.014 A 
BRANCH  28  29
ATOM     29  C   UNL A   1      41.216  27.395  28.830  1.00  0.00     0.031 A 
ATOM     30  C   UNL A   1      42.297  28.223  28.237  1.00  0.00     0.074 A 
ATOM     31  C   UNL A   1      40.338  27.912  29.719  1.00  0.00     0.049 A 
ATOM     32  N   UNL A   1      43.465  28.437  28.744  1.00  0.00    -0.248 NA
ATOM     33  C   UNL A   1      42.164  28.686  26.846  1.00  0.00     0.031 C 
ATOM     34  C   UNL A   1      39.068  27.347  30.188  1.00  0.00     0.029 A 
ATOM     35  N   UNL A   1      40.370  29.119  30.349  1.00  0.00    -0.354 N 
ATOM     36  C   UNL A   1      44.103  29.305  27.867  1.00  0.00     0.074 A 
ATOM     37  C   UNL A   1      43.368  29.225  26.632  1.00  0.00     0.031 C 
ATOM     38  C   UNL A   1      38.357  28.295  30.837  1.00  0.00     0.029 A 
ATOM     39  C   UNL A   1      39.186  29.474  30.992  1.00  0.00     0.049 A 
ATOM     40  H   UNL A   1      41.169  29.695  30.351  1.00  0.00     0.167 HD
ATOM     41  C   UNL A   1      44.988  30.227  28.339  1.00  0.00     0.037 A 
ATOM     42  C   UNL A   1      38.912  30.647  31.621  1.00  0.00     0.037 A 
ATOM     43  C   UNL A   1      45.394  29.901  29.687  1.00  0.00     0.049 A 
ATOM     44  C   UNL A   1      40.223  31.247  31.981  1.00  0.00     0.074 A 
ATOM     45  C   UNL A   1      45.964  28.798  30.294  1.00  0.00     0.029 A 
ATOM     46  N   UNL A   1      44.842  30.644  30.705  1.00  0.00    -0.354 N 
ATOM     47  N   UNL A   1      41.042  30.723  32.853  1.00  0.00    -0.248 NA
ATOM     48  C   UNL A   1      40.826  32.167  31.032  1.00  0.00     0.031 C 
ATOM     49  C   UNL A   1      45.311  28.693  31.558  1.00  0.00     0.029 A 
ATOM     50  C   UNL A   1      44.446  29.780  31.691  1.00  0.00     0.049 A 
ATOM     51  H   UNL A   1      44.750  31.624  30.722  1.00  0.00     0.167 HD
ATOM     52  C   UNL A   1      42.301  30.888  32.294  1.00  0.00     0.074 A 
ATOM     53  C   UNL A   1      42.112  31.862  31.220  1.00  0.00     0.031 C 
ATOM     54  C   UNL A   1      43.314  30.013  32.563  1.00  0.00     0.037 A 
BRANCH  41  55
ATOM     55  C   UNL A   1      45.144  31.624  27.780  1.00  0.00     0.058 A 
ATOM     56  C   UNL A   1      46.417  32.033  27.328  1.00  0.00     0.135 A 
ATOM     57  C   UNL A   1      44.200  32.662  27.950  1.00  0.00     0.135 A 
ATOM     58  F   UNL A   1      47.395  31.133  27.128  1.00  0.00    -0.206 F 
ATOM     59  C   UNL A   1      46.755  33.375  27.157  1.00  0.00     0.059 A 
ATOM     60  C   UNL A   1      44.500  34.001  27.733  1.00  0.00     0.059 A 
ATOM     61  F   UNL A   1      42.969  32.449  28.427  1.00  0.00    -0.206 F 
ATOM     62  C   UNL A   1      45.790  34.352  27.379  1.00  0.00     0.060 A 
BRANCH  62  63
ATOM     63  S   UNL A   1      46.248  36.087  27.251  1.00  0.00     0.124 S 
ATOM     64  O   UNL A   1      45.032  36.742  27.716  1.00  0.00    -0.237 OA
ATOM     65  O   UNL A   1      47.399  36.158  28.145  1.00  0.00    -0.237 OA
ATOM     66  O   UNL A   1      46.552  36.248  25.832  1.00  0.00    -0.744 OA
ENDBRANCH  62  63
ENDBRANCH  41  55
BRANCH  42  67
ATOM     67  C   UNL A   1      37.638  31.420  31.648  1.00  0.00     0.058 A 
ATOM     68  C   UNL A   1      36.905  31.576  32.840  1.00  0.00     0.135 A 
ATOM     69  C   UNL A   1      37.263  32.264  30.583  1.00  0.00     0.135 A 
ATOM     70  F   UNL A   1      37.197  30.824  33.914  1.00  0.00    -0.206 F 
ATOM     71  C   UNL A   1      35.910  32.550  32.991  1.00  0.00     0.059 A 
ATOM     72  C   UNL A   1      36.269  33.238  30.705  1.00  0.00     0.059 A 
ATOM     73  F   UNL A   1      37.918  32.232  29.413  1.00  0.00    -0.206 F 
ATOM     74  C   UNL A   1      35.615  33.395  31.922  1.00  0.00     0.060 A 
BRANCH  74  75
ATOM     75  S   UNL A   1      34.460  34.767  32.164  1.00  0.00     0.124 S 
ATOM     76  O   UNL A   1      33.400  34.137  32.944  1.00  0.00    -0.237 OA
ATOM     77  O   UNL A   1      35.280  35.740  32.876  1.00  0.00    -0.237 OA
ATOM     78  O   UNL A   1      34.090  35.145  30.803  1.00  0.00    -0.744 OA
ENDBRANCH  74  75
ENDBRANCH  42  67
BRANCH  54  79
ATOM     79  C   UNL A   1      43.174  29.069  33.730  1.00  0.00     0.058 A 
ATOM     80  C   UNL A   1      43.394  29.411  35.077  1.00  0.00     0.135 A 
ATOM     81  C   UNL A   1      42.599  27.814  33.475  1.00  0.00     0.135 A 
ATOM     82  F   UNL A   1      43.860  30.621  35.416  1.00  0.00    -0.206 F 
ATOM     83  C   UNL A   1      43.066  28.537  36.118  1.00  0.00     0.059 A 
ATOM     84  C   UNL A   1      42.236  26.942  34.495  1.00  0.00     0.059 A 
ATOM     85  F   UNL A   1      42.318  27.449  32.212  1.00  0.00    -0.206 F 
ATOM     86  C   UNL A   1      42.476  27.309  35.818  1.00  0.00     0.060 A 
BRANCH  86  87
ATOM     87  S   UNL A   1      41.950  26.225  37.164  1.00  0.00     0.124 S 
ATOM     88  O   UNL A   1      40.644  26.776  37.511  1.00  0.00    -0.237 OA
ATOM     89  O   UNL A   1      41.935  24.912  36.525  1.00  0.00    -0.237 OA
ATOM     90  O   UNL A   1      42.988  26.404  38.176  1.00  0.00    -0.744 OA
ENDBRANCH  86  87
ENDBRANCH  54  79
ENDBRANCH  28  29
ENDBRANCH   2  23
TORSDOF 13
ENDMDL
MODEL 2
REMARK VINA RESULT:     -12.5      3.397      6.002
REMARK SMILES Cc1cc2[nH]ccc2nc1C(=O)NCCCNC(=O)c1ccc(-c2c3nc(c(-c4c(F)cc(S(=O)(=O)[O-])cc4F)c4ccc([nH]4)c(-c4c(F)cc(S(=O)(=O)[O-])cc4F)c4nc(c(-c5c(F)cc(S(=O)(=O)[O-])cc5F)c5ccc2[nH]5)C=C4)C=C3)cc1
REMARK SMILES IDX 17 1 18 2 19 3 16 5 15 6 14 7 13 8 11 9 12 10 10 12 1 13
REMARK SMILES IDX 2 14 3 15 4 16 9 17 5 18 8 19 6 20 7 22 20 23 21 24 85 25
REMARK SMILES IDX 22 26 84 27 23 28 24 29 25 30 78 31 26 32 83 33 77 34 79 35
REMARK SMILES IDX 27 36 82 37 76 38 75 39 28 41 62 42 41 43 61 44 42 45 45 46
REMARK SMILES IDX 60 47 80 48 43 49 44 50 59 52 81 53 46 54 29 55 30 56 39 57
REMARK SMILES IDX 31 58 32 59 38 60 40 61 33 62 34 63 35 64 36 65 37 66 63 67
REMARK SMILES IDX 64 68 73 69 65 70 66 71 72 72 74 73 67 74 68 75 69 76 70 77
REMARK SMILES IDX 71 78 47 79 48 80 57 81 49 82 50 83 56 84 58 85 51 86 52 87
REMARK SMILES IDX 53 88 54 89 55 90
REMARK H PARENT 17 4 13 11 5 21 79 40 45 51
REMARK Flexibility Score: inf
ROOT
ATOM      1  N   UNL A   1      41.717  22.058  25.723  1.00  0.00    -0.352 N 
ATOM      2  C   UNL A   1      40.959  22.645  26.711  1.00  0.00     0.251 C 
ATOM      3  O   UNL A   1      40.093  21.998  27.296  1.00  0.00    -0.269 OA
ATOM      4  H   UNL A   1      41.341  21.244  25.318  1.00  0.00     0.163 HD
ENDROOT
BRANCH   1   5
ATOM      5  C   UNL A   1      43.013  22.495  25.200  1.00  0.00     0.118 C 
BRANCH   5   6
ATOM      6  C   UNL A   1      44.145  21.966  26.051  1.00  0.00     0.042 C 
BRANCH   6   7
ATOM      7  C   UNL A   1      45.285  21.383  25.210  1.00  0.00     0.118 C 
BRANCH   7   8
ATOM      8  N   UNL A   1      45.960  22.400  24.445  1.00  0.00    -0.351 N 
ATOM      9  C   UNL A   1      46.442  23.663  24.662  1.00  0.00     0.270 C 
ATOM     10  O   UNL A   1      47.085  24.078  23.685  1.00  0.00    -0.268 OA
ATOM     11  H   UNL A   1      46.117  22.109  23.518  1.00  0.00     0.163 HD
BRANCH   9  12
ATOM     12  C   UNL A   1      46.313  24.583  25.883  1.00  0.00     0.131 A 
ATOM     13  C   UNL A   1      44.159  25.994  25.441  1.00  0.00     0.047 C 
ATOM     14  C   UNL A   1      45.359  25.568  26.216  1.00  0.00    -0.018 A 
ATOM     15  C   UNL A   1      45.541  26.337  27.390  1.00  0.00     0.034 A 
ATOM     16  C   UNL A   1      46.697  26.127  28.117  1.00  0.00     0.064 A 
ATOM     17  N   UNL A   1      47.405  24.362  26.669  1.00  0.00    -0.241 NA
ATOM     18  N   UNL A   1      47.206  26.751  29.226  1.00  0.00    -0.360 N 
ATOM     19  C   UNL A   1      47.597  25.153  27.736  1.00  0.00     0.089 A 
ATOM     20  C   UNL A   1      48.423  26.205  29.545  1.00  0.00     0.085 A 
ATOM     21  H   UNL A   1      46.766  27.481  29.718  1.00  0.00     0.166 HD
ATOM     22  C   UNL A   1      48.683  25.198  28.639  1.00  0.00     0.048 A 
ENDBRANCH   9  12
ENDBRANCH   7   8
ENDBRANCH   6   7
ENDBRANCH   5   6
ENDBRANCH   1   5
BRANCH   2  23
ATOM     23  C   UNL A   1      41.233  24.045  27.061  1.00  0.00     0.039 A 
ATOM     24  C   UNL A   1      40.524  25.084  26.463  1.00  0.00     0.014 A 
ATOM     25  C   UNL A   1      42.154  24.296  28.077  1.00  0.00     0.014 A 
ATOM     26  C   UNL A   1      40.679  26.367  26.973  1.00  0.00     0.010 A 
ATOM     27  C   UNL A   1      42.165  25.521  28.694  1.00  0.00     0.010 A 
ATOM     28  C   UNL A   1      41.466  26.574  28.122  1.00  0.00    -0.014 A 
BRANCH  28  29
ATOM     29  C   UNL A   1      41.435  27.860  28.814  1.00  0.00     0.031 A 
ATOM     30  C   UNL A   1      42.477  28.807  28.340  1.00  0.00     0.074 A 
ATOM     31  C   UNL A   1      40.478  28.243  29.688  1.00  0.00     0.049 A 
ATOM     32  N   UNL A   1      43.598  29.068  28.923  1.00  0.00    -0.248 NA
ATOM     33  C   UNL A   1      42.375  29.361  26.980  1.00  0.00     0.031 C 
ATOM     34  C   UNL A   1      39.234  27.553  30.047  1.00  0.00     0.029 A 
ATOM     35  N   UNL A   1      40.386  29.399  30.403  1.00  0.00    -0.354 N 
ATOM     36  C   UNL A   1      44.209  30.043  28.145  1.00  0.00     0.074 A 
ATOM     37  C   UNL A   1      43.543  30.002  26.870  1.00  0.00     0.031 C 
ATOM     38  C   UNL A   1      38.420  28.396  30.722  1.00  0.00     0.029 A 
ATOM     39  C   UNL A   1      39.148  29.618  31.004  1.00  0.00     0.049 A 
ATOM     40  H   UNL A   1      41.136  30.031  30.488  1.00  0.00     0.167 HD
ATOM     41  C   UNL A   1      44.997  30.990  28.728  1.00  0.00     0.037 A 
ATOM     42  C   UNL A   1      38.754  30.717  31.698  1.00  0.00     0.037 A 
ATOM     43  C   UNL A   1      45.361  30.595  30.071  1.00  0.00     0.049 A 
ATOM     44  C   UNL A   1      39.995  31.383  32.171  1.00  0.00     0.074 A 
ATOM     45  C   UNL A   1      45.984  29.494  30.628  1.00  0.00     0.029 A 
ATOM     46  N   UNL A   1      44.704  31.218  31.107  1.00  0.00    -0.354 N 
ATOM     47  N   UNL A   1      40.810  30.858  33.046  1.00  0.00    -0.248 NA
ATOM     48  C   UNL A   1      40.571  32.413  31.322  1.00  0.00     0.031 C 
ATOM     49  C   UNL A   1      45.280  29.248  31.844  1.00  0.00     0.029 A 
ATOM     50  C   UNL A   1      44.328  30.256  32.007  1.00  0.00     0.049 A 
ATOM     51  H   UNL A   1      44.536  32.184  31.188  1.00  0.00     0.167 HD
ATOM     52  C   UNL A   1      42.077  31.156  32.570  1.00  0.00     0.074 A 
ATOM     53  C   UNL A   1      41.866  32.190  31.558  1.00  0.00     0.031 C 
ATOM     54  C   UNL A   1      43.141  30.340  32.830  1.00  0.00     0.037 A 
BRANCH  41  55
ATOM     55  C   UNL A   1      45.071  32.433  28.279  1.00  0.00     0.058 A 
ATOM     56  C   UNL A   1      46.338  32.986  27.992  1.00  0.00     0.135 A 
ATOM     57  C   UNL A   1      44.018  33.366  28.413  1.00  0.00     0.135 A 
ATOM     58  F   UNL A   1      47.413  32.195  27.841  1.00  0.00    -0.206 F 
ATOM     59  C   UNL A   1      46.558  34.362  27.944  1.00  0.00     0.059 A 
ATOM     60  C   UNL A   1      44.208  34.739  28.314  1.00  0.00     0.059 A 
ATOM     61  F   UNL A   1      42.773  33.008  28.741  1.00  0.00    -0.206 F 
ATOM     62  C   UNL A   1      45.486  35.230  28.123  1.00  0.00     0.060 A 
BRANCH  62  63
ATOM     63  S   UNL A   1      45.784  37.003  28.154  1.00  0.00     0.124 S 
ATOM     64  O   UNL A   1      47.221  37.052  28.387  1.00  0.00    -0.237 OA
ATOM     65  O   UNL A   1      45.333  37.404  26.826  1.00  0.00    -0.237 OA
ATOM     66  O   UNL A   1      44.946  37.462  29.259  1.00  0.00    -0.744 OA
ENDBRANCH  62  63
ENDBRANCH  41  55
BRANCH  42  67
ATOM     67  C   UNL A   1      37.424  31.390  31.711  1.00  0.00     0.058 A 
ATOM     68  C   UNL A   1      36.785  31.720  32.922  1.00  0.00     0.135 A 
ATOM     69  C   UNL A   1      36.887  31.987  30.553  1.00  0.00     0.135 A 
ATOM     70  F   UNL A   1      37.233  31.210  34.081  1.00  0.00    -0.206 F 
ATOM     71  C   UNL A   1      35.725  32.634  32.990  1.00  0.00     0.059 A 
ATOM     72  C   UNL A   1      35.826  32.894  30.593  1.00  0.00     0.059 A 
ATOM     73  F   UNL A   1      37.440  31.777  29.348  1.00  0.00    -0.206 F 
ATOM     74  C   UNL A   1      35.268  33.236  31.819  1.00  0.00     0.060 A 
BRANCH  74  75
ATOM     75  S   UNL A   1      34.022  34.544  31.921  1.00  0.00     0.124 S 
ATOM     76  O   UNL A   1      33.560  34.632  30.540  1.00  0.00    -0.237 OA
ATOM     77  O   UNL A   1      33.069  33.990  32.876  1.00  0.00    -0.237 OA
ATOM     78  O   UNL A   1      34.778  35.698  32.399  1.00  0.00    -0.744 OA
ENDBRANCH  74  75
ENDBRANCH  42  67
BRANCH  54  79
ATOM     79  C   UNL A   1      43.017  29.304  33.919  1.00  0.00     0.058 A 
ATOM     80  C   UNL A   1      43.163  29.556  35.295  1.00  0.00     0.135 A 
ATOM     81  C   UNL A   1      42.535  28.038  33.549  1.00  0.00     0.135 A 
ATOM     82  F   UNL A   1      43.536  30.764  35.741  1.00  0.00    -0.206 F 
ATOM     83  C   UNL A   1      42.852  28.588  36.254  1.00  0.00     0.059 A 
ATOM     84  C   UNL A   1      42.191  27.071  34.486  1.00  0.00     0.059 A 
ATOM     85  F   UNL A   1      42.327  27.753  32.251  1.00  0.00    -0.206 F 
ATOM     86  C   UNL A   1      42.355  27.351  35.840  1.00  0.00     0.060 A 
BRANCH  86  87
ATOM     87  S   UNL A   1      41.849  26.139  37.080  1.00  0.00     0.124 S 
ATOM     88  O   UNL A   1      42.848  26.331  38.126  1.00  0.00    -0.237 OA
ATOM     89  O   UNL A   1      40.494  26.572  37.411  1.00  0.00    -0.237 OA
ATOM     90  O   UNL A   1      41.930  24.865  36.369  1.00  0.00    -0.744 OA
ENDBRANCH  86  87
ENDBRANCH  54  79
ENDBRANCH  28  29
ENDBRANCH   2  23
TORSDOF 13
ENDMDL
MODEL 3
REMARK VINA RESULT:     -12.5      2.876      4.930
REMARK SMILES Cc1cc2[nH]ccc2nc1C(=O)NCCCNC(=O)c1ccc(-c2c3nc(c(-c4c(F)cc(S(=O)(=O)[O-])cc4F)c4ccc([nH]4)c(-c4c(F)cc(S(=O)(=O)[O-])cc4F)c4nc(c(-c5c(F)cc(S(=O)(=O)[O-])cc5F)c5ccc2[nH]5)C=C4)C=C3)cc1
REMARK SMILES IDX 17 1 18 2 19 3 16 5 15 6 14 7 13 8 11 9 12 10 10 12 1 13
REMARK SMILES IDX 2 14 3 15 4 16 9 17 5 18 8 19 6 20 7 22 20 23 21 24 85 25
REMARK SMILES IDX 22 26 84 27 23 28 24 29 25 30 78 31 26 32 83 33 77 34 79 35
REMARK SMILES IDX 27 36 82 37 76 38 75 39 28 41 62 42 41 43 61 44 42 45 45 46
REMARK SMILES IDX 60 47 80 48 43 49 44 50 59 52 81 53 46 54 29 55 30 56 39 57
REMARK SMILES IDX 31 58 32 59 38 60 40 61 33 62 34 63 35 64 36 65 37 66 63 67
REMARK SMILES IDX 64 68 73 69 65 70 66 71 72 72 74 73 67 74 68 75 69 76 70 77
REMARK SMILES IDX 71 78 47 79 48 80 57 81 49 82 50 83 56 84 58 85 51 86 52 87
REMARK SMILES IDX 53 88 54 89 55 90
REMARK H PARENT 17 4 13 11 5 21 79 40 45 51
REMARK Flexibility Score: inf
ROOT
ATOM      1  N   UNL A   1      40.183  21.392  26.328  1.00  0.00    -0.352 N 
ATOM      2  C   UNL A   1      39.383  22.510  26.263  1.00  0.00     0.251 C 
ATOM      3  O   UNL A   1      38.438  22.552  25.478  1.00  0.00    -0.269 OA
ATOM      4  H   UNL A   1      40.155  20.795  25.547  1.00  0.00     0.163 HD
ENDROOT
BRANCH   1   5
ATOM      5  C   UNL A   1      41.072  20.981  27.417  1.00  0.00     0.118 C 
BRANCH   5   6
ATOM      6  C   UNL A   1      41.166  19.474  27.499  1.00  0.00     0.042 C 
BRANCH   6   7
ATOM      7  C   UNL A   1      42.613  18.975  27.462  1.00  0.00     0.118 C 
BRANCH   7   8
ATOM      8  N   UNL A   1      42.997  18.543  26.142  1.00  0.00    -0.351 N 
ATOM      9  C   UNL A   1      43.736  19.038  25.102  1.00  0.00     0.270 C 
ATOM     10  O   UNL A   1      43.884  18.190  24.207  1.00  0.00    -0.268 OA
ATOM     11  H   UNL A   1      42.630  17.654  25.933  1.00  0.00     0.163 HD
BRANCH   9  12
ATOM     12  C   UNL A   1      44.380  20.416  24.902  1.00  0.00     0.131 A 
ATOM     13  C   UNL A   1      46.936  19.936  24.647  1.00  0.00     0.047 C 
ATOM     14  C   UNL A   1      45.724  20.802  24.715  1.00  0.00    -0.018 A 
ATOM     15  C   UNL A   1      46.044  22.179  24.643  1.00  0.00     0.034 A 
ATOM     16  C   UNL A   1      45.017  23.082  24.835  1.00  0.00     0.064 A 
ATOM     17  N   UNL A   1      43.387  21.343  25.018  1.00  0.00    -0.241 NA
ATOM     18  N   UNL A   1      45.005  24.451  24.913  1.00  0.00    -0.360 N 
ATOM     19  C   UNL A   1      43.722  22.643  25.022  1.00  0.00     0.089 A 
ATOM     20  C   UNL A   1      43.730  24.888  25.165  1.00  0.00     0.085 A 
ATOM     21  H   UNL A   1      45.792  25.032  24.804  1.00  0.00     0.166 HD
ATOM     22  C   UNL A   1      42.909  23.781  25.225  1.00  0.00     0.048 A 
ENDBRANCH   9  12
ENDBRANCH   7   8
ENDBRANCH   6   7
ENDBRANCH   5   6
ENDBRANCH   1   5
BRANCH   2  23
ATOM     23  C   UNL A   1      39.674  23.630  27.169  1.00  0.00     0.039 A 
ATOM     24  C   UNL A   1      40.872  23.685  27.878  1.00  0.00     0.014 A 
ATOM     25  C   UNL A   1      38.759  24.681  27.223  1.00  0.00     0.014 A 
ATOM     26  C   UNL A   1      41.181  24.856  28.558  1.00  0.00     0.010 A 
ATOM     27  C   UNL A   1      39.147  25.891  27.737  1.00  0.00     0.010 A 
ATOM     28  C   UNL A   1      40.336  25.977  28.446  1.00  0.00    -0.014 A 
BRANCH  28  29
ATOM     29  C   UNL A   1      40.772  27.280  28.941  1.00  0.00     0.031 A 
ATOM     30  C   UNL A   1      41.922  27.840  28.185  1.00  0.00     0.074 A 
ATOM     31  C   UNL A   1      40.127  28.003  29.882  1.00  0.00     0.049 A 
ATOM     32  N   UNL A   1      43.160  27.827  28.551  1.00  0.00    -0.248 NA
ATOM     33  C   UNL A   1      41.723  28.264  26.789  1.00  0.00     0.031 C 
ATOM     34  C   UNL A   1      38.832  27.734  30.519  1.00  0.00     0.029 A 
ATOM     35  N   UNL A   1      40.476  29.202  30.428  1.00  0.00    -0.354 N 
ATOM     36  C   UNL A   1      43.853  28.507  27.558  1.00  0.00     0.074 A 
ATOM     37  C   UNL A   1      42.978  28.532  26.415  1.00  0.00     0.031 C 
ATOM     38  C   UNL A   1      38.408  28.836  31.178  1.00  0.00     0.029 A 
ATOM     39  C   UNL A   1      39.471  29.821  31.168  1.00  0.00     0.049 A 
ATOM     40  H   UNL A   1      41.369  29.599  30.308  1.00  0.00     0.167 HD
ATOM     41  C   UNL A   1      44.955  29.243  27.874  1.00  0.00     0.037 A 
ATOM     42  C   UNL A   1      39.514  31.050  31.746  1.00  0.00     0.037 A 
ATOM     43  C   UNL A   1      45.442  28.895  29.190  1.00  0.00     0.049 A 
ATOM     44  C   UNL A   1      40.952  31.379  31.928  1.00  0.00     0.074 A 
ATOM     45  C   UNL A   1      45.844  27.722  29.802  1.00  0.00     0.029 A 
ATOM     46  N   UNL A   1      45.174  29.777  30.211  1.00  0.00    -0.354 N 
ATOM     47  N   UNL A   1      41.745  30.732  32.739  1.00  0.00    -0.248 NA
ATOM     48  C   UNL A   1      41.614  32.114  30.863  1.00  0.00     0.031 C 
ATOM     49  C   UNL A   1      45.335  27.807  31.132  1.00  0.00     0.029 A 
ATOM     50  C   UNL A   1      44.729  29.055  31.286  1.00  0.00     0.049 A 
ATOM     51  H   UNL A   1      45.284  30.755  30.176  1.00  0.00     0.167 HD
ATOM     52  C   UNL A   1      42.937  30.609  32.041  1.00  0.00     0.074 A 
ATOM     53  C   UNL A   1      42.825  31.555  30.933  1.00  0.00     0.031 C 
ATOM     54  C   UNL A   1      43.777  29.553  32.257  1.00  0.00     0.037 A 
BRANCH  41  55
ATOM     55  C   UNL A   1      45.324  30.554  27.214  1.00  0.00     0.058 A 
ATOM     56  C   UNL A   1      46.664  30.758  26.820  1.00  0.00     0.135 A 
ATOM     57  C   UNL A   1      44.515  31.711  27.231  1.00  0.00     0.135 A 
ATOM     58  F   UNL A   1      47.526  29.729  26.764  1.00  0.00    -0.206 F 
ATOM     59  C   UNL A   1      47.183  32.027  26.563  1.00  0.00     0.059 A 
ATOM     60  C   UNL A   1      44.999  32.977  26.926  1.00  0.00     0.059 A 
ATOM     61  F   UNL A   1      43.241  31.697  27.637  1.00  0.00    -0.206 F 
ATOM     62  C   UNL A   1      46.342  33.132  26.636  1.00  0.00     0.060 A 
BRANCH  62  63
ATOM     63  S   UNL A   1      47.028  34.778  26.397  1.00  0.00     0.124 S 
ATOM     64  O   UNL A   1      47.774  34.963  27.635  1.00  0.00    -0.237 OA
ATOM     65  O   UNL A   1      47.824  34.596  25.188  1.00  0.00    -0.237 OA
ATOM     66  O   UNL A   1      45.842  35.614  26.241  1.00  0.00    -0.744 OA
ENDBRANCH  62  63
ENDBRANCH  41  55
BRANCH  42  67
ATOM     67  C   UNL A   1      38.435  32.072  31.859  1.00  0.00     0.058 A 
ATOM     68  C   UNL A   1      37.790  32.579  30.714  1.00  0.00     0.135 A 
ATOM     69  C   UNL A   1      37.811  32.355  33.090  1.00  0.00     0.135 A 
ATOM     70  F   UNL A   1      38.301  32.350  29.494  1.00  0.00    -0.206 F 
ATOM     71  C   UNL A   1      36.570  33.266  30.780  1.00  0.00     0.059 A 
ATOM     72  C   UNL A   1      36.600  33.045  33.183  1.00  0.00     0.059 A 
ATOM     73  F   UNL A   1      38.315  31.888  34.243  1.00  0.00    -0.206 F 
ATOM     74  C   UNL A   1      35.969  33.473  32.020  1.00  0.00     0.060 A 
BRANCH  74  75
ATOM     75  S   UNL A   1      34.314  34.201  32.097  1.00  0.00     0.124 S 
ATOM     76  O   UNL A   1      34.597  35.550  32.574  1.00  0.00    -0.237 OA
ATOM     77  O   UNL A   1      33.867  34.097  30.712  1.00  0.00    -0.237 OA
ATOM     78  O   UNL A   1      33.608  33.341  33.043  1.00  0.00    -0.744 OA
ENDBRANCH  74  75
ENDBRANCH  42  67
BRANCH  54  79
ATOM     79  C   UNL A   1      43.585  28.707  33.490  1.00  0.00     0.058 A 
ATOM     80  C   UNL A   1      44.015  29.056  34.783  1.00  0.00     0.135 A 
ATOM     81  C   UNL A   1      42.754  27.582  33.374  1.00  0.00     0.135 A 
ATOM     82  F   UNL A   1      44.741  30.162  34.996  1.00  0.00    -0.206 F 
ATOM     83  C   UNL A   1      43.640  28.310  35.905  1.00  0.00     0.059 A 
ATOM     84  C   UNL A   1      42.343  26.845  34.479  1.00  0.00     0.059 A 
ATOM     85  F   UNL A   1      42.269  27.228  32.171  1.00  0.00    -0.206 F 
ATOM     86  C   UNL A   1      42.794  27.213  35.744  1.00  0.00     0.060 A 
BRANCH  86  87
ATOM     87  S   UNL A   1      42.219  26.314  37.202  1.00  0.00     0.124 S 
ATOM     88  O   UNL A   1      40.883  26.867  37.398  1.00  0.00    -0.237 OA
ATOM     89  O   UNL A   1      42.272  24.924  36.759  1.00  0.00    -0.237 OA
ATOM     90  O   UNL A   1      43.195  26.669  38.231  1.00  0.00    -0.744 OA
ENDBRANCH  86  87
ENDBRANCH  54  79
ENDBRANCH  28  29
ENDBRANCH   2  23
TORSDOF 13
ENDMDL
