MODEL 1
REMARK VINA RESULT:     -11.8      0.000      0.000
REMARK SMILES C#Cc1cc(Cl)cc2c1O[C@H](C(F)(F)F)C(C(=O)NCCCNC(=O)c1ccc(-c3c4nc(c(-c5c(F)cc(S(=O)(=O)[O-])cc5F)c5ccc([nH]5)c(-c5c(F)cc(S(=O)(=O)[O-])cc5F)c5nc(c(-c6c(F)cc(S(=O)(=O)[O-])cc6F)c6ccc3[nH]6)C=C5)C=C4)cc1)=C2
REMARK SMILES IDX 22 1 21 2 20 3 19 4 17 5 18 6 16 8 3 9 4 10 9 11 5 12 8 13
REMARK SMILES IDX 10 14 6 15 7 16 92 17 11 18 2 19 1 20 12 21 13 22 14 23
REMARK SMILES IDX 15 24 23 25 24 26 25 28 26 29 27 30 91 31 28 32 90 33 29 34
REMARK SMILES IDX 30 35 31 36 84 37 32 38 89 39 83 40 85 41 33 42 88 43 82 44
REMARK SMILES IDX 81 45 34 47 68 48 47 49 67 50 48 51 51 52 66 53 86 54 49 55
REMARK SMILES IDX 50 56 65 58 87 59 52 60 35 61 36 62 45 63 37 64 38 65 44 66
REMARK SMILES IDX 46 67 39 68 40 69 41 70 42 71 43 72 69 73 70 74 79 75 71 76
REMARK SMILES IDX 72 77 78 78 80 79 73 80 74 81 75 82 76 83 77 84 53 85 54 86
REMARK SMILES IDX 63 87 55 88 56 89 62 90 64 91 57 92 58 93 59 94 60 95 61 96
REMARK H PARENT 19 7 23 27 85 46 51 57
REMARK Flexibility Score: inf
ROOT
ATOM      1  C   UNL A   1      33.887  28.538  26.842  1.00  0.00     0.118 C 
ENDROOT
BRANCH   1   2
ATOM      2  C   UNL A   1      33.710  28.609  25.334  1.00  0.00     0.042 C 
BRANCH   2   3
ATOM      3  C   UNL A   1      33.201  27.295  24.774  1.00  0.00     0.118 C 
BRANCH   3   4
ATOM      4  N   UNL A   1      32.216  26.672  25.650  1.00  0.00    -0.352 N 
ATOM      5  C   UNL A   1      31.960  25.434  26.131  1.00  0.00     0.251 C 
ATOM      6  O   UNL A   1      31.001  25.348  26.904  1.00  0.00    -0.270 OA
ATOM      7  H   UNL A   1      31.562  27.330  25.981  1.00  0.00     0.163 HD
BRANCH   5   8
ATOM      8  C   UNL A   1      32.748  24.214  25.792  1.00  0.00     0.067 C 
ATOM      9  C   UNL A   1      34.994  20.734  25.099  1.00  0.00     0.068 A 
ATOM     10  C   UNL A   1      36.383  20.769  25.213  1.00  0.00     0.041 A 
ATOM     11  C   UNL A   1      34.249  21.886  25.375  1.00  0.00     0.143 A 
ATOM     12  C   UNL A   1      37.009  21.951  25.608  1.00  0.00     0.043 A 
ATOM     13  C   UNL A   1      34.874  23.072  25.773  1.00  0.00     0.020 A 
ATOM     14  O   UNL A   1      32.889  21.784  25.289  1.00  0.00    -0.474 OA
ATOM     15  Cl  UNL A   1      38.724  21.992  25.756  1.00  0.00    -0.084 Cl
ATOM     16  C   UNL A   1      36.266  23.100  25.891  1.00  0.00     0.032 A 
ATOM     17  C   UNL A   1      34.059  24.239  26.095  1.00  0.00     0.025 C 
ATOM     18  C   UNL A   1      32.150  23.013  25.123  1.00  0.00     0.314 C 
BRANCH   9  19
ATOM     19  C   UNL A   1      34.335  19.528  24.691  1.00  0.00    -0.067 C 
ATOM     20  C   UNL A   1      33.727  18.557  24.324  1.00  0.00     0.010 C 
ENDBRANCH   9  19
BRANCH  18  21
ATOM     21  C   UNL A   1      31.879  23.249  23.624  1.00  0.00     0.429 C 
ATOM     22  F   UNL A   1      32.693  24.219  23.139  1.00  0.00    -0.167 F 
ATOM     23  F   UNL A   1      32.106  22.147  22.869  1.00  0.00    -0.167 F 
ATOM     24  F   UNL A   1      30.604  23.627  23.379  1.00  0.00    -0.167 F 
ENDBRANCH  18  21
ENDBRANCH   5   8
ENDBRANCH   3   4
ENDBRANCH   2   3
ENDBRANCH   1   2
BRANCH   1  25
ATOM     25  N   UNL A   1      33.824  29.863  27.459  1.00  0.00    -0.352 N 
ATOM     26  C   UNL A   1      34.729  30.502  28.270  1.00  0.00     0.251 C 
ATOM     27  H   UNL A   1      33.007  30.376  27.262  1.00  0.00     0.163 HD
ATOM     28  O   UNL A   1      34.392  31.492  28.910  1.00  0.00    -0.269 OA
BRANCH  26  29
ATOM     29  C   UNL A   1      36.099  29.970  28.369  1.00  0.00     0.039 A 
ATOM     30  C   UNL A   1      36.974  30.111  27.293  1.00  0.00     0.014 A 
ATOM     31  C   UNL A   1      36.522  29.367  29.555  1.00  0.00     0.014 A 
ATOM     32  C   UNL A   1      38.303  29.716  27.443  1.00  0.00     0.010 A 
ATOM     33  C   UNL A   1      37.867  29.098  29.745  1.00  0.00     0.010 A 
ATOM     34  C   UNL A   1      38.769  29.251  28.686  1.00  0.00    -0.014 A 
BRANCH  34  35
ATOM     35  C   UNL A   1      40.193  28.898  28.886  1.00  0.00     0.031 A 
ATOM     36  C   UNL A   1      41.135  29.908  29.482  1.00  0.00     0.074 A 
ATOM     37  C   UNL A   1      40.637  27.684  28.505  1.00  0.00     0.049 A 
ATOM     38  N   UNL A   1      42.410  29.787  29.741  1.00  0.00    -0.248 NA
ATOM     39  C   UNL A   1      40.583  31.235  29.807  1.00  0.00     0.031 C 
ATOM     40  C   UNL A   1      39.820  26.648  27.867  1.00  0.00     0.029 A 
ATOM     41  N   UNL A   1      41.877  27.108  28.607  1.00  0.00    -0.354 N 
ATOM     42  C   UNL A   1      42.805  31.012  30.261  1.00  0.00     0.074 A 
ATOM     43  C   UNL A   1      41.663  31.892  30.201  1.00  0.00     0.031 C 
ATOM     44  C   UNL A   1      40.566  25.546  27.687  1.00  0.00     0.029 A 
ATOM     45  C   UNL A   1      41.924  25.810  28.154  1.00  0.00     0.049 A 
ATOM     46  H   UNL A   1      42.661  27.579  28.971  1.00  0.00     0.167 HD
ATOM     47  C   UNL A   1      44.002  31.358  30.787  1.00  0.00     0.037 A 
ATOM     48  C   UNL A   1      42.945  24.931  28.124  1.00  0.00     0.037 A 
ATOM     49  C   UNL A   1      45.127  30.466  30.861  1.00  0.00     0.049 A 
ATOM     50  C   UNL A   1      44.280  25.354  28.677  1.00  0.00     0.074 A 
ATOM     51  C   UNL A   1      46.374  30.704  31.407  1.00  0.00     0.029 A 
ATOM     52  N   UNL A   1      45.140  29.168  30.371  1.00  0.00    -0.354 N 
ATOM     53  N   UNL A   1      44.617  26.495  29.231  1.00  0.00    -0.248 NA
ATOM     54  C   UNL A   1      45.374  24.376  28.602  1.00  0.00     0.031 C 
ATOM     55  C   UNL A   1      47.162  29.572  31.193  1.00  0.00     0.029 A 
ATOM     56  C   UNL A   1      46.387  28.603  30.574  1.00  0.00     0.049 A 
ATOM     57  H   UNL A   1      44.378  28.716  29.943  1.00  0.00     0.167 HD
ATOM     58  C   UNL A   1      45.953  26.362  29.595  1.00  0.00     0.074 A 
ATOM     59  C   UNL A   1      46.359  25.026  29.209  1.00  0.00     0.031 C 
ATOM     60  C   UNL A   1      46.769  27.265  30.192  1.00  0.00     0.037 A 
BRANCH  47  61
ATOM     61  C   UNL A   1      44.151  32.747  31.343  1.00  0.00     0.058 A 
ATOM     62  C   UNL A   1      44.576  33.817  30.538  1.00  0.00     0.135 A 
ATOM     63  C   UNL A   1      43.812  33.026  32.677  1.00  0.00     0.135 A 
ATOM     64  F   UNL A   1      44.932  33.604  29.261  1.00  0.00    -0.206 F 
ATOM     65  C   UNL A   1      44.677  35.109  31.040  1.00  0.00     0.059 A 
ATOM     66  C   UNL A   1      43.874  34.318  33.191  1.00  0.00     0.059 A 
ATOM     67  F   UNL A   1      43.406  32.040  33.492  1.00  0.00    -0.206 F 
ATOM     68  C   UNL A   1      44.317  35.351  32.366  1.00  0.00     0.060 A 
BRANCH  68  69
ATOM     69  S   UNL A   1      44.434  37.040  32.990  1.00  0.00     0.124 S 
ATOM     70  O   UNL A   1      45.638  36.965  33.812  1.00  0.00    -0.237 OA
ATOM     71  O   UNL A   1      44.556  37.814  31.759  1.00  0.00    -0.237 OA
ATOM     72  O   UNL A   1      43.186  37.221  33.723  1.00  0.00    -0.744 OA
ENDBRANCH  68  69
ENDBRANCH  47  61
BRANCH  48  73
ATOM     73  C   UNL A   1      42.729  23.559  27.590  1.00  0.00     0.058 A 
ATOM     74  C   UNL A   1      42.866  23.288  26.220  1.00  0.00     0.135 A 
ATOM     75  C   UNL A   1      42.410  22.485  28.436  1.00  0.00     0.135 A 
ATOM     76  F   UNL A   1      43.166  24.279  25.367  1.00  0.00    -0.206 F 
ATOM     77  C   UNL A   1      42.686  22.007  25.708  1.00  0.00     0.059 A 
ATOM     78  C   UNL A   1      42.253  21.190  27.953  1.00  0.00     0.059 A 
ATOM     79  F   UNL A   1      42.281  22.685  29.758  1.00  0.00    -0.206 F 
ATOM     80  C   UNL A   1      42.386  20.962  26.583  1.00  0.00     0.060 A 
BRANCH  80  81
ATOM     81  S   UNL A   1      42.205  19.297  25.910  1.00  0.00     0.124 S 
ATOM     82  O   UNL A   1      42.712  18.478  27.006  1.00  0.00    -0.237 OA
ATOM     83  O   UNL A   1      40.766  19.224  25.670  1.00  0.00    -0.237 OA
ATOM     84  O   UNL A   1      43.033  19.326  24.709  1.00  0.00    -0.744 OA
ENDBRANCH  80  81
ENDBRANCH  48  73
BRANCH  60  85
ATOM     85  C   UNL A   1      48.183  26.852  30.492  1.00  0.00     0.058 A 
ATOM     86  C   UNL A   1      49.241  27.190  29.635  1.00  0.00     0.135 A 
ATOM     87  C   UNL A   1      48.497  26.227  31.710  1.00  0.00     0.135 A 
ATOM     88  F   UNL A   1      48.994  27.783  28.456  1.00  0.00    -0.206 F 
ATOM     89  C   UNL A   1      50.562  26.922  29.975  1.00  0.00     0.059 A 
ATOM     90  C   UNL A   1      49.813  25.980  32.085  1.00  0.00     0.059 A 
ATOM     91  F   UNL A   1      47.521  25.894  32.570  1.00  0.00    -0.206 F 
ATOM     92  C   UNL A   1      50.838  26.331  31.210  1.00  0.00     0.060 A 
BRANCH  92  93
ATOM     93  S   UNL A   1      52.564  26.066  31.667  1.00  0.00     0.124 S 
ATOM     94  O   UNL A   1      52.782  27.141  32.631  1.00  0.00    -0.237 OA
ATOM     95  O   UNL A   1      52.534  24.716  32.219  1.00  0.00    -0.237 OA
ATOM     96  O   UNL A   1      53.279  26.205  30.402  1.00  0.00    -0.744 OA
ENDBRANCH  92  93
ENDBRANCH  60  85
ENDBRANCH  34  35
ENDBRANCH  26  29
ENDBRANCH   1  25
TORSDOF 15
ENDMDL
MODEL 2
REMARK VINA RESULT:     -11.8      4.942     10.449
REMARK SMILES C#Cc1cc(Cl)cc2c1O[C@H](C(F)(F)F)C(C(=O)NCCCNC(=O)c1ccc(-c3c4nc(c(-c5c(F)cc(S(=O)(=O)[O-])cc5F)c5ccc([nH]5)c(-c5c(F)cc(S(=O)(=O)[O-])cc5F)c5nc(c(-c6c(F)cc(S(=O)(=O)[O-])cc6F)c6ccc3[nH]6)C=C5)C=C4)cc1)=C2
REMARK SMILES IDX 22 1 21 2 20 3 19 4 17 5 18 6 16 8 3 9 4 10 9 11 5 12 8 13
REMARK SMILES IDX 10 14 6 15 7 16 92 17 11 18 2 19 1 20 12 21 13 22 14 23
REMARK SMILES IDX 15 24 23 25 24 26 25 28 26 29 27 30 91 31 28 32 90 33 29 34
REMARK SMILES IDX 30 35 31 36 84 37 32 38 89 39 83 40 85 41 33 42 88 43 82 44
REMARK SMILES IDX 81 45 34 47 68 48 47 49 67 50 48 51 51 52 66 53 86 54 49 55
REMARK SMILES IDX 50 56 65 58 87 59 52 60 35 61 36 62 45 63 37 64 38 65 44 66
REMARK SMILES IDX 46 67 39 68 40 69 41 70 42 71 43 72 69 73 70 74 79 75 71 76
REMARK SMILES IDX 72 77 78 78 80 79 73 80 74 81 75 82 76 83 77 84 53 85 54 86
REMARK SMILES IDX 63 87 55 88 56 89 62 90 64 91 57 92 58 93 59 94 60 95 61 96
REMARK H PARENT 19 7 23 27 85 46 51 57
REMARK Flexibility Score: inf
ROOT
ATOM      1  C   UNL A   1      40.280  23.309  27.135  1.00  0.00     0.118 C 
ENDROOT
BRANCH   1   2
ATOM      2  C   UNL A   1      39.109  22.646  26.431  1.00  0.00     0.042 C 
BRANCH   2   3
ATOM      3  C   UNL A   1      38.098  23.672  25.951  1.00  0.00     0.118 C 
BRANCH   3   4
ATOM      4  N   UNL A   1      37.575  23.347  24.630  1.00  0.00    -0.352 N 
ATOM      5  C   UNL A   1      36.368  23.323  24.021  1.00  0.00     0.251 C 
ATOM      6  O   UNL A   1      36.376  23.002  22.829  1.00  0.00    -0.270 OA
ATOM      7  H   UNL A   1      38.294  23.071  24.017  1.00  0.00     0.163 HD
BRANCH   5   8
ATOM      8  C   UNL A   1      35.076  23.656  24.688  1.00  0.00     0.067 C 
ATOM      9  C   UNL A   1      31.347  24.674  26.329  1.00  0.00     0.068 A 
ATOM     10  C   UNL A   1      31.055  26.006  26.616  1.00  0.00     0.041 A 
ATOM     11  C   UNL A   1      32.575  24.348  25.740  1.00  0.00     0.143 A 
ATOM     12  C   UNL A   1      31.987  26.996  26.306  1.00  0.00     0.043 A 
ATOM     13  C   UNL A   1      33.510  25.338  25.427  1.00  0.00     0.020 A 
ATOM     14  O   UNL A   1      32.791  23.032  25.442  1.00  0.00    -0.474 OA
ATOM     15  Cl  UNL A   1      31.622  28.642  26.654  1.00  0.00    -0.084 Cl
ATOM     16  C   UNL A   1      33.210  26.672  25.711  1.00  0.00     0.032 A 
ATOM     17  C   UNL A   1      34.760  24.962  24.773  1.00  0.00     0.025 C 
ATOM     18  C   UNL A   1      34.164  22.618  25.269  1.00  0.00     0.314 C 
BRANCH   9  19
ATOM     19  C   UNL A   1      30.401  23.645  26.645  1.00  0.00    -0.067 C 
ATOM     20  C   UNL A   1      29.659  22.732  26.898  1.00  0.00     0.010 C 
ENDBRANCH   9  19
BRANCH  18  21
ATOM     21  C   UNL A   1      34.697  22.045  26.597  1.00  0.00     0.429 C 
ATOM     22  F   UNL A   1      33.739  21.318  27.222  1.00  0.00    -0.167 F 
ATOM     23  F   UNL A   1      35.754  21.215  26.424  1.00  0.00    -0.167 F 
ATOM     24  F   UNL A   1      35.102  23.009  27.454  1.00  0.00    -0.167 F 
ENDBRANCH  18  21
ENDBRANCH   5   8
ENDBRANCH   3   4
ENDBRANCH   2   3
ENDBRANCH   1   2
BRANCH   1  25
ATOM     25  N   UNL A   1      41.191  23.952  26.187  1.00  0.00    -0.352 N 
ATOM     26  C   UNL A   1      41.518  25.277  26.039  1.00  0.00     0.251 C 
ATOM     27  H   UNL A   1      41.636  23.340  25.558  1.00  0.00     0.163 HD
ATOM     28  O   UNL A   1      42.087  25.662  25.023  1.00  0.00    -0.269 OA
BRANCH  26  29
ATOM     29  C   UNL A   1      41.164  26.224  27.110  1.00  0.00     0.039 A 
ATOM     30  C   UNL A   1      40.203  25.869  28.056  1.00  0.00     0.014 A 
ATOM     31  C   UNL A   1      41.823  27.452  27.192  1.00  0.00     0.014 A 
ATOM     32  C   UNL A   1      39.967  26.721  29.135  1.00  0.00     0.010 A 
ATOM     33  C   UNL A   1      41.682  28.231  28.328  1.00  0.00     0.010 A 
ATOM     34  C   UNL A   1      40.739  27.884  29.303  1.00  0.00    -0.014 A 
BRANCH  34  35
ATOM     35  C   UNL A   1      40.554  28.763  30.480  1.00  0.00     0.031 A 
ATOM     36  C   UNL A   1      41.442  28.594  31.683  1.00  0.00     0.074 A 
ATOM     37  C   UNL A   1      39.572  29.685  30.474  1.00  0.00     0.049 A 
ATOM     38  N   UNL A   1      41.441  29.265  32.804  1.00  0.00    -0.248 NA
ATOM     39  C   UNL A   1      42.445  27.516  31.634  1.00  0.00     0.031 C 
ATOM     40  C   UNL A   1      38.617  29.897  29.382  1.00  0.00     0.029 A 
ATOM     41  N   UNL A   1      39.216  30.625  31.408  1.00  0.00    -0.354 N 
ATOM     42  C   UNL A   1      42.441  28.698  33.582  1.00  0.00     0.074 A 
ATOM     43  C   UNL A   1      42.968  27.573  32.848  1.00  0.00     0.031 C 
ATOM     44  C   UNL A   1      37.825  30.938  29.684  1.00  0.00     0.029 A 
ATOM     45  C   UNL A   1      38.181  31.439  31.007  1.00  0.00     0.049 A 
ATOM     46  H   UNL A   1      39.661  30.710  32.282  1.00  0.00     0.167 HD
ATOM     47  C   UNL A   1      42.909  29.108  34.782  1.00  0.00     0.037 A 
ATOM     48  C   UNL A   1      37.592  32.476  31.635  1.00  0.00     0.037 A 
ATOM     49  C   UNL A   1      42.389  30.243  35.494  1.00  0.00     0.049 A 
ATOM     50  C   UNL A   1      38.104  32.887  32.990  1.00  0.00     0.074 A 
ATOM     51  C   UNL A   1      42.815  30.766  36.700  1.00  0.00     0.029 A 
ATOM     52  N   UNL A   1      41.327  31.027  35.066  1.00  0.00    -0.354 N 
ATOM     53  N   UNL A   1      39.099  32.382  33.682  1.00  0.00    -0.248 NA
ATOM     54  C   UNL A   1      37.418  34.004  33.653  1.00  0.00     0.031 C 
ATOM     55  C   UNL A   1      41.973  31.828  37.033  1.00  0.00     0.029 A 
ATOM     56  C   UNL A   1      41.063  32.011  36.002  1.00  0.00     0.049 A 
ATOM     57  H   UNL A   1      40.835  30.902  34.223  1.00  0.00     0.167 HD
ATOM     58  C   UNL A   1      39.175  33.137  34.847  1.00  0.00     0.074 A 
ATOM     59  C   UNL A   1      38.133  34.140  34.762  1.00  0.00     0.031 C 
ATOM     60  C   UNL A   1      40.028  33.010  35.893  1.00  0.00     0.037 A 
BRANCH  47  61
ATOM     61  C   UNL A   1      44.051  28.343  35.390  1.00  0.00     0.058 A 
ATOM     62  C   UNL A   1      43.830  27.266  36.265  1.00  0.00     0.135 A 
ATOM     63  C   UNL A   1      45.380  28.648  35.053  1.00  0.00     0.135 A 
ATOM     64  F   UNL A   1      42.581  26.942  36.638  1.00  0.00    -0.206 F 
ATOM     65  C   UNL A   1      44.883  26.533  36.797  1.00  0.00     0.059 A 
ATOM     66  C   UNL A   1      46.448  27.906  35.548  1.00  0.00     0.059 A 
ATOM     67  F   UNL A   1      45.650  29.671  34.226  1.00  0.00    -0.206 F 
ATOM     68  C   UNL A   1      46.189  26.856  36.427  1.00  0.00     0.060 A 
BRANCH  68  69
ATOM     69  S   UNL A   1      47.540  25.875  37.112  1.00  0.00     0.124 S 
ATOM     70  O   UNL A   1      46.938  25.370  38.343  1.00  0.00    -0.237 OA
ATOM     71  O   UNL A   1      47.763  24.884  36.064  1.00  0.00    -0.237 OA
ATOM     72  O   UNL A   1      48.612  26.848  37.293  1.00  0.00    -0.744 OA
ENDBRANCH  68  69
ENDBRANCH  47  61
BRANCH  48  73
ATOM     73  C   UNL A   1      36.486  33.215  30.970  1.00  0.00     0.058 A 
ATOM     74  C   UNL A   1      35.173  33.145  31.461  1.00  0.00     0.135 A 
ATOM     75  C   UNL A   1      36.718  34.029  29.849  1.00  0.00     0.135 A 
ATOM     76  F   UNL A   1      34.895  32.379  32.526  1.00  0.00    -0.206 F 
ATOM     77  C   UNL A   1      34.131  33.846  30.861  1.00  0.00     0.059 A 
ATOM     78  C   UNL A   1      35.699  34.762  29.250  1.00  0.00     0.059 A 
ATOM     79  F   UNL A   1      37.958  34.144  29.348  1.00  0.00    -0.206 F 
ATOM     80  C   UNL A   1      34.405  34.658  29.759  1.00  0.00     0.060 A 
BRANCH  80  81
ATOM     81  S   UNL A   1      33.052  35.599  29.023  1.00  0.00     0.124 S 
ATOM     82  O   UNL A   1      32.319  36.037  30.205  1.00  0.00    -0.237 OA
ATOM     83  O   UNL A   1      33.771  36.641  28.294  1.00  0.00    -0.237 OA
ATOM     84  O   UNL A   1      32.372  34.615  28.187  1.00  0.00    -0.744 OA
ENDBRANCH  80  81
ENDBRANCH  48  73
BRANCH  60  85
ATOM     85  C   UNL A   1      39.900  33.981  37.033  1.00  0.00     0.058 A 
ATOM     86  C   UNL A   1      40.426  35.280  36.951  1.00  0.00     0.135 A 
ATOM     87  C   UNL A   1      39.134  33.652  38.163  1.00  0.00     0.135 A 
ATOM     88  F   UNL A   1      41.171  35.643  35.895  1.00  0.00    -0.206 F 
ATOM     89  C   UNL A   1      40.196  36.218  37.951  1.00  0.00     0.059 A 
ATOM     90  C   UNL A   1      38.863  34.585  39.159  1.00  0.00     0.059 A 
ATOM     91  F   UNL A   1      38.599  32.427  38.284  1.00  0.00    -0.206 F 
ATOM     92  C   UNL A   1      39.400  35.866  39.043  1.00  0.00     0.060 A 
BRANCH  92  93
ATOM     93  S   UNL A   1      39.047  37.123  40.288  1.00  0.00     0.124 S 
ATOM     94  O   UNL A   1      38.462  38.187  39.476  1.00  0.00    -0.237 OA
ATOM     95  O   UNL A   1      38.125  36.426  41.178  1.00  0.00    -0.237 OA
ATOM     96  O   UNL A   1      40.357  37.420  40.857  1.00  0.00    -0.744 OA
ENDBRANCH  92  93
ENDBRANCH  60  85
ENDBRANCH  34  35
ENDBRANCH  26  29
ENDBRANCH   1  25
TORSDOF 15
ENDMDL
MODEL 3
REMARK VINA RESULT:     -11.6      4.933     10.343
REMARK SMILES C#Cc1cc(Cl)cc2c1O[C@H](C(F)(F)F)C(C(=O)NCCCNC(=O)c1ccc(-c3c4nc(c(-c5c(F)cc(S(=O)(=O)[O-])cc5F)c5ccc([nH]5)c(-c5c(F)cc(S(=O)(=O)[O-])cc5F)c5nc(c(-c6c(F)cc(S(=O)(=O)[O-])cc6F)c6ccc3[nH]6)C=C5)C=C4)cc1)=C2
REMARK SMILES IDX 22 1 21 2 20 3 19 4 17 5 18 6 16 8 3 9 4 10 9 11 5 12 8 13
REMARK SMILES IDX 10 14 6 15 7 16 92 17 11 18 2 19 1 20 12 21 13 22 14 23
REMARK SMILES IDX 15 24 23 25 24 26 25 28 26 29 27 30 91 31 28 32 90 33 29 34
REMARK SMILES IDX 30 35 31 36 84 37 32 38 89 39 83 40 85 41 33 42 88 43 82 44
REMARK SMILES IDX 81 45 34 47 68 48 47 49 67 50 48 51 51 52 66 53 86 54 49 55
REMARK SMILES IDX 50 56 65 58 87 59 52 60 35 61 36 62 45 63 37 64 38 65 44 66
REMARK SMILES IDX 46 67 39 68 40 69 41 70 42 71 43 72 69 73 70 74 79 75 71 76
REMARK SMILES IDX 72 77 78 78 80 79 73 80 74 81 75 82 76 83 77 84 53 85 54 86
REMARK SMILES IDX 63 87 55 88 56 89 62 90 64 91 57 92 58 93 59 94 60 95 61 96
REMARK H PARENT 19 7 23 27 85 46 51 57
REMARK Flexibility Score: inf
ROOT
ATOM      1  C   UNL A   1      39.445  23.561  26.892  1.00  0.00     0.118 C 
ENDROOT
BRANCH   1   2
ATOM      2  C   UNL A   1      38.141  23.700  26.123  1.00  0.00     0.042 C 
BRANCH   2   3
ATOM      3  C   UNL A   1      37.693  22.370  25.547  1.00  0.00     0.118 C 
BRANCH   3   4
ATOM      4  N   UNL A   1      36.455  21.900  26.156  1.00  0.00    -0.352 N 
ATOM      5  C   UNL A   1      35.131  22.143  26.022  1.00  0.00     0.251 C 
ATOM      6  O   UNL A   1      34.389  21.473  26.747  1.00  0.00    -0.270 OA
ATOM      7  H   UNL A   1      36.630  21.225  26.851  1.00  0.00     0.163 HD
BRANCH   5   8
ATOM      8  C   UNL A   1      34.542  23.135  25.077  1.00  0.00     0.067 C 
ATOM      9  C   UNL A   1      33.128  26.029  22.383  1.00  0.00     0.068 A 
ATOM     10  C   UNL A   1      32.914  27.336  22.817  1.00  0.00     0.041 A 
ATOM     11  C   UNL A   1      33.643  25.080  23.275  1.00  0.00     0.143 A 
ATOM     12  C   UNL A   1      33.222  27.682  24.133  1.00  0.00     0.043 A 
ATOM     13  C   UNL A   1      33.954  25.425  24.594  1.00  0.00     0.020 A 
ATOM     14  O   UNL A   1      33.872  23.826  22.786  1.00  0.00    -0.474 OA
ATOM     15  Cl  UNL A   1      32.964  29.299  24.666  1.00  0.00    -0.084 Cl
ATOM     16  C   UNL A   1      33.742  26.737  25.023  1.00  0.00     0.032 A 
ATOM     17  C   UNL A   1      34.529  24.419  25.481  1.00  0.00     0.025 C 
ATOM     18  C   UNL A   1      33.961  22.754  23.749  1.00  0.00     0.314 C 
BRANCH   9  19
ATOM     19  C   UNL A   1      32.814  25.657  21.035  1.00  0.00    -0.067 C 
ATOM     20  C   UNL A   1      32.591  25.400  19.881  1.00  0.00     0.010 C 
ENDBRANCH   9  19
BRANCH  18  21
ATOM     21  C   UNL A   1      32.585  22.072  23.883  1.00  0.00     0.429 C 
ATOM     22  F   UNL A   1      31.921  22.544  24.967  1.00  0.00    -0.167 F 
ATOM     23  F   UNL A   1      31.781  22.296  22.815  1.00  0.00    -0.167 F 
ATOM     24  F   UNL A   1      32.681  20.729  24.017  1.00  0.00    -0.167 F 
ENDBRANCH  18  21
ENDBRANCH   5   8
ENDBRANCH   3   4
ENDBRANCH   2   3
ENDBRANCH   1   2
BRANCH   1  25
ATOM     25  N   UNL A   1      40.585  24.053  26.119  1.00  0.00    -0.352 N 
ATOM     26  C   UNL A   1      41.175  25.293  26.109  1.00  0.00     0.251 C 
ATOM     27  H   UNL A   1      40.992  23.393  25.511  1.00  0.00     0.163 HD
ATOM     28  O   UNL A   1      41.945  25.602  25.205  1.00  0.00    -0.269 OA
BRANCH  26  29
ATOM     29  C   UNL A   1      40.858  26.243  27.188  1.00  0.00     0.039 A 
ATOM     30  C   UNL A   1      39.993  25.861  28.212  1.00  0.00     0.014 A 
ATOM     31  C   UNL A   1      41.459  27.503  27.197  1.00  0.00     0.014 A 
ATOM     32  C   UNL A   1      39.798  26.722  29.292  1.00  0.00     0.010 A 
ATOM     33  C   UNL A   1      41.368  28.297  28.329  1.00  0.00     0.010 A 
ATOM     34  C   UNL A   1      40.522  27.925  29.380  1.00  0.00    -0.014 A 
BRANCH  34  35
ATOM     35  C   UNL A   1      40.385  28.817  30.554  1.00  0.00     0.031 A 
ATOM     36  C   UNL A   1      41.300  28.640  31.735  1.00  0.00     0.074 A 
ATOM     37  C   UNL A   1      39.423  29.760  30.564  1.00  0.00     0.049 A 
ATOM     38  N   UNL A   1      41.341  29.321  32.849  1.00  0.00    -0.248 NA
ATOM     39  C   UNL A   1      42.279  27.540  31.671  1.00  0.00     0.031 C 
ATOM     40  C   UNL A   1      38.446  29.982  29.493  1.00  0.00     0.029 A 
ATOM     41  N   UNL A   1      39.111  30.716  31.497  1.00  0.00    -0.354 N 
ATOM     42  C   UNL A   1      42.348  28.739  33.607  1.00  0.00     0.074 A 
ATOM     43  C   UNL A   1      42.833  27.596  32.871  1.00  0.00     0.031 C 
ATOM     44  C   UNL A   1      37.684  31.042  29.805  1.00  0.00     0.029 A 
ATOM     45  C   UNL A   1      38.084  31.547  31.115  1.00  0.00     0.049 A 
ATOM     46  H   UNL A   1      39.579  30.799  32.359  1.00  0.00     0.167 HD
ATOM     47  C   UNL A   1      42.855  29.150  34.792  1.00  0.00     0.037 A 
ATOM     48  C   UNL A   1      37.532  32.602  31.748  1.00  0.00     0.037 A 
ATOM     49  C   UNL A   1      42.377  30.301  35.506  1.00  0.00     0.049 A 
ATOM     50  C   UNL A   1      38.087  33.013  33.086  1.00  0.00     0.074 A 
ATOM     51  C   UNL A   1      42.844  30.826  36.697  1.00  0.00     0.029 A 
ATOM     52  N   UNL A   1      41.321  31.103  35.098  1.00  0.00    -0.354 N 
ATOM     53  N   UNL A   1      39.088  32.494  33.757  1.00  0.00    -0.248 NA
ATOM     54  C   UNL A   1      37.441  34.151  33.756  1.00  0.00     0.031 C 
ATOM     55  C   UNL A   1      42.033  31.908  37.040  1.00  0.00     0.029 A 
ATOM     56  C   UNL A   1      41.102  32.101  36.031  1.00  0.00     0.049 A 
ATOM     57  H   UNL A   1      40.806  30.982  34.269  1.00  0.00     0.167 HD
ATOM     58  C   UNL A   1      39.209  33.257  34.913  1.00  0.00     0.074 A 
ATOM     59  C   UNL A   1      38.186  34.281  34.845  1.00  0.00     0.031 C 
ATOM     60  C   UNL A   1      40.085  33.121  35.938  1.00  0.00     0.037 A 
BRANCH  47  61
ATOM     61  C   UNL A   1      43.996  28.365  35.378  1.00  0.00     0.058 A 
ATOM     62  C   UNL A   1      45.332  28.672  35.068  1.00  0.00     0.135 A 
ATOM     63  C   UNL A   1      43.759  27.335  36.301  1.00  0.00     0.135 A 
ATOM     64  F   UNL A   1      45.617  29.633  34.176  1.00  0.00    -0.206 F 
ATOM     65  C   UNL A   1      46.389  27.973  35.639  1.00  0.00     0.059 A 
ATOM     66  C   UNL A   1      44.803  26.644  36.910  1.00  0.00     0.059 A 
ATOM     67  F   UNL A   1      42.502  26.996  36.629  1.00  0.00    -0.206 F 
ATOM     68  C   UNL A   1      46.115  26.965  36.564  1.00  0.00     0.060 A 
BRANCH  68  69
ATOM     69  S   UNL A   1      47.504  26.087  37.310  1.00  0.00     0.124 S 
ATOM     70  O   UNL A   1      47.168  24.699  37.006  1.00  0.00    -0.237 OA
ATOM     71  O   UNL A   1      48.642  26.637  36.580  1.00  0.00    -0.237 OA
ATOM     72  O   UNL A   1      47.425  26.456  38.718  1.00  0.00    -0.744 OA
ENDBRANCH  68  69
ENDBRANCH  47  61
BRANCH  48  73
ATOM     73  C   UNL A   1      36.425  33.359  31.104  1.00  0.00     0.058 A 
ATOM     74  C   UNL A   1      36.664  34.180  29.991  1.00  0.00     0.135 A 
ATOM     75  C   UNL A   1      35.102  33.256  31.564  1.00  0.00     0.135 A 
ATOM     76  F   UNL A   1      37.910  34.318  29.514  1.00  0.00    -0.206 F 
ATOM     77  C   UNL A   1      35.636  34.879  29.366  1.00  0.00     0.059 A 
ATOM     78  C   UNL A   1      34.053  33.921  30.938  1.00  0.00     0.059 A 
ATOM     79  F   UNL A   1      34.815  32.471  32.615  1.00  0.00    -0.206 F 
ATOM     80  C   UNL A   1      34.332  34.737  29.842  1.00  0.00     0.060 A 
BRANCH  80  81
ATOM     81  S   UNL A   1      33.002  35.611  28.989  1.00  0.00     0.124 S 
ATOM     82  O   UNL A   1      33.738  36.651  28.280  1.00  0.00    -0.237 OA
ATOM     83  O   UNL A   1      32.430  34.554  28.159  1.00  0.00    -0.237 OA
ATOM     84  O   UNL A   1      32.148  36.073  30.079  1.00  0.00    -0.744 OA
ENDBRANCH  80  81
ENDBRANCH  48  73
BRANCH  60  85
ATOM     85  C   UNL A   1      40.007  34.105  37.073  1.00  0.00     0.058 A 
ATOM     86  C   UNL A   1      40.656  35.347  37.011  1.00  0.00     0.135 A 
ATOM     87  C   UNL A   1      39.169  33.854  38.172  1.00  0.00     0.135 A 
ATOM     88  F   UNL A   1      41.473  35.633  35.984  1.00  0.00    -0.206 F 
ATOM     89  C   UNL A   1      40.478  36.307  38.000  1.00  0.00     0.059 A 
ATOM     90  C   UNL A   1      38.950  34.813  39.156  1.00  0.00     0.059 A 
ATOM     91  F   UNL A   1      38.516  32.686  38.272  1.00  0.00    -0.206 F 
ATOM     92  C   UNL A   1      39.611  36.036  39.061  1.00  0.00     0.060 A 
BRANCH  92  93
ATOM     93  S   UNL A   1      39.331  37.326  40.291  1.00  0.00     0.124 S 
ATOM     94  O   UNL A   1      38.502  38.270  39.546  1.00  0.00    -0.237 OA
ATOM     95  O   UNL A   1      38.656  36.595  41.358  1.00  0.00    -0.237 OA
ATOM     96  O   UNL A   1      40.676  37.792  40.611  1.00  0.00    -0.744 OA
ENDBRANCH  92  93
ENDBRANCH  60  85
ENDBRANCH  34  35
ENDBRANCH  26  29
ENDBRANCH   1  25
TORSDOF 15
ENDMDL
