MODEL 1
REMARK VINA RESULT:     -12.2      0.000      0.000
REMARK SMILES O=C(NCCCNC(=O)c1cccc2c(=O)oc(=O)[nH]c12)c1ccc(-c2c3nc(c(-c4c(F)cc(S(=O)(=O)[O-])cc4F)c4ccc([nH]4)c(-c4c(F)cc(S(=O)(=O)[O-])cc4F)c4nc(c(-c5c(F)cc(S(=O)(=O)[O-])cc5F)c5ccc2[nH]5)C=C4)C=C3)cc1
REMARK SMILES IDX 1 1 2 2 3 3 22 5 23 6 87 7 24 8 86 9 25 10 26 11 27 12 80 13
REMARK SMILES IDX 28 14 85 15 79 16 81 17 29 18 84 19 78 20 77 21 30 23 64 24
REMARK SMILES IDX 43 25 63 26 44 27 47 28 62 29 82 30 45 31 46 32 61 34 83 35
REMARK SMILES IDX 48 36 31 37 32 38 41 39 33 40 34 41 40 42 42 43 35 44 36 45
REMARK SMILES IDX 37 46 38 47 39 48 65 49 66 50 75 51 67 52 68 53 74 54 76 55
REMARK SMILES IDX 69 56 70 57 71 58 72 59 73 60 49 61 50 62 59 63 51 64 52 65
REMARK SMILES IDX 58 66 60 67 53 68 54 69 55 70 56 71 57 72 4 73 5 74 6 75
REMARK SMILES IDX 7 76 8 77 9 79 10 80 11 81 21 82 12 83 14 84 20 85 13 86
REMARK SMILES IDX 15 87 18 88 16 90 17 91 19 92
REMARK H PARENT 3 4 81 22 47 33 7 78 20 89
REMARK Flexibility Score: inf
ROOT
ATOM      1  O   UNL A   1      36.082  29.550  31.361  1.00  0.00    -0.269 OA
ATOM      2  C   UNL A   1      37.099  30.042  31.844  1.00  0.00     0.251 C 
ATOM      3  N   UNL A   1      36.995  30.808  32.977  1.00  0.00    -0.352 N 
ATOM      4  H   UNL A   1      36.129  30.747  33.443  1.00  0.00     0.163 HD
ENDROOT
BRANCH   2   5
ATOM      5  C   UNL A   1      38.413  29.808  31.207  1.00  0.00     0.039 A 
ATOM      6  C   UNL A   1      38.597  30.187  29.874  1.00  0.00     0.014 A 
ATOM      7  C   UNL A   1      39.443  29.157  31.893  1.00  0.00     0.014 A 
ATOM      8  C   UNL A   1      39.820  29.943  29.243  1.00  0.00     0.010 A 
ATOM      9  C   UNL A   1      40.687  28.990  31.291  1.00  0.00     0.010 A 
ATOM     10  C   UNL A   1      40.881  29.357  29.952  1.00  0.00    -0.014 A 
BRANCH  10  11
ATOM     11  C   UNL A   1      42.179  29.049  29.299  1.00  0.00     0.031 A 
ATOM     12  C   UNL A   1      42.427  27.661  28.764  1.00  0.00     0.074 A 
ATOM     13  C   UNL A   1      43.138  29.993  29.215  1.00  0.00     0.049 A 
ATOM     14  N   UNL A   1      43.525  27.150  28.272  1.00  0.00    -0.248 NA
ATOM     15  C   UNL A   1      41.295  26.718  28.806  1.00  0.00     0.031 C 
ATOM     16  C   UNL A   1      43.015  31.373  29.689  1.00  0.00     0.029 A 
ATOM     17  N   UNL A   1      44.410  29.933  28.702  1.00  0.00    -0.354 N 
ATOM     18  C   UNL A   1      43.218  25.833  27.947  1.00  0.00     0.074 A 
ATOM     19  C   UNL A   1      41.850  25.603  28.353  1.00  0.00     0.031 C 
ATOM     20  C   UNL A   1      44.153  32.033  29.421  1.00  0.00     0.029 A 
ATOM     21  C   UNL A   1      45.105  31.115  28.805  1.00  0.00     0.049 A 
ATOM     22  H   UNL A   1      44.789  29.119  28.297  1.00  0.00     0.167 HD
ATOM     23  C   UNL A   1      43.995  24.910  27.337  1.00  0.00     0.037 A 
ATOM     24  C   UNL A   1      46.371  31.417  28.455  1.00  0.00     0.037 A 
ATOM     25  C   UNL A   1      45.348  25.152  26.910  1.00  0.00     0.049 A 
ATOM     26  C   UNL A   1      47.235  30.346  27.837  1.00  0.00     0.074 A 
ATOM     27  C   UNL A   1      46.221  24.278  26.282  1.00  0.00     0.029 A 
ATOM     28  N   UNL A   1      46.021  26.357  27.047  1.00  0.00    -0.354 N 
ATOM     29  N   UNL A   1      46.929  29.104  27.545  1.00  0.00    -0.248 NA
ATOM     30  C   UNL A   1      48.616  30.719  27.499  1.00  0.00     0.031 C 
ATOM     31  C   UNL A   1      47.431  24.943  26.075  1.00  0.00     0.029 A 
ATOM     32  C   UNL A   1      47.295  26.248  26.519  1.00  0.00     0.049 A 
ATOM     33  H   UNL A   1      45.646  27.169  27.458  1.00  0.00     0.167 HD
ATOM     34  C   UNL A   1      48.062  28.566  26.944  1.00  0.00     0.074 A 
ATOM     35  C   UNL A   1      49.057  29.616  26.910  1.00  0.00     0.031 C 
ATOM     36  C   UNL A   1      48.261  27.314  26.462  1.00  0.00     0.037 A 
BRANCH  23  37
ATOM     37  C   UNL A   1      43.406  23.555  27.054  1.00  0.00     0.058 A 
ATOM     38  C   UNL A   1      43.017  23.189  25.757  1.00  0.00     0.135 A 
ATOM     39  C   UNL A   1      43.336  22.578  28.060  1.00  0.00     0.135 A 
ATOM     40  F   UNL A   1      43.041  24.091  24.763  1.00  0.00    -0.206 F 
ATOM     41  C   UNL A   1      42.590  21.900  25.463  1.00  0.00     0.059 A 
ATOM     42  C   UNL A   1      42.936  21.273  27.784  1.00  0.00     0.059 A 
ATOM     43  F   UNL A   1      43.688  22.879  29.320  1.00  0.00    -0.206 F 
ATOM     44  C   UNL A   1      42.569  20.944  26.480  1.00  0.00     0.060 A 
BRANCH  44  45
ATOM     45  S   UNL A   1      42.085  19.256  26.059  1.00  0.00     0.124 S 
ATOM     46  O   UNL A   1      42.867  19.021  24.849  1.00  0.00    -0.237 OA
ATOM     47  O   UNL A   1      42.505  18.512  27.241  1.00  0.00    -0.237 OA
ATOM     48  O   UNL A   1      40.641  19.354  25.860  1.00  0.00    -0.744 OA
ENDBRANCH  44  45
ENDBRANCH  23  37
BRANCH  24  49
ATOM     49  C   UNL A   1      46.909  32.791  28.660  1.00  0.00     0.058 A 
ATOM     50  C   UNL A   1      47.502  33.154  29.880  1.00  0.00     0.135 A 
ATOM     51  C   UNL A   1      46.809  33.776  27.666  1.00  0.00     0.135 A 
ATOM     52  F   UNL A   1      47.618  32.250  30.864  1.00  0.00    -0.206 F 
ATOM     53  C   UNL A   1      47.940  34.452  30.121  1.00  0.00     0.059 A 
ATOM     54  C   UNL A   1      47.270  35.072  27.872  1.00  0.00     0.059 A 
ATOM     55  F   UNL A   1      46.266  33.479  26.474  1.00  0.00    -0.206 F 
ATOM     56  C   UNL A   1      47.815  35.407  29.110  1.00  0.00     0.060 A 
BRANCH  56  57
ATOM     57  S   UNL A   1      48.386  37.088  29.437  1.00  0.00     0.124 S 
ATOM     58  O   UNL A   1      47.179  37.707  29.974  1.00  0.00    -0.237 OA
ATOM     59  O   UNL A   1      49.469  36.864  30.389  1.00  0.00    -0.237 OA
ATOM     60  O   UNL A   1      48.804  37.562  28.121  1.00  0.00    -0.744 OA
ENDBRANCH  56  57
ENDBRANCH  24  49
BRANCH  36  61
ATOM     61  C   UNL A   1      49.575  27.026  25.787  1.00  0.00     0.058 A 
ATOM     62  C   UNL A   1      49.761  27.218  24.410  1.00  0.00     0.135 A 
ATOM     63  C   UNL A   1      50.680  26.607  26.546  1.00  0.00     0.135 A 
ATOM     64  F   UNL A   1      48.738  27.616  23.637  1.00  0.00    -0.206 F 
ATOM     65  C   UNL A   1      50.990  26.974  23.803  1.00  0.00     0.059 A 
ATOM     66  C   UNL A   1      51.926  26.390  25.967  1.00  0.00     0.059 A 
ATOM     67  F   UNL A   1      50.561  26.422  27.870  1.00  0.00    -0.206 F 
ATOM     68  C   UNL A   1      52.066  26.563  24.592  1.00  0.00     0.060 A 
BRANCH  68  69
ATOM     69  S   UNL A   1      53.658  26.274  23.792  1.00  0.00     0.124 S 
ATOM     70  O   UNL A   1      54.381  27.498  24.125  1.00  0.00    -0.237 OA
ATOM     71  O   UNL A   1      54.125  25.062  24.460  1.00  0.00    -0.237 OA
ATOM     72  O   UNL A   1      53.311  26.115  22.384  1.00  0.00    -0.744 OA
ENDBRANCH  68  69
ENDBRANCH  36  61
ENDBRANCH  10  11
ENDBRANCH   2   5
BRANCH   3  73
ATOM     73  C   UNL A   1      37.964  31.698  33.598  1.00  0.00     0.118 C 
BRANCH  73  74
ATOM     74  C   UNL A   1      38.553  32.693  32.607  1.00  0.00     0.042 C 
BRANCH  74  75
ATOM     75  C   UNL A   1      38.010  34.109  32.749  1.00  0.00     0.118 C 
BRANCH  75  76
ATOM     76  N   UNL A   1      36.956  34.199  33.750  1.00  0.00    -0.352 N 
ATOM     77  C   UNL A   1      35.609  34.376  33.579  1.00  0.00     0.253 C 
ATOM     78  H   UNL A   1      37.256  34.119  34.685  1.00  0.00     0.163 HD
ATOM     79  O   UNL A   1      34.897  34.685  34.531  1.00  0.00    -0.269 OA
BRANCH  77  80
ATOM     80  C   UNL A   1      35.001  34.233  32.240  1.00  0.00     0.064 A 
ATOM     81  C   UNL A   1      35.111  33.015  31.552  1.00  0.00     0.016 A 
ATOM     82  C   UNL A   1      34.288  35.295  31.669  1.00  0.00     0.071 A 
ATOM     83  C   UNL A   1      34.593  32.889  30.265  1.00  0.00     0.002 A 
ATOM     84  C   UNL A   1      33.760  35.159  30.400  1.00  0.00     0.085 A 
ATOM     85  N   UNL A   1      34.080  36.501  32.329  1.00  0.00    -0.289 N 
ATOM     86  C   UNL A   1      33.924  33.965  29.683  1.00  0.00     0.018 A 
ATOM     87  C   UNL A   1      33.016  36.287  29.824  1.00  0.00     0.349 A 
ATOM     88  C   UNL A   1      33.404  37.553  31.789  1.00  0.00     0.419 A 
ATOM     89  H   UNL A   1      34.444  36.599  33.239  1.00  0.00     0.173 HD
ATOM     90  O   UNL A   1      32.513  36.170  28.711  1.00  0.00    -0.246 OA
ATOM     91  O   UNL A   1      32.896  37.425  30.537  1.00  0.00    -0.372 OA
ATOM     92  O   UNL A   1      33.257  38.591  32.431  1.00  0.00    -0.224 OA
ENDBRANCH  77  80
ENDBRANCH  75  76
ENDBRANCH  74  75
ENDBRANCH  73  74
ENDBRANCH   3  73
TORSDOF 13
ENDMDL
MODEL 2
REMARK VINA RESULT:     -12.1      5.835     14.740
REMARK SMILES O=C(NCCCNC(=O)c1cccc2c(=O)oc(=O)[nH]c12)c1ccc(-c2c3nc(c(-c4c(F)cc(S(=O)(=O)[O-])cc4F)c4ccc([nH]4)c(-c4c(F)cc(S(=O)(=O)[O-])cc4F)c4nc(c(-c5c(F)cc(S(=O)(=O)[O-])cc5F)c5ccc2[nH]5)C=C4)C=C3)cc1
REMARK SMILES IDX 1 1 2 2 3 3 22 5 23 6 87 7 24 8 86 9 25 10 26 11 27 12 80 13
REMARK SMILES IDX 28 14 85 15 79 16 81 17 29 18 84 19 78 20 77 21 30 23 64 24
REMARK SMILES IDX 43 25 63 26 44 27 47 28 62 29 82 30 45 31 46 32 61 34 83 35
REMARK SMILES IDX 48 36 31 37 32 38 41 39 33 40 34 41 40 42 42 43 35 44 36 45
REMARK SMILES IDX 37 46 38 47 39 48 65 49 66 50 75 51 67 52 68 53 74 54 76 55
REMARK SMILES IDX 69 56 70 57 71 58 72 59 73 60 49 61 50 62 59 63 51 64 52 65
REMARK SMILES IDX 58 66 60 67 53 68 54 69 55 70 56 71 57 72 4 73 5 74 6 75
REMARK SMILES IDX 7 76 8 77 9 79 10 80 11 81 21 82 12 83 14 84 20 85 13 86
REMARK SMILES IDX 15 87 18 88 16 90 17 91 19 92
REMARK H PARENT 3 4 81 22 47 33 7 78 20 89
REMARK Flexibility Score: inf
ROOT
ATOM      1  O   UNL A   1      41.635  25.911  25.007  1.00  0.00    -0.269 OA
ATOM      2  C   UNL A   1      42.511  26.270  25.788  1.00  0.00     0.251 C 
ATOM      3  N   UNL A   1      43.819  25.962  25.511  1.00  0.00    -0.352 N 
ATOM      4  H   UNL A   1      43.986  25.643  24.595  1.00  0.00     0.163 HD
ENDROOT
BRANCH   2   5
ATOM      5  C   UNL A   1      42.154  27.025  27.010  1.00  0.00     0.039 A 
ATOM      6  C   UNL A   1      42.582  28.349  27.136  1.00  0.00     0.014 A 
ATOM      7  C   UNL A   1      41.457  26.416  28.058  1.00  0.00     0.014 A 
ATOM      8  C   UNL A   1      42.286  29.069  28.297  1.00  0.00     0.010 A 
ATOM      9  C   UNL A   1      41.090  27.159  29.177  1.00  0.00     0.010 A 
ATOM     10  C   UNL A   1      41.523  28.484  29.320  1.00  0.00    -0.014 A 
BRANCH  10  11
ATOM     11  C   UNL A   1      41.225  29.210  30.582  1.00  0.00     0.031 A 
ATOM     12  C   UNL A   1      40.077  30.187  30.621  1.00  0.00     0.074 A 
ATOM     13  C   UNL A   1      41.995  29.021  31.672  1.00  0.00     0.049 A 
ATOM     14  N   UNL A   1      39.724  31.008  31.574  1.00  0.00    -0.248 NA
ATOM     15  C   UNL A   1      39.225  30.262  29.420  1.00  0.00     0.031 C 
ATOM     16  C   UNL A   1      43.130  28.099  31.760  1.00  0.00     0.029 A 
ATOM     17  N   UNL A   1      41.942  29.598  32.917  1.00  0.00    -0.354 N 
ATOM     18  C   UNL A   1      38.614  31.694  31.092  1.00  0.00     0.074 A 
ATOM     19  C   UNL A   1      38.388  31.239  29.739  1.00  0.00     0.031 C 
ATOM     20  C   UNL A   1      43.647  28.155  32.999  1.00  0.00     0.029 A 
ATOM     21  C   UNL A   1      42.918  29.152  33.777  1.00  0.00     0.049 A 
ATOM     22  H   UNL A   1      41.268  30.269  33.169  1.00  0.00     0.167 HD
ATOM     23  C   UNL A   1      37.835  32.598  31.731  1.00  0.00     0.037 A 
ATOM     24  C   UNL A   1      43.199  29.515  35.043  1.00  0.00     0.037 A 
ATOM     25  C   UNL A   1      38.049  33.028  33.087  1.00  0.00     0.049 A 
ATOM     26  C   UNL A   1      42.353  30.574  35.705  1.00  0.00     0.074 A 
ATOM     27  C   UNL A   1      37.314  33.941  33.825  1.00  0.00     0.029 A 
ATOM     28  N   UNL A   1      39.056  32.563  33.919  1.00  0.00    -0.354 N 
ATOM     29  N   UNL A   1      41.313  31.217  35.230  1.00  0.00    -0.248 NA
ATOM     30  C   UNL A   1      42.718  30.955  37.077  1.00  0.00     0.031 C 
ATOM     31  C   UNL A   1      37.900  34.057  35.086  1.00  0.00     0.029 A 
ATOM     32  C   UNL A   1      38.964  33.172  35.158  1.00  0.00     0.049 A 
ATOM     33  H   UNL A   1      39.736  31.897  33.665  1.00  0.00     0.167 HD
ATOM     34  C   UNL A   1      40.871  32.039  36.262  1.00  0.00     0.074 A 
ATOM     35  C   UNL A   1      41.753  31.810  37.386  1.00  0.00     0.031 C 
ATOM     36  C   UNL A   1      39.829  32.906  36.278  1.00  0.00     0.037 A 
BRANCH  23  37
ATOM     37  C   UNL A   1      36.653  33.167  30.995  1.00  0.00     0.058 A 
ATOM     38  C   UNL A   1      35.342  32.810  31.341  1.00  0.00     0.135 A 
ATOM     39  C   UNL A   1      36.827  34.160  30.018  1.00  0.00     0.135 A 
ATOM     40  F   UNL A   1      35.120  31.849  32.252  1.00  0.00    -0.206 F 
ATOM     41  C   UNL A   1      34.242  33.425  30.754  1.00  0.00     0.059 A 
ATOM     42  C   UNL A   1      35.741  34.808  29.435  1.00  0.00     0.059 A 
ATOM     43  F   UNL A   1      38.061  34.532  29.644  1.00  0.00    -0.206 F 
ATOM     44  C   UNL A   1      34.452  34.435  29.814  1.00  0.00     0.060 A 
BRANCH  44  45
ATOM     45  S   UNL A   1      33.011  35.273  29.121  1.00  0.00     0.124 S 
ATOM     46  O   UNL A   1      32.152  35.396  30.295  1.00  0.00    -0.237 OA
ATOM     47  O   UNL A   1      33.587  36.516  28.623  1.00  0.00    -0.237 OA
ATOM     48  O   UNL A   1      32.537  34.347  28.096  1.00  0.00    -0.744 OA
ENDBRANCH  44  45
ENDBRANCH  23  37
BRANCH  24  49
ATOM     49  C   UNL A   1      44.318  28.874  35.787  1.00  0.00     0.058 A 
ATOM     50  C   UNL A   1      45.611  29.420  35.749  1.00  0.00     0.135 A 
ATOM     51  C   UNL A   1      44.134  27.690  36.517  1.00  0.00     0.135 A 
ATOM     52  F   UNL A   1      45.842  30.550  35.062  1.00  0.00    -0.206 F 
ATOM     53  C   UNL A   1      46.687  28.796  36.372  1.00  0.00     0.059 A 
ATOM     54  C   UNL A   1      45.188  27.064  37.176  1.00  0.00     0.059 A 
ATOM     55  F   UNL A   1      42.915  27.133  36.602  1.00  0.00    -0.206 F 
ATOM     56  C   UNL A   1      46.465  27.614  37.080  1.00  0.00     0.060 A 
BRANCH  56  57
ATOM     57  S   UNL A   1      47.870  26.812  37.882  1.00  0.00     0.124 S 
ATOM     58  O   UNL A   1      48.316  25.893  36.841  1.00  0.00    -0.237 OA
ATOM     59  O   UNL A   1      48.750  27.943  38.157  1.00  0.00    -0.237 OA
ATOM     60  O   UNL A   1      47.274  26.189  39.059  1.00  0.00    -0.744 OA
ENDBRANCH  56  57
ENDBRANCH  24  49
BRANCH  36  61
ATOM     61  C   UNL A   1      39.531  33.618  37.570  1.00  0.00     0.058 A 
ATOM     62  C   UNL A   1      38.644  33.092  38.521  1.00  0.00     0.135 A 
ATOM     63  C   UNL A   1      40.193  34.816  37.882  1.00  0.00     0.135 A 
ATOM     64  F   UNL A   1      37.984  31.950  38.273  1.00  0.00    -0.206 F 
ATOM     65  C   UNL A   1      38.399  33.747  39.724  1.00  0.00     0.059 A 
ATOM     66  C   UNL A   1      39.990  35.471  39.093  1.00  0.00     0.059 A 
ATOM     67  F   UNL A   1      41.064  35.356  37.014  1.00  0.00    -0.206 F 
ATOM     68  C   UNL A   1      39.080  34.934  40.002  1.00  0.00     0.060 A 
BRANCH  68  69
ATOM     69  S   UNL A   1      38.768  35.758  41.577  1.00  0.00     0.124 S 
ATOM     70  O   UNL A   1      37.407  35.324  41.872  1.00  0.00    -0.237 OA
ATOM     71  O   UNL A   1      39.812  35.198  42.431  1.00  0.00    -0.237 OA
ATOM     72  O   UNL A   1      38.919  37.174  41.259  1.00  0.00    -0.744 OA
ENDBRANCH  68  69
ENDBRANCH  36  61
ENDBRANCH  10  11
ENDBRANCH   2   5
BRANCH   3  73
ATOM     73  C   UNL A   1      44.998  26.034  26.361  1.00  0.00     0.118 C 
BRANCH  73  74
ATOM     74  C   UNL A   1      44.920  25.072  27.539  1.00  0.00     0.042 C 
BRANCH  74  75
ATOM     75  C   UNL A   1      45.819  23.850  27.405  1.00  0.00     0.118 C 
BRANCH  75  76
ATOM     76  N   UNL A   1      46.242  23.623  26.030  1.00  0.00    -0.352 N 
ATOM     77  C   UNL A   1      45.772  22.719  25.115  1.00  0.00     0.253 C 
ATOM     78  H   UNL A   1      46.971  24.204  25.713  1.00  0.00     0.163 HD
ATOM     79  O   UNL A   1      46.406  22.485  24.090  1.00  0.00    -0.269 OA
BRANCH  77  80
ATOM     80  C   UNL A   1      44.513  21.988  25.367  1.00  0.00     0.064 A 
ATOM     81  C   UNL A   1      43.302  22.692  25.440  1.00  0.00     0.016 A 
ATOM     82  C   UNL A   1      44.518  20.593  25.499  1.00  0.00     0.071 A 
ATOM     83  C   UNL A   1      42.118  22.020  25.736  1.00  0.00     0.002 A 
ATOM     84  C   UNL A   1      43.338  19.929  25.774  1.00  0.00     0.085 A 
ATOM     85  N   UNL A   1      45.672  19.830  25.364  1.00  0.00    -0.289 N 
ATOM     86  C   UNL A   1      42.136  20.637  25.911  1.00  0.00     0.018 A 
ATOM     87  C   UNL A   1      43.370  18.466  25.907  1.00  0.00     0.349 A 
ATOM     88  C   UNL A   1      45.706  18.476  25.503  1.00  0.00     0.419 A 
ATOM     89  H   UNL A   1      46.513  20.298  25.155  1.00  0.00     0.173 HD
ATOM     90  O   UNL A   1      42.326  17.858  26.118  1.00  0.00    -0.246 OA
ATOM     91  O   UNL A   1      44.550  17.823  25.786  1.00  0.00    -0.372 OA
ATOM     92  O   UNL A   1      46.764  17.865  25.369  1.00  0.00    -0.224 OA
ENDBRANCH  77  80
ENDBRANCH  75  76
ENDBRANCH  74  75
ENDBRANCH  73  74
ENDBRANCH   3  73
TORSDOF 13
ENDMDL
MODEL 3
REMARK VINA RESULT:     -12.0      0.990      2.031
REMARK SMILES O=C(NCCCNC(=O)c1cccc2c(=O)oc(=O)[nH]c12)c1ccc(-c2c3nc(c(-c4c(F)cc(S(=O)(=O)[O-])cc4F)c4ccc([nH]4)c(-c4c(F)cc(S(=O)(=O)[O-])cc4F)c4nc(c(-c5c(F)cc(S(=O)(=O)[O-])cc5F)c5ccc2[nH]5)C=C4)C=C3)cc1
REMARK SMILES IDX 1 1 2 2 3 3 22 5 23 6 87 7 24 8 86 9 25 10 26 11 27 12 80 13
REMARK SMILES IDX 28 14 85 15 79 16 81 17 29 18 84 19 78 20 77 21 30 23 64 24
REMARK SMILES IDX 43 25 63 26 44 27 47 28 62 29 82 30 45 31 46 32 61 34 83 35
REMARK SMILES IDX 48 36 31 37 32 38 41 39 33 40 34 41 40 42 42 43 35 44 36 45
REMARK SMILES IDX 37 46 38 47 39 48 65 49 66 50 75 51 67 52 68 53 74 54 76 55
REMARK SMILES IDX 69 56 70 57 71 58 72 59 73 60 49 61 50 62 59 63 51 64 52 65
REMARK SMILES IDX 58 66 60 67 53 68 54 69 55 70 56 71 57 72 4 73 5 74 6 75
REMARK SMILES IDX 7 76 8 77 9 79 10 80 11 81 21 82 12 83 14 84 20 85 13 86
REMARK SMILES IDX 15 87 18 88 16 90 17 91 19 92
REMARK H PARENT 3 4 81 22 47 33 7 78 20 89
REMARK Flexibility Score: inf
ROOT
ATOM      1  O   UNL A   1      35.903  29.445  30.936  1.00  0.00    -0.269 OA
ATOM      2  C   UNL A   1      36.733  30.347  30.861  1.00  0.00     0.251 C 
ATOM      3  N   UNL A   1      36.387  31.607  31.278  1.00  0.00    -0.352 N 
ATOM      4  H   UNL A   1      35.552  31.659  31.798  1.00  0.00     0.163 HD
ENDROOT
BRANCH   2   5
ATOM      5  C   UNL A   1      38.085  30.071  30.329  1.00  0.00     0.039 A 
ATOM      6  C   UNL A   1      38.276  30.050  28.944  1.00  0.00     0.014 A 
ATOM      7  C   UNL A   1      39.150  29.768  31.182  1.00  0.00     0.014 A 
ATOM      8  C   UNL A   1      39.538  29.757  28.419  1.00  0.00     0.010 A 
ATOM      9  C   UNL A   1      40.424  29.560  30.661  1.00  0.00     0.010 A 
ATOM     10  C   UNL A   1      40.626  29.526  29.274  1.00  0.00    -0.014 A 
BRANCH  10  11
ATOM     11  C   UNL A   1      41.970  29.173  28.748  1.00  0.00     0.031 A 
ATOM     12  C   UNL A   1      42.249  27.753  28.323  1.00  0.00     0.074 A 
ATOM     13  C   UNL A   1      42.940  30.106  28.682  1.00  0.00     0.049 A 
ATOM     14  N   UNL A   1      43.379  27.209  27.954  1.00  0.00    -0.248 NA
ATOM     15  C   UNL A   1      41.110  26.818  28.333  1.00  0.00     0.031 C 
ATOM     16  C   UNL A   1      42.790  31.514  29.057  1.00  0.00     0.029 A 
ATOM     17  N   UNL A   1      44.248  30.011  28.277  1.00  0.00    -0.354 N 
ATOM     18  C   UNL A   1      43.088  25.875  27.688  1.00  0.00     0.074 A 
ATOM     19  C   UNL A   1      41.691  25.675  27.997  1.00  0.00     0.031 C 
ATOM     20  C   UNL A   1      43.952  32.153  28.841  1.00  0.00     0.029 A 
ATOM     21  C   UNL A   1      44.943  31.195  28.361  1.00  0.00     0.049 A 
ATOM     22  H   UNL A   1      44.652  29.172  27.956  1.00  0.00     0.167 HD
ATOM     23  C   UNL A   1      43.905  24.912  27.202  1.00  0.00     0.037 A 
ATOM     24  C   UNL A   1      46.234  31.471  28.096  1.00  0.00     0.037 A 
ATOM     25  C   UNL A   1      45.289  25.123  26.871  1.00  0.00     0.049 A 
ATOM     26  C   UNL A   1      47.136  30.361  27.618  1.00  0.00     0.074 A 
ATOM     27  C   UNL A   1      46.202  24.209  26.371  1.00  0.00     0.029 A 
ATOM     28  N   UNL A   1      45.958  26.333  26.985  1.00  0.00    -0.354 N 
ATOM     29  N   UNL A   1      46.845  29.104  27.381  1.00  0.00    -0.248 NA
ATOM     30  C   UNL A   1      48.543  30.707  27.369  1.00  0.00     0.031 C 
ATOM     31  C   UNL A   1      47.430  24.856  26.220  1.00  0.00     0.029 A 
ATOM     32  C   UNL A   1      47.270  26.187  26.569  1.00  0.00     0.049 A 
ATOM     33  H   UNL A   1      45.558  27.171  27.313  1.00  0.00     0.167 HD
ATOM     34  C   UNL A   1      48.019  28.525  26.908  1.00  0.00     0.074 A 
ATOM     35  C   UNL A   1      49.021  29.569  26.888  1.00  0.00     0.031 C 
ATOM     36  C   UNL A   1      48.246  27.245  26.523  1.00  0.00     0.037 A 
BRANCH  23  37
ATOM     37  C   UNL A   1      43.329  23.545  26.958  1.00  0.00     0.058 A 
ATOM     38  C   UNL A   1      43.009  23.111  25.662  1.00  0.00     0.135 A 
ATOM     39  C   UNL A   1      43.204  22.621  28.008  1.00  0.00     0.135 A 
ATOM     40  F   UNL A   1      43.087  23.961  24.626  1.00  0.00    -0.206 F 
ATOM     41  C   UNL A   1      42.596  21.808  25.413  1.00  0.00     0.059 A 
ATOM     42  C   UNL A   1      42.818  21.303  27.779  1.00  0.00     0.059 A 
ATOM     43  F   UNL A   1      43.489  22.987  29.267  1.00  0.00    -0.206 F 
ATOM     44  C   UNL A   1      42.520  20.906  26.476  1.00  0.00     0.060 A 
BRANCH  44  45
ATOM     45  S   UNL A   1      42.056  19.198  26.117  1.00  0.00     0.124 S 
ATOM     46  O   UNL A   1      42.947  18.881  25.004  1.00  0.00    -0.237 OA
ATOM     47  O   UNL A   1      42.353  18.528  27.378  1.00  0.00    -0.237 OA
ATOM     48  O   UNL A   1      40.640  19.293  25.776  1.00  0.00    -0.744 OA
ENDBRANCH  44  45
ENDBRANCH  23  37
BRANCH  24  49
ATOM     49  C   UNL A   1      46.765  32.853  28.257  1.00  0.00     0.058 A 
ATOM     50  C   UNL A   1      46.682  33.781  27.206  1.00  0.00     0.135 A 
ATOM     51  C   UNL A   1      47.396  33.266  29.441  1.00  0.00     0.135 A 
ATOM     52  F   UNL A   1      46.092  33.435  26.052  1.00  0.00    -0.206 F 
ATOM     53  C   UNL A   1      47.240  35.051  27.307  1.00  0.00     0.059 A 
ATOM     54  C   UNL A   1      47.933  34.542  29.577  1.00  0.00     0.059 A 
ATOM     55  F   UNL A   1      47.488  32.426  30.484  1.00  0.00    -0.206 F 
ATOM     56  C   UNL A   1      47.868  35.421  28.497  1.00  0.00     0.060 A 
BRANCH  56  57
ATOM     57  S   UNL A   1      48.591  37.072  28.614  1.00  0.00     0.124 S 
ATOM     58  O   UNL A   1      47.825  37.649  29.714  1.00  0.00    -0.237 OA
ATOM     59  O   UNL A   1      49.991  36.773  28.897  1.00  0.00    -0.237 OA
ATOM     60  O   UNL A   1      48.332  37.645  27.297  1.00  0.00    -0.744 OA
ENDBRANCH  56  57
ENDBRANCH  24  49
BRANCH  36  61
ATOM     61  C   UNL A   1      49.607  26.911  25.975  1.00  0.00     0.058 A 
ATOM     62  C   UNL A   1      50.627  26.388  26.785  1.00  0.00     0.135 A 
ATOM     63  C   UNL A   1      49.870  27.061  24.604  1.00  0.00     0.135 A 
ATOM     64  F   UNL A   1      50.428  26.225  28.102  1.00  0.00    -0.206 F 
ATOM     65  C   UNL A   1      51.872  26.056  26.259  1.00  0.00     0.059 A 
ATOM     66  C   UNL A   1      51.096  26.704  24.051  1.00  0.00     0.059 A 
ATOM     67  F   UNL A   1      48.925  27.542  23.781  1.00  0.00    -0.206 F 
ATOM     68  C   UNL A   1      52.095  26.216  24.890  1.00  0.00     0.060 A 
BRANCH  68  69
ATOM     69  S   UNL A   1      53.708  25.759  24.222  1.00  0.00     0.124 S 
ATOM     70  O   UNL A   1      53.829  24.374  24.665  1.00  0.00    -0.237 OA
ATOM     71  O   UNL A   1      53.514  25.951  22.787  1.00  0.00    -0.237 OA
ATOM     72  O   UNL A   1      54.622  26.702  24.857  1.00  0.00    -0.744 OA
ENDBRANCH  68  69
ENDBRANCH  36  61
ENDBRANCH  10  11
ENDBRANCH   2   5
BRANCH   3  73
ATOM     73  C   UNL A   1      37.061  32.880  31.071  1.00  0.00     0.118 C 
BRANCH  73  74
ATOM     74  C   UNL A   1      37.683  33.418  32.353  1.00  0.00     0.042 C 
BRANCH  74  75
ATOM     75  C   UNL A   1      36.684  34.048  33.314  1.00  0.00     0.118 C 
BRANCH  75  76
ATOM     76  N   UNL A   1      35.429  33.311  33.366  1.00  0.00    -0.352 N 
ATOM     77  C   UNL A   1      34.153  33.751  33.132  1.00  0.00     0.253 C 
ATOM     78  H   UNL A   1      35.509  32.358  33.604  1.00  0.00     0.163 HD
ATOM     79  O   UNL A   1      33.189  33.069  33.467  1.00  0.00    -0.269 OA
BRANCH  77  80
ATOM     80  C   UNL A   1      33.922  35.070  32.505  1.00  0.00     0.064 A 
ATOM     81  C   UNL A   1      33.930  36.228  33.297  1.00  0.00     0.016 A 
ATOM     82  C   UNL A   1      33.730  35.171  31.121  1.00  0.00     0.071 A 
ATOM     83  C   UNL A   1      33.655  37.468  32.725  1.00  0.00     0.002 A 
ATOM     84  C   UNL A   1      33.477  36.406  30.556  1.00  0.00     0.085 A 
ATOM     85  N   UNL A   1      33.784  34.072  30.273  1.00  0.00    -0.289 N 
ATOM     86  C   UNL A   1      33.420  37.558  31.354  1.00  0.00     0.018 A 
ATOM     87  C   UNL A   1      33.279  36.486  29.103  1.00  0.00     0.349 A 
ATOM     88  C   UNL A   1      33.586  34.142  28.927  1.00  0.00     0.419 A 
ATOM     89  H   UNL A   1      33.977  33.191  30.669  1.00  0.00     0.173 HD
ATOM     90  O   UNL A   1      33.086  37.579  28.581  1.00  0.00    -0.246 OA
ATOM     91  O   UNL A   1      33.324  35.353  28.372  1.00  0.00    -0.372 OA
ATOM     92  O   UNL A   1      33.649  33.128  28.236  1.00  0.00    -0.224 OA
ENDBRANCH  77  80
ENDBRANCH  75  76
ENDBRANCH  74  75
ENDBRANCH  73  74
ENDBRANCH   3  73
TORSDOF 13
ENDMDL
