MODEL 1
REMARK VINA RESULT:     -10.1      0.000      0.000
REMARK SMILES Cc1ccc(C(N)=O)c(NCc2ccc(C(=O)NCCCNC(=O)c3ccc(-c4c5nc(c(-c6c(F)cc(S(=O)(=O)[O-])cc6F)c6ccc([nH]6)c(-c6c(F)cc(S(=O)(=O)[O-])cc6F)c6nc(c(-c7c(F)cc(S(=O)(=O)[O-])cc7F)c7ccc4[nH]7)C=C6)C=C5)cc3)o2)n1
REMARK SMILES IDX 19 1 18 2 16 3 17 4 15 6 12 7 13 8 91 9 14 10 11 11 10 12
REMARK SMILES IDX 9 14 1 15 2 16 3 17 92 18 4 19 5 20 6 21 7 22 8 23 20 26
REMARK SMILES IDX 21 27 22 28 23 29 24 31 25 32 26 33 90 34 27 35 89 36 28 37
REMARK SMILES IDX 29 38 30 39 83 40 31 41 88 42 82 43 84 44 32 45 87 46 81 47
REMARK SMILES IDX 80 48 33 50 67 51 46 52 66 53 47 54 50 55 65 56 85 57 48 58
REMARK SMILES IDX 49 59 64 61 86 62 51 63 34 64 35 65 44 66 36 67 37 68 43 69
REMARK SMILES IDX 45 70 38 71 39 72 40 73 41 74 42 75 68 76 69 77 78 78 70 79
REMARK SMILES IDX 71 80 77 81 79 82 72 83 73 84 74 85 75 86 76 87 52 88 53 89
REMARK SMILES IDX 62 90 54 91 55 92 61 93 63 94 56 95 57 96 58 97 59 98 60 99
REMARK H PARENT 18 5 10 13 7 24 7 25 22 30 84 49 50 60
REMARK Flexibility Score: inf
ROOT
ATOM      1  C   UNL A   1      42.214  19.517  26.510  1.00  0.00     0.118 C 
ENDROOT
BRANCH   1   2
ATOM      2  N   UNL A   1      42.973  18.976  25.402  1.00  0.00    -0.349 N 
ATOM      3  C   UNL A   1      44.084  19.458  24.748  1.00  0.00     0.286 C 
ATOM      4  O   UNL A   1      44.591  18.697  23.921  1.00  0.00    -0.266 OA
ATOM      5  H   UNL A   1      42.637  18.118  25.056  1.00  0.00     0.163 HD
BRANCH   3   6
ATOM      6  C   UNL A   1      44.624  20.775  25.042  1.00  0.00     0.191 A 
ATOM      7  C   UNL A   1      44.449  22.980  25.183  1.00  0.00     0.124 A 
ATOM      8  C   UNL A   1      45.737  22.669  25.554  1.00  0.00     0.048 A 
ATOM      9  O   UNL A   1      43.774  21.841  24.866  1.00  0.00    -0.454 OA
ATOM     10  C   UNL A   1      45.835  21.259  25.508  1.00  0.00     0.056 A 
BRANCH   7  11
ATOM     11  C   UNL A   1      43.682  24.256  25.096  1.00  0.00     0.190 C 
BRANCH  11  12
ATOM     12  N   UNL A   1      44.520  25.414  24.826  1.00  0.00    -0.362 N 
ATOM     13  H   UNL A   1      45.169  25.380  24.086  1.00  0.00     0.162 HD
BRANCH  12  14
ATOM     14  C   UNL A   1      44.421  26.562  25.593  1.00  0.00     0.139 A 
ATOM     15  C   UNL A   1      41.893  29.221  25.954  1.00  0.00     0.067 C 
ATOM     16  C   UNL A   1      43.154  28.443  26.178  1.00  0.00     0.040 A 
ATOM     17  C   UNL A   1      44.092  28.855  27.111  1.00  0.00     0.024 A 
ATOM     18  N   UNL A   1      43.319  27.332  25.421  1.00  0.00    -0.236 NA
ATOM     19  C   UNL A   1      45.238  28.087  27.272  1.00  0.00     0.019 A 
ATOM     20  C   UNL A   1      45.420  26.930  26.504  1.00  0.00     0.081 A 
BRANCH  20  21
ATOM     21  C   UNL A   1      46.690  26.186  26.705  1.00  0.00     0.252 C 
ATOM     22  N   UNL A   1      46.821  25.437  27.841  1.00  0.00    -0.365 N 
ATOM     23  O   UNL A   1      47.579  26.207  25.864  1.00  0.00    -0.269 OA
ATOM     24  H   UNL A   1      46.100  25.428  28.511  1.00  0.00     0.159 HD
ATOM     25  H   UNL A   1      47.637  24.907  27.990  1.00  0.00     0.159 HD
ENDBRANCH  20  21
ENDBRANCH  12  14
ENDBRANCH  11  12
ENDBRANCH   7  11
ENDBRANCH   3   6
ENDBRANCH   1   2
BRANCH   1  26
ATOM     26  C   UNL A   1      40.802  19.919  26.092  1.00  0.00     0.042 C 
BRANCH  26  27
ATOM     27  C   UNL A   1      40.452  21.362  26.457  1.00  0.00     0.118 C 
BRANCH  27  28
ATOM     28  N   UNL A   1      39.290  21.843  25.720  1.00  0.00    -0.352 N 
ATOM     29  C   UNL A   1      38.574  23.007  25.848  1.00  0.00     0.251 C 
ATOM     30  H   UNL A   1      38.964  21.234  25.018  1.00  0.00     0.163 HD
ATOM     31  O   UNL A   1      37.485  23.102  25.286  1.00  0.00    -0.269 OA
BRANCH  29  32
ATOM     32  C   UNL A   1      39.091  24.134  26.652  1.00  0.00     0.039 A 
ATOM     33  C   UNL A   1      39.995  25.024  26.063  1.00  0.00     0.014 A 
ATOM     34  C   UNL A   1      38.739  24.288  27.996  1.00  0.00     0.014 A 
ATOM     35  C   UNL A   1      40.501  26.096  26.801  1.00  0.00     0.010 A 
ATOM     36  C   UNL A   1      39.191  25.397  28.712  1.00  0.00     0.010 A 
ATOM     37  C   UNL A   1      40.079  26.309  28.123  1.00  0.00    -0.014 A 
BRANCH  37  38
ATOM     38  C   UNL A   1      40.551  27.481  28.905  1.00  0.00     0.031 A 
ATOM     39  C   UNL A   1      41.886  27.443  29.601  1.00  0.00     0.074 A 
ATOM     40  C   UNL A   1      39.745  28.551  29.046  1.00  0.00     0.049 A 
ATOM     41  N   UNL A   1      42.429  28.330  30.393  1.00  0.00    -0.248 NA
ATOM     42  C   UNL A   1      42.705  26.237  29.399  1.00  0.00     0.031 C 
ATOM     43  C   UNL A   1      38.409  28.686  28.459  1.00  0.00     0.029 A 
ATOM     44  N   UNL A   1      39.920  29.723  29.738  1.00  0.00    -0.354 N 
ATOM     45  C   UNL A   1      43.641  27.784  30.801  1.00  0.00     0.074 A 
ATOM     46  C   UNL A   1      43.733  26.470  30.204  1.00  0.00     0.031 C 
ATOM     47  C   UNL A   1      37.894  29.877  28.804  1.00  0.00     0.029 A 
ATOM     48  C   UNL A   1      38.844  30.575  29.665  1.00  0.00     0.049 A 
ATOM     49  H   UNL A   1      40.742  29.934  30.240  1.00  0.00     0.167 HD
ATOM     50  C   UNL A   1      44.597  28.336  31.588  1.00  0.00     0.037 A 
ATOM     51  C   UNL A   1      38.638  31.777  30.236  1.00  0.00     0.037 A 
ATOM     52  C   UNL A   1      44.510  29.658  32.153  1.00  0.00     0.049 A 
ATOM     53  C   UNL A   1      39.719  32.374  31.096  1.00  0.00     0.074 A 
ATOM     54  C   UNL A   1      45.455  30.335  32.904  1.00  0.00     0.029 A 
ATOM     55  N   UNL A   1      43.415  30.502  32.032  1.00  0.00    -0.354 N 
ATOM     56  N   UNL A   1      40.888  31.871  31.417  1.00  0.00    -0.248 NA
ATOM     57  C   UNL A   1      39.457  33.702  31.668  1.00  0.00     0.031 C 
ATOM     58  C   UNL A   1      44.915  31.572  33.274  1.00  0.00     0.029 A 
ATOM     59  C   UNL A   1      43.652  31.686  32.712  1.00  0.00     0.049 A 
ATOM     60  H   UNL A   1      42.592  30.292  31.535  1.00  0.00     0.167 HD
ATOM     61  C   UNL A   1      41.512  32.832  32.204  1.00  0.00     0.074 A 
ATOM     62  C   UNL A   1      40.595  33.950  32.303  1.00  0.00     0.031 C 
ATOM     63  C   UNL A   1      42.732  32.793  32.793  1.00  0.00     0.037 A 
BRANCH  50  64
ATOM     64  C   UNL A   1      45.822  27.514  31.883  1.00  0.00     0.058 A 
ATOM     65  C   UNL A   1      46.944  27.533  31.040  1.00  0.00     0.135 A 
ATOM     66  C   UNL A   1      45.892  26.729  33.046  1.00  0.00     0.135 A 
ATOM     67  F   UNL A   1      46.927  28.255  29.908  1.00  0.00    -0.206 F 
ATOM     68  C   UNL A   1      48.081  26.782  31.323  1.00  0.00     0.059 A 
ATOM     69  C   UNL A   1      47.028  25.992  33.363  1.00  0.00     0.059 A 
ATOM     70  F   UNL A   1      44.848  26.674  33.888  1.00  0.00    -0.206 F 
ATOM     71  C   UNL A   1      48.113  26.013  32.488  1.00  0.00     0.060 A 
BRANCH  71  72
ATOM     72  S   UNL A   1      49.598  25.050  32.844  1.00  0.00     0.124 S 
ATOM     73  O   UNL A   1      49.051  23.961  33.648  1.00  0.00    -0.237 OA
ATOM     74  O   UNL A   1      50.060  24.682  31.510  1.00  0.00    -0.237 OA
ATOM     75  O   UNL A   1      50.450  25.993  33.563  1.00  0.00    -0.744 OA
ENDBRANCH  71  72
ENDBRANCH  50  64
BRANCH  51  76
ATOM     76  C   UNL A   1      37.363  32.505  29.998  1.00  0.00     0.058 A 
ATOM     77  C   UNL A   1      37.275  33.502  29.015  1.00  0.00     0.135 A 
ATOM     78  C   UNL A   1      36.207  32.211  30.738  1.00  0.00     0.135 A 
ATOM     79  F   UNL A   1      38.355  33.822  28.287  1.00  0.00    -0.206 F 
ATOM     80  C   UNL A   1      36.091  34.194  28.783  1.00  0.00     0.059 A 
ATOM     81  C   UNL A   1      35.004  32.872  30.507  1.00  0.00     0.059 A 
ATOM     82  F   UNL A   1      36.234  31.253  31.676  1.00  0.00    -0.206 F 
ATOM     83  C   UNL A   1      34.959  33.870  29.534  1.00  0.00     0.060 A 
BRANCH  83  84
ATOM     84  S   UNL A   1      33.416  34.742  29.195  1.00  0.00     0.124 S 
ATOM     85  O   UNL A   1      32.746  33.815  28.291  1.00  0.00    -0.237 OA
ATOM     86  O   UNL A   1      32.835  34.869  30.527  1.00  0.00    -0.237 OA
ATOM     87  O   UNL A   1      33.865  35.996  28.595  1.00  0.00    -0.744 OA
ENDBRANCH  83  84
ENDBRANCH  51  76
BRANCH  63  88
ATOM     88  C   UNL A   1      43.167  34.005  33.567  1.00  0.00     0.058 A 
ATOM     89  C   UNL A   1      43.831  35.077  32.951  1.00  0.00     0.135 A 
ATOM     90  C   UNL A   1      42.869  34.118  34.936  1.00  0.00     0.135 A 
ATOM     91  F   UNL A   1      44.146  35.015  31.647  1.00  0.00    -0.206 F 
ATOM     92  C   UNL A   1      44.203  36.209  33.667  1.00  0.00     0.059 A 
ATOM     93  C   UNL A   1      43.207  35.253  35.665  1.00  0.00     0.059 A 
ATOM     94  F   UNL A   1      42.225  33.125  35.571  1.00  0.00    -0.206 F 
ATOM     95  C   UNL A   1      43.885  36.289  35.024  1.00  0.00     0.060 A 
BRANCH  95  96
ATOM     96  S   UNL A   1      44.342  37.779  35.935  1.00  0.00     0.124 S 
ATOM     97  O   UNL A   1      43.650  37.571  37.204  1.00  0.00    -0.237 OA
ATOM     98  O   UNL A   1      45.797  37.684  35.983  1.00  0.00    -0.237 OA
ATOM     99  O   UNL A   1      43.817  38.860  35.105  1.00  0.00    -0.744 OA
ENDBRANCH  95  96
ENDBRANCH  63  88
ENDBRANCH  37  38
ENDBRANCH  29  32
ENDBRANCH  27  28
ENDBRANCH  26  27
ENDBRANCH   1  26
TORSDOF 17
ENDMDL
MODEL 2
REMARK VINA RESULT:      -9.9      4.040     10.565
REMARK SMILES Cc1ccc(C(N)=O)c(NCc2ccc(C(=O)NCCCNC(=O)c3ccc(-c4c5nc(c(-c6c(F)cc(S(=O)(=O)[O-])cc6F)c6ccc([nH]6)c(-c6c(F)cc(S(=O)(=O)[O-])cc6F)c6nc(c(-c7c(F)cc(S(=O)(=O)[O-])cc7F)c7ccc4[nH]7)C=C6)C=C5)cc3)o2)n1
REMARK SMILES IDX 19 1 18 2 16 3 17 4 15 6 12 7 13 8 91 9 14 10 11 11 10 12
REMARK SMILES IDX 9 14 1 15 2 16 3 17 92 18 4 19 5 20 6 21 7 22 8 23 20 26
REMARK SMILES IDX 21 27 22 28 23 29 24 31 25 32 26 33 90 34 27 35 89 36 28 37
REMARK SMILES IDX 29 38 30 39 83 40 31 41 88 42 82 43 84 44 32 45 87 46 81 47
REMARK SMILES IDX 80 48 33 50 67 51 46 52 66 53 47 54 50 55 65 56 85 57 48 58
REMARK SMILES IDX 49 59 64 61 86 62 51 63 34 64 35 65 44 66 36 67 37 68 43 69
REMARK SMILES IDX 45 70 38 71 39 72 40 73 41 74 42 75 68 76 69 77 78 78 70 79
REMARK SMILES IDX 71 80 77 81 79 82 72 83 73 84 74 85 75 86 76 87 52 88 53 89
REMARK SMILES IDX 62 90 54 91 55 92 61 93 63 94 56 95 57 96 58 97 59 98 60 99
REMARK H PARENT 18 5 10 13 7 24 7 25 22 30 84 49 50 60
REMARK Flexibility Score: inf
ROOT
ATOM      1  C   UNL A   1      39.451  22.222  26.570  1.00  0.00     0.118 C 
ENDROOT
BRANCH   1   2
ATOM      2  N   UNL A   1      38.989  21.101  25.778  1.00  0.00    -0.349 N 
ATOM      3  C   UNL A   1      37.782  20.872  25.158  1.00  0.00     0.286 C 
ATOM      4  O   UNL A   1      37.734  19.875  24.434  1.00  0.00    -0.266 OA
ATOM      5  H   UNL A   1      39.649  20.380  25.665  1.00  0.00     0.163 HD
BRANCH   3   6
ATOM      6  C   UNL A   1      36.654  21.769  25.339  1.00  0.00     0.191 A 
ATOM      7  C   UNL A   1      34.648  22.261  26.144  1.00  0.00     0.124 A 
ATOM      8  C   UNL A   1      35.059  23.363  25.429  1.00  0.00     0.048 A 
ATOM      9  O   UNL A   1      35.604  21.293  26.087  1.00  0.00    -0.454 OA
ATOM     10  C   UNL A   1      36.359  23.066  24.954  1.00  0.00     0.056 A 
BRANCH   7  11
ATOM     11  C   UNL A   1      33.433  21.953  26.952  1.00  0.00     0.190 C 
BRANCH  11  12
ATOM     12  N   UNL A   1      32.276  21.607  26.141  1.00  0.00    -0.362 N 
ATOM     13  H   UNL A   1      31.422  22.075  26.291  1.00  0.00     0.162 HD
BRANCH  12  14
ATOM     14  C   UNL A   1      32.355  20.630  25.163  1.00  0.00     0.139 A 
ATOM     15  C   UNL A   1      32.722  16.963  25.192  1.00  0.00     0.067 C 
ATOM     16  C   UNL A   1      32.566  18.354  24.657  1.00  0.00     0.040 A 
ATOM     17  C   UNL A   1      32.474  18.590  23.295  1.00  0.00     0.024 A 
ATOM     18  N   UNL A   1      32.526  19.351  25.573  1.00  0.00    -0.236 NA
ATOM     19  C   UNL A   1      32.328  19.903  22.865  1.00  0.00     0.019 A 
ATOM     20  C   UNL A   1      32.276  20.944  23.800  1.00  0.00     0.081 A 
BRANCH  20  21
ATOM     21  C   UNL A   1      32.159  22.323  23.259  1.00  0.00     0.252 C 
ATOM     22  N   UNL A   1      32.629  22.560  21.998  1.00  0.00    -0.365 N 
ATOM     23  O   UNL A   1      31.622  23.215  23.905  1.00  0.00    -0.269 OA
ATOM     24  H   UNL A   1      33.059  21.836  21.489  1.00  0.00     0.159 HD
ATOM     25  H   UNL A   1      32.539  23.456  21.600  1.00  0.00     0.159 HD
ENDBRANCH  20  21
ENDBRANCH  12  14
ENDBRANCH  11  12
ENDBRANCH   7  11
ENDBRANCH   3   6
ENDBRANCH   1   2
BRANCH   1  26
ATOM     26  C   UNL A   1      40.816  21.951  27.199  1.00  0.00     0.042 C 
BRANCH  26  27
ATOM     27  C   UNL A   1      41.626  23.222  27.455  1.00  0.00     0.118 C 
BRANCH  27  28
ATOM     28  N   UNL A   1      41.606  24.122  26.309  1.00  0.00    -0.352 N 
ATOM     29  C   UNL A   1      41.282  25.453  26.227  1.00  0.00     0.251 C 
ATOM     30  H   UNL A   1      41.866  23.708  25.454  1.00  0.00     0.163 HD
ATOM     31  O   UNL A   1      41.102  25.956  25.120  1.00  0.00    -0.269 OA
BRANCH  29  32
ATOM     32  C   UNL A   1      41.144  26.279  27.445  1.00  0.00     0.039 A 
ATOM     33  C   UNL A   1      42.086  27.284  27.690  1.00  0.00     0.014 A 
ATOM     34  C   UNL A   1      40.131  26.034  28.376  1.00  0.00     0.014 A 
ATOM     35  C   UNL A   1      41.979  28.076  28.835  1.00  0.00     0.010 A 
ATOM     36  C   UNL A   1      39.985  26.869  29.483  1.00  0.00     0.010 A 
ATOM     37  C   UNL A   1      40.910  27.896  29.726  1.00  0.00    -0.014 A 
BRANCH  37  38
ATOM     38  C   UNL A   1      40.738  28.771  30.913  1.00  0.00     0.031 A 
ATOM     39  C   UNL A   1      39.678  29.840  30.923  1.00  0.00     0.074 A 
ATOM     40  C   UNL A   1      41.586  28.650  31.954  1.00  0.00     0.049 A 
ATOM     41  N   UNL A   1      39.432  30.751  31.829  1.00  0.00    -0.248 NA
ATOM     42  C   UNL A   1      38.795  29.909  29.748  1.00  0.00     0.031 C 
ATOM     43  C   UNL A   1      42.685  27.683  32.041  1.00  0.00     0.029 A 
ATOM     44  N   UNL A   1      41.670  29.350  33.131  1.00  0.00    -0.354 N 
ATOM     45  C   UNL A   1      38.384  31.513  31.327  1.00  0.00     0.074 A 
ATOM     46  C   UNL A   1      38.069  30.986  30.017  1.00  0.00     0.031 C 
ATOM     47  C   UNL A   1      43.320  27.844  33.212  1.00  0.00     0.029 A 
ATOM     48  C   UNL A   1      42.702  28.945  33.944  1.00  0.00     0.049 A 
ATOM     49  H   UNL A   1      41.047  30.075  33.371  1.00  0.00     0.167 HD
ATOM     50  C   UNL A   1      37.732  32.547  31.912  1.00  0.00     0.037 A 
ATOM     51  C   UNL A   1      43.112  29.414  35.137  1.00  0.00     0.037 A 
ATOM     52  C   UNL A   1      38.032  33.045  33.230  1.00  0.00     0.049 A 
ATOM     53  C   UNL A   1      42.365  30.555  35.772  1.00  0.00     0.074 A 
ATOM     54  C   UNL A   1      37.384  34.041  33.941  1.00  0.00     0.029 A 
ATOM     55  N   UNL A   1      39.066  32.589  34.034  1.00  0.00    -0.354 N 
ATOM     56  N   UNL A   1      41.333  31.221  35.311  1.00  0.00    -0.248 NA
ATOM     57  C   UNL A   1      42.834  31.007  37.090  1.00  0.00     0.031 C 
ATOM     58  C   UNL A   1      38.053  34.216  35.157  1.00  0.00     0.029 A 
ATOM     59  C   UNL A   1      39.088  33.296  35.226  1.00  0.00     0.049 A 
ATOM     60  H   UNL A   1      39.692  31.867  33.794  1.00  0.00     0.167 HD
ATOM     61  C   UNL A   1      41.011  32.151  36.294  1.00  0.00     0.074 A 
ATOM     62  C   UNL A   1      41.952  31.954  37.378  1.00  0.00     0.031 C 
ATOM     63  C   UNL A   1      40.026  33.082  36.298  1.00  0.00     0.037 A 
BRANCH  50  64
ATOM     64  C   UNL A   1      36.627  33.209  31.135  1.00  0.00     0.058 A 
ATOM     65  C   UNL A   1      35.276  33.033  31.476  1.00  0.00     0.135 A 
ATOM     66  C   UNL A   1      36.922  34.065  30.061  1.00  0.00     0.135 A 
ATOM     67  F   UNL A   1      34.935  32.215  32.485  1.00  0.00    -0.206 F 
ATOM     68  C   UNL A   1      34.257  33.657  30.763  1.00  0.00     0.059 A 
ATOM     69  C   UNL A   1      35.921  34.721  29.352  1.00  0.00     0.059 A 
ATOM     70  F   UNL A   1      38.196  34.270  29.692  1.00  0.00    -0.206 F 
ATOM     71  C   UNL A   1      34.591  34.499  29.701  1.00  0.00     0.060 A 
BRANCH  71  72
ATOM     72  S   UNL A   1      33.256  35.307  28.791  1.00  0.00     0.124 S 
ATOM     73  O   UNL A   1      32.649  34.173  28.100  1.00  0.00    -0.237 OA
ATOM     74  O   UNL A   1      32.459  35.897  29.862  1.00  0.00    -0.237 OA
ATOM     75  O   UNL A   1      33.957  36.260  27.936  1.00  0.00    -0.744 OA
ENDBRANCH  71  72
ENDBRANCH  50  64
BRANCH  51  76
ATOM     76  C   UNL A   1      44.280  28.793  35.819  1.00  0.00     0.058 A 
ATOM     77  C   UNL A   1      45.585  29.236  35.560  1.00  0.00     0.135 A 
ATOM     78  C   UNL A   1      44.113  27.755  36.749  1.00  0.00     0.135 A 
ATOM     79  F   UNL A   1      45.795  30.222  34.675  1.00  0.00    -0.206 F 
ATOM     80  C   UNL A   1      46.686  28.663  36.186  1.00  0.00     0.059 A 
ATOM     81  C   UNL A   1      45.197  27.183  37.407  1.00  0.00     0.059 A 
ATOM     82  F   UNL A   1      42.883  27.308  37.046  1.00  0.00    -0.206 F 
ATOM     83  C   UNL A   1      46.482  27.636  37.110  1.00  0.00     0.060 A 
BRANCH  83  84
ATOM     84  S   UNL A   1      47.915  26.929  37.951  1.00  0.00     0.124 S 
ATOM     85  O   UNL A   1      48.050  27.817  39.099  1.00  0.00    -0.237 OA
ATOM     86  O   UNL A   1      47.462  25.573  38.241  1.00  0.00    -0.237 OA
ATOM     87  O   UNL A   1      48.972  27.027  36.949  1.00  0.00    -0.744 OA
ENDBRANCH  83  84
ENDBRANCH  51  76
BRANCH  63  88
ATOM     88  C   UNL A   1      39.890  33.939  37.525  1.00  0.00     0.058 A 
ATOM     89  C   UNL A   1      40.596  35.144  37.667  1.00  0.00     0.135 A 
ATOM     90  C   UNL A   1      39.003  33.574  38.552  1.00  0.00     0.135 A 
ATOM     91  F   UNL A   1      41.462  35.534  36.718  1.00  0.00    -0.206 F 
ATOM     92  C   UNL A   1      40.442  35.948  38.791  1.00  0.00     0.059 A 
ATOM     93  C   UNL A   1      38.813  34.376  39.672  1.00  0.00     0.059 A 
ATOM     94  F   UNL A   1      38.296  32.436  38.461  1.00  0.00    -0.206 F 
ATOM     95  C   UNL A   1      39.547  35.556  39.789  1.00  0.00     0.060 A 
BRANCH  95  96
ATOM     96  S   UNL A   1      39.330  36.625  41.227  1.00  0.00     0.124 S 
ATOM     97  O   UNL A   1      40.705  36.772  41.694  1.00  0.00    -0.237 OA
ATOM     98  O   UNL A   1      38.728  37.819  40.642  1.00  0.00    -0.237 OA
ATOM     99  O   UNL A   1      38.450  35.850  42.098  1.00  0.00    -0.744 OA
ENDBRANCH  95  96
ENDBRANCH  63  88
ENDBRANCH  37  38
ENDBRANCH  29  32
ENDBRANCH  27  28
ENDBRANCH  26  27
ENDBRANCH   1  26
TORSDOF 17
ENDMDL
MODEL 3
REMARK VINA RESULT:      -9.9      3.956      6.985
REMARK SMILES Cc1ccc(C(N)=O)c(NCc2ccc(C(=O)NCCCNC(=O)c3ccc(-c4c5nc(c(-c6c(F)cc(S(=O)(=O)[O-])cc6F)c6ccc([nH]6)c(-c6c(F)cc(S(=O)(=O)[O-])cc6F)c6nc(c(-c7c(F)cc(S(=O)(=O)[O-])cc7F)c7ccc4[nH]7)C=C6)C=C5)cc3)o2)n1
REMARK SMILES IDX 19 1 18 2 16 3 17 4 15 6 12 7 13 8 91 9 14 10 11 11 10 12
REMARK SMILES IDX 9 14 1 15 2 16 3 17 92 18 4 19 5 20 6 21 7 22 8 23 20 26
REMARK SMILES IDX 21 27 22 28 23 29 24 31 25 32 26 33 90 34 27 35 89 36 28 37
REMARK SMILES IDX 29 38 30 39 83 40 31 41 88 42 82 43 84 44 32 45 87 46 81 47
REMARK SMILES IDX 80 48 33 50 67 51 46 52 66 53 47 54 50 55 65 56 85 57 48 58
REMARK SMILES IDX 49 59 64 61 86 62 51 63 34 64 35 65 44 66 36 67 37 68 43 69
REMARK SMILES IDX 45 70 38 71 39 72 40 73 41 74 42 75 68 76 69 77 78 78 70 79
REMARK SMILES IDX 71 80 77 81 79 82 72 83 73 84 74 85 75 86 76 87 52 88 53 89
REMARK SMILES IDX 62 90 54 91 55 92 61 93 63 94 56 95 57 96 58 97 59 98 60 99
REMARK H PARENT 18 5 10 13 7 24 7 25 22 30 84 49 50 60
REMARK Flexibility Score: inf
ROOT
ATOM      1  C   UNL A   1      38.926  22.655  26.595  1.00  0.00     0.118 C 
ENDROOT
BRANCH   1   2
ATOM      2  N   UNL A   1      38.525  22.260  25.260  1.00  0.00    -0.349 N 
ATOM      3  C   UNL A   1      37.305  22.330  24.627  1.00  0.00     0.286 C 
ATOM      4  O   UNL A   1      37.307  22.039  23.429  1.00  0.00    -0.266 OA
ATOM      5  H   UNL A   1      39.248  21.876  24.713  1.00  0.00     0.163 HD
BRANCH   3   6
ATOM      6  C   UNL A   1      36.106  22.743  25.335  1.00  0.00     0.191 A 
ATOM      7  C   UNL A   1      34.162  22.321  26.313  1.00  0.00     0.124 A 
ATOM      8  C   UNL A   1      34.352  23.682  26.400  1.00  0.00     0.048 A 
ATOM      9  O   UNL A   1      35.215  21.750  25.665  1.00  0.00    -0.454 OA
ATOM     10  C   UNL A   1      35.614  23.945  25.817  1.00  0.00     0.056 A 
BRANCH   7  11
ATOM     11  C   UNL A   1      33.095  21.398  26.796  1.00  0.00     0.190 C 
BRANCH  11  12
ATOM     12  N   UNL A   1      32.153  21.014  25.755  1.00  0.00    -0.362 N 
ATOM     13  H   UNL A   1      31.356  21.569  25.595  1.00  0.00     0.162 HD
BRANCH  12  14
ATOM     14  C   UNL A   1      32.360  19.881  24.988  1.00  0.00     0.139 A 
ATOM     15  C   UNL A   1      32.979  16.325  25.738  1.00  0.00     0.067 C 
ATOM     16  C   UNL A   1      32.760  17.574  24.939  1.00  0.00     0.040 A 
ATOM     17  C   UNL A   1      32.736  17.541  23.554  1.00  0.00     0.024 A 
ATOM     18  N   UNL A   1      32.594  18.719  25.644  1.00  0.00    -0.236 NA
ATOM     19  C   UNL A   1      32.526  18.734  22.873  1.00  0.00     0.019 A 
ATOM     20  C   UNL A   1      32.344  19.925  23.587  1.00  0.00     0.081 A 
BRANCH  20  21
ATOM     21  C   UNL A   1      32.165  21.164  22.787  1.00  0.00     0.252 C 
ATOM     22  N   UNL A   1      31.770  21.036  21.485  1.00  0.00    -0.365 N 
ATOM     23  O   UNL A   1      32.327  22.271  23.286  1.00  0.00    -0.269 OA
ATOM     24  H   UNL A   1      31.643  20.141  21.095  1.00  0.00     0.159 HD
ATOM     25  H   UNL A   1      31.613  21.838  20.938  1.00  0.00     0.159 HD
ENDBRANCH  20  21
ENDBRANCH  12  14
ENDBRANCH  11  12
ENDBRANCH   7  11
ENDBRANCH   3   6
ENDBRANCH   1   2
BRANCH   1  26
ATOM     26  C   UNL A   1      40.200  21.943  27.041  1.00  0.00     0.042 C 
BRANCH  26  27
ATOM     27  C   UNL A   1      41.338  22.904  27.390  1.00  0.00     0.118 C 
BRANCH  27  28
ATOM     28  N   UNL A   1      41.782  23.667  26.230  1.00  0.00    -0.352 N 
ATOM     29  C   UNL A   1      41.808  25.022  26.013  1.00  0.00     0.251 C 
ATOM     30  H   UNL A   1      42.115  23.123  25.480  1.00  0.00     0.163 HD
ATOM     31  O   UNL A   1      41.997  25.440  24.873  1.00  0.00    -0.269 OA
BRANCH  29  32
ATOM     32  C   UNL A   1      41.609  25.975  27.126  1.00  0.00     0.039 A 
ATOM     33  C   UNL A   1      40.551  25.761  28.016  1.00  0.00     0.014 A 
ATOM     34  C   UNL A   1      42.417  27.107  27.265  1.00  0.00     0.014 A 
ATOM     35  C   UNL A   1      40.340  26.647  29.075  1.00  0.00     0.010 A 
ATOM     36  C   UNL A   1      42.248  27.953  28.360  1.00  0.00     0.010 A 
ATOM     37  C   UNL A   1      41.205  27.734  29.274  1.00  0.00    -0.014 A 
BRANCH  37  38
ATOM     38  C   UNL A   1      41.040  28.650  30.431  1.00  0.00     0.031 A 
ATOM     39  C   UNL A   1      41.898  28.487  31.658  1.00  0.00     0.074 A 
ATOM     40  C   UNL A   1      40.068  29.583  30.404  1.00  0.00     0.049 A 
ATOM     41  N   UNL A   1      41.844  29.133  32.794  1.00  0.00    -0.248 NA
ATOM     42  C   UNL A   1      42.934  27.443  31.609  1.00  0.00     0.031 C 
ATOM     43  C   UNL A   1      39.142  29.807  29.290  1.00  0.00     0.029 A 
ATOM     44  N   UNL A   1      39.685  30.509  31.342  1.00  0.00    -0.354 N 
ATOM     45  C   UNL A   1      42.821  28.562  33.602  1.00  0.00     0.074 A 
ATOM     46  C   UNL A   1      43.423  27.489  32.841  1.00  0.00     0.031 C 
ATOM     47  C   UNL A   1      38.310  30.812  29.605  1.00  0.00     0.029 A 
ATOM     48  C   UNL A   1      38.616  31.281  30.953  1.00  0.00     0.049 A 
ATOM     49  H   UNL A   1      40.135  30.610  32.213  1.00  0.00     0.167 HD
ATOM     50  C   UNL A   1      43.195  28.914  34.856  1.00  0.00     0.037 A 
ATOM     51  C   UNL A   1      37.949  32.249  31.611  1.00  0.00     0.037 A 
ATOM     52  C   UNL A   1      42.611  30.004  35.594  1.00  0.00     0.049 A 
ATOM     53  C   UNL A   1      38.390  32.628  32.998  1.00  0.00     0.074 A 
ATOM     54  C   UNL A   1      42.966  30.485  36.843  1.00  0.00     0.029 A 
ATOM     55  N   UNL A   1      41.549  30.782  35.154  1.00  0.00    -0.354 N 
ATOM     56  N   UNL A   1      39.361  32.122  33.721  1.00  0.00    -0.248 NA
ATOM     57  C   UNL A   1      37.649  33.712  33.658  1.00  0.00     0.031 C 
ATOM     58  C   UNL A   1      42.092  31.525  37.176  1.00  0.00     0.029 A 
ATOM     59  C   UNL A   1      41.223  31.726  36.114  1.00  0.00     0.049 A 
ATOM     60  H   UNL A   1      41.096  30.679  34.286  1.00  0.00     0.167 HD
ATOM     61  C   UNL A   1      39.366  32.844  34.909  1.00  0.00     0.074 A 
ATOM     62  C   UNL A   1      38.308  33.829  34.803  1.00  0.00     0.031 C 
ATOM     63  C   UNL A   1      40.173  32.705  35.990  1.00  0.00     0.037 A 
BRANCH  50  64
ATOM     64  C   UNL A   1      44.287  28.114  35.512  1.00  0.00     0.058 A 
ATOM     65  C   UNL A   1      45.637  28.483  35.407  1.00  0.00     0.135 A 
ATOM     66  C   UNL A   1      43.978  26.987  36.292  1.00  0.00     0.135 A 
ATOM     67  F   UNL A   1      45.992  29.544  34.664  1.00  0.00    -0.206 F 
ATOM     68  C   UNL A   1      46.644  27.749  36.025  1.00  0.00     0.059 A 
ATOM     69  C   UNL A   1      44.966  26.253  36.942  1.00  0.00     0.059 A 
ATOM     70  F   UNL A   1      42.703  26.588  36.427  1.00  0.00    -0.206 F 
ATOM     71  C   UNL A   1      46.298  26.634  36.791  1.00  0.00     0.060 A 
BRANCH  71  72
ATOM     72  S   UNL A   1      47.616  25.696  37.593  1.00  0.00     0.124 S 
ATOM     73  O   UNL A   1      47.269  25.856  39.002  1.00  0.00    -0.237 OA
ATOM     74  O   UNL A   1      47.428  24.358  37.043  1.00  0.00    -0.237 OA
ATOM     75  O   UNL A   1      48.830  26.383  37.166  1.00  0.00    -0.744 OA
ENDBRANCH  71  72
ENDBRANCH  50  64
BRANCH  51  76
ATOM     76  C   UNL A   1      36.805  32.939  30.957  1.00  0.00     0.058 A 
ATOM     77  C   UNL A   1      37.020  33.938  29.996  1.00  0.00     0.135 A 
ATOM     78  C   UNL A   1      35.478  32.606  31.270  1.00  0.00     0.135 A 
ATOM     79  F   UNL A   1      38.271  34.294  29.667  1.00  0.00    -0.206 F 
ATOM     80  C   UNL A   1      35.962  34.595  29.379  1.00  0.00     0.059 A 
ATOM     81  C   UNL A   1      34.402  33.232  30.648  1.00  0.00     0.059 A 
ATOM     82  F   UNL A   1      35.219  31.645  32.169  1.00  0.00    -0.206 F 
ATOM     83  C   UNL A   1      34.654  34.234  29.711  1.00  0.00     0.060 A 
BRANCH  83  84
ATOM     84  S   UNL A   1      33.287  35.061  28.871  1.00  0.00     0.124 S 
ATOM     85  O   UNL A   1      32.785  33.998  28.008  1.00  0.00    -0.237 OA
ATOM     86  O   UNL A   1      32.425  35.439  29.987  1.00  0.00    -0.237 OA
ATOM     87  O   UNL A   1      33.939  36.175  28.189  1.00  0.00    -0.744 OA
ENDBRANCH  83  84
ENDBRANCH  51  76
BRANCH  63  88
ATOM     88  C   UNL A   1      39.970  33.660  37.132  1.00  0.00     0.058 A 
ATOM     89  C   UNL A   1      39.138  33.347  38.218  1.00  0.00     0.135 A 
ATOM     90  C   UNL A   1      40.658  34.884  37.165  1.00  0.00     0.135 A 
ATOM     91  F   UNL A   1      38.452  32.192  38.232  1.00  0.00    -0.206 F 
ATOM     92  C   UNL A   1      38.978  34.222  39.287  1.00  0.00     0.059 A 
ATOM     93  C   UNL A   1      40.535  35.762  38.237  1.00  0.00     0.059 A 
ATOM     94  F   UNL A   1      41.475  35.228  36.156  1.00  0.00    -0.206 F 
ATOM     95  C   UNL A   1      39.682  35.427  39.288  1.00  0.00     0.060 A 
BRANCH  95  96
ATOM     96  S   UNL A   1      39.495  36.539  40.698  1.00  0.00     0.124 S 
ATOM     97  O   UNL A   1      38.130  36.245  41.125  1.00  0.00    -0.237 OA
ATOM     98  O   UNL A   1      40.552  36.088  41.596  1.00  0.00    -0.237 OA
ATOM     99  O   UNL A   1      39.698  37.863  40.116  1.00  0.00    -0.744 OA
ENDBRANCH  95  96
ENDBRANCH  63  88
ENDBRANCH  37  38
ENDBRANCH  29  32
ENDBRANCH  27  28
ENDBRANCH  26  27
ENDBRANCH   1  26
TORSDOF 17
ENDMDL
