MODEL 1
REMARK VINA RESULT:     -10.9      0.000      0.000
REMARK SMILES CC(C)[C@@H](CO)NC(=O)CC(C)(C)CC(=O)NCCCNC(=O)c1ccc(-c2c3nc(c(-c4c(F)cc(S(=O)(=O)[O-])cc4F)c4ccc([nH]4)c(-c4c(F)cc(S(=O)(=O)[O-])cc4F)c4nc(c(-c5c(F)cc(S(=O)(=O)[O-])cc5F)c5ccc2[nH]5)C=C4)C=C3)cc1
REMARK SMILES IDX 15 1 16 2 17 3 14 5 11 6 12 7 13 8 10 9 8 10 7 11 9 13 4 14
REMARK SMILES IDX 2 15 1 16 3 17 5 18 6 19 18 21 19 22 20 23 21 24 22 25 23 27
REMARK SMILES IDX 24 28 25 29 89 30 26 31 88 32 27 33 28 34 29 35 82 36 30 37
REMARK SMILES IDX 87 38 81 39 83 40 31 41 86 42 80 43 79 44 32 46 66 47 45 48
REMARK SMILES IDX 65 49 46 50 49 51 64 52 84 53 47 54 48 55 63 57 85 58 50 59
REMARK SMILES IDX 33 60 34 61 43 62 35 63 36 64 42 65 44 66 37 67 38 68 39 69
REMARK SMILES IDX 40 70 41 71 67 72 68 73 77 74 69 75 70 76 76 77 78 78 71 79
REMARK SMILES IDX 72 80 73 81 74 82 75 83 51 84 52 85 61 86 53 87 54 88 60 89
REMARK SMILES IDX 62 90 55 91 56 92 57 93 58 94 59 95
REMARK H PARENT 17 4 7 12 6 20 21 26 83 45 49 56
REMARK Flexibility Score: inf
ROOT
ATOM      1  C   UNL A   1      36.322  22.986  23.974  1.00  0.00     0.220 C 
ATOM      2  O   UNL A   1      36.301  22.980  22.744  1.00  0.00    -0.275 OA
ATOM      3  N   UNL A   1      37.473  23.374  24.590  1.00  0.00    -0.356 N 
ATOM      4  H   UNL A   1      38.176  23.684  23.975  1.00  0.00     0.163 HD
ENDROOT
BRANCH   1   5
ATOM      5  C   UNL A   1      35.107  22.610  24.795  1.00  0.00     0.107 C 
BRANCH   5   6
ATOM      6  C   UNL A   1      33.989  23.676  24.924  1.00  0.00    -0.018 C 
ATOM      7  C   UNL A   1      32.800  23.170  24.091  1.00  0.00     0.012 C 
ATOM      8  C   UNL A   1      34.355  25.025  24.281  1.00  0.00     0.012 C 
BRANCH   6   9
ATOM      9  C   UNL A   1      33.621  24.000  26.399  1.00  0.00     0.107 C 
BRANCH   9  10
ATOM     10  C   UNL A   1      32.165  24.026  26.836  1.00  0.00     0.220 C 
ATOM     11  N   UNL A   1      31.438  25.173  26.760  1.00  0.00    -0.351 N 
ATOM     12  H   UNL A   1      30.563  25.139  27.208  1.00  0.00     0.163 HD
ATOM     13  O   UNL A   1      31.619  23.034  27.319  1.00  0.00    -0.275 OA
BRANCH  11  14
ATOM     14  C   UNL A   1      31.749  26.443  26.119  1.00  0.00     0.110 C 
BRANCH  14  15
ATOM     15  C   UNL A   1      30.600  26.875  25.159  1.00  0.00     0.007 C 
ATOM     16  C   UNL A   1      31.082  27.988  24.221  1.00  0.00     0.009 C 
ATOM     17  C   UNL A   1      29.995  25.740  24.312  1.00  0.00     0.009 C 
ENDBRANCH  14  15
BRANCH  14  18
ATOM     18  C   UNL A   1      32.094  27.512  27.179  1.00  0.00     0.181 C 
BRANCH  18  19
ATOM     19  O   UNL A   1      30.985  27.802  28.025  1.00  0.00    -0.394 OA
ATOM     20  H   UNL A   1      30.444  28.498  27.622  1.00  0.00     0.210 HD
ENDBRANCH  18  19
ENDBRANCH  14  18
ENDBRANCH  11  14
ENDBRANCH   9  10
ENDBRANCH   6   9
ENDBRANCH   5   6
ENDBRANCH   1   5
BRANCH   3  21
ATOM     21  C   UNL A   1      37.846  23.412  25.996  1.00  0.00     0.117 C 
BRANCH  21  22
ATOM     22  C   UNL A   1      39.044  22.517  26.303  1.00  0.00     0.042 C 
BRANCH  22  23
ATOM     23  C   UNL A   1      40.164  23.216  27.058  1.00  0.00     0.118 C 
BRANCH  23  24
ATOM     24  N   UNL A   1      41.130  23.798  26.148  1.00  0.00    -0.352 N 
ATOM     25  C   UNL A   1      41.550  25.101  26.050  1.00  0.00     0.251 C 
ATOM     26  H   UNL A   1      41.543  23.170  25.511  1.00  0.00     0.163 HD
ATOM     27  O   UNL A   1      42.135  25.463  25.029  1.00  0.00    -0.269 OA
BRANCH  25  28
ATOM     28  C   UNL A   1      41.300  26.073  27.143  1.00  0.00     0.039 A 
ATOM     29  C   UNL A   1      42.154  27.173  27.275  1.00  0.00     0.014 A 
ATOM     30  C   UNL A   1      40.281  25.879  28.082  1.00  0.00     0.014 A 
ATOM     31  C   UNL A   1      41.974  28.079  28.326  1.00  0.00     0.010 A 
ATOM     32  C   UNL A   1      40.045  26.832  29.073  1.00  0.00     0.010 A 
ATOM     33  C   UNL A   1      40.910  27.924  29.230  1.00  0.00    -0.014 A 
BRANCH  33  34
ATOM     34  C   UNL A   1      40.729  28.852  30.378  1.00  0.00     0.031 A 
ATOM     35  C   UNL A   1      41.575  28.688  31.618  1.00  0.00     0.074 A 
ATOM     36  C   UNL A   1      39.780  29.808  30.333  1.00  0.00     0.049 A 
ATOM     37  N   UNL A   1      41.527  29.352  32.746  1.00  0.00    -0.248 NA
ATOM     38  C   UNL A   1      42.587  27.618  31.602  1.00  0.00     0.031 C 
ATOM     39  C   UNL A   1      38.855  30.033  29.220  1.00  0.00     0.029 A 
ATOM     40  N   UNL A   1      39.426  30.764  31.255  1.00  0.00    -0.354 N 
ATOM     41  C   UNL A   1      42.470  28.758  33.577  1.00  0.00     0.074 A 
ATOM     42  C   UNL A   1      43.051  27.658  32.843  1.00  0.00     0.031 C 
ATOM     43  C   UNL A   1      38.048  31.065  29.520  1.00  0.00     0.029 A 
ATOM     44  C   UNL A   1      38.377  31.558  30.854  1.00  0.00     0.049 A 
ATOM     45  H   UNL A   1      39.880  30.869  32.121  1.00  0.00     0.167 HD
ATOM     46  C   UNL A   1      42.838  29.113  34.832  1.00  0.00     0.037 A 
ATOM     47  C   UNL A   1      37.746  32.565  31.491  1.00  0.00     0.037 A 
ATOM     48  C   UNL A   1      42.310  30.252  35.535  1.00  0.00     0.049 A 
ATOM     49  C   UNL A   1      38.218  32.978  32.860  1.00  0.00     0.074 A 
ATOM     50  C   UNL A   1      42.695  30.755  36.765  1.00  0.00     0.029 A 
ATOM     51  N   UNL A   1      41.292  31.069  35.068  1.00  0.00    -0.354 N 
ATOM     52  N   UNL A   1      39.172  32.458  33.594  1.00  0.00    -0.248 NA
ATOM     53  C   UNL A   1      37.536  34.122  33.483  1.00  0.00     0.031 C 
ATOM     54  C   UNL A   1      41.883  31.855  37.060  1.00  0.00     0.029 A 
ATOM     55  C   UNL A   1      41.023  32.061  35.995  1.00  0.00     0.049 A 
ATOM     56  H   UNL A   1      40.829  30.958  34.207  1.00  0.00     0.167 HD
ATOM     57  C   UNL A   1      39.220  33.224  34.754  1.00  0.00     0.074 A 
ATOM     58  C   UNL A   1      38.210  34.254  34.617  1.00  0.00     0.031 C 
ATOM     59  C   UNL A   1      40.024  33.087  35.835  1.00  0.00     0.037 A 
BRANCH  46  60
ATOM     60  C   UNL A   1      43.876  28.277  35.529  1.00  0.00     0.058 A 
ATOM     61  C   UNL A   1      43.521  27.205  36.363  1.00  0.00     0.135 A 
ATOM     62  C   UNL A   1      45.242  28.506  35.301  1.00  0.00     0.135 A 
ATOM     63  F   UNL A   1      42.230  26.952  36.628  1.00  0.00    -0.206 F 
ATOM     64  C   UNL A   1      44.486  26.395  36.953  1.00  0.00     0.059 A 
ATOM     65  C   UNL A   1      46.223  27.693  35.862  1.00  0.00     0.059 A 
ATOM     66  F   UNL A   1      45.634  29.521  34.514  1.00  0.00    -0.206 F 
ATOM     67  C   UNL A   1      45.834  26.644  36.693  1.00  0.00     0.060 A 
BRANCH  67  68
ATOM     68  S   UNL A   1      47.073  25.557  37.431  1.00  0.00     0.124 S 
ATOM     69  O   UNL A   1      46.279  24.366  37.719  1.00  0.00    -0.237 OA
ATOM     70  O   UNL A   1      48.048  25.418  36.352  1.00  0.00    -0.237 OA
ATOM     71  O   UNL A   1      47.532  26.303  38.594  1.00  0.00    -0.744 OA
ENDBRANCH  67  68
ENDBRANCH  46  60
BRANCH  47  72
ATOM     72  C   UNL A   1      36.605  33.261  30.841  1.00  0.00     0.058 A 
ATOM     73  C   UNL A   1      36.808  34.160  29.783  1.00  0.00     0.135 A 
ATOM     74  C   UNL A   1      35.287  33.053  31.276  1.00  0.00     0.135 A 
ATOM     75  F   UNL A   1      38.051  34.396  29.335  1.00  0.00    -0.206 F 
ATOM     76  C   UNL A   1      35.751  34.847  29.196  1.00  0.00     0.059 A 
ATOM     77  C   UNL A   1      34.210  33.709  30.688  1.00  0.00     0.059 A 
ATOM     78  F   UNL A   1      35.035  32.189  32.272  1.00  0.00    -0.206 F 
ATOM     79  C   UNL A   1      34.455  34.617  29.659  1.00  0.00     0.060 A 
BRANCH  79  80
ATOM     80  S   UNL A   1      33.081  35.490  28.874  1.00  0.00     0.124 S 
ATOM     81  O   UNL A   1      32.449  34.417  28.116  1.00  0.00    -0.237 OA
ATOM     82  O   UNL A   1      32.332  35.987  30.025  1.00  0.00    -0.237 OA
ATOM     83  O   UNL A   1      33.748  36.518  28.083  1.00  0.00    -0.744 OA
ENDBRANCH  79  80
ENDBRANCH  47  72
BRANCH  59  84
ATOM     84  C   UNL A   1      39.874  34.091  36.944  1.00  0.00     0.058 A 
ATOM     85  C   UNL A   1      40.563  35.313  36.924  1.00  0.00     0.135 A 
ATOM     86  C   UNL A   1      38.991  33.848  38.008  1.00  0.00     0.135 A 
ATOM     87  F   UNL A   1      41.422  35.589  35.931  1.00  0.00    -0.206 F 
ATOM     88  C   UNL A   1      40.398  36.253  37.936  1.00  0.00     0.059 A 
ATOM     89  C   UNL A   1      38.791  34.785  39.016  1.00  0.00     0.059 A 
ATOM     90  F   UNL A   1      38.300  32.699  38.064  1.00  0.00    -0.206 F 
ATOM     91  C   UNL A   1      39.509  35.980  38.978  1.00  0.00     0.060 A 
BRANCH  91  92
ATOM     92  S   UNL A   1      39.279  37.220  40.269  1.00  0.00     0.124 S 
ATOM     93  O   UNL A   1      38.523  38.246  39.560  1.00  0.00    -0.237 OA
ATOM     94  O   UNL A   1      38.543  36.480  41.290  1.00  0.00    -0.237 OA
ATOM     95  O   UNL A   1      40.645  37.586  40.634  1.00  0.00    -0.744 OA
ENDBRANCH  91  92
ENDBRANCH  59  84
ENDBRANCH  33  34
ENDBRANCH  25  28
ENDBRANCH  23  24
ENDBRANCH  22  23
ENDBRANCH  21  22
ENDBRANCH   3  21
TORSDOF 20
ENDMDL
MODEL 2
REMARK VINA RESULT:     -10.7      1.175      1.983
REMARK SMILES CC(C)[C@@H](CO)NC(=O)CC(C)(C)CC(=O)NCCCNC(=O)c1ccc(-c2c3nc(c(-c4c(F)cc(S(=O)(=O)[O-])cc4F)c4ccc([nH]4)c(-c4c(F)cc(S(=O)(=O)[O-])cc4F)c4nc(c(-c5c(F)cc(S(=O)(=O)[O-])cc5F)c5ccc2[nH]5)C=C4)C=C3)cc1
REMARK SMILES IDX 15 1 16 2 17 3 14 5 11 6 12 7 13 8 10 9 8 10 7 11 9 13 4 14
REMARK SMILES IDX 2 15 1 16 3 17 5 18 6 19 18 21 19 22 20 23 21 24 22 25 23 27
REMARK SMILES IDX 24 28 25 29 89 30 26 31 88 32 27 33 28 34 29 35 82 36 30 37
REMARK SMILES IDX 87 38 81 39 83 40 31 41 86 42 80 43 79 44 32 46 66 47 45 48
REMARK SMILES IDX 65 49 46 50 49 51 64 52 84 53 47 54 48 55 63 57 85 58 50 59
REMARK SMILES IDX 33 60 34 61 43 62 35 63 36 64 42 65 44 66 37 67 38 68 39 69
REMARK SMILES IDX 40 70 41 71 67 72 68 73 77 74 69 75 70 76 76 77 78 78 71 79
REMARK SMILES IDX 72 80 73 81 74 82 75 83 51 84 52 85 61 86 53 87 54 88 60 89
REMARK SMILES IDX 62 90 55 91 56 92 57 93 58 94 59 95
REMARK H PARENT 17 4 7 12 6 20 21 26 83 45 49 56
REMARK Flexibility Score: inf
ROOT
ATOM      1  C   UNL A   1      36.417  21.013  24.898  1.00  0.00     0.220 C 
ATOM      2  O   UNL A   1      35.812  19.947  24.996  1.00  0.00    -0.275 OA
ATOM      3  N   UNL A   1      37.618  21.124  25.531  1.00  0.00    -0.356 N 
ATOM      4  H   UNL A   1      37.925  20.295  25.964  1.00  0.00     0.163 HD
ENDROOT
BRANCH   1   5
ATOM      5  C   UNL A   1      35.879  22.165  24.078  1.00  0.00     0.107 C 
BRANCH   5   6
ATOM      6  C   UNL A   1      34.823  23.076  24.755  1.00  0.00    -0.018 C 
ATOM      7  C   UNL A   1      34.172  23.903  23.634  1.00  0.00     0.012 C 
ATOM      8  C   UNL A   1      35.437  24.128  25.694  1.00  0.00     0.012 C 
BRANCH   6   9
ATOM      9  C   UNL A   1      33.800  22.288  25.619  1.00  0.00     0.107 C 
BRANCH   9  10
ATOM     10  C   UNL A   1      32.477  21.838  25.019  1.00  0.00     0.220 C 
ATOM     11  N   UNL A   1      31.299  22.317  25.500  1.00  0.00    -0.351 N 
ATOM     12  H   UNL A   1      30.497  21.856  25.164  1.00  0.00     0.163 HD
ATOM     13  O   UNL A   1      32.429  20.994  24.125  1.00  0.00    -0.275 OA
BRANCH  11  14
ATOM     14  C   UNL A   1      31.035  23.403  26.433  1.00  0.00     0.110 C 
BRANCH  14  15
ATOM     15  C   UNL A   1      31.108  24.783  25.711  1.00  0.00     0.007 C 
ATOM     16  C   UNL A   1      29.751  25.493  25.786  1.00  0.00     0.009 C 
ATOM     17  C   UNL A   1      32.197  25.737  26.233  1.00  0.00     0.009 C 
ENDBRANCH  14  15
BRANCH  14  18
ATOM     18  C   UNL A   1      29.699  23.170  27.171  1.00  0.00     0.181 C 
BRANCH  18  19
ATOM     19  O   UNL A   1      29.113  21.917  26.830  1.00  0.00    -0.394 OA
ATOM     20  H   UNL A   1      29.763  21.210  26.963  1.00  0.00     0.210 HD
ENDBRANCH  18  19
ENDBRANCH  14  18
ENDBRANCH  11  14
ENDBRANCH   9  10
ENDBRANCH   6   9
ENDBRANCH   5   6
ENDBRANCH   1   5
BRANCH   3  21
ATOM     21  C   UNL A   1      38.526  22.251  25.681  1.00  0.00     0.117 C 
BRANCH  21  22
ATOM     22  C   UNL A   1      39.656  21.960  26.666  1.00  0.00     0.042 C 
BRANCH  22  23
ATOM     23  C   UNL A   1      40.331  23.204  27.221  1.00  0.00     0.118 C 
BRANCH  23  24
ATOM     24  N   UNL A   1      41.092  23.893  26.199  1.00  0.00    -0.352 N 
ATOM     25  C   UNL A   1      41.403  25.227  26.102  1.00  0.00     0.251 C 
ATOM     26  H   UNL A   1      41.433  23.325  25.470  1.00  0.00     0.163 HD
ATOM     27  O   UNL A   1      41.784  25.672  25.020  1.00  0.00    -0.269 OA
BRANCH  25  28
ATOM     28  C   UNL A   1      41.274  26.131  27.272  1.00  0.00     0.039 A 
ATOM     29  C   UNL A   1      40.253  25.894  28.197  1.00  0.00     0.014 A 
ATOM     30  C   UNL A   1      42.097  27.251  27.431  1.00  0.00     0.014 A 
ATOM     31  C   UNL A   1      40.074  26.759  29.283  1.00  0.00     0.010 A 
ATOM     32  C   UNL A   1      41.977  28.059  28.562  1.00  0.00     0.010 A 
ATOM     33  C   UNL A   1      40.943  27.844  29.483  1.00  0.00    -0.014 A 
BRANCH  33  34
ATOM     34  C   UNL A   1      40.742  28.799  30.605  1.00  0.00     0.031 A 
ATOM     35  C   UNL A   1      41.564  28.664  31.864  1.00  0.00     0.074 A 
ATOM     36  C   UNL A   1      39.794  29.755  30.521  1.00  0.00     0.049 A 
ATOM     37  N   UNL A   1      41.496  29.354  32.975  1.00  0.00    -0.248 NA
ATOM     38  C   UNL A   1      42.576  27.594  31.891  1.00  0.00     0.031 C 
ATOM     39  C   UNL A   1      38.889  29.953  29.386  1.00  0.00     0.029 A 
ATOM     40  N   UNL A   1      39.423  30.731  31.413  1.00  0.00    -0.354 N 
ATOM     41  C   UNL A   1      42.424  28.779  33.837  1.00  0.00     0.074 A 
ATOM     42  C   UNL A   1      43.016  27.662  33.140  1.00  0.00     0.031 C 
ATOM     43  C   UNL A   1      38.078  30.993  29.647  1.00  0.00     0.029 A 
ATOM     44  C   UNL A   1      38.383  31.517  30.975  1.00  0.00     0.049 A 
ATOM     45  H   UNL A   1      39.862  30.857  32.285  1.00  0.00     0.167 HD
ATOM     46  C   UNL A   1      42.768  29.163  35.090  1.00  0.00     0.037 A 
ATOM     47  C   UNL A   1      37.742  32.538  31.577  1.00  0.00     0.037 A 
ATOM     48  C   UNL A   1      42.229  30.319  35.756  1.00  0.00     0.049 A 
ATOM     49  C   UNL A   1      38.188  32.983  32.943  1.00  0.00     0.074 A 
ATOM     50  C   UNL A   1      42.591  30.850  36.981  1.00  0.00     0.029 A 
ATOM     51  N   UNL A   1      41.220  31.125  35.251  1.00  0.00    -0.354 N 
ATOM     52  N   UNL A   1      39.129  32.480  33.707  1.00  0.00    -0.248 NA
ATOM     53  C   UNL A   1      37.496  34.141  33.527  1.00  0.00     0.031 C 
ATOM     54  C   UNL A   1      41.775  31.957  37.235  1.00  0.00     0.029 A 
ATOM     55  C   UNL A   1      40.935  32.139  36.150  1.00  0.00     0.049 A 
ATOM     56  H   UNL A   1      40.773  30.994  34.385  1.00  0.00     0.167 HD
ATOM     57  C   UNL A   1      39.156  33.273  34.849  1.00  0.00     0.074 A 
ATOM     58  C   UNL A   1      38.149  34.299  34.670  1.00  0.00     0.031 C 
ATOM     59  C   UNL A   1      39.940  33.161  35.948  1.00  0.00     0.037 A 
BRANCH  46  60
ATOM     60  C   UNL A   1      43.793  28.344  35.825  1.00  0.00     0.058 A 
ATOM     61  C   UNL A   1      45.165  28.624  35.734  1.00  0.00     0.135 A 
ATOM     62  C   UNL A   1      43.390  27.315  36.692  1.00  0.00     0.135 A 
ATOM     63  F   UNL A   1      45.606  29.587  34.909  1.00  0.00    -0.206 F 
ATOM     64  C   UNL A   1      46.103  27.905  36.468  1.00  0.00     0.059 A 
ATOM     65  C   UNL A   1      44.309  26.599  37.453  1.00  0.00     0.059 A 
ATOM     66  F   UNL A   1      42.089  27.005  36.813  1.00  0.00    -0.206 F 
ATOM     67  C   UNL A   1      45.665  26.897  37.328  1.00  0.00     0.060 A 
BRANCH  67  68
ATOM     68  S   UNL A   1      46.891  26.002  38.307  1.00  0.00     0.124 S 
ATOM     69  O   UNL A   1      46.434  26.277  39.666  1.00  0.00    -0.237 OA
ATOM     70  O   UNL A   1      46.711  24.626  37.848  1.00  0.00    -0.237 OA
ATOM     71  O   UNL A   1      48.151  26.626  37.929  1.00  0.00    -0.744 OA
ENDBRANCH  67  68
ENDBRANCH  46  60
BRANCH  47  72
ATOM     72  C   UNL A   1      36.613  33.219  30.890  1.00  0.00     0.058 A 
ATOM     73  C   UNL A   1      36.835  34.085  29.808  1.00  0.00     0.135 A 
ATOM     74  C   UNL A   1      35.288  33.030  31.312  1.00  0.00     0.135 A 
ATOM     75  F   UNL A   1      38.086  34.302  29.371  1.00  0.00    -0.206 F 
ATOM     76  C   UNL A   1      35.790  34.759  29.185  1.00  0.00     0.059 A 
ATOM     77  C   UNL A   1      34.223  33.672  30.689  1.00  0.00     0.059 A 
ATOM     78  F   UNL A   1      35.018  32.198  32.329  1.00  0.00    -0.206 F 
ATOM     79  C   UNL A   1      34.486  34.549  29.636  1.00  0.00     0.060 A 
BRANCH  79  80
ATOM     80  S   UNL A   1      33.128  35.403  28.806  1.00  0.00     0.124 S 
ATOM     81  O   UNL A   1      32.529  34.320  28.036  1.00  0.00    -0.237 OA
ATOM     82  O   UNL A   1      32.340  35.899  29.931  1.00  0.00    -0.237 OA
ATOM     83  O   UNL A   1      33.808  36.433  28.029  1.00  0.00    -0.744 OA
ENDBRANCH  79  80
ENDBRANCH  47  72
BRANCH  59  84
ATOM     84  C   UNL A   1      39.770  34.190  37.030  1.00  0.00     0.058 A 
ATOM     85  C   UNL A   1      38.998  33.933  38.173  1.00  0.00     0.135 A 
ATOM     86  C   UNL A   1      40.432  35.426  36.945  1.00  0.00     0.135 A 
ATOM     87  F   UNL A   1      38.343  32.769  38.298  1.00  0.00    -0.206 F 
ATOM     88  C   UNL A   1      38.869  34.877  39.187  1.00  0.00     0.059 A 
ATOM     89  C   UNL A   1      40.337  36.373  37.959  1.00  0.00     0.059 A 
ATOM     90  F   UNL A   1      41.192  35.714  35.877  1.00  0.00    -0.206 F 
ATOM     91  C   UNL A   1      39.543  36.094  39.071  1.00  0.00     0.060 A 
BRANCH  91  92
ATOM     92  S   UNL A   1      39.394  37.299  40.406  1.00  0.00     0.124 S 
ATOM     93  O   UNL A   1      38.538  38.310  39.796  1.00  0.00    -0.237 OA
ATOM     94  O   UNL A   1      38.783  36.512  41.474  1.00  0.00    -0.237 OA
ATOM     95  O   UNL A   1      40.774  37.707  40.650  1.00  0.00    -0.744 OA
ENDBRANCH  91  92
ENDBRANCH  59  84
ENDBRANCH  33  34
ENDBRANCH  25  28
ENDBRANCH  23  24
ENDBRANCH  22  23
ENDBRANCH  21  22
ENDBRANCH   3  21
TORSDOF 20
ENDMDL
MODEL 3
REMARK VINA RESULT:     -10.6      5.215     10.147
REMARK SMILES CC(C)[C@@H](CO)NC(=O)CC(C)(C)CC(=O)NCCCNC(=O)c1ccc(-c2c3nc(c(-c4c(F)cc(S(=O)(=O)[O-])cc4F)c4ccc([nH]4)c(-c4c(F)cc(S(=O)(=O)[O-])cc4F)c4nc(c(-c5c(F)cc(S(=O)(=O)[O-])cc5F)c5ccc2[nH]5)C=C4)C=C3)cc1
REMARK SMILES IDX 15 1 16 2 17 3 14 5 11 6 12 7 13 8 10 9 8 10 7 11 9 13 4 14
REMARK SMILES IDX 2 15 1 16 3 17 5 18 6 19 18 21 19 22 20 23 21 24 22 25 23 27
REMARK SMILES IDX 24 28 25 29 89 30 26 31 88 32 27 33 28 34 29 35 82 36 30 37
REMARK SMILES IDX 87 38 81 39 83 40 31 41 86 42 80 43 79 44 32 46 66 47 45 48
REMARK SMILES IDX 65 49 46 50 49 51 64 52 84 53 47 54 48 55 63 57 85 58 50 59
REMARK SMILES IDX 33 60 34 61 43 62 35 63 36 64 42 65 44 66 37 67 38 68 39 69
REMARK SMILES IDX 40 70 41 71 67 72 68 73 77 74 69 75 70 76 76 77 78 78 71 79
REMARK SMILES IDX 72 80 73 81 74 82 75 83 51 84 52 85 61 86 53 87 54 88 60 89
REMARK SMILES IDX 62 90 55 91 56 92 57 93 58 94 59 95
REMARK H PARENT 17 4 7 12 6 20 21 26 83 45 49 56
REMARK Flexibility Score: inf
ROOT
ATOM      1  C   UNL A   1      31.338  26.347  25.989  1.00  0.00     0.220 C 
ATOM      2  O   UNL A   1      30.664  25.731  26.812  1.00  0.00    -0.275 OA
ATOM      3  N   UNL A   1      32.687  26.155  25.997  1.00  0.00    -0.356 N 
ATOM      4  H   UNL A   1      32.994  25.472  26.636  1.00  0.00     0.163 HD
ENDROOT
BRANCH   1   5
ATOM      5  C   UNL A   1      30.706  27.269  24.969  1.00  0.00     0.107 C 
BRANCH   5   6
ATOM      6  C   UNL A   1      30.175  26.618  23.667  1.00  0.00    -0.018 C 
ATOM      7  C   UNL A   1      28.682  26.331  23.896  1.00  0.00     0.012 C 
ATOM      8  C   UNL A   1      30.786  25.236  23.382  1.00  0.00     0.012 C 
BRANCH   6   9
ATOM      9  C   UNL A   1      30.455  27.471  22.398  1.00  0.00     0.107 C 
BRANCH   9  10
ATOM     10  C   UNL A   1      31.032  28.872  22.530  1.00  0.00     0.220 C 
ATOM     11  N   UNL A   1      30.283  29.963  22.219  1.00  0.00    -0.351 N 
ATOM     12  H   UNL A   1      30.782  30.810  22.180  1.00  0.00     0.163 HD
ATOM     13  O   UNL A   1      32.201  29.058  22.867  1.00  0.00    -0.275 OA
BRANCH  11  14
ATOM     14  C   UNL A   1      28.859  30.076  21.934  1.00  0.00     0.110 C 
BRANCH  14  15
ATOM     15  C   UNL A   1      28.020  29.938  23.241  1.00  0.00     0.007 C 
ATOM     16  C   UNL A   1      27.477  31.307  23.668  1.00  0.00     0.009 C 
ATOM     17  C   UNL A   1      26.850  28.941  23.164  1.00  0.00     0.009 C 
ENDBRANCH  14  15
BRANCH  14  18
ATOM     18  C   UNL A   1      28.566  31.377  21.153  1.00  0.00     0.181 C 
BRANCH  18  19
ATOM     19  O   UNL A   1      27.570  31.185  20.153  1.00  0.00    -0.394 OA
ATOM     20  H   UNL A   1      26.982  31.957  20.131  1.00  0.00     0.210 HD
ENDBRANCH  18  19
ENDBRANCH  14  18
ENDBRANCH  11  14
ENDBRANCH   9  10
ENDBRANCH   6   9
ENDBRANCH   5   6
ENDBRANCH   1   5
BRANCH   3  21
ATOM     21  C   UNL A   1      33.753  26.780  25.228  1.00  0.00     0.117 C 
BRANCH  21  22
ATOM     22  C   UNL A   1      34.107  28.170  25.751  1.00  0.00     0.042 C 
BRANCH  22  23
ATOM     23  C   UNL A   1      33.929  28.331  27.253  1.00  0.00     0.118 C 
BRANCH  23  24
ATOM     24  N   UNL A   1      33.804  29.727  27.623  1.00  0.00    -0.352 N 
ATOM     25  C   UNL A   1      34.697  30.529  28.289  1.00  0.00     0.251 C 
ATOM     26  H   UNL A   1      32.960  30.161  27.359  1.00  0.00     0.163 HD
ATOM     27  O   UNL A   1      34.298  31.584  28.781  1.00  0.00    -0.269 OA
BRANCH  25  28
ATOM     28  C   UNL A   1      36.122  30.137  28.434  1.00  0.00     0.039 A 
ATOM     29  C   UNL A   1      36.582  29.721  29.687  1.00  0.00     0.014 A 
ATOM     30  C   UNL A   1      37.025  30.242  27.372  1.00  0.00     0.014 A 
ATOM     31  C   UNL A   1      37.930  29.394  29.867  1.00  0.00     0.010 A 
ATOM     32  C   UNL A   1      38.348  29.827  27.528  1.00  0.00     0.010 A 
ATOM     33  C   UNL A   1      38.826  29.433  28.785  1.00  0.00    -0.014 A 
BRANCH  33  34
ATOM     34  C   UNL A   1      40.271  29.131  28.966  1.00  0.00     0.031 A 
ATOM     35  C   UNL A   1      40.814  27.781  28.563  1.00  0.00     0.074 A 
ATOM     36  C   UNL A   1      41.087  30.041  29.534  1.00  0.00     0.049 A 
ATOM     37  N   UNL A   1      42.025  27.302  28.698  1.00  0.00    -0.248 NA
ATOM     38  C   UNL A   1      39.865  26.831  27.957  1.00  0.00     0.031 C 
ATOM     39  C   UNL A   1      40.677  31.359  30.025  1.00  0.00     0.029 A 
ATOM     40  N   UNL A   1      42.433  29.992  29.807  1.00  0.00    -0.354 N 
ATOM     41  C   UNL A   1      41.972  25.994  28.230  1.00  0.00     0.074 A 
ATOM     42  C   UNL A   1      40.604  25.737  27.842  1.00  0.00     0.031 C 
ATOM     43  C   UNL A   1      41.749  31.995  30.528  1.00  0.00     0.029 A 
ATOM     44  C   UNL A   1      42.915  31.124  30.422  1.00  0.00     0.049 A 
ATOM     45  H   UNL A   1      42.999  29.219  29.583  1.00  0.00     0.167 HD
ATOM     46  C   UNL A   1      42.977  25.094  28.111  1.00  0.00     0.037 A 
ATOM     47  C   UNL A   1      44.155  31.423  30.859  1.00  0.00     0.037 A 
ATOM     48  C   UNL A   1      44.352  25.375  28.430  1.00  0.00     0.049 A 
ATOM     49  C   UNL A   1      45.266  30.428  30.657  1.00  0.00     0.074 A 
ATOM     50  C   UNL A   1      45.459  24.565  28.244  1.00  0.00     0.029 A 
ATOM     51  N   UNL A   1      44.809  26.556  28.993  1.00  0.00    -0.354 N 
ATOM     52  N   UNL A   1      45.211  29.228  30.131  1.00  0.00    -0.248 NA
ATOM     53  C   UNL A   1      46.610  30.831  31.095  1.00  0.00     0.031 C 
ATOM     54  C   UNL A   1      46.581  25.243  28.729  1.00  0.00     0.029 A 
ATOM     55  C   UNL A   1      46.179  26.489  29.178  1.00  0.00     0.049 A 
ATOM     56  H   UNL A   1      44.243  27.326  29.227  1.00  0.00     0.167 HD
ATOM     57  C   UNL A   1      46.514  28.743  30.155  1.00  0.00     0.074 A 
ATOM     58  C   UNL A   1      47.338  29.785  30.732  1.00  0.00     0.031 C 
ATOM     59  C   UNL A   1      46.986  27.542  29.740  1.00  0.00     0.037 A 
BRANCH  46  60
ATOM     60  C   UNL A   1      42.643  23.722  27.595  1.00  0.00     0.058 A 
ATOM     61  C   UNL A   1      42.638  23.431  26.221  1.00  0.00     0.135 A 
ATOM     62  C   UNL A   1      42.400  22.667  28.489  1.00  0.00     0.135 A 
ATOM     63  F   UNL A   1      42.849  24.405  25.323  1.00  0.00    -0.206 F 
ATOM     64  C   UNL A   1      42.393  22.145  25.752  1.00  0.00     0.059 A 
ATOM     65  C   UNL A   1      42.176  21.367  28.043  1.00  0.00     0.059 A 
ATOM     66  F   UNL A   1      42.391  22.892  29.812  1.00  0.00    -0.206 F 
ATOM     67  C   UNL A   1      42.167  21.118  26.671  1.00  0.00     0.060 A 
BRANCH  67  68
ATOM     68  S   UNL A   1      41.893  19.445  26.049  1.00  0.00     0.124 S 
ATOM     69  O   UNL A   1      42.766  19.425  24.878  1.00  0.00    -0.237 OA
ATOM     70  O   UNL A   1      42.328  18.620  27.174  1.00  0.00    -0.237 OA
ATOM     71  O   UNL A   1      40.465  19.415  25.768  1.00  0.00    -0.744 OA
ENDBRANCH  67  68
ENDBRANCH  46  60
BRANCH  47  72
ATOM     72  C   UNL A   1      44.417  32.726  31.525  1.00  0.00     0.058 A 
ATOM     73  C   UNL A   1      44.784  33.861  30.785  1.00  0.00     0.135 A 
ATOM     74  C   UNL A   1      44.320  32.861  32.919  1.00  0.00     0.135 A 
ATOM     75  F   UNL A   1      44.895  33.781  29.449  1.00  0.00    -0.206 F 
ATOM     76  C   UNL A   1      45.071  35.073  31.401  1.00  0.00     0.059 A 
ATOM     77  C   UNL A   1      44.578  34.069  33.557  1.00  0.00     0.059 A 
ATOM     78  F   UNL A   1      43.953  31.812  33.671  1.00  0.00    -0.206 F 
ATOM     79  C   UNL A   1      44.969  35.167  32.790  1.00  0.00     0.060 A 
BRANCH  79  80
ATOM     80  S   UNL A   1      45.315  36.751  33.586  1.00  0.00     0.124 S 
ATOM     81  O   UNL A   1      46.705  36.578  33.991  1.00  0.00    -0.237 OA
ATOM     82  O   UNL A   1      45.078  37.701  32.502  1.00  0.00    -0.237 OA
ATOM     83  O   UNL A   1      44.340  36.799  34.671  1.00  0.00    -0.744 OA
ENDBRANCH  79  80
ENDBRANCH  47  72
BRANCH  59  84
ATOM     84  C   UNL A   1      48.464  27.298  29.860  1.00  0.00     0.058 A 
ATOM     85  C   UNL A   1      49.368  27.791  28.907  1.00  0.00     0.135 A 
ATOM     86  C   UNL A   1      48.984  26.611  30.969  1.00  0.00     0.135 A 
ATOM     87  F   UNL A   1      48.920  28.450  27.827  1.00  0.00    -0.206 F 
ATOM     88  C   UNL A   1      50.738  27.590  29.037  1.00  0.00     0.059 A 
ATOM     89  C   UNL A   1      50.352  26.422  31.132  1.00  0.00     0.059 A 
ATOM     90  F   UNL A   1      48.160  26.132  31.914  1.00  0.00    -0.206 F 
ATOM     91  C   UNL A   1      51.221  26.905  30.154  1.00  0.00     0.060 A 
BRANCH  91  92
ATOM     92  S   UNL A   1      53.003  26.677  30.329  1.00  0.00     0.124 S 
ATOM     93  O   UNL A   1      53.073  25.775  31.472  1.00  0.00    -0.237 OA
ATOM     94  O   UNL A   1      53.375  26.100  29.040  1.00  0.00    -0.237 OA
ATOM     95  O   UNL A   1      53.495  28.032  30.565  1.00  0.00    -0.744 OA
ENDBRANCH  91  92
ENDBRANCH  59  84
ENDBRANCH  33  34
ENDBRANCH  25  28
ENDBRANCH  23  24
ENDBRANCH  22  23
ENDBRANCH  21  22
ENDBRANCH   3  21
TORSDOF 20
ENDMDL
