MODEL 1
REMARK VINA RESULT:     -11.5      0.000      0.000
REMARK SMILES CC[C@@](C)(NC(=O)Nc1c(C)cccc1Cl)C(=O)NCCCNC(=O)c1ccc(-c2c3nc(c(-c4c(F)cc(S(=O)(=O)[O-])cc4F)c4ccc([nH]4)c(-c4c(F)cc(S(=O)(=O)[O-])cc4F)c4nc(c(-c5c(F)cc(S(=O)(=O)[O-])cc5F)c5ccc2[nH]5)C=C4)C=C3)cc1
REMARK SMILES IDX 21 1 20 2 19 3 17 4 18 5 3 7 4 8 2 9 1 10 5 11 6 12 7 14
REMARK SMILES IDX 8 15 9 17 10 18 15 19 11 20 12 21 14 22 16 23 13 24 22 25
REMARK SMILES IDX 23 26 24 27 25 29 26 30 27 31 91 32 28 33 90 34 29 35 30 36
REMARK SMILES IDX 31 37 84 38 32 39 89 40 83 41 85 42 33 43 88 44 82 45 81 46
REMARK SMILES IDX 34 48 68 49 47 50 67 51 48 52 51 53 66 54 86 55 49 56 50 57
REMARK SMILES IDX 65 59 87 60 52 61 35 62 36 63 45 64 37 65 38 66 44 67 46 68
REMARK SMILES IDX 39 69 40 70 41 71 42 72 43 73 69 74 70 75 79 76 71 77 72 78
REMARK SMILES IDX 78 79 80 80 73 81 74 82 75 83 76 84 77 85 53 86 54 87 63 88
REMARK SMILES IDX 55 89 56 90 62 91 64 92 57 93 58 94 59 95 60 96 61 97
REMARK H PARENT 19 6 5 13 8 16 23 28 85 47 51 58
REMARK Flexibility Score: inf
ROOT
ATOM      1  C   UNL A   1      33.759  29.057  25.700  1.00  0.00     0.042 C 
ENDROOT
BRANCH   1   2
ATOM      2  C   UNL A   1      33.410  27.849  24.800  1.00  0.00     0.117 C 
BRANCH   2   3
ATOM      3  N   UNL A   1      32.070  27.318  24.997  1.00  0.00    -0.354 N 
ATOM      4  C   UNL A   1      31.656  26.170  25.665  1.00  0.00     0.245 C 
ATOM      5  O   UNL A   1      31.104  26.223  26.763  1.00  0.00    -0.272 OA
ATOM      6  H   UNL A   1      31.346  27.851  24.594  1.00  0.00     0.163 HD
BRANCH   4   7
ATOM      7  C   UNL A   1      32.014  24.831  24.974  1.00  0.00     0.117 C 
ATOM      8  C   UNL A   1      33.116  24.316  25.952  1.00  0.00     0.045 C 
BRANCH   7   9
ATOM      9  C   UNL A   1      31.017  23.657  24.793  1.00  0.00     0.035 C 
ATOM     10  C   UNL A   1      30.702  22.753  25.960  1.00  0.00     0.007 C 
ENDBRANCH   7   9
BRANCH   7  11
ATOM     11  N   UNL A   1      32.547  25.126  23.631  1.00  0.00    -0.324 N 
ATOM     12  C   UNL A   1      33.419  24.482  22.821  1.00  0.00     0.320 C 
ATOM     13  H   UNL A   1      32.196  25.961  23.244  1.00  0.00     0.166 HD
ATOM     14  O   UNL A   1      33.852  25.126  21.862  1.00  0.00    -0.248 OA
ATOM     15  N   UNL A   1      33.599  23.119  22.802  1.00  0.00    -0.306 N 
ATOM     16  H   UNL A   1      33.250  22.682  21.991  1.00  0.00     0.171 HD
BRANCH  15  17
ATOM     17  C   UNL A   1      34.203  22.206  23.742  1.00  0.00     0.064 A 
ATOM     18  C   UNL A   1      33.592  21.005  24.209  1.00  0.00    -0.026 A 
ATOM     19  C   UNL A   1      35.607  22.265  23.898  1.00  0.00     0.064 A 
ATOM     20  C   UNL A   1      32.364  20.308  23.663  1.00  0.00     0.046 C 
ATOM     21  C   UNL A   1      34.269  20.187  25.139  1.00  0.00     0.005 A 
ATOM     22  C   UNL A   1      36.309  21.325  24.668  1.00  0.00     0.023 A 
ATOM     23  Cl  UNL A   1      36.566  23.389  22.991  1.00  0.00    -0.082 Cl
ATOM     24  C   UNL A   1      35.626  20.333  25.355  1.00  0.00     0.002 A 
ENDBRANCH  15  17
ENDBRANCH   7  11
ENDBRANCH   4   7
ENDBRANCH   2   3
ENDBRANCH   1   2
BRANCH   1  25
ATOM     25  C   UNL A   1      33.659  28.925  27.223  1.00  0.00     0.118 C 
BRANCH  25  26
ATOM     26  N   UNL A   1      33.624  30.177  27.952  1.00  0.00    -0.352 N 
ATOM     27  C   UNL A   1      34.630  30.845  28.618  1.00  0.00     0.251 C 
ATOM     28  H   UNL A   1      32.745  30.618  27.977  1.00  0.00     0.163 HD
ATOM     29  O   UNL A   1      34.402  31.912  29.154  1.00  0.00    -0.269 OA
BRANCH  27  30
ATOM     30  C   UNL A   1      35.969  30.222  28.744  1.00  0.00     0.039 A 
ATOM     31  C   UNL A   1      36.796  30.232  27.617  1.00  0.00     0.014 A 
ATOM     32  C   UNL A   1      36.420  29.664  29.941  1.00  0.00     0.014 A 
ATOM     33  C   UNL A   1      38.112  29.772  27.717  1.00  0.00     0.010 A 
ATOM     34  C   UNL A   1      37.753  29.262  30.054  1.00  0.00     0.010 A 
ATOM     35  C   UNL A   1      38.620  29.338  28.951  1.00  0.00    -0.014 A 
BRANCH  35  36
ATOM     36  C   UNL A   1      40.065  29.016  29.119  1.00  0.00     0.031 A 
ATOM     37  C   UNL A   1      41.038  30.076  29.558  1.00  0.00     0.074 A 
ATOM     38  C   UNL A   1      40.515  27.786  28.792  1.00  0.00     0.049 A 
ATOM     39  N   UNL A   1      42.342  30.017  29.638  1.00  0.00    -0.248 NA
ATOM     40  C   UNL A   1      40.470  31.379  29.935  1.00  0.00     0.031 C 
ATOM     41  C   UNL A   1      39.679  26.678  28.323  1.00  0.00     0.029 A 
ATOM     42  N   UNL A   1      41.786  27.263  28.783  1.00  0.00    -0.354 N 
ATOM     43  C   UNL A   1      42.755  31.278  30.053  1.00  0.00     0.074 A 
ATOM     44  C   UNL A   1      41.564  32.092  30.168  1.00  0.00     0.031 C 
ATOM     45  C   UNL A   1      40.455  25.609  28.084  1.00  0.00     0.029 A 
ATOM     46  C   UNL A   1      41.848  25.965  28.331  1.00  0.00     0.049 A 
ATOM     47  H   UNL A   1      42.578  27.771  29.073  1.00  0.00     0.167 HD
ATOM     48  C   UNL A   1      44.010  31.711  30.329  1.00  0.00     0.037 A 
ATOM     49  C   UNL A   1      42.906  25.157  28.115  1.00  0.00     0.037 A 
ATOM     50  C   UNL A   1      45.188  30.888  30.228  1.00  0.00     0.049 A 
ATOM     51  C   UNL A   1      44.292  25.668  28.404  1.00  0.00     0.074 A 
ATOM     52  C   UNL A   1      46.497  31.223  30.534  1.00  0.00     0.029 A 
ATOM     53  N   UNL A   1      45.205  29.573  29.787  1.00  0.00    -0.354 N 
ATOM     54  N   UNL A   1      44.658  26.848  28.847  1.00  0.00    -0.248 NA
ATOM     55  C   UNL A   1      45.410  24.743  28.169  1.00  0.00     0.031 C 
ATOM     56  C   UNL A   1      47.311  30.128  30.227  1.00  0.00     0.029 A 
ATOM     57  C   UNL A   1      46.504  29.089  29.791  1.00  0.00     0.049 A 
ATOM     58  H   UNL A   1      44.412  29.060  29.512  1.00  0.00     0.167 HD
ATOM     59  C   UNL A   1      46.041  26.793  28.978  1.00  0.00     0.074 A 
ATOM     60  C   UNL A   1      46.447  25.465  28.569  1.00  0.00     0.031 C 
ATOM     61  C   UNL A   1      46.895  27.755  29.404  1.00  0.00     0.037 A 
BRANCH  48  62
ATOM     62  C   UNL A   1      44.178  33.144  30.761  1.00  0.00     0.058 A 
ATOM     63  C   UNL A   1      44.280  34.189  29.829  1.00  0.00     0.135 A 
ATOM     64  C   UNL A   1      44.190  33.482  32.124  1.00  0.00     0.135 A 
ATOM     65  F   UNL A   1      44.284  33.924  28.512  1.00  0.00    -0.206 F 
ATOM     66  C   UNL A   1      44.423  35.513  30.232  1.00  0.00     0.059 A 
ATOM     67  C   UNL A   1      44.301  34.802  32.550  1.00  0.00     0.059 A 
ATOM     68  F   UNL A   1      44.092  32.524  33.059  1.00  0.00    -0.206 F 
ATOM     69  C   UNL A   1      44.433  35.810  31.596  1.00  0.00     0.060 A 
BRANCH  69  70
ATOM     70  S   UNL A   1      44.618  37.533  32.100  1.00  0.00     0.124 S 
ATOM     71  O   UNL A   1      45.930  37.510  32.740  1.00  0.00    -0.237 OA
ATOM     72  O   UNL A   1      44.548  38.240  30.825  1.00  0.00    -0.237 OA
ATOM     73  O   UNL A   1      43.487  37.749  32.997  1.00  0.00    -0.744 OA
ENDBRANCH  69  70
ENDBRANCH  48  62
BRANCH  49  74
ATOM     74  C   UNL A   1      42.695  23.773  27.606  1.00  0.00     0.058 A 
ATOM     75  C   UNL A   1      42.592  22.687  28.487  1.00  0.00     0.135 A 
ATOM     76  C   UNL A   1      42.584  23.509  26.232  1.00  0.00     0.135 A 
ATOM     77  F   UNL A   1      42.700  22.885  29.810  1.00  0.00    -0.206 F 
ATOM     78  C   UNL A   1      42.401  21.388  28.027  1.00  0.00     0.059 A 
ATOM     79  C   UNL A   1      42.364  22.223  25.748  1.00  0.00     0.059 A 
ATOM     80  F   UNL A   1      42.660  24.515  25.345  1.00  0.00    -0.206 F 
ATOM     81  C   UNL A   1      42.285  21.167  26.654  1.00  0.00     0.060 A 
BRANCH  81  82
ATOM     82  S   UNL A   1      41.989  19.483  26.070  1.00  0.00     0.124 S 
ATOM     83  O   UNL A   1      40.557  19.513  25.799  1.00  0.00    -0.237 OA
ATOM     84  O   UNL A   1      42.859  19.409  24.901  1.00  0.00    -0.237 OA
ATOM     85  O   UNL A   1      42.401  18.658  27.201  1.00  0.00    -0.744 OA
ENDBRANCH  81  82
ENDBRANCH  49  74
BRANCH  61  86
ATOM     86  C   UNL A   1      48.355  27.406  29.513  1.00  0.00     0.058 A 
ATOM     87  C   UNL A   1      49.273  27.728  28.503  1.00  0.00     0.135 A 
ATOM     88  C   UNL A   1      48.852  26.822  30.691  1.00  0.00     0.135 A 
ATOM     89  F   UNL A   1      48.849  28.277  27.353  1.00  0.00    -0.206 F 
ATOM     90  C   UNL A   1      50.634  27.481  28.654  1.00  0.00     0.059 A 
ATOM     91  C   UNL A   1      50.211  26.592  30.875  1.00  0.00     0.059 A 
ATOM     92  F   UNL A   1      48.016  26.500  31.690  1.00  0.00    -0.206 F 
ATOM     93  C   UNL A   1      51.095  26.921  29.848  1.00  0.00     0.060 A 
BRANCH  93  94
ATOM     94  S   UNL A   1      52.871  26.674  30.059  1.00  0.00     0.124 S 
ATOM     95  O   UNL A   1      53.328  28.032  30.335  1.00  0.00    -0.237 OA
ATOM     96  O   UNL A   1      52.924  25.747  31.185  1.00  0.00    -0.237 OA
ATOM     97  O   UNL A   1      53.293  26.119  28.777  1.00  0.00    -0.744 OA
ENDBRANCH  93  94
ENDBRANCH  61  86
ENDBRANCH  35  36
ENDBRANCH  27  30
ENDBRANCH  25  26
ENDBRANCH   1  25
TORSDOF 16
ENDMDL
MODEL 2
REMARK VINA RESULT:     -11.3      5.168     10.737
REMARK SMILES CC[C@@](C)(NC(=O)Nc1c(C)cccc1Cl)C(=O)NCCCNC(=O)c1ccc(-c2c3nc(c(-c4c(F)cc(S(=O)(=O)[O-])cc4F)c4ccc([nH]4)c(-c4c(F)cc(S(=O)(=O)[O-])cc4F)c4nc(c(-c5c(F)cc(S(=O)(=O)[O-])cc5F)c5ccc2[nH]5)C=C4)C=C3)cc1
REMARK SMILES IDX 21 1 20 2 19 3 17 4 18 5 3 7 4 8 2 9 1 10 5 11 6 12 7 14
REMARK SMILES IDX 8 15 9 17 10 18 15 19 11 20 12 21 14 22 16 23 13 24 22 25
REMARK SMILES IDX 23 26 24 27 25 29 26 30 27 31 91 32 28 33 90 34 29 35 30 36
REMARK SMILES IDX 31 37 84 38 32 39 89 40 83 41 85 42 33 43 88 44 82 45 81 46
REMARK SMILES IDX 34 48 68 49 47 50 67 51 48 52 51 53 66 54 86 55 49 56 50 57
REMARK SMILES IDX 65 59 87 60 52 61 35 62 36 63 45 64 37 65 38 66 44 67 46 68
REMARK SMILES IDX 39 69 40 70 41 71 42 72 43 73 69 74 70 75 79 76 71 77 72 78
REMARK SMILES IDX 78 79 80 80 73 81 74 82 75 83 76 84 77 85 53 86 54 87 63 88
REMARK SMILES IDX 55 89 56 90 62 91 64 92 57 93 58 94 59 95 60 96 61 97
REMARK H PARENT 19 6 5 13 8 16 23 28 85 47 51 58
REMARK Flexibility Score: inf
ROOT
ATOM      1  C   UNL A   1      37.087  23.647  25.396  1.00  0.00     0.042 C 
ENDROOT
BRANCH   1   2
ATOM      2  C   UNL A   1      35.592  23.458  25.742  1.00  0.00     0.117 C 
BRANCH   2   3
ATOM      3  N   UNL A   1      34.793  22.884  24.669  1.00  0.00    -0.354 N 
ATOM      4  C   UNL A   1      34.220  23.498  23.560  1.00  0.00     0.245 C 
ATOM      5  O   UNL A   1      34.680  23.353  22.429  1.00  0.00    -0.272 OA
ATOM      6  H   UNL A   1      34.632  21.915  24.740  1.00  0.00     0.163 HD
BRANCH   4   7
ATOM      7  C   UNL A   1      33.024  24.435  23.861  1.00  0.00     0.117 C 
ATOM      8  C   UNL A   1      33.766  25.808  23.886  1.00  0.00     0.045 C 
BRANCH   7   9
ATOM      9  C   UNL A   1      31.809  24.620  22.915  1.00  0.00     0.035 C 
ATOM     10  C   UNL A   1      31.901  25.582  21.755  1.00  0.00     0.007 C 
ENDBRANCH   7   9
BRANCH   7  11
ATOM     11  N   UNL A   1      32.466  24.073  25.177  1.00  0.00    -0.324 N 
ATOM     12  C   UNL A   1      31.717  24.748  26.080  1.00  0.00     0.320 C 
ATOM     13  H   UNL A   1      32.681  23.154  25.455  1.00  0.00     0.166 HD
ATOM     14  O   UNL A   1      31.629  24.244  27.203  1.00  0.00    -0.248 OA
ATOM     15  N   UNL A   1      30.819  25.739  25.759  1.00  0.00    -0.306 N 
ATOM     16  H   UNL A   1      29.877  25.476  25.875  1.00  0.00     0.171 HD
BRANCH  15  17
ATOM     17  C   UNL A   1      30.993  27.091  25.285  1.00  0.00     0.064 A 
ATOM     18  C   UNL A   1      30.261  27.670  24.208  1.00  0.00    -0.026 A 
ATOM     19  C   UNL A   1      31.601  28.016  26.164  1.00  0.00     0.064 A 
ATOM     20  C   UNL A   1      29.021  27.133  23.526  1.00  0.00     0.046 C 
ATOM     21  C   UNL A   1      30.518  29.002  23.818  1.00  0.00     0.005 A 
ATOM     22  C   UNL A   1      31.679  29.384  25.863  1.00  0.00     0.023 A 
ATOM     23  Cl  UNL A   1      32.113  27.545  27.752  1.00  0.00    -0.082 Cl
ATOM     24  C   UNL A   1      31.208  29.862  24.650  1.00  0.00     0.002 A 
ENDBRANCH  15  17
ENDBRANCH   7  11
ENDBRANCH   4   7
ENDBRANCH   2   3
ENDBRANCH   1   2
BRANCH   1  25
ATOM     25  C   UNL A   1      38.088  23.992  26.503  1.00  0.00     0.118 C 
BRANCH  25  26
ATOM     26  N   UNL A   1      39.484  23.853  26.143  1.00  0.00    -0.352 N 
ATOM     27  C   UNL A   1      40.586  24.568  26.566  1.00  0.00     0.251 C 
ATOM     28  H   UNL A   1      39.677  23.138  25.496  1.00  0.00     0.163 HD
ATOM     29  O   UNL A   1      41.694  24.277  26.161  1.00  0.00    -0.269 OA
BRANCH  27  30
ATOM     30  C   UNL A   1      40.405  25.740  27.455  1.00  0.00     0.039 A 
ATOM     31  C   UNL A   1      39.499  25.618  28.512  1.00  0.00     0.014 A 
ATOM     32  C   UNL A   1      41.122  26.925  27.279  1.00  0.00     0.014 A 
ATOM     33  C   UNL A   1      39.384  26.646  29.452  1.00  0.00     0.010 A 
ATOM     34  C   UNL A   1      41.052  27.924  28.252  1.00  0.00     0.010 A 
ATOM     35  C   UNL A   1      40.202  27.783  29.363  1.00  0.00    -0.014 A 
BRANCH  35  36
ATOM     36  C   UNL A   1      40.225  28.803  30.449  1.00  0.00     0.031 A 
ATOM     37  C   UNL A   1      41.154  28.649  31.622  1.00  0.00     0.074 A 
ATOM     38  C   UNL A   1      39.345  29.825  30.420  1.00  0.00     0.049 A 
ATOM     39  N   UNL A   1      41.227  29.361  32.717  1.00  0.00    -0.248 NA
ATOM     40  C   UNL A   1      42.111  27.533  31.566  1.00  0.00     0.031 C 
ATOM     41  C   UNL A   1      38.369  30.070  29.355  1.00  0.00     0.029 A 
ATOM     42  N   UNL A   1      39.110  30.839  31.318  1.00  0.00    -0.354 N 
ATOM     43  C   UNL A   1      42.221  28.771  33.489  1.00  0.00     0.074 A 
ATOM     44  C   UNL A   1      42.693  27.617  32.754  1.00  0.00     0.031 C 
ATOM     45  C   UNL A   1      37.652  31.165  29.655  1.00  0.00     0.029 A 
ATOM     46  C   UNL A   1      38.077  31.673  30.954  1.00  0.00     0.049 A 
ATOM     47  H   UNL A   1      39.633  30.958  32.144  1.00  0.00     0.167 HD
ATOM     48  C   UNL A   1      42.706  29.165  34.692  1.00  0.00     0.037 A 
ATOM     49  C   UNL A   1      37.517  32.715  31.602  1.00  0.00     0.037 A 
ATOM     50  C   UNL A   1      42.241  30.325  35.409  1.00  0.00     0.049 A 
ATOM     51  C   UNL A   1      38.055  33.119  32.948  1.00  0.00     0.074 A 
ATOM     52  C   UNL A   1      42.704  30.834  36.611  1.00  0.00     0.029 A 
ATOM     53  N   UNL A   1      41.208  31.155  34.996  1.00  0.00    -0.354 N 
ATOM     54  N   UNL A   1      39.032  32.580  33.639  1.00  0.00    -0.248 NA
ATOM     55  C   UNL A   1      37.421  34.271  33.605  1.00  0.00     0.031 C 
ATOM     56  C   UNL A   1      41.918  31.939  36.951  1.00  0.00     0.029 A 
ATOM     57  C   UNL A   1      41.005  32.158  35.931  1.00  0.00     0.049 A 
ATOM     58  H   UNL A   1      40.696  31.046  34.163  1.00  0.00     0.167 HD
ATOM     59  C   UNL A   1      39.153  33.349  34.792  1.00  0.00     0.074 A 
ATOM     60  C   UNL A   1      38.151  34.391  34.705  1.00  0.00     0.031 C 
ATOM     61  C   UNL A   1      40.020  33.207  35.823  1.00  0.00     0.037 A 
BRANCH  48  62
ATOM     62  C   UNL A   1      43.793  28.331  35.317  1.00  0.00     0.058 A 
ATOM     63  C   UNL A   1      45.150  28.559  35.040  1.00  0.00     0.135 A 
ATOM     64  C   UNL A   1      43.477  27.321  36.241  1.00  0.00     0.135 A 
ATOM     65  F   UNL A   1      45.511  29.505  34.157  1.00  0.00    -0.206 F 
ATOM     66  C   UNL A   1      46.153  27.795  35.629  1.00  0.00     0.059 A 
ATOM     67  C   UNL A   1      44.464  26.565  36.866  1.00  0.00     0.059 A 
ATOM     68  F   UNL A   1      42.195  27.062  36.548  1.00  0.00    -0.206 F 
ATOM     69  C   UNL A   1      45.799  26.798  36.541  1.00  0.00     0.060 A 
BRANCH  69  70
ATOM     70  S   UNL A   1      47.113  25.817  37.295  1.00  0.00     0.124 S 
ATOM     71  O   UNL A   1      46.361  25.010  38.251  1.00  0.00    -0.237 OA
ATOM     72  O   UNL A   1      47.660  25.096  36.150  1.00  0.00    -0.237 OA
ATOM     73  O   UNL A   1      47.995  26.822  37.880  1.00  0.00    -0.744 OA
ENDBRANCH  69  70
ENDBRANCH  48  62
BRANCH  49  74
ATOM     74  C   UNL A   1      36.386  33.457  30.979  1.00  0.00     0.058 A 
ATOM     75  C   UNL A   1      36.580  34.242  29.834  1.00  0.00     0.135 A 
ATOM     76  C   UNL A   1      35.088  33.391  31.510  1.00  0.00     0.135 A 
ATOM     77  F   UNL A   1      37.804  34.347  29.292  1.00  0.00    -0.206 F 
ATOM     78  C   UNL A   1      35.536  34.947  29.245  1.00  0.00     0.059 A 
ATOM     79  C   UNL A   1      34.020  34.063  30.923  1.00  0.00     0.059 A 
ATOM     80  F   UNL A   1      34.842  32.641  32.597  1.00  0.00    -0.206 F 
ATOM     81  C   UNL A   1      34.257  34.847  29.795  1.00  0.00     0.060 A 
BRANCH  81  82
ATOM     82  S   UNL A   1      32.898  35.727  28.993  1.00  0.00     0.124 S 
ATOM     83  O   UNL A   1      32.370  34.703  28.100  1.00  0.00    -0.237 OA
ATOM     84  O   UNL A   1      32.053  36.082  30.129  1.00  0.00    -0.237 OA
ATOM     85  O   UNL A   1      33.563  36.852  28.342  1.00  0.00    -0.744 OA
ENDBRANCH  81  82
ENDBRANCH  49  74
BRANCH  61  86
ATOM     86  C   UNL A   1      39.978  34.229  36.927  1.00  0.00     0.058 A 
ATOM     87  C   UNL A   1      40.634  35.464  36.821  1.00  0.00     0.135 A 
ATOM     88  C   UNL A   1      39.190  33.999  38.067  1.00  0.00     0.135 A 
ATOM     89  F   UNL A   1      41.408  35.730  35.757  1.00  0.00    -0.206 F 
ATOM     90  C   UNL A   1      40.514  36.436  37.809  1.00  0.00     0.059 A 
ATOM     91  C   UNL A   1      39.033  34.967  39.054  1.00  0.00     0.059 A 
ATOM     92  F   UNL A   1      38.536  32.836  38.215  1.00  0.00    -0.206 F 
ATOM     93  C   UNL A   1      39.702  36.182  38.918  1.00  0.00     0.060 A 
BRANCH  93  94
ATOM     94  S   UNL A   1      39.497  37.481  40.156  1.00  0.00     0.124 S 
ATOM     95  O   UNL A   1      38.964  36.729  41.287  1.00  0.00    -0.237 OA
ATOM     96  O   UNL A   1      40.859  37.980  40.311  1.00  0.00    -0.237 OA
ATOM     97  O   UNL A   1      38.564  38.409  39.525  1.00  0.00    -0.744 OA
ENDBRANCH  93  94
ENDBRANCH  61  86
ENDBRANCH  35  36
ENDBRANCH  27  30
ENDBRANCH  25  26
ENDBRANCH   1  25
TORSDOF 16
ENDMDL
MODEL 3
REMARK VINA RESULT:     -11.1      1.149      2.055
REMARK SMILES CC[C@@](C)(NC(=O)Nc1c(C)cccc1Cl)C(=O)NCCCNC(=O)c1ccc(-c2c3nc(c(-c4c(F)cc(S(=O)(=O)[O-])cc4F)c4ccc([nH]4)c(-c4c(F)cc(S(=O)(=O)[O-])cc4F)c4nc(c(-c5c(F)cc(S(=O)(=O)[O-])cc5F)c5ccc2[nH]5)C=C4)C=C3)cc1
REMARK SMILES IDX 21 1 20 2 19 3 17 4 18 5 3 7 4 8 2 9 1 10 5 11 6 12 7 14
REMARK SMILES IDX 8 15 9 17 10 18 15 19 11 20 12 21 14 22 16 23 13 24 22 25
REMARK SMILES IDX 23 26 24 27 25 29 26 30 27 31 91 32 28 33 90 34 29 35 30 36
REMARK SMILES IDX 31 37 84 38 32 39 89 40 83 41 85 42 33 43 88 44 82 45 81 46
REMARK SMILES IDX 34 48 68 49 47 50 67 51 48 52 51 53 66 54 86 55 49 56 50 57
REMARK SMILES IDX 65 59 87 60 52 61 35 62 36 63 45 64 37 65 38 66 44 67 46 68
REMARK SMILES IDX 39 69 40 70 41 71 42 72 43 73 69 74 70 75 79 76 71 77 72 78
REMARK SMILES IDX 78 79 80 80 73 81 74 82 75 83 76 84 77 85 53 86 54 87 63 88
REMARK SMILES IDX 55 89 56 90 62 91 64 92 57 93 58 94 59 95 60 96 61 97
REMARK H PARENT 19 6 5 13 8 16 23 28 85 47 51 58
REMARK Flexibility Score: inf
ROOT
ATOM      1  C   UNL A   1      32.979  27.856  27.103  1.00  0.00     0.042 C 
ENDROOT
BRANCH   1   2
ATOM      2  C   UNL A   1      31.442  28.016  27.152  1.00  0.00     0.117 C 
BRANCH   2   3
ATOM      3  N   UNL A   1      30.700  26.791  26.896  1.00  0.00    -0.354 N 
ATOM      4  C   UNL A   1      31.100  25.625  26.251  1.00  0.00     0.245 C 
ATOM      5  O   UNL A   1      31.343  24.591  26.871  1.00  0.00    -0.272 OA
ATOM      6  H   UNL A   1      29.773  26.787  27.229  1.00  0.00     0.163 HD
BRANCH   4   7
ATOM      7  C   UNL A   1      31.300  25.746  24.720  1.00  0.00     0.117 C 
ATOM      8  C   UNL A   1      30.291  26.896  24.413  1.00  0.00     0.045 C 
BRANCH   7   9
ATOM      9  C   UNL A   1      32.638  26.157  24.051  1.00  0.00     0.035 C 
ATOM     10  C   UNL A   1      32.746  27.488  23.347  1.00  0.00     0.007 C 
ENDBRANCH   7   9
BRANCH   7  11
ATOM     11  N   UNL A   1      30.907  24.469  24.095  1.00  0.00    -0.324 N 
ATOM     12  C   UNL A   1      31.549  23.291  23.917  1.00  0.00     0.320 C 
ATOM     13  H   UNL A   1      29.991  24.474  23.735  1.00  0.00     0.166 HD
ATOM     14  O   UNL A   1      31.030  22.500  23.126  1.00  0.00    -0.248 OA
ATOM     15  N   UNL A   1      32.517  22.800  24.761  1.00  0.00    -0.306 N 
ATOM     16  H   UNL A   1      32.226  22.023  25.292  1.00  0.00     0.171 HD
BRANCH  15  17
ATOM     17  C   UNL A   1      33.879  23.202  25.016  1.00  0.00     0.064 A 
ATOM     18  C   UNL A   1      34.540  23.065  26.271  1.00  0.00    -0.026 A 
ATOM     19  C   UNL A   1      34.734  23.356  23.901  1.00  0.00     0.064 A 
ATOM     20  C   UNL A   1      34.095  22.270  27.480  1.00  0.00     0.046 C 
ATOM     21  C   UNL A   1      35.874  23.503  26.416  1.00  0.00     0.005 A 
ATOM     22  C   UNL A   1      36.109  23.595  24.046  1.00  0.00     0.023 A 
ATOM     23  Cl  UNL A   1      34.168  23.064  22.288  1.00  0.00    -0.082 Cl
ATOM     24  C   UNL A   1      36.663  23.749  25.308  1.00  0.00     0.002 A 
ENDBRANCH  15  17
ENDBRANCH   7  11
ENDBRANCH   4   7
ENDBRANCH   2   3
ENDBRANCH   1   2
BRANCH   1  25
ATOM     25  C   UNL A   1      33.854  29.033  26.659  1.00  0.00     0.118 C 
BRANCH  25  26
ATOM     26  N   UNL A   1      33.752  30.224  27.477  1.00  0.00    -0.352 N 
ATOM     27  C   UNL A   1      34.691  30.826  28.290  1.00  0.00     0.251 C 
ATOM     28  H   UNL A   1      32.878  30.674  27.449  1.00  0.00     0.163 HD
ATOM     29  O   UNL A   1      34.416  31.851  28.883  1.00  0.00    -0.269 OA
BRANCH  27  30
ATOM     30  C   UNL A   1      36.008  30.178  28.498  1.00  0.00     0.039 A 
ATOM     31  C   UNL A   1      36.912  30.191  27.433  1.00  0.00     0.014 A 
ATOM     32  C   UNL A   1      36.364  29.592  29.714  1.00  0.00     0.014 A 
ATOM     33  C   UNL A   1      38.210  29.708  27.616  1.00  0.00     0.010 A 
ATOM     34  C   UNL A   1      37.679  29.167  29.914  1.00  0.00     0.010 A 
ATOM     35  C   UNL A   1      38.623  29.245  28.875  1.00  0.00    -0.014 A 
BRANCH  35  36
ATOM     36  C   UNL A   1      40.047  28.895  29.139  1.00  0.00     0.031 A 
ATOM     37  C   UNL A   1      41.003  29.931  29.665  1.00  0.00     0.074 A 
ATOM     38  C   UNL A   1      40.499  27.664  28.821  1.00  0.00     0.049 A 
ATOM     39  N   UNL A   1      42.297  29.848  29.835  1.00  0.00    -0.248 NA
ATOM     40  C   UNL A   1      40.431  31.237  30.025  1.00  0.00     0.031 C 
ATOM     41  C   UNL A   1      39.681  26.578  28.274  1.00  0.00     0.029 A 
ATOM     42  N   UNL A   1      41.759  27.120  28.892  1.00  0.00    -0.354 N 
ATOM     43  C   UNL A   1      42.699  31.094  30.302  1.00  0.00     0.074 A 
ATOM     44  C   UNL A   1      41.516  31.927  30.348  1.00  0.00     0.031 C 
ATOM     45  C   UNL A   1      40.456  25.501  28.070  1.00  0.00     0.029 A 
ATOM     46  C   UNL A   1      41.833  25.828  28.420  1.00  0.00     0.049 A 
ATOM     47  H   UNL A   1      42.537  27.609  29.246  1.00  0.00     0.167 HD
ATOM     48  C   UNL A   1      43.938  31.501  30.673  1.00  0.00     0.037 A 
ATOM     49  C   UNL A   1      42.891  25.007  28.265  1.00  0.00     0.037 A 
ATOM     50  C   UNL A   1      45.108  30.661  30.640  1.00  0.00     0.049 A 
ATOM     51  C   UNL A   1      44.261  25.489  28.660  1.00  0.00     0.074 A 
ATOM     52  C   UNL A   1      46.397  30.967  31.043  1.00  0.00     0.029 A 
ATOM     53  N   UNL A   1      45.135  29.353  30.176  1.00  0.00    -0.354 N 
ATOM     54  N   UNL A   1      44.613  26.655  29.150  1.00  0.00    -0.248 NA
ATOM     55  C   UNL A   1      45.377  24.549  28.486  1.00  0.00     0.031 C 
ATOM     56  C   UNL A   1      47.214  29.864  30.774  1.00  0.00     0.029 A 
ATOM     57  C   UNL A   1      46.422  28.847  30.263  1.00  0.00     0.049 A 
ATOM     58  H   UNL A   1      44.355  28.858  29.837  1.00  0.00     0.167 HD
ATOM     59  C   UNL A   1      45.983  26.574  29.376  1.00  0.00     0.074 A 
ATOM     60  C   UNL A   1      46.396  25.246  28.972  1.00  0.00     0.031 C 
ATOM     61  C   UNL A   1      46.819  27.514  29.880  1.00  0.00     0.037 A 
BRANCH  48  62
ATOM     62  C   UNL A   1      44.098  32.923  31.143  1.00  0.00     0.058 A 
ATOM     63  C   UNL A   1      43.965  33.274  32.496  1.00  0.00     0.135 A 
ATOM     64  C   UNL A   1      44.433  33.942  30.235  1.00  0.00     0.135 A 
ATOM     65  F   UNL A   1      43.635  32.343  33.406  1.00  0.00    -0.206 F 
ATOM     66  C   UNL A   1      44.125  34.587  32.927  1.00  0.00     0.059 A 
ATOM     67  C   UNL A   1      44.629  35.256  30.648  1.00  0.00     0.059 A 
ATOM     68  F   UNL A   1      44.577  33.663  28.929  1.00  0.00    -0.206 F 
ATOM     69  C   UNL A   1      44.456  35.572  31.995  1.00  0.00     0.060 A 
BRANCH  69  70
ATOM     70  S   UNL A   1      44.661  37.269  32.573  1.00  0.00     0.124 S 
ATOM     71  O   UNL A   1      46.112  37.415  32.539  1.00  0.00    -0.237 OA
ATOM     72  O   UNL A   1      43.924  38.032  31.570  1.00  0.00    -0.237 OA
ATOM     73  O   UNL A   1      44.064  37.249  33.905  1.00  0.00    -0.744 OA
ENDBRANCH  69  70
ENDBRANCH  48  62
BRANCH  49  74
ATOM     74  C   UNL A   1      42.694  23.636  27.716  1.00  0.00     0.058 A 
ATOM     75  C   UNL A   1      42.729  23.400  26.334  1.00  0.00     0.135 A 
ATOM     76  C   UNL A   1      42.477  22.536  28.558  1.00  0.00     0.135 A 
ATOM     77  F   UNL A   1      42.925  24.420  25.484  1.00  0.00    -0.206 F 
ATOM     78  C   UNL A   1      42.541  22.128  25.805  1.00  0.00     0.059 A 
ATOM     79  C   UNL A   1      42.315  21.248  28.056  1.00  0.00     0.059 A 
ATOM     80  F   UNL A   1      42.449  22.702  29.891  1.00  0.00    -0.206 F 
ATOM     81  C   UNL A   1      42.338  21.056  26.675  1.00  0.00     0.060 A 
BRANCH  81  82
ATOM     82  S   UNL A   1      42.144  19.400  25.980  1.00  0.00     0.124 S 
ATOM     83  O   UNL A   1      42.665  18.566  27.056  1.00  0.00    -0.237 OA
ATOM     84  O   UNL A   1      40.703  19.330  25.758  1.00  0.00    -0.237 OA
ATOM     85  O   UNL A   1      42.955  19.447  24.767  1.00  0.00    -0.744 OA
ENDBRANCH  81  82
ENDBRANCH  49  74
BRANCH  61  86
ATOM     86  C   UNL A   1      48.262  27.138  30.084  1.00  0.00     0.058 A 
ATOM     87  C   UNL A   1      49.239  27.383  29.108  1.00  0.00     0.135 A 
ATOM     88  C   UNL A   1      48.682  26.608  31.316  1.00  0.00     0.135 A 
ATOM     89  F   UNL A   1      48.890  27.878  27.910  1.00  0.00    -0.206 F 
ATOM     90  C   UNL A   1      50.584  27.114  29.345  1.00  0.00     0.059 A 
ATOM     91  C   UNL A   1      50.024  26.357  31.584  1.00  0.00     0.059 A 
ATOM     92  F   UNL A   1      47.788  26.360  32.286  1.00  0.00    -0.206 F 
ATOM     93  C   UNL A   1      50.968  26.610  30.590  1.00  0.00     0.060 A 
BRANCH  93  94
ATOM     94  S   UNL A   1      52.724  26.334  30.908  1.00  0.00     0.124 S 
ATOM     95  O   UNL A   1      52.696  25.075  31.645  1.00  0.00    -0.237 OA
ATOM     96  O   UNL A   1      53.277  26.267  29.559  1.00  0.00    -0.237 OA
ATOM     97  O   UNL A   1      53.118  27.506  31.683  1.00  0.00    -0.744 OA
ENDBRANCH  93  94
ENDBRANCH  61  86
ENDBRANCH  35  36
ENDBRANCH  27  30
ENDBRANCH  25  26
ENDBRANCH   1  25
TORSDOF 16
ENDMDL
