MODEL 1
REMARK VINA RESULT:     -11.0      0.000      0.000
REMARK SMILES CCCCCCNC(=O)Oc1cccc(-c2ccc(CC(=O)NCCCNC(=O)c3ccc(-c4c5nc(c(-c6c(F)cc(S(=O)(=O)[O-])cc6F)c6ccc([nH]6)c(-c6c(F)cc(S(=O)(=O)[O-])cc6F)c6nc(c(-c7c(F)cc(S(=O)(=O)[O-])cc7F)c7ccc4[nH]7)C=C6)C=C5)cc3)cc2F)c1
REMARK SMILES IDX 20 1 19 2 16 3 17 4 97 5 18 6 96 7 98 8 15 9 11 10 12 11
REMARK SMILES IDX 99 12 13 13 14 14 10 15 8 16 7 17 9 19 6 20 5 21 4 22 3 23
REMARK SMILES IDX 2 24 1 25 21 26 22 27 23 28 24 30 25 31 26 32 27 33 28 34
REMARK SMILES IDX 29 36 30 37 31 38 95 39 32 40 94 41 33 42 34 43 35 44 88 45
REMARK SMILES IDX 36 46 93 47 87 48 89 49 37 50 92 51 86 52 85 53 38 55 72 56
REMARK SMILES IDX 51 57 71 58 52 59 55 60 70 61 90 62 53 63 54 64 69 66 91 67
REMARK SMILES IDX 56 68 39 69 40 70 49 71 41 72 42 73 48 74 50 75 43 76 44 77
REMARK SMILES IDX 45 78 46 79 47 80 73 81 74 82 83 83 75 84 76 85 82 86 84 87
REMARK SMILES IDX 77 88 78 89 79 90 80 91 81 92 57 93 58 94 67 95 59 96 60 97
REMARK SMILES IDX 66 98 68 99 61 100 62 101 63 102 64 103 65 104
REMARK H PARENT 7 18 23 29 27 35 89 54 55 65
REMARK Flexibility Score: inf
ROOT
ATOM      1  C   UNL A   1      34.254  34.564  28.205  1.00  0.00     0.135 C 
ENDROOT
BRANCH   1   2
ATOM      2  C   UNL A   1      33.870  33.144  27.875  1.00  0.00    -0.036 A 
ATOM      3  C   UNL A   1      33.189  30.475  27.197  1.00  0.00     0.018 A 
ATOM      4  C   UNL A   1      32.263  31.519  27.045  1.00  0.00     0.012 A 
ATOM      5  C   UNL A   1      34.453  30.800  27.711  1.00  0.00     0.131 A 
ATOM      6  C   UNL A   1      32.595  32.836  27.383  1.00  0.00     0.005 A 
ATOM      7  C   UNL A   1      34.789  32.105  28.057  1.00  0.00     0.044 A 
ATOM      8  F   UNL A   1      35.386  29.850  27.875  1.00  0.00    -0.206 F 
BRANCH   3   9
ATOM      9  C   UNL A   1      32.837  29.089  26.862  1.00  0.00    -0.012 A 
ATOM     10  C   UNL A   1      33.353  27.009  25.720  1.00  0.00     0.133 A 
ATOM     11  C   UNL A   1      32.176  26.431  26.183  1.00  0.00     0.047 A 
ATOM     12  C   UNL A   1      33.675  28.330  26.033  1.00  0.00     0.056 A 
ATOM     13  C   UNL A   1      31.330  27.173  27.006  1.00  0.00     0.004 A 
ATOM     14  C   UNL A   1      31.662  28.489  27.347  1.00  0.00     0.009 A 
BRANCH  10  15
ATOM     15  O   UNL A   1      34.141  26.255  24.838  1.00  0.00    -0.410 OA
BRANCH  15  16
ATOM     16  C   UNL A   1      33.511  25.640  23.768  1.00  0.00     0.412 C 
ATOM     17  N   UNL A   1      33.289  26.481  22.714  1.00  0.00    -0.321 N 
ATOM     18  H   UNL A   1      32.833  26.095  21.931  1.00  0.00     0.167 HD
ATOM     19  O   UNL A   1      33.155  24.464  23.706  1.00  0.00    -0.224 OA
BRANCH  17  20
ATOM     20  C   UNL A   1      33.652  27.881  22.629  1.00  0.00     0.119 C 
BRANCH  20  21
ATOM     21  C   UNL A   1      32.425  28.776  22.453  1.00  0.00     0.021 C 
BRANCH  21  22
ATOM     22  C   UNL A   1      31.090  28.127  22.841  1.00  0.00     0.002 C 
BRANCH  22  23
ATOM     23  C   UNL A   1      30.239  28.911  23.845  1.00  0.00    -0.000 C 
BRANCH  23  24
ATOM     24  C   UNL A   1      29.044  29.660  23.249  1.00  0.00    -0.003 C 
ATOM     25  C   UNL A   1      29.208  31.171  23.273  1.00  0.00     0.004 C 
ENDBRANCH  23  24
ENDBRANCH  22  23
ENDBRANCH  21  22
ENDBRANCH  20  21
ENDBRANCH  17  20
ENDBRANCH  15  16
ENDBRANCH  10  15
ENDBRANCH   3   9
ENDBRANCH   1   2
BRANCH   1  26
ATOM     26  C   UNL A   1      33.416  35.189  29.306  1.00  0.00     0.224 C 
ATOM     27  O   UNL A   1      32.553  36.031  29.054  1.00  0.00    -0.275 OA
ATOM     28  N   UNL A   1      33.585  34.794  30.602  1.00  0.00    -0.356 N 
ATOM     29  H   UNL A   1      32.969  35.203  31.253  1.00  0.00     0.163 HD
BRANCH  28  30
ATOM     30  C   UNL A   1      34.544  33.856  31.157  1.00  0.00     0.117 C 
BRANCH  30  31
ATOM     31  C   UNL A   1      35.991  34.274  30.895  1.00  0.00     0.042 C 
BRANCH  31  32
ATOM     32  C   UNL A   1      37.011  33.146  31.041  1.00  0.00     0.118 C 
BRANCH  32  33
ATOM     33  N   UNL A   1      36.393  31.876  31.394  1.00  0.00    -0.352 N 
ATOM     34  C   UNL A   1      36.772  30.586  31.126  1.00  0.00     0.251 C 
ATOM     35  H   UNL A   1      35.561  31.958  31.913  1.00  0.00     0.163 HD
ATOM     36  O   UNL A   1      35.977  29.680  31.369  1.00  0.00    -0.269 OA
BRANCH  34  37
ATOM     37  C   UNL A   1      38.099  30.266  30.550  1.00  0.00     0.039 A 
ATOM     38  C   UNL A   1      39.138  29.937  31.426  1.00  0.00     0.014 A 
ATOM     39  C   UNL A   1      38.355  30.350  29.178  1.00  0.00     0.014 A 
ATOM     40  C   UNL A   1      40.411  29.648  30.928  1.00  0.00     0.010 A 
ATOM     41  C   UNL A   1      39.608  29.992  28.675  1.00  0.00     0.010 A 
ATOM     42  C   UNL A   1      40.651  29.642  29.544  1.00  0.00    -0.014 A 
BRANCH  42  43
ATOM     43  C   UNL A   1      41.984  29.252  29.011  1.00  0.00     0.031 A 
ATOM     44  C   UNL A   1      43.103  30.256  28.918  1.00  0.00     0.074 A 
ATOM     45  C   UNL A   1      42.179  27.985  28.591  1.00  0.00     0.049 A 
ATOM     46  N   UNL A   1      44.326  30.089  28.481  1.00  0.00    -0.248 NA
ATOM     47  C   UNL A   1      42.806  31.630  29.354  1.00  0.00     0.031 C 
ATOM     48  C   UNL A   1      41.161  26.931  28.584  1.00  0.00     0.029 A 
ATOM     49  N   UNL A   1      43.297  27.365  28.091  1.00  0.00    -0.354 N 
ATOM     50  C   UNL A   1      44.944  31.330  28.592  1.00  0.00     0.074 A 
ATOM     51  C   UNL A   1      43.944  32.254  29.083  1.00  0.00     0.031 C 
ATOM     52  C   UNL A   1      41.710  25.790  28.137  1.00  0.00     0.029 A 
ATOM     53  C   UNL A   1      43.105  26.037  27.790  1.00  0.00     0.049 A 
ATOM     54  H   UNL A   1      44.156  27.828  27.960  1.00  0.00     0.167 HD
ATOM     55  C   UNL A   1      46.232  31.663  28.334  1.00  0.00     0.037 A 
ATOM     56  C   UNL A   1      43.956  25.120  27.291  1.00  0.00     0.037 A 
ATOM     57  C   UNL A   1      47.228  30.736  27.859  1.00  0.00     0.049 A 
ATOM     58  C   UNL A   1      45.379  25.520  27.005  1.00  0.00     0.074 A 
ATOM     59  C   UNL A   1      48.569  30.971  27.602  1.00  0.00     0.029 A 
ATOM     60  N   UNL A   1      46.997  29.399  27.573  1.00  0.00    -0.354 N 
ATOM     61  N   UNL A   1      45.958  26.685  27.170  1.00  0.00    -0.248 NA
ATOM     62  C   UNL A   1      46.268  24.477  26.474  1.00  0.00     0.031 C 
ATOM     63  C   UNL A   1      49.138  29.785  27.124  1.00  0.00     0.029 A 
ATOM     64  C   UNL A   1      48.165  28.800  27.129  1.00  0.00     0.049 A 
ATOM     65  H   UNL A   1      46.131  28.942  27.671  1.00  0.00     0.167 HD
ATOM     66  C   UNL A   1      47.283  26.508  26.790  1.00  0.00     0.074 A 
ATOM     67  C   UNL A   1      47.426  25.119  26.407  1.00  0.00     0.031 C 
ATOM     68  C   UNL A   1      48.293  27.414  26.756  1.00  0.00     0.037 A 
BRANCH  55  69
ATOM     69  C   UNL A   1      46.652  33.088  28.577  1.00  0.00     0.058 A 
ATOM     70  C   UNL A   1      46.561  34.060  27.569  1.00  0.00     0.135 A 
ATOM     71  C   UNL A   1      47.081  33.505  29.848  1.00  0.00     0.135 A 
ATOM     72  F   UNL A   1      46.170  33.716  26.331  1.00  0.00    -0.206 F 
ATOM     73  C   UNL A   1      46.896  35.389  27.806  1.00  0.00     0.059 A 
ATOM     74  C   UNL A   1      47.397  34.835  30.115  1.00  0.00     0.059 A 
ATOM     75  F   UNL A   1      47.187  32.617  30.850  1.00  0.00    -0.206 F 
ATOM     76  C   UNL A   1      47.309  35.768  29.084  1.00  0.00     0.060 A 
BRANCH  76  77
ATOM     77  S   UNL A   1      47.709  37.504  29.379  1.00  0.00     0.124 S 
ATOM     78  O   UNL A   1      46.389  38.123  29.311  1.00  0.00    -0.237 OA
ATOM     79  O   UNL A   1      48.322  37.462  30.702  1.00  0.00    -0.237 OA
ATOM     80  O   UNL A   1      48.613  37.835  28.282  1.00  0.00    -0.744 OA
ENDBRANCH  76  77
ENDBRANCH  55  69
BRANCH  56  81
ATOM     81  C   UNL A   1      43.498  23.726  27.042  1.00  0.00     0.058 A 
ATOM     82  C   UNL A   1      43.164  23.294  25.749  1.00  0.00     0.135 A 
ATOM     83  C   UNL A   1      43.361  22.806  28.092  1.00  0.00     0.135 A 
ATOM     84  F   UNL A   1      43.275  24.138  24.711  1.00  0.00    -0.206 F 
ATOM     85  C   UNL A   1      42.675  22.013  25.511  1.00  0.00     0.059 A 
ATOM     86  C   UNL A   1      42.903  21.511  27.876  1.00  0.00     0.059 A 
ATOM     87  F   UNL A   1      43.686  23.161  29.346  1.00  0.00    -0.206 F 
ATOM     88  C   UNL A   1      42.544  21.130  26.584  1.00  0.00     0.060 A 
BRANCH  88  89
ATOM     89  S   UNL A   1      41.917  19.467  26.266  1.00  0.00     0.124 S 
ATOM     90  O   UNL A   1      42.647  19.105  25.056  1.00  0.00    -0.237 OA
ATOM     91  O   UNL A   1      42.298  18.755  27.481  1.00  0.00    -0.237 OA
ATOM     92  O   UNL A   1      40.482  19.677  26.097  1.00  0.00    -0.744 OA
ENDBRANCH  88  89
ENDBRANCH  56  81
BRANCH  68  93
ATOM     93  C   UNL A   1      49.646  26.917  26.323  1.00  0.00     0.058 A 
ATOM     94  C   UNL A   1      50.038  26.922  24.975  1.00  0.00     0.135 A 
ATOM     95  C   UNL A   1      50.567  26.443  27.271  1.00  0.00     0.135 A 
ATOM     96  F   UNL A   1      49.193  27.361  24.028  1.00  0.00    -0.206 F 
ATOM     97  C   UNL A   1      51.279  26.439  24.577  1.00  0.00     0.059 A 
ATOM     98  C   UNL A   1      51.826  25.983  26.899  1.00  0.00     0.059 A 
ATOM     99  F   UNL A   1      50.250  26.428  28.575  1.00  0.00    -0.206 F 
ATOM    100  C   UNL A   1      52.165  25.967  25.547  1.00  0.00     0.060 A 
BRANCH 100 101
ATOM    101  S   UNL A   1      53.776  25.344  25.019  1.00  0.00     0.124 S 
ATOM    102  O   UNL A   1      54.576  25.545  26.223  1.00  0.00    -0.237 OA
ATOM    103  O   UNL A   1      53.479  23.957  24.679  1.00  0.00    -0.237 OA
ATOM    104  O   UNL A   1      54.117  26.201  23.888  1.00  0.00    -0.744 OA
ENDBRANCH 100 101
ENDBRANCH  68  93
ENDBRANCH  42  43
ENDBRANCH  34  37
ENDBRANCH  32  33
ENDBRANCH  31  32
ENDBRANCH  30  31
ENDBRANCH  28  30
ENDBRANCH   1  26
TORSDOF 22
ENDMDL
MODEL 2
REMARK VINA RESULT:     -10.6      1.369      2.943
REMARK SMILES CCCCCCNC(=O)Oc1cccc(-c2ccc(CC(=O)NCCCNC(=O)c3ccc(-c4c5nc(c(-c6c(F)cc(S(=O)(=O)[O-])cc6F)c6ccc([nH]6)c(-c6c(F)cc(S(=O)(=O)[O-])cc6F)c6nc(c(-c7c(F)cc(S(=O)(=O)[O-])cc7F)c7ccc4[nH]7)C=C6)C=C5)cc3)cc2F)c1
REMARK SMILES IDX 20 1 19 2 16 3 17 4 97 5 18 6 96 7 98 8 15 9 11 10 12 11
REMARK SMILES IDX 99 12 13 13 14 14 10 15 8 16 7 17 9 19 6 20 5 21 4 22 3 23
REMARK SMILES IDX 2 24 1 25 21 26 22 27 23 28 24 30 25 31 26 32 27 33 28 34
REMARK SMILES IDX 29 36 30 37 31 38 95 39 32 40 94 41 33 42 34 43 35 44 88 45
REMARK SMILES IDX 36 46 93 47 87 48 89 49 37 50 92 51 86 52 85 53 38 55 72 56
REMARK SMILES IDX 51 57 71 58 52 59 55 60 70 61 90 62 53 63 54 64 69 66 91 67
REMARK SMILES IDX 56 68 39 69 40 70 49 71 41 72 42 73 48 74 50 75 43 76 44 77
REMARK SMILES IDX 45 78 46 79 47 80 73 81 74 82 83 83 75 84 76 85 82 86 84 87
REMARK SMILES IDX 77 88 78 89 79 90 80 91 81 92 57 93 58 94 67 95 59 96 60 97
REMARK SMILES IDX 66 98 68 99 61 100 62 101 63 102 64 103 65 104
REMARK H PARENT 7 18 23 29 27 35 89 54 55 65
REMARK Flexibility Score: inf
ROOT
ATOM      1  C   UNL A   1      35.035  31.911  28.594  1.00  0.00     0.135 C 
ENDROOT
BRANCH   1   2
ATOM      2  C   UNL A   1      34.184  30.981  27.767  1.00  0.00    -0.036 A 
ATOM      3  C   UNL A   1      32.621  29.248  26.155  1.00  0.00     0.018 A 
ATOM      4  C   UNL A   1      32.094  30.455  26.640  1.00  0.00     0.012 A 
ATOM      5  C   UNL A   1      33.938  28.927  26.510  1.00  0.00     0.131 A 
ATOM      6  C   UNL A   1      32.862  31.310  27.440  1.00  0.00     0.005 A 
ATOM      7  C   UNL A   1      34.707  29.767  27.311  1.00  0.00     0.044 A 
ATOM      8  F   UNL A   1      34.504  27.791  26.074  1.00  0.00    -0.206 F 
BRANCH   3   9
ATOM      9  C   UNL A   1      31.811  28.341  25.331  1.00  0.00    -0.012 A 
ATOM     10  C   UNL A   1      31.103  26.088  24.766  1.00  0.00     0.133 A 
ATOM     11  C   UNL A   1      30.282  26.571  23.752  1.00  0.00     0.047 A 
ATOM     12  C   UNL A   1      31.878  26.955  25.536  1.00  0.00     0.056 A 
ATOM     13  C   UNL A   1      30.206  27.945  23.534  1.00  0.00     0.004 A 
ATOM     14  C   UNL A   1      30.960  28.822  24.322  1.00  0.00     0.009 A 
BRANCH  10  15
ATOM     15  O   UNL A   1      31.205  24.696  24.909  1.00  0.00    -0.410 OA
BRANCH  15  16
ATOM     16  C   UNL A   1      31.616  24.197  26.135  1.00  0.00     0.412 C 
ATOM     17  N   UNL A   1      32.827  23.566  26.085  1.00  0.00    -0.321 N 
ATOM     18  H   UNL A   1      33.160  23.184  26.929  1.00  0.00     0.167 HD
ATOM     19  O   UNL A   1      31.002  24.273  27.198  1.00  0.00    -0.224 OA
BRANCH  17  20
ATOM     20  C   UNL A   1      33.672  23.399  24.920  1.00  0.00     0.119 C 
BRANCH  20  21
ATOM     21  C   UNL A   1      34.881  24.335  24.956  1.00  0.00     0.021 C 
BRANCH  21  22
ATOM     22  C   UNL A   1      36.026  23.876  25.870  1.00  0.00     0.002 C 
BRANCH  22  23
ATOM     23  C   UNL A   1      36.522  22.444  25.641  1.00  0.00    -0.000 C 
BRANCH  23  24
ATOM     24  C   UNL A   1      38.039  22.291  25.498  1.00  0.00    -0.003 C 
ATOM     25  C   UNL A   1      38.826  23.203  26.426  1.00  0.00     0.004 C 
ENDBRANCH  23  24
ENDBRANCH  22  23
ENDBRANCH  21  22
ENDBRANCH  20  21
ENDBRANCH  17  20
ENDBRANCH  15  16
ENDBRANCH  10  15
ENDBRANCH   3   9
ENDBRANCH   1   2
BRANCH   1  26
ATOM     26  C   UNL A   1      34.696  33.381  28.413  1.00  0.00     0.224 C 
ATOM     27  O   UNL A   1      34.410  33.840  27.306  1.00  0.00    -0.275 OA
ATOM     28  N   UNL A   1      34.668  34.215  29.494  1.00  0.00    -0.356 N 
ATOM     29  H   UNL A   1      34.388  35.140  29.306  1.00  0.00     0.163 HD
BRANCH  28  30
ATOM     30  C   UNL A   1      34.993  33.931  30.879  1.00  0.00     0.117 C 
BRANCH  30  31
ATOM     31  C   UNL A   1      36.449  34.254  31.218  1.00  0.00     0.042 C 
BRANCH  31  32
ATOM     32  C   UNL A   1      37.289  33.040  31.611  1.00  0.00     0.118 C 
BRANCH  32  33
ATOM     33  N   UNL A   1      36.493  31.831  31.757  1.00  0.00    -0.352 N 
ATOM     34  C   UNL A   1      36.729  30.543  31.352  1.00  0.00     0.251 C 
ATOM     35  H   UNL A   1      35.638  31.961  32.227  1.00  0.00     0.163 HD
ATOM     36  O   UNL A   1      35.810  29.728  31.425  1.00  0.00    -0.269 OA
BRANCH  34  37
ATOM     37  C   UNL A   1      38.048  30.119  30.827  1.00  0.00     0.039 A 
ATOM     38  C   UNL A   1      38.265  30.194  29.448  1.00  0.00     0.014 A 
ATOM     39  C   UNL A   1      39.043  29.587  31.653  1.00  0.00     0.014 A 
ATOM     40  C   UNL A   1      39.486  29.786  28.906  1.00  0.00     0.010 A 
ATOM     41  C   UNL A   1      40.288  29.245  31.121  1.00  0.00     0.010 A 
ATOM     42  C   UNL A   1      40.522  29.336  29.741  1.00  0.00    -0.014 A 
BRANCH  42  43
ATOM     43  C   UNL A   1      41.851  28.981  29.173  1.00  0.00     0.031 A 
ATOM     44  C   UNL A   1      42.956  30.002  29.097  1.00  0.00     0.074 A 
ATOM     45  C   UNL A   1      42.054  27.733  28.706  1.00  0.00     0.049 A 
ATOM     46  N   UNL A   1      44.174  29.865  28.635  1.00  0.00    -0.248 NA
ATOM     47  C   UNL A   1      42.651  31.356  29.586  1.00  0.00     0.031 C 
ATOM     48  C   UNL A   1      41.047  26.668  28.678  1.00  0.00     0.029 A 
ATOM     49  N   UNL A   1      43.169  27.145  28.165  1.00  0.00    -0.354 N 
ATOM     50  C   UNL A   1      44.779  31.109  28.779  1.00  0.00     0.074 A 
ATOM     51  C   UNL A   1      43.778  32.003  29.319  1.00  0.00     0.031 C 
ATOM     52  C   UNL A   1      41.602  25.550  28.181  1.00  0.00     0.029 A 
ATOM     53  C   UNL A   1      42.988  25.825  27.821  1.00  0.00     0.049 A 
ATOM     54  H   UNL A   1      44.021  27.622  28.037  1.00  0.00     0.167 HD
ATOM     55  C   UNL A   1      46.059  31.466  28.512  1.00  0.00     0.037 A 
ATOM     56  C   UNL A   1      43.841  24.936  27.276  1.00  0.00     0.037 A 
ATOM     57  C   UNL A   1      47.058  30.569  27.990  1.00  0.00     0.049 A 
ATOM     58  C   UNL A   1      45.254  25.364  26.982  1.00  0.00     0.074 A 
ATOM     59  C   UNL A   1      48.391  30.828  27.719  1.00  0.00     0.029 A 
ATOM     60  N   UNL A   1      46.837  29.239  27.660  1.00  0.00    -0.354 N 
ATOM     61  N   UNL A   1      45.822  26.529  27.178  1.00  0.00    -0.248 NA
ATOM     62  C   UNL A   1      46.146  24.351  26.400  1.00  0.00     0.031 C 
ATOM     63  C   UNL A   1      48.966  29.666  27.190  1.00  0.00     0.029 A 
ATOM     64  C   UNL A   1      48.004  28.670  27.176  1.00  0.00     0.049 A 
ATOM     65  H   UNL A   1      45.978  28.769  27.755  1.00  0.00     0.167 HD
ATOM     66  C   UNL A   1      47.143  26.382  26.771  1.00  0.00     0.074 A 
ATOM     67  C   UNL A   1      47.295  25.008  26.336  1.00  0.00     0.031 C 
ATOM     68  C   UNL A   1      48.142  27.300  26.752  1.00  0.00     0.037 A 
BRANCH  55  69
ATOM     69  C   UNL A   1      46.467  32.887  28.800  1.00  0.00     0.058 A 
ATOM     70  C   UNL A   1      46.351  33.892  27.827  1.00  0.00     0.135 A 
ATOM     71  C   UNL A   1      46.909  33.264  30.078  1.00  0.00     0.135 A 
ATOM     72  F   UNL A   1      45.947  33.586  26.583  1.00  0.00    -0.206 F 
ATOM     73  C   UNL A   1      46.675  35.216  28.105  1.00  0.00     0.059 A 
ATOM     74  C   UNL A   1      47.214  34.588  30.387  1.00  0.00     0.059 A 
ATOM     75  F   UNL A   1      47.039  32.344  31.047  1.00  0.00    -0.206 F 
ATOM     76  C   UNL A   1      47.101  35.555  29.390  1.00  0.00     0.060 A 
BRANCH  76  77
ATOM     77  S   UNL A   1      47.486  37.284  29.739  1.00  0.00     0.124 S 
ATOM     78  O   UNL A   1      48.573  37.151  30.704  1.00  0.00    -0.237 OA
ATOM     79  O   UNL A   1      47.865  37.791  28.424  1.00  0.00    -0.237 OA
ATOM     80  O   UNL A   1      46.234  37.810  30.274  1.00  0.00    -0.744 OA
ENDBRANCH  76  77
ENDBRANCH  55  69
BRANCH  56  81
ATOM     81  C   UNL A   1      43.395  23.547  26.985  1.00  0.00     0.058 A 
ATOM     82  C   UNL A   1      43.280  22.595  28.009  1.00  0.00     0.135 A 
ATOM     83  C   UNL A   1      43.099  23.136  25.676  1.00  0.00     0.135 A 
ATOM     84  F   UNL A   1      43.555  22.938  29.277  1.00  0.00    -0.206 F 
ATOM     85  C   UNL A   1      42.924  21.276  27.743  1.00  0.00     0.059 A 
ATOM     86  C   UNL A   1      42.713  21.831  25.389  1.00  0.00     0.059 A 
ATOM     87  F   UNL A   1      43.174  24.012  24.662  1.00  0.00    -0.206 F 
ATOM     88  C   UNL A   1      42.647  20.903  26.427  1.00  0.00     0.060 A 
BRANCH  88  89
ATOM     89  S   UNL A   1      42.178  19.192  26.091  1.00  0.00     0.124 S 
ATOM     90  O   UNL A   1      43.058  18.862  24.974  1.00  0.00    -0.237 OA
ATOM     91  O   UNL A   1      42.478  18.535  27.358  1.00  0.00    -0.237 OA
ATOM     92  O   UNL A   1      40.758  19.293  25.766  1.00  0.00    -0.744 OA
ENDBRANCH  88  89
ENDBRANCH  56  81
BRANCH  68  93
ATOM     93  C   UNL A   1      49.493  26.835  26.280  1.00  0.00     0.058 A 
ATOM     94  C   UNL A   1      50.493  26.435  27.180  1.00  0.00     0.135 A 
ATOM     95  C   UNL A   1      49.785  26.775  24.908  1.00  0.00     0.135 A 
ATOM     96  F   UNL A   1      50.267  26.479  28.503  1.00  0.00    -0.206 F 
ATOM     97  C   UNL A   1      51.748  26.031  26.740  1.00  0.00     0.059 A 
ATOM     98  C   UNL A   1      51.023  26.344  24.443  1.00  0.00     0.059 A 
ATOM     99  F   UNL A   1      48.860  27.132  24.003  1.00  0.00    -0.206 F 
ATOM    100  C   UNL A   1      52.005  25.992  25.368  1.00  0.00     0.060 A 
BRANCH 100 101
ATOM    101  S   UNL A   1      53.637  25.462  24.806  1.00  0.00     0.124 S 
ATOM    102  O   UNL A   1      54.481  25.884  25.920  1.00  0.00    -0.237 OA
ATOM    103  O   UNL A   1      53.463  24.021  24.653  1.00  0.00    -0.237 OA
ATOM    104  O   UNL A   1      53.824  26.200  23.561  1.00  0.00    -0.744 OA
ENDBRANCH 100 101
ENDBRANCH  68  93
ENDBRANCH  42  43
ENDBRANCH  34  37
ENDBRANCH  32  33
ENDBRANCH  31  32
ENDBRANCH  30  31
ENDBRANCH  28  30
ENDBRANCH   1  26
TORSDOF 22
ENDMDL
MODEL 3
REMARK VINA RESULT:     -10.5      1.951      3.297
REMARK SMILES CCCCCCNC(=O)Oc1cccc(-c2ccc(CC(=O)NCCCNC(=O)c3ccc(-c4c5nc(c(-c6c(F)cc(S(=O)(=O)[O-])cc6F)c6ccc([nH]6)c(-c6c(F)cc(S(=O)(=O)[O-])cc6F)c6nc(c(-c7c(F)cc(S(=O)(=O)[O-])cc7F)c7ccc4[nH]7)C=C6)C=C5)cc3)cc2F)c1
REMARK SMILES IDX 20 1 19 2 16 3 17 4 97 5 18 6 96 7 98 8 15 9 11 10 12 11
REMARK SMILES IDX 99 12 13 13 14 14 10 15 8 16 7 17 9 19 6 20 5 21 4 22 3 23
REMARK SMILES IDX 2 24 1 25 21 26 22 27 23 28 24 30 25 31 26 32 27 33 28 34
REMARK SMILES IDX 29 36 30 37 31 38 95 39 32 40 94 41 33 42 34 43 35 44 88 45
REMARK SMILES IDX 36 46 93 47 87 48 89 49 37 50 92 51 86 52 85 53 38 55 72 56
REMARK SMILES IDX 51 57 71 58 52 59 55 60 70 61 90 62 53 63 54 64 69 66 91 67
REMARK SMILES IDX 56 68 39 69 40 70 49 71 41 72 42 73 48 74 50 75 43 76 44 77
REMARK SMILES IDX 45 78 46 79 47 80 73 81 74 82 83 83 75 84 76 85 82 86 84 87
REMARK SMILES IDX 77 88 78 89 79 90 80 91 81 92 57 93 58 94 67 95 59 96 60 97
REMARK SMILES IDX 66 98 68 99 61 100 62 101 63 102 64 103 65 104
REMARK H PARENT 7 18 23 29 27 35 89 54 55 65
REMARK Flexibility Score: inf
ROOT
ATOM      1  C   UNL A   1      33.752  32.344  28.779  1.00  0.00     0.135 C 
ENDROOT
BRANCH   1   2
ATOM      2  C   UNL A   1      33.708  31.184  27.817  1.00  0.00    -0.036 A 
ATOM      3  C   UNL A   1      33.676  29.031  25.970  1.00  0.00     0.018 A 
ATOM      4  C   UNL A   1      32.616  29.951  26.027  1.00  0.00     0.012 A 
ATOM      5  C   UNL A   1      34.737  29.208  26.868  1.00  0.00     0.131 A 
ATOM      6  C   UNL A   1      32.628  31.011  26.942  1.00  0.00     0.005 A 
ATOM      7  C   UNL A   1      34.753  30.255  27.786  1.00  0.00     0.044 A 
ATOM      8  F   UNL A   1      35.783  28.368  26.861  1.00  0.00    -0.206 F 
BRANCH   3   9
ATOM      9  C   UNL A   1      33.657  27.907  25.025  1.00  0.00    -0.012 A 
ATOM     10  C   UNL A   1      33.512  25.520  24.605  1.00  0.00     0.133 A 
ATOM     11  C   UNL A   1      33.638  25.725  23.235  1.00  0.00     0.047 A 
ATOM     12  C   UNL A   1      33.543  26.591  25.497  1.00  0.00     0.056 A 
ATOM     13  C   UNL A   1      33.755  27.026  22.749  1.00  0.00     0.004 A 
ATOM     14  C   UNL A   1      33.757  28.108  23.637  1.00  0.00     0.009 A 
BRANCH  10  15
ATOM     15  O   UNL A   1      33.467  24.193  25.059  1.00  0.00    -0.410 OA
BRANCH  15  16
ATOM     16  C   UNL A   1      34.541  23.368  24.761  1.00  0.00     0.412 C 
ATOM     17  N   UNL A   1      34.181  22.225  24.106  1.00  0.00    -0.321 N 
ATOM     18  H   UNL A   1      34.907  21.599  23.881  1.00  0.00     0.167 HD
ATOM     19  O   UNL A   1      35.722  23.579  25.034  1.00  0.00    -0.224 OA
BRANCH  17  20
ATOM     20  C   UNL A   1      32.842  21.836  23.709  1.00  0.00     0.119 C 
BRANCH  20  21
ATOM     21  C   UNL A   1      32.537  20.386  24.086  1.00  0.00     0.021 C 
BRANCH  21  22
ATOM     22  C   UNL A   1      33.609  19.702  24.946  1.00  0.00     0.002 C 
BRANCH  22  23
ATOM     23  C   UNL A   1      34.238  18.442  24.342  1.00  0.00    -0.000 C 
BRANCH  23  24
ATOM     24  C   UNL A   1      33.290  17.253  24.171  1.00  0.00    -0.003 C 
ATOM     25  C   UNL A   1      32.546  16.889  25.446  1.00  0.00     0.004 C 
ENDBRANCH  23  24
ENDBRANCH  22  23
ENDBRANCH  21  22
ENDBRANCH  20  21
ENDBRANCH  17  20
ENDBRANCH  15  16
ENDBRANCH  10  15
ENDBRANCH   3   9
ENDBRANCH   1   2
BRANCH   1  26
ATOM     26  C   UNL A   1      34.136  33.664  28.134  1.00  0.00     0.224 C 
ATOM     27  O   UNL A   1      33.281  34.441  27.708  1.00  0.00    -0.275 OA
ATOM     28  N   UNL A   1      35.450  34.028  28.051  1.00  0.00    -0.356 N 
ATOM     29  H   UNL A   1      35.619  34.920  27.670  1.00  0.00     0.163 HD
BRANCH  28  30
ATOM     30  C   UNL A   1      36.634  33.284  28.444  1.00  0.00     0.117 C 
BRANCH  30  31
ATOM     31  C   UNL A   1      37.593  34.117  29.295  1.00  0.00     0.042 C 
BRANCH  31  32
ATOM     32  C   UNL A   1      37.512  33.836  30.794  1.00  0.00     0.118 C 
BRANCH  32  33
ATOM     33  N   UNL A   1      36.704  32.666  31.102  1.00  0.00    -0.352 N 
ATOM     34  C   UNL A   1      36.930  31.332  30.881  1.00  0.00     0.251 C 
ATOM     35  H   UNL A   1      35.848  32.866  31.545  1.00  0.00     0.163 HD
ATOM     36  O   UNL A   1      36.004  30.543  31.060  1.00  0.00    -0.269 OA
BRANCH  34  37
ATOM     37  C   UNL A   1      38.248  30.828  30.427  1.00  0.00     0.039 A 
ATOM     38  C   UNL A   1      38.392  30.476  29.081  1.00  0.00     0.014 A 
ATOM     39  C   UNL A   1      39.315  30.632  31.309  1.00  0.00     0.014 A 
ATOM     40  C   UNL A   1      39.611  29.978  28.613  1.00  0.00     0.010 A 
ATOM     41  C   UNL A   1      40.553  30.200  30.828  1.00  0.00     0.010 A 
ATOM     42  C   UNL A   1      40.714  29.864  29.476  1.00  0.00    -0.014 A 
BRANCH  42  43
ATOM     43  C   UNL A   1      42.034  29.413  28.958  1.00  0.00     0.031 A 
ATOM     44  C   UNL A   1      43.194  30.369  28.863  1.00  0.00     0.074 A 
ATOM     45  C   UNL A   1      42.180  28.135  28.555  1.00  0.00     0.049 A 
ATOM     46  N   UNL A   1      44.413  30.147  28.439  1.00  0.00    -0.248 NA
ATOM     47  C   UNL A   1      42.951  31.759  29.281  1.00  0.00     0.031 C 
ATOM     48  C   UNL A   1      41.119  27.124  28.552  1.00  0.00     0.029 A 
ATOM     49  N   UNL A   1      43.275  27.463  28.072  1.00  0.00    -0.354 N 
ATOM     50  C   UNL A   1      45.081  31.362  28.541  1.00  0.00     0.074 A 
ATOM     51  C   UNL A   1      44.117  32.333  29.012  1.00  0.00     0.031 C 
ATOM     52  C   UNL A   1      41.623  25.956  28.123  1.00  0.00     0.029 A 
ATOM     53  C   UNL A   1      43.031  26.140  27.785  1.00  0.00     0.049 A 
ATOM     54  H   UNL A   1      44.153  27.888  27.943  1.00  0.00     0.167 HD
ATOM     55  C   UNL A   1      46.384  31.638  28.290  1.00  0.00     0.037 A 
ATOM     56  C   UNL A   1      43.847  25.182  27.304  1.00  0.00     0.037 A 
ATOM     57  C   UNL A   1      47.344  30.665  27.835  1.00  0.00     0.049 A 
ATOM     58  C   UNL A   1      45.287  25.520  27.026  1.00  0.00     0.074 A 
ATOM     59  C   UNL A   1      48.696  30.841  27.587  1.00  0.00     0.029 A 
ATOM     60  N   UNL A   1      47.060  29.335  27.563  1.00  0.00    -0.354 N 
ATOM     61  N   UNL A   1      45.912  26.662  27.183  1.00  0.00    -0.248 NA
ATOM     62  C   UNL A   1      46.136  24.435  26.515  1.00  0.00     0.031 C 
ATOM     63  C   UNL A   1      49.219  29.626  27.128  1.00  0.00     0.029 A 
ATOM     64  C   UNL A   1      48.206  28.682  27.135  1.00  0.00     0.049 A 
ATOM     65  H   UNL A   1      46.175  28.916  27.658  1.00  0.00     0.167 HD
ATOM     66  C   UNL A   1      47.233  26.426  26.816  1.00  0.00     0.074 A 
ATOM     67  C   UNL A   1      47.320  25.027  26.451  1.00  0.00     0.031 C 
ATOM     68  C   UNL A   1      48.279  27.288  26.781  1.00  0.00     0.037 A 
BRANCH  55  69
ATOM     69  C   UNL A   1      46.860  33.047  28.521  1.00  0.00     0.058 A 
ATOM     70  C   UNL A   1      47.440  33.434  29.739  1.00  0.00     0.135 A 
ATOM     71  C   UNL A   1      46.803  34.003  27.493  1.00  0.00     0.135 A 
ATOM     72  F   UNL A   1      47.507  32.566  30.761  1.00  0.00    -0.206 F 
ATOM     73  C   UNL A   1      47.931  34.720  29.937  1.00  0.00     0.059 A 
ATOM     74  C   UNL A   1      47.312  35.289  27.660  1.00  0.00     0.059 A 
ATOM     75  F   UNL A   1      46.259  33.689  26.307  1.00  0.00    -0.206 F 
ATOM     76  C   UNL A   1      47.866  35.640  28.890  1.00  0.00     0.060 A 
BRANCH  76  77
ATOM     77  S   UNL A   1      48.537  37.295  29.156  1.00  0.00     0.124 S 
ATOM     78  O   UNL A   1      47.414  37.963  29.808  1.00  0.00    -0.237 OA
ATOM     79  O   UNL A   1      49.695  37.030  30.004  1.00  0.00    -0.237 OA
ATOM     80  O   UNL A   1      48.845  37.759  27.807  1.00  0.00    -0.744 OA
ENDBRANCH  76  77
ENDBRANCH  55  69
BRANCH  56  81
ATOM     81  C   UNL A   1      43.333  23.806  27.068  1.00  0.00     0.058 A 
ATOM     82  C   UNL A   1      43.153  22.908  28.131  1.00  0.00     0.135 A 
ATOM     83  C   UNL A   1      43.037  23.352  25.773  1.00  0.00     0.135 A 
ATOM     84  F   UNL A   1      43.427  23.293  29.387  1.00  0.00    -0.206 F 
ATOM     85  C   UNL A   1      42.734  21.599  27.917  1.00  0.00     0.059 A 
ATOM     86  C   UNL A   1      42.587  22.057  25.537  1.00  0.00     0.059 A 
ATOM     87  F   UNL A   1      43.172  24.177  24.722  1.00  0.00    -0.206 F 
ATOM     88  C   UNL A   1      42.458  21.182  26.614  1.00  0.00     0.060 A 
BRANCH  88  89
ATOM     89  S   UNL A   1      41.905  19.484  26.346  1.00  0.00     0.124 S 
ATOM     90  O   UNL A   1      42.616  19.135  25.120  1.00  0.00    -0.237 OA
ATOM     91  O   UNL A   1      42.359  18.815  27.560  1.00  0.00    -0.237 OA
ATOM     92  O   UNL A   1      40.457  19.619  26.218  1.00  0.00    -0.744 OA
ENDBRANCH  88  89
ENDBRANCH  56  81
BRANCH  68  93
ATOM     93  C   UNL A   1      49.614  26.731  26.365  1.00  0.00     0.058 A 
ATOM     94  C   UNL A   1      50.123  26.922  25.071  1.00  0.00     0.135 A 
ATOM     95  C   UNL A   1      50.399  26.008  27.278  1.00  0.00     0.135 A 
ATOM     96  F   UNL A   1      49.410  27.600  24.158  1.00  0.00    -0.206 F 
ATOM     97  C   UNL A   1      51.345  26.383  24.684  1.00  0.00     0.059 A 
ATOM     98  C   UNL A   1      51.638  25.486  26.922  1.00  0.00     0.059 A 
ATOM     99  F   UNL A   1      49.966  25.808  28.532  1.00  0.00    -0.206 F 
ATOM    100  C   UNL A   1      52.094  25.663  25.616  1.00  0.00     0.060 A 
BRANCH 100 101
ATOM    101  S   UNL A   1      53.681  24.970  25.104  1.00  0.00     0.124 S 
ATOM    102  O   UNL A   1      53.382  23.541  25.080  1.00  0.00    -0.237 OA
ATOM    103  O   UNL A   1      53.891  25.596  23.803  1.00  0.00    -0.237 OA
ATOM    104  O   UNL A   1      54.596  25.403  26.155  1.00  0.00    -0.744 OA
ENDBRANCH 100 101
ENDBRANCH  68  93
ENDBRANCH  42  43
ENDBRANCH  34  37
ENDBRANCH  32  33
ENDBRANCH  31  32
ENDBRANCH  30  31
ENDBRANCH  28  30
ENDBRANCH   1  26
TORSDOF 22
ENDMDL
