MODEL 1
REMARK VINA RESULT:     -11.6      0.000      0.000
REMARK SMILES Nc1ccc(O)c(C(=O)NCCCNC(=O)c2ccc(-c3c4nc(c(-c5c(F)cc(S(=O)(=O)[O-])cc5F)c5ccc([nH]5)c(-c5c(F)cc(S(=O)(=O)[O-])cc5F)c5nc(c(-c6c(F)cc(S(=O)(=O)[O-])cc6F)c6ccc3[nH]6)C=C5)C=C4)cc2)c1
REMARK SMILES IDX 13 1 12 2 11 3 10 4 8 5 9 6 7 8 2 9 3 10 83 11 4 12 5 13
REMARK SMILES IDX 1 14 6 17 14 19 15 20 16 22 17 23 18 24 82 25 19 26 81 27
REMARK SMILES IDX 20 28 21 29 22 30 75 31 23 32 80 33 74 34 76 35 24 36 79 37
REMARK SMILES IDX 73 38 72 39 25 41 59 42 38 43 58 44 39 45 42 46 57 47 77 48
REMARK SMILES IDX 40 49 41 50 56 52 78 53 43 54 26 55 27 56 36 57 28 58 29 59
REMARK SMILES IDX 35 60 37 61 30 62 31 63 32 64 33 65 34 66 60 67 61 68 70 69
REMARK SMILES IDX 62 70 63 71 69 72 71 73 64 74 65 75 66 76 67 77 68 78 44 79
REMARK SMILES IDX 45 80 54 81 46 82 47 83 53 84 55 85 48 86 49 87 50 88 51 89
REMARK SMILES IDX 52 90
REMARK H PARENT 10 7 1 15 1 16 6 18 14 21 76 40 42 51
REMARK Flexibility Score: inf
ROOT
ATOM      1  C   UNL A   1      36.766  33.321  30.136  1.00  0.00     0.118 C 
ENDROOT
BRANCH   1   2
ATOM      2  C   UNL A   1      35.941  33.687  28.903  1.00  0.00     0.042 C 
BRANCH   2   3
ATOM      3  C   UNL A   1      34.481  33.256  29.021  1.00  0.00     0.118 C 
BRANCH   3   4
ATOM      4  N   UNL A   1      33.591  34.365  28.730  1.00  0.00    -0.352 N 
ATOM      5  C   UNL A   1      33.104  35.405  29.475  1.00  0.00     0.255 C 
ATOM      6  O   UNL A   1      32.375  36.212  28.884  1.00  0.00    -0.269 OA
ATOM      7  H   UNL A   1      33.269  34.369  27.800  1.00  0.00     0.163 HD
BRANCH   5   8
ATOM      8  C   UNL A   1      33.433  35.676  30.904  1.00  0.00     0.083 A 
ATOM      9  C   UNL A   1      34.096  34.998  33.160  1.00  0.00     0.032 A 
ATOM     10  C   UNL A   1      34.174  36.337  33.538  1.00  0.00     0.029 A 
ATOM     11  C   UNL A   1      33.706  34.680  31.851  1.00  0.00     0.043 A 
ATOM     12  C   UNL A   1      33.831  37.345  32.638  1.00  0.00     0.049 A 
ATOM     13  C   UNL A   1      33.467  37.016  31.335  1.00  0.00     0.128 A 
BRANCH   9  14
ATOM     14  N   UNL A   1      34.522  34.001  34.023  1.00  0.00    -0.399 N 
ATOM     15  H   UNL A   1      34.559  34.173  34.993  1.00  0.00     0.156 HD
ATOM     16  H   UNL A   1      34.788  33.123  33.669  1.00  0.00     0.156 HD
ENDBRANCH   9  14
BRANCH  13  17
ATOM     17  O   UNL A   1      33.160  38.081  30.527  1.00  0.00    -0.507 OA
ATOM     18  H   UNL A   1      32.278  38.209  30.236  1.00  0.00     0.293 HD
ENDBRANCH  13  17
ENDBRANCH   5   8
ENDBRANCH   3   4
ENDBRANCH   2   3
ENDBRANCH   1   2
BRANCH   1  19
ATOM     19  N   UNL A   1      36.219  32.157  30.825  1.00  0.00    -0.352 N 
ATOM     20  C   UNL A   1      36.689  30.866  30.879  1.00  0.00     0.251 C 
ATOM     21  H   UNL A   1      35.389  32.320  31.328  1.00  0.00     0.163 HD
ATOM     22  O   UNL A   1      35.963  29.972  31.299  1.00  0.00    -0.269 OA
BRANCH  20  23
ATOM     23  C   UNL A   1      38.061  30.562  30.423  1.00  0.00     0.039 A 
ATOM     24  C   UNL A   1      39.091  30.476  31.364  1.00  0.00     0.014 A 
ATOM     25  C   UNL A   1      38.330  30.376  29.065  1.00  0.00     0.014 A 
ATOM     26  C   UNL A   1      40.379  30.132  30.949  1.00  0.00     0.010 A 
ATOM     27  C   UNL A   1      39.595  29.959  28.664  1.00  0.00     0.010 A 
ATOM     28  C   UNL A   1      40.632  29.831  29.600  1.00  0.00    -0.014 A 
BRANCH  28  29
ATOM     29  C   UNL A   1      41.965  29.370  29.138  1.00  0.00     0.031 A 
ATOM     30  C   UNL A   1      43.089  30.359  28.989  1.00  0.00     0.074 A 
ATOM     31  C   UNL A   1      42.131  28.088  28.758  1.00  0.00     0.049 A 
ATOM     32  N   UNL A   1      44.277  30.187  28.470  1.00  0.00    -0.248 NA
ATOM     33  C   UNL A   1      42.832  31.730  29.460  1.00  0.00     0.031 C 
ATOM     34  C   UNL A   1      41.103  27.047  28.822  1.00  0.00     0.029 A 
ATOM     35  N   UNL A   1      43.220  27.444  28.225  1.00  0.00    -0.354 N 
ATOM     36  C   UNL A   1      44.900  31.429  28.531  1.00  0.00     0.074 A 
ATOM     37  C   UNL A   1      43.941  32.355  29.092  1.00  0.00     0.031 C 
ATOM     38  C   UNL A   1      41.612  25.895  28.355  1.00  0.00     0.029 A 
ATOM     39  C   UNL A   1      42.983  26.125  27.913  1.00  0.00     0.049 A 
ATOM     40  H   UNL A   1      44.088  27.885  28.078  1.00  0.00     0.167 HD
ATOM     41  C   UNL A   1      46.162  31.759  28.169  1.00  0.00     0.037 A 
ATOM     42  C   UNL A   1      43.774  25.209  27.319  1.00  0.00     0.037 A 
ATOM     43  C   UNL A   1      47.113  30.821  27.633  1.00  0.00     0.049 A 
ATOM     44  C   UNL A   1      45.167  25.605  26.909  1.00  0.00     0.074 A 
ATOM     45  C   UNL A   1      48.435  31.041  27.288  1.00  0.00     0.029 A 
ATOM     46  N   UNL A   1      46.844  29.488  27.357  1.00  0.00    -0.354 N 
ATOM     47  N   UNL A   1      45.762  26.769  27.029  1.00  0.00    -0.248 NA
ATOM     48  C   UNL A   1      46.000  24.567  26.286  1.00  0.00     0.031 C 
ATOM     49  C   UNL A   1      48.949  29.856  26.755  1.00  0.00     0.029 A 
ATOM     50  C   UNL A   1      47.967  28.879  26.823  1.00  0.00     0.049 A 
ATOM     51  H   UNL A   1      45.981  29.041  27.517  1.00  0.00     0.167 HD
ATOM     52  C   UNL A   1      47.046  26.593  26.527  1.00  0.00     0.074 A 
ATOM     53  C   UNL A   1      47.146  25.210  26.107  1.00  0.00     0.031 C 
ATOM     54  C   UNL A   1      48.054  27.495  26.427  1.00  0.00     0.037 A 
BRANCH  41  55
ATOM     55  C   UNL A   1      46.589  33.192  28.340  1.00  0.00     0.058 A 
ATOM     56  C   UNL A   1      47.183  33.651  29.527  1.00  0.00     0.135 A 
ATOM     57  C   UNL A   1      46.439  34.112  27.288  1.00  0.00     0.135 A 
ATOM     58  F   UNL A   1      47.338  32.821  30.570  1.00  0.00    -0.206 F 
ATOM     59  C   UNL A   1      47.585  34.974  29.677  1.00  0.00     0.059 A 
ATOM     60  C   UNL A   1      46.863  35.432  27.405  1.00  0.00     0.059 A 
ATOM     61  F   UNL A   1      45.877  33.729  26.130  1.00  0.00    -0.206 F 
ATOM     62  C   UNL A   1      47.421  35.857  28.608  1.00  0.00     0.060 A 
BRANCH  62  63
ATOM     63  S   UNL A   1      47.956  37.568  28.819  1.00  0.00     0.124 S 
ATOM     64  O   UNL A   1      49.399  37.406  28.968  1.00  0.00    -0.237 OA
ATOM     65  O   UNL A   1      47.514  38.188  27.573  1.00  0.00    -0.237 OA
ATOM     66  O   UNL A   1      47.247  38.003  30.018  1.00  0.00    -0.744 OA
ENDBRANCH  62  63
ENDBRANCH  41  55
BRANCH  42  67
ATOM     67  C   UNL A   1      43.270  23.829  27.087  1.00  0.00     0.058 A 
ATOM     68  C   UNL A   1      42.899  23.403  25.804  1.00  0.00     0.135 A 
ATOM     69  C   UNL A   1      43.161  22.904  28.138  1.00  0.00     0.135 A 
ATOM     70  F   UNL A   1      42.978  24.251  24.767  1.00  0.00    -0.206 F 
ATOM     71  C   UNL A   1      42.425  22.116  25.570  1.00  0.00     0.059 A 
ATOM     72  C   UNL A   1      42.716  21.603  27.926  1.00  0.00     0.059 A 
ATOM     73  F   UNL A   1      43.519  23.255  29.384  1.00  0.00    -0.206 F 
ATOM     74  C   UNL A   1      42.341  21.221  26.638  1.00  0.00     0.060 A 
BRANCH  74  75
ATOM     75  S   UNL A   1      41.770  19.539  26.314  1.00  0.00     0.124 S 
ATOM     76  O   UNL A   1      42.477  19.222  25.079  1.00  0.00    -0.237 OA
ATOM     77  O   UNL A   1      42.218  18.829  27.508  1.00  0.00    -0.237 OA
ATOM     78  O   UNL A   1      40.323  19.692  26.193  1.00  0.00    -0.744 OA
ENDBRANCH  74  75
ENDBRANCH  42  67
BRANCH  54  79
ATOM     79  C   UNL A   1      49.373  27.015  25.887  1.00  0.00     0.058 A 
ATOM     80  C   UNL A   1      49.696  27.111  24.525  1.00  0.00     0.135 A 
ATOM     81  C   UNL A   1      50.361  26.532  26.762  1.00  0.00     0.135 A 
ATOM     82  F   UNL A   1      48.784  27.555  23.644  1.00  0.00    -0.206 F 
ATOM     83  C   UNL A   1      50.948  26.738  24.048  1.00  0.00     0.059 A 
ATOM     84  C   UNL A   1      51.629  26.183  26.312  1.00  0.00     0.059 A 
ATOM     85  F   UNL A   1      50.106  26.428  28.077  1.00  0.00    -0.206 F 
ATOM     86  C   UNL A   1      51.912  26.285  24.952  1.00  0.00     0.060 A 
BRANCH  86  87
ATOM     87  S   UNL A   1      53.554  25.869  24.327  1.00  0.00     0.124 S 
ATOM     88  O   UNL A   1      54.385  26.864  24.997  1.00  0.00    -0.237 OA
ATOM     89  O   UNL A   1      53.720  24.493  24.781  1.00  0.00    -0.237 OA
ATOM     90  O   UNL A   1      53.420  26.036  22.882  1.00  0.00    -0.744 OA
ENDBRANCH  86  87
ENDBRANCH  54  79
ENDBRANCH  28  29
ENDBRANCH  20  23
ENDBRANCH   1  19
TORSDOF 15
ENDMDL
MODEL 2
REMARK VINA RESULT:     -11.4      4.643      5.870
REMARK SMILES Nc1ccc(O)c(C(=O)NCCCNC(=O)c2ccc(-c3c4nc(c(-c5c(F)cc(S(=O)(=O)[O-])cc5F)c5ccc([nH]5)c(-c5c(F)cc(S(=O)(=O)[O-])cc5F)c5nc(c(-c6c(F)cc(S(=O)(=O)[O-])cc6F)c6ccc3[nH]6)C=C5)C=C4)cc2)c1
REMARK SMILES IDX 13 1 12 2 11 3 10 4 8 5 9 6 7 8 2 9 3 10 83 11 4 12 5 13
REMARK SMILES IDX 1 14 6 17 14 19 15 20 16 22 17 23 18 24 82 25 19 26 81 27
REMARK SMILES IDX 20 28 21 29 22 30 75 31 23 32 80 33 74 34 76 35 24 36 79 37
REMARK SMILES IDX 73 38 72 39 25 41 59 42 38 43 58 44 39 45 42 46 57 47 77 48
REMARK SMILES IDX 40 49 41 50 56 52 78 53 43 54 26 55 27 56 36 57 28 58 29 59
REMARK SMILES IDX 35 60 37 61 30 62 31 63 32 64 33 65 34 66 60 67 61 68 70 69
REMARK SMILES IDX 62 70 63 71 69 72 71 73 64 74 65 75 66 76 67 77 68 78 44 79
REMARK SMILES IDX 45 80 54 81 46 82 47 83 53 84 55 85 48 86 49 87 50 88 51 89
REMARK SMILES IDX 52 90
REMARK H PARENT 10 7 1 15 1 16 6 18 14 21 76 40 42 51
REMARK Flexibility Score: inf
ROOT
ATOM      1  C   UNL A   1      33.568  28.370  27.247  1.00  0.00     0.118 C 
ENDROOT
BRANCH   1   2
ATOM      2  C   UNL A   1      32.341  27.905  26.464  1.00  0.00     0.042 C 
BRANCH   2   3
ATOM      3  C   UNL A   1      32.178  28.636  25.133  1.00  0.00     0.118 C 
BRANCH   3   4
ATOM      4  N   UNL A   1      32.130  27.694  24.030  1.00  0.00    -0.352 N 
ATOM      5  C   UNL A   1      31.245  27.482  23.007  1.00  0.00     0.255 C 
ATOM      6  O   UNL A   1      31.539  26.592  22.200  1.00  0.00    -0.269 OA
ATOM      7  H   UNL A   1      32.896  27.076  24.016  1.00  0.00     0.163 HD
BRANCH   5   8
ATOM      8  C   UNL A   1      30.007  28.275  22.754  1.00  0.00     0.083 A 
ATOM      9  C   UNL A   1      27.597  28.668  22.900  1.00  0.00     0.032 A 
ATOM     10  C   UNL A   1      27.771  29.934  22.345  1.00  0.00     0.029 A 
ATOM     11  C   UNL A   1      28.715  27.843  23.081  1.00  0.00     0.043 A 
ATOM     12  C   UNL A   1      29.035  30.358  21.938  1.00  0.00     0.049 A 
ATOM     13  C   UNL A   1      30.140  29.537  22.144  1.00  0.00     0.128 A 
BRANCH   9  14
ATOM     14  N   UNL A   1      26.358  28.282  23.386  1.00  0.00    -0.399 N 
ATOM     15  H   UNL A   1      25.715  27.830  22.792  1.00  0.00     0.156 HD
ATOM     16  H   UNL A   1      26.119  28.459  24.324  1.00  0.00     0.156 HD
ENDBRANCH   9  14
BRANCH  13  17
ATOM     17  O   UNL A   1      31.339  30.052  21.718  1.00  0.00    -0.507 OA
ATOM     18  H   UNL A   1      32.139  29.761  22.111  1.00  0.00     0.293 HD
ENDBRANCH  13  17
ENDBRANCH   5   8
ENDBRANCH   3   4
ENDBRANCH   2   3
ENDBRANCH   1   2
BRANCH   1  19
ATOM     19  N   UNL A   1      33.530  29.806  27.508  1.00  0.00    -0.352 N 
ATOM     20  C   UNL A   1      34.462  30.614  28.113  1.00  0.00     0.251 C 
ATOM     21  H   UNL A   1      32.713  30.265  27.205  1.00  0.00     0.163 HD
ATOM     22  O   UNL A   1      34.148  31.745  28.467  1.00  0.00    -0.269 OA
BRANCH  20  23
ATOM     23  C   UNL A   1      35.834  30.114  28.342  1.00  0.00     0.039 A 
ATOM     24  C   UNL A   1      36.760  30.158  27.296  1.00  0.00     0.014 A 
ATOM     25  C   UNL A   1      36.197  29.590  29.585  1.00  0.00     0.014 A 
ATOM     26  C   UNL A   1      38.074  29.741  27.520  1.00  0.00     0.010 A 
ATOM     27  C   UNL A   1      37.523  29.248  29.827  1.00  0.00     0.010 A 
ATOM     28  C   UNL A   1      38.475  29.321  28.799  1.00  0.00    -0.014 A 
BRANCH  28  29
ATOM     29  C   UNL A   1      39.885  28.962  29.098  1.00  0.00     0.031 A 
ATOM     30  C   UNL A   1      40.826  30.007  29.632  1.00  0.00     0.074 A 
ATOM     31  C   UNL A   1      40.337  27.730  28.793  1.00  0.00     0.049 A 
ATOM     32  N   UNL A   1      42.118  29.935  29.822  1.00  0.00    -0.248 NA
ATOM     33  C   UNL A   1      40.241  31.315  29.970  1.00  0.00     0.031 C 
ATOM     34  C   UNL A   1      39.526  26.645  28.235  1.00  0.00     0.029 A 
ATOM     35  N   UNL A   1      41.594  27.186  28.891  1.00  0.00    -0.354 N 
ATOM     36  C   UNL A   1      42.503  31.191  30.279  1.00  0.00     0.074 A 
ATOM     37  C   UNL A   1      41.317  32.019  30.291  1.00  0.00     0.031 C 
ATOM     38  C   UNL A   1      40.303  25.566  28.048  1.00  0.00     0.029 A 
ATOM     39  C   UNL A   1      41.674  25.893  28.425  1.00  0.00     0.049 A 
ATOM     40  H   UNL A   1      42.366  27.675  29.257  1.00  0.00     0.167 HD
ATOM     41  C   UNL A   1      43.731  31.606  30.670  1.00  0.00     0.037 A 
ATOM     42  C   UNL A   1      42.735  25.073  28.296  1.00  0.00     0.037 A 
ATOM     43  C   UNL A   1      44.899  30.765  30.674  1.00  0.00     0.049 A 
ATOM     44  C   UNL A   1      44.093  25.564  28.720  1.00  0.00     0.074 A 
ATOM     45  C   UNL A   1      46.177  31.072  31.106  1.00  0.00     0.029 A 
ATOM     46  N   UNL A   1      44.933  29.454  30.221  1.00  0.00    -0.354 N 
ATOM     47  N   UNL A   1      44.430  26.735  29.207  1.00  0.00    -0.248 NA
ATOM     48  C   UNL A   1      45.215  24.625  28.582  1.00  0.00     0.031 C 
ATOM     49  C   UNL A   1      46.996  29.965  30.864  1.00  0.00     0.029 A 
ATOM     50  C   UNL A   1      46.216  28.946  30.339  1.00  0.00     0.049 A 
ATOM     51  H   UNL A   1      44.160  28.958  29.868  1.00  0.00     0.167 HD
ATOM     52  C   UNL A   1      45.794  26.662  29.464  1.00  0.00     0.074 A 
ATOM     53  C   UNL A   1      46.220  25.330  29.083  1.00  0.00     0.031 C 
ATOM     54  C   UNL A   1      46.619  27.610  29.972  1.00  0.00     0.037 A 
BRANCH  41  55
ATOM     55  C   UNL A   1      43.877  33.034  31.125  1.00  0.00     0.058 A 
ATOM     56  C   UNL A   1      43.696  33.404  32.469  1.00  0.00     0.135 A 
ATOM     57  C   UNL A   1      44.242  34.040  30.215  1.00  0.00     0.135 A 
ATOM     58  F   UNL A   1      43.333  32.488  33.380  1.00  0.00    -0.206 F 
ATOM     59  C   UNL A   1      43.841  34.722  32.886  1.00  0.00     0.059 A 
ATOM     60  C   UNL A   1      44.423  35.360  30.617  1.00  0.00     0.059 A 
ATOM     61  F   UNL A   1      44.427  33.744  28.919  1.00  0.00    -0.206 F 
ATOM     62  C   UNL A   1      44.206  35.693  31.952  1.00  0.00     0.060 A 
BRANCH  62  63
ATOM     63  S   UNL A   1      44.397  37.398  32.515  1.00  0.00     0.124 S 
ATOM     64  O   UNL A   1      43.383  37.474  33.563  1.00  0.00    -0.237 OA
ATOM     65  O   UNL A   1      45.783  37.422  32.973  1.00  0.00    -0.237 OA
ATOM     66  O   UNL A   1      44.122  38.185  31.318  1.00  0.00    -0.744 OA
ENDBRANCH  62  63
ENDBRANCH  41  55
BRANCH  42  67
ATOM     67  C   UNL A   1      42.551  23.701  27.751  1.00  0.00     0.058 A 
ATOM     68  C   UNL A   1      42.519  23.473  26.367  1.00  0.00     0.135 A 
ATOM     69  C   UNL A   1      42.421  22.588  28.598  1.00  0.00     0.135 A 
ATOM     70  F   UNL A   1      42.632  24.503  25.515  1.00  0.00    -0.206 F 
ATOM     71  C   UNL A   1      42.347  22.197  25.841  1.00  0.00     0.059 A 
ATOM     72  C   UNL A   1      42.276  21.298  28.096  1.00  0.00     0.059 A 
ATOM     73  F   UNL A   1      42.463  22.748  29.930  1.00  0.00    -0.206 F 
ATOM     74  C   UNL A   1      42.231  21.114  26.714  1.00  0.00     0.060 A 
BRANCH  74  75
ATOM     75  S   UNL A   1      42.059  19.456  26.019  1.00  0.00     0.124 S 
ATOM     76  O   UNL A   1      42.576  18.629  27.102  1.00  0.00    -0.237 OA
ATOM     77  O   UNL A   1      40.622  19.373  25.781  1.00  0.00    -0.237 OA
ATOM     78  O   UNL A   1      42.883  19.510  24.815  1.00  0.00    -0.744 OA
ENDBRANCH  74  75
ENDBRANCH  42  67
BRANCH  54  79
ATOM     79  C   UNL A   1      48.059  27.239  30.197  1.00  0.00     0.058 A 
ATOM     80  C   UNL A   1      49.030  27.396  29.195  1.00  0.00     0.135 A 
ATOM     81  C   UNL A   1      48.487  26.804  31.462  1.00  0.00     0.135 A 
ATOM     82  F   UNL A   1      48.673  27.798  27.965  1.00  0.00    -0.206 F 
ATOM     83  C   UNL A   1      50.372  27.125  29.439  1.00  0.00     0.059 A 
ATOM     84  C   UNL A   1      49.828  26.557  31.736  1.00  0.00     0.059 A 
ATOM     85  F   UNL A   1      47.600  26.646  32.458  1.00  0.00    -0.206 F 
ATOM     86  C   UNL A   1      50.763  26.717  30.716  1.00  0.00     0.060 A 
BRANCH  86  87
ATOM     87  S   UNL A   1      52.518  26.435  31.034  1.00  0.00     0.124 S 
ATOM     88  O   UNL A   1      52.492  25.139  31.704  1.00  0.00    -0.237 OA
ATOM     89  O   UNL A   1      53.082  26.442  29.688  1.00  0.00    -0.237 OA
ATOM     90  O   UNL A   1      52.898  27.568  31.873  1.00  0.00    -0.744 OA
ENDBRANCH  86  87
ENDBRANCH  54  79
ENDBRANCH  28  29
ENDBRANCH  20  23
ENDBRANCH   1  19
TORSDOF 15
ENDMDL
MODEL 3
REMARK VINA RESULT:     -11.4      2.974      3.840
REMARK SMILES Nc1ccc(O)c(C(=O)NCCCNC(=O)c2ccc(-c3c4nc(c(-c5c(F)cc(S(=O)(=O)[O-])cc5F)c5ccc([nH]5)c(-c5c(F)cc(S(=O)(=O)[O-])cc5F)c5nc(c(-c6c(F)cc(S(=O)(=O)[O-])cc6F)c6ccc3[nH]6)C=C5)C=C4)cc2)c1
REMARK SMILES IDX 13 1 12 2 11 3 10 4 8 5 9 6 7 8 2 9 3 10 83 11 4 12 5 13
REMARK SMILES IDX 1 14 6 17 14 19 15 20 16 22 17 23 18 24 82 25 19 26 81 27
REMARK SMILES IDX 20 28 21 29 22 30 75 31 23 32 80 33 74 34 76 35 24 36 79 37
REMARK SMILES IDX 73 38 72 39 25 41 59 42 38 43 58 44 39 45 42 46 57 47 77 48
REMARK SMILES IDX 40 49 41 50 56 52 78 53 43 54 26 55 27 56 36 57 28 58 29 59
REMARK SMILES IDX 35 60 37 61 30 62 31 63 32 64 33 65 34 66 60 67 61 68 70 69
REMARK SMILES IDX 62 70 63 71 69 72 71 73 64 74 65 75 66 76 67 77 68 78 44 79
REMARK SMILES IDX 45 80 54 81 46 82 47 83 53 84 55 85 48 86 49 87 50 88 51 89
REMARK SMILES IDX 52 90
REMARK H PARENT 10 7 1 15 1 16 6 18 14 21 76 40 42 51
REMARK Flexibility Score: inf
ROOT
ATOM      1  C   UNL A   1      34.806  32.559  29.202  1.00  0.00     0.118 C 
ENDROOT
BRANCH   1   2
ATOM      2  C   UNL A   1      35.415  33.511  28.173  1.00  0.00     0.042 C 
BRANCH   2   3
ATOM      3  C   UNL A   1      35.395  34.967  28.634  1.00  0.00     0.118 C 
BRANCH   3   4
ATOM      4  N   UNL A   1      34.048  35.506  28.580  1.00  0.00    -0.352 N 
ATOM      5  C   UNL A   1      33.169  35.947  29.533  1.00  0.00     0.255 C 
ATOM      6  O   UNL A   1      32.088  36.387  29.123  1.00  0.00    -0.269 OA
ATOM      7  H   UNL A   1      33.692  35.566  27.665  1.00  0.00     0.163 HD
BRANCH   5   8
ATOM      8  C   UNL A   1      33.436  36.001  30.999  1.00  0.00     0.083 A 
ATOM      9  C   UNL A   1      34.051  35.001  33.146  1.00  0.00     0.032 A 
ATOM     10  C   UNL A   1      34.056  36.266  33.732  1.00  0.00     0.029 A 
ATOM     11  C   UNL A   1      33.722  34.880  31.789  1.00  0.00     0.043 A 
ATOM     12  C   UNL A   1      33.698  37.389  32.988  1.00  0.00     0.049 A 
ATOM     13  C   UNL A   1      33.395  37.256  31.636  1.00  0.00     0.128 A 
BRANCH   9  14
ATOM     14  N   UNL A   1      34.492  33.898  33.860  1.00  0.00    -0.399 N 
ATOM     15  H   UNL A   1      34.418  32.997  33.469  1.00  0.00     0.156 HD
ATOM     16  H   UNL A   1      34.879  34.015  34.757  1.00  0.00     0.156 HD
ENDBRANCH   9  14
BRANCH  13  17
ATOM     17  O   UNL A   1      33.067  38.423  30.993  1.00  0.00    -0.507 OA
ATOM     18  H   UNL A   1      32.686  39.132  31.473  1.00  0.00     0.293 HD
ENDBRANCH  13  17
ENDBRANCH   5   8
ENDBRANCH   3   4
ENDBRANCH   2   3
ENDBRANCH   1   2
BRANCH   1  19
ATOM     19  N   UNL A   1      34.041  31.492  28.563  1.00  0.00    -0.352 N 
ATOM     20  C   UNL A   1      34.473  30.314  28.005  1.00  0.00     0.251 C 
ATOM     21  H   UNL A   1      33.068  31.640  28.527  1.00  0.00     0.163 HD
ATOM     22  O   UNL A   1      33.714  29.663  27.296  1.00  0.00    -0.269 OA
BRANCH  20  23
ATOM     23  C   UNL A   1      35.851  29.841  28.255  1.00  0.00     0.039 A 
ATOM     24  C   UNL A   1      36.798  29.926  27.231  1.00  0.00     0.014 A 
ATOM     25  C   UNL A   1      36.199  29.302  29.495  1.00  0.00     0.014 A 
ATOM     26  C   UNL A   1      38.116  29.536  27.477  1.00  0.00     0.010 A 
ATOM     27  C   UNL A   1      37.527  28.985  29.761  1.00  0.00     0.010 A 
ATOM     28  C   UNL A   1      38.499  29.100  28.756  1.00  0.00    -0.014 A 
BRANCH  28  29
ATOM     29  C   UNL A   1      39.910  28.768  29.080  1.00  0.00     0.031 A 
ATOM     30  C   UNL A   1      40.814  29.823  29.655  1.00  0.00     0.074 A 
ATOM     31  C   UNL A   1      40.397  27.552  28.763  1.00  0.00     0.049 A 
ATOM     32  N   UNL A   1      42.103  29.777  29.872  1.00  0.00    -0.248 NA
ATOM     33  C   UNL A   1      40.192  31.111  30.003  1.00  0.00     0.031 C 
ATOM     34  C   UNL A   1      39.624  26.460  28.167  1.00  0.00     0.029 A 
ATOM     35  N   UNL A   1      41.664  27.035  28.879  1.00  0.00    -0.354 N 
ATOM     36  C   UNL A   1      42.449  31.033  30.361  1.00  0.00     0.074 A 
ATOM     37  C   UNL A   1      41.244  31.833  30.362  1.00  0.00     0.031 C 
ATOM     38  C   UNL A   1      40.429  25.402  27.978  1.00  0.00     0.029 A 
ATOM     39  C   UNL A   1      41.784  25.754  28.391  1.00  0.00     0.049 A 
ATOM     40  H   UNL A   1      42.416  27.534  29.272  1.00  0.00     0.167 HD
ATOM     41  C   UNL A   1      43.658  31.468  30.787  1.00  0.00     0.037 A 
ATOM     42  C   UNL A   1      42.866  24.960  28.271  1.00  0.00     0.037 A 
ATOM     43  C   UNL A   1      44.844  30.654  30.802  1.00  0.00     0.049 A 
ATOM     44  C   UNL A   1      44.202  25.474  28.735  1.00  0.00     0.074 A 
ATOM     45  C   UNL A   1      46.106  30.982  31.268  1.00  0.00     0.029 A 
ATOM     46  N   UNL A   1      44.919  29.352  30.326  1.00  0.00    -0.354 N 
ATOM     47  N   UNL A   1      44.502  26.643  29.250  1.00  0.00    -0.248 NA
ATOM     48  C   UNL A   1      45.349  24.564  28.604  1.00  0.00     0.031 C 
ATOM     49  C   UNL A   1      46.955  29.899  31.024  1.00  0.00     0.029 A 
ATOM     50  C   UNL A   1      46.211  28.872  30.463  1.00  0.00     0.049 A 
ATOM     51  H   UNL A   1      44.166  28.846  29.946  1.00  0.00     0.167 HD
ATOM     52  C   UNL A   1      45.861  26.596  29.536  1.00  0.00     0.074 A 
ATOM     53  C   UNL A   1      46.326  25.282  29.141  1.00  0.00     0.031 C 
ATOM     54  C   UNL A   1      46.653  27.553  30.080  1.00  0.00     0.037 A 
BRANCH  41  55
ATOM     55  C   UNL A   1      43.761  32.890  31.272  1.00  0.00     0.058 A 
ATOM     56  C   UNL A   1      43.956  33.962  30.385  1.00  0.00     0.135 A 
ATOM     57  C   UNL A   1      43.622  33.191  32.637  1.00  0.00     0.135 A 
ATOM     58  F   UNL A   1      44.109  33.733  29.071  1.00  0.00    -0.206 F 
ATOM     59  C   UNL A   1      44.040  35.274  30.835  1.00  0.00     0.059 A 
ATOM     60  C   UNL A   1      43.671  34.500  33.107  1.00  0.00     0.059 A 
ATOM     61  F   UNL A   1      43.434  32.206  33.530  1.00  0.00    -0.206 F 
ATOM     62  C   UNL A   1      43.895  35.533  32.199  1.00  0.00     0.060 A 
BRANCH  62  63
ATOM     63  S   UNL A   1      44.000  37.244  32.765  1.00  0.00     0.124 S 
ATOM     64  O   UNL A   1      45.335  37.275  33.355  1.00  0.00    -0.237 OA
ATOM     65  O   UNL A   1      43.840  37.994  31.523  1.00  0.00    -0.237 OA
ATOM     66  O   UNL A   1      42.894  37.359  33.710  1.00  0.00    -0.744 OA
ENDBRANCH  62  63
ENDBRANCH  41  55
BRANCH  42  67
ATOM     67  C   UNL A   1      42.727  23.595  27.696  1.00  0.00     0.058 A 
ATOM     68  C   UNL A   1      42.516  22.482  28.524  1.00  0.00     0.135 A 
ATOM     69  C   UNL A   1      42.785  23.375  26.310  1.00  0.00     0.135 A 
ATOM     70  F   UNL A   1      42.460  22.638  29.855  1.00  0.00    -0.206 F 
ATOM     71  C   UNL A   1      42.385  21.199  28.002  1.00  0.00     0.059 A 
ATOM     72  C   UNL A   1      42.628  22.106  25.763  1.00  0.00     0.059 A 
ATOM     73  F   UNL A   1      42.967  24.408  25.472  1.00  0.00    -0.206 F 
ATOM     74  C   UNL A   1      42.438  21.021  26.619  1.00  0.00     0.060 A 
BRANCH  74  75
ATOM     75  S   UNL A   1      42.217  19.358  25.951  1.00  0.00     0.124 S 
ATOM     76  O   UNL A   1      42.730  18.534  27.038  1.00  0.00    -0.237 OA
ATOM     77  O   UNL A   1      40.775  19.306  25.734  1.00  0.00    -0.237 OA
ATOM     78  O   UNL A   1      43.025  19.375  24.734  1.00  0.00    -0.744 OA
ENDBRANCH  74  75
ENDBRANCH  42  67
BRANCH  54  79
ATOM     79  C   UNL A   1      48.096  27.211  30.331  1.00  0.00     0.058 A 
ATOM     80  C   UNL A   1      49.083  27.397  29.350  1.00  0.00     0.135 A 
ATOM     81  C   UNL A   1      48.507  26.773  31.600  1.00  0.00     0.135 A 
ATOM     82  F   UNL A   1      48.742  27.804  28.116  1.00  0.00    -0.206 F 
ATOM     83  C   UNL A   1      50.425  27.153  29.618  1.00  0.00     0.059 A 
ATOM     84  C   UNL A   1      49.847  26.552  31.899  1.00  0.00     0.059 A 
ATOM     85  F   UNL A   1      47.604  26.586  32.576  1.00  0.00    -0.206 F 
ATOM     86  C   UNL A   1      50.799  26.741  30.899  1.00  0.00     0.060 A 
BRANCH  86  87
ATOM     87  S   UNL A   1      52.553  26.494  31.249  1.00  0.00     0.124 S 
ATOM     88  O   UNL A   1      53.153  26.740  29.942  1.00  0.00    -0.237 OA
ATOM     89  O   UNL A   1      52.812  27.508  32.267  1.00  0.00    -0.237 OA
ATOM     90  O   UNL A   1      52.615  25.112  31.718  1.00  0.00    -0.744 OA
ENDBRANCH  86  87
ENDBRANCH  54  79
ENDBRANCH  28  29
ENDBRANCH  20  23
ENDBRANCH   1  19
TORSDOF 15
ENDMDL
