MODEL 1
REMARK VINA RESULT:     -12.3      0.000      0.000
REMARK SMILES Cc1cccc(Cl)c1Nc1ccccc1CC(=O)NCCCNC(=O)c1ccc(-c2c3nc(c(-c4c(F)cc(S(=O)(=O)[O-])cc4F)c4ccc([nH]4)c(-c4c(F)cc(S(=O)(=O)[O-])cc4F)c4nc(c(-c5c(F)cc(S(=O)(=O)[O-])cc5F)c5ccc2[nH]5)C=C4)C=C3)cc1
REMARK SMILES IDX 21 1 20 2 19 3 17 4 18 5 16 7 15 8 10 9 11 10 12 11 14 12
REMARK SMILES IDX 13 13 9 14 8 16 1 17 2 18 3 19 4 20 6 21 5 22 7 23 22 24
REMARK SMILES IDX 23 25 24 26 25 28 26 29 27 30 91 31 28 32 90 33 29 34 30 35
REMARK SMILES IDX 31 36 84 37 32 38 89 39 83 40 85 41 33 42 88 43 82 44 81 45
REMARK SMILES IDX 34 47 68 48 47 49 67 50 48 51 51 52 66 53 86 54 49 55 50 56
REMARK SMILES IDX 65 58 87 59 52 60 35 61 36 62 45 63 37 64 38 65 44 66 46 67
REMARK SMILES IDX 39 68 40 69 41 70 42 71 43 72 69 73 70 74 79 75 71 76 72 77
REMARK SMILES IDX 78 78 80 79 73 80 74 81 75 82 76 83 77 84 53 85 54 86 63 87
REMARK SMILES IDX 55 88 56 89 62 90 64 91 57 92 58 93 59 94 60 95 61 96
REMARK H PARENT 19 6 9 15 23 27 85 46 51 57
REMARK Flexibility Score: inf
ROOT
ATOM      1  C   UNL A   1      34.331  31.368  27.568  1.00  0.00     0.042 C 
ENDROOT
BRANCH   1   2
ATOM      2  C   UNL A   1      34.090  29.958  27.039  1.00  0.00     0.117 C 
BRANCH   2   3
ATOM      3  N   UNL A   1      33.044  29.271  27.771  1.00  0.00    -0.356 N 
ATOM      4  C   UNL A   1      32.226  28.268  27.336  1.00  0.00     0.224 C 
ATOM      5  O   UNL A   1      31.342  27.861  28.093  1.00  0.00    -0.275 OA
ATOM      6  H   UNL A   1      32.906  29.567  28.701  1.00  0.00     0.163 HD
BRANCH   4   7
ATOM      7  C   UNL A   1      32.456  27.645  25.969  1.00  0.00     0.137 C 
BRANCH   7   8
ATOM      8  C   UNL A   1      31.292  27.797  25.011  1.00  0.00    -0.015 A 
ATOM      9  C   UNL A   1      30.454  26.726  24.631  1.00  0.00     0.042 A 
ATOM     10  C   UNL A   1      29.467  26.958  23.654  1.00  0.00     0.026 A 
ATOM     11  C   UNL A   1      29.282  28.219  23.088  1.00  0.00     0.002 A 
ATOM     12  C   UNL A   1      31.073  29.072  24.449  1.00  0.00     0.006 A 
ATOM     13  C   UNL A   1      30.078  29.281  23.497  1.00  0.00     0.000 A 
BRANCH   9  14
ATOM     14  N   UNL A   1      30.493  25.435  25.200  1.00  0.00    -0.354 N 
ATOM     15  H   UNL A   1      29.930  25.339  26.002  1.00  0.00     0.167 HD
BRANCH  14  16
ATOM     16  C   UNL A   1      31.185  24.253  24.843  1.00  0.00     0.060 A 
ATOM     17  C   UNL A   1      30.200  23.144  26.931  1.00  0.00     0.046 C 
ATOM     18  C   UNL A   1      31.020  23.107  25.665  1.00  0.00    -0.026 A 
ATOM     19  C   UNL A   1      31.596  21.878  25.290  1.00  0.00     0.005 A 
ATOM     20  C   UNL A   1      32.341  21.767  24.122  1.00  0.00     0.002 A 
ATOM     21  C   UNL A   1      31.980  24.121  23.680  1.00  0.00     0.064 A 
ATOM     22  C   UNL A   1      32.540  22.887  23.325  1.00  0.00     0.023 A 
ATOM     23  Cl  UNL A   1      32.423  25.458  22.671  1.00  0.00    -0.082 Cl
ENDBRANCH  14  16
ENDBRANCH   9  14
ENDBRANCH   7   8
ENDBRANCH   4   7
ENDBRANCH   2   3
ENDBRANCH   1   2
BRANCH   1  24
ATOM     24  C   UNL A   1      35.650  31.523  28.315  1.00  0.00     0.118 C 
BRANCH  24  25
ATOM     25  N   UNL A   1      35.519  31.226  29.735  1.00  0.00    -0.352 N 
ATOM     26  C   UNL A   1      36.360  30.540  30.571  1.00  0.00     0.251 C 
ATOM     27  H   UNL A   1      34.701  31.571  30.160  1.00  0.00     0.163 HD
ATOM     28  O   UNL A   1      35.962  30.216  31.691  1.00  0.00    -0.269 OA
BRANCH  26  29
ATOM     29  C   UNL A   1      37.726  30.177  30.136  1.00  0.00     0.039 A 
ATOM     30  C   UNL A   1      38.688  29.885  31.107  1.00  0.00     0.014 A 
ATOM     31  C   UNL A   1      38.072  30.159  28.782  1.00  0.00     0.014 A 
ATOM     32  C   UNL A   1      39.982  29.531  30.718  1.00  0.00     0.010 A 
ATOM     33  C   UNL A   1      39.337  29.728  28.394  1.00  0.00     0.010 A 
ATOM     34  C   UNL A   1      40.310  29.422  29.356  1.00  0.00    -0.014 A 
BRANCH  34  35
ATOM     35  C   UNL A   1      41.669  29.011  28.920  1.00  0.00     0.031 A 
ATOM     36  C   UNL A   1      42.774  30.031  28.843  1.00  0.00     0.074 A 
ATOM     37  C   UNL A   1      41.891  27.738  28.539  1.00  0.00     0.049 A 
ATOM     38  N   UNL A   1      44.001  29.888  28.413  1.00  0.00    -0.248 NA
ATOM     39  C   UNL A   1      42.450  31.399  29.280  1.00  0.00     0.031 C 
ATOM     40  C   UNL A   1      40.889  26.669  28.529  1.00  0.00     0.029 A 
ATOM     41  N   UNL A   1      43.029  27.126  28.075  1.00  0.00    -0.354 N 
ATOM     42  C   UNL A   1      44.587  31.144  28.511  1.00  0.00     0.074 A 
ATOM     43  C   UNL A   1      43.568  32.051  28.993  1.00  0.00     0.031 C 
ATOM     44  C   UNL A   1      41.461  25.532  28.101  1.00  0.00     0.029 A 
ATOM     45  C   UNL A   1      42.856  25.796  27.767  1.00  0.00     0.049 A 
ATOM     46  H   UNL A   1      43.888  27.595  27.973  1.00  0.00     0.167 HD
ATOM     47  C   UNL A   1      45.865  31.506  28.246  1.00  0.00     0.037 A 
ATOM     48  C   UNL A   1      43.721  24.896  27.259  1.00  0.00     0.037 A 
ATOM     49  C   UNL A   1      46.882  30.590  27.798  1.00  0.00     0.049 A 
ATOM     50  C   UNL A   1      45.137  25.324  26.971  1.00  0.00     0.074 A 
ATOM     51  C   UNL A   1      48.222  30.844  27.560  1.00  0.00     0.029 A 
ATOM     52  N   UNL A   1      46.674  29.247  27.522  1.00  0.00    -0.354 N 
ATOM     53  N   UNL A   1      45.690  26.504  27.132  1.00  0.00    -0.248 NA
ATOM     54  C   UNL A   1      46.047  24.300  26.443  1.00  0.00     0.031 C 
ATOM     55  C   UNL A   1      48.813  29.666  27.092  1.00  0.00     0.029 A 
ATOM     56  C   UNL A   1      47.856  28.664  27.096  1.00  0.00     0.049 A 
ATOM     57  H   UNL A   1      45.814  28.777  27.614  1.00  0.00     0.167 HD
ATOM     58  C   UNL A   1      47.021  26.353  26.758  1.00  0.00     0.074 A 
ATOM     59  C   UNL A   1      47.191  24.967  26.374  1.00  0.00     0.031 C 
ATOM     60  C   UNL A   1      48.014  27.277  26.736  1.00  0.00     0.037 A 
BRANCH  47  61
ATOM     61  C   UNL A   1      46.245  32.949  28.439  1.00  0.00     0.058 A 
ATOM     62  C   UNL A   1      46.141  33.886  27.398  1.00  0.00     0.135 A 
ATOM     63  C   UNL A   1      46.660  33.415  29.698  1.00  0.00     0.135 A 
ATOM     64  F   UNL A   1      45.766  33.493  26.170  1.00  0.00    -0.206 F 
ATOM     65  C   UNL A   1      46.454  35.227  27.592  1.00  0.00     0.059 A 
ATOM     66  C   UNL A   1      46.949  34.758  29.921  1.00  0.00     0.059 A 
ATOM     67  F   UNL A   1      46.779  32.563  30.727  1.00  0.00    -0.206 F 
ATOM     68  C   UNL A   1      46.852  35.655  28.859  1.00  0.00     0.060 A 
BRANCH  68  69
ATOM     69  S   UNL A   1      47.224  37.405  29.098  1.00  0.00     0.124 S 
ATOM     70  O   UNL A   1      45.886  37.971  29.237  1.00  0.00    -0.237 OA
ATOM     71  O   UNL A   1      48.035  37.388  30.311  1.00  0.00    -0.237 OA
ATOM     72  O   UNL A   1      47.936  37.772  27.877  1.00  0.00    -0.744 OA
ENDBRANCH  68  69
ENDBRANCH  47  61
BRANCH  48  73
ATOM     73  C   UNL A   1      43.284  23.497  27.003  1.00  0.00     0.058 A 
ATOM     74  C   UNL A   1      43.108  22.590  28.057  1.00  0.00     0.135 A 
ATOM     75  C   UNL A   1      43.047  23.034  25.698  1.00  0.00     0.135 A 
ATOM     76  F   UNL A   1      43.326  22.981  29.322  1.00  0.00    -0.206 F 
ATOM     77  C   UNL A   1      42.742  21.267  27.829  1.00  0.00     0.059 A 
ATOM     78  C   UNL A   1      42.651  21.724  25.447  1.00  0.00     0.059 A 
ATOM     79  F   UNL A   1      43.181  23.867  24.654  1.00  0.00    -0.206 F 
ATOM     80  C   UNL A   1      42.517  20.844  26.519  1.00  0.00     0.060 A 
BRANCH  80  81
ATOM     81  S   UNL A   1      42.019  19.130  26.235  1.00  0.00     0.124 S 
ATOM     82  O   UNL A   1      42.278  18.530  27.539  1.00  0.00    -0.237 OA
ATOM     83  O   UNL A   1      40.615  19.276  25.865  1.00  0.00    -0.237 OA
ATOM     84  O   UNL A   1      42.903  18.700  25.155  1.00  0.00    -0.744 OA
ENDBRANCH  80  81
ENDBRANCH  48  73
BRANCH  60  85
ATOM     85  C   UNL A   1      49.387  26.813  26.333  1.00  0.00     0.058 A 
ATOM     86  C   UNL A   1      50.249  26.174  27.237  1.00  0.00     0.135 A 
ATOM     87  C   UNL A   1      49.822  26.964  25.007  1.00  0.00     0.135 A 
ATOM     88  F   UNL A   1      49.883  26.008  28.519  1.00  0.00    -0.206 F 
ATOM     89  C   UNL A   1      51.505  25.723  26.846  1.00  0.00     0.059 A 
ATOM     90  C   UNL A   1      51.062  26.493  24.586  1.00  0.00     0.059 A 
ATOM     91  F   UNL A   1      49.032  27.559  24.098  1.00  0.00    -0.206 F 
ATOM     92  C   UNL A   1      51.901  25.884  25.516  1.00  0.00     0.060 A 
BRANCH  92  93
ATOM     93  S   UNL A   1      53.520  25.263  25.014  1.00  0.00     0.124 S 
ATOM     94  O   UNL A   1      53.403  23.844  25.334  1.00  0.00    -0.237 OA
ATOM     95  O   UNL A   1      53.554  25.592  23.593  1.00  0.00    -0.237 OA
ATOM     96  O   UNL A   1      54.448  26.020  25.850  1.00  0.00    -0.744 OA
ENDBRANCH  92  93
ENDBRANCH  60  85
ENDBRANCH  34  35
ENDBRANCH  26  29
ENDBRANCH  24  25
ENDBRANCH   1  24
TORSDOF 16
ENDMDL
MODEL 2
REMARK VINA RESULT:     -12.1      0.600      8.339
REMARK SMILES Cc1cccc(Cl)c1Nc1ccccc1CC(=O)NCCCNC(=O)c1ccc(-c2c3nc(c(-c4c(F)cc(S(=O)(=O)[O-])cc4F)c4ccc([nH]4)c(-c4c(F)cc(S(=O)(=O)[O-])cc4F)c4nc(c(-c5c(F)cc(S(=O)(=O)[O-])cc5F)c5ccc2[nH]5)C=C4)C=C3)cc1
REMARK SMILES IDX 21 1 20 2 19 3 17 4 18 5 16 7 15 8 10 9 11 10 12 11 14 12
REMARK SMILES IDX 13 13 9 14 8 16 1 17 2 18 3 19 4 20 6 21 5 22 7 23 22 24
REMARK SMILES IDX 23 25 24 26 25 28 26 29 27 30 91 31 28 32 90 33 29 34 30 35
REMARK SMILES IDX 31 36 84 37 32 38 89 39 83 40 85 41 33 42 88 43 82 44 81 45
REMARK SMILES IDX 34 47 68 48 47 49 67 50 48 51 51 52 66 53 86 54 49 55 50 56
REMARK SMILES IDX 65 58 87 59 52 60 35 61 36 62 45 63 37 64 38 65 44 66 46 67
REMARK SMILES IDX 39 68 40 69 41 70 42 71 43 72 69 73 70 74 79 75 71 76 72 77
REMARK SMILES IDX 78 78 80 79 73 80 74 81 75 82 76 83 77 84 53 85 54 86 63 87
REMARK SMILES IDX 55 88 56 89 62 90 64 91 57 92 58 93 59 94 60 95 61 96
REMARK H PARENT 19 6 9 15 23 27 85 46 51 57
REMARK Flexibility Score: inf
ROOT
ATOM      1  C   UNL A   1      34.592  30.879  27.508  1.00  0.00     0.042 C 
ENDROOT
BRANCH   1   2
ATOM      2  C   UNL A   1      34.444  29.370  27.347  1.00  0.00     0.117 C 
BRANCH   2   3
ATOM      3  N   UNL A   1      33.202  28.879  27.912  1.00  0.00    -0.356 N 
ATOM      4  C   UNL A   1      32.232  28.135  27.303  1.00  0.00     0.224 C 
ATOM      5  O   UNL A   1      31.207  27.876  27.937  1.00  0.00    -0.275 OA
ATOM      6  H   UNL A   1      33.037  29.114  28.854  1.00  0.00     0.163 HD
BRANCH   4   7
ATOM      7  C   UNL A   1      32.459  27.601  25.899  1.00  0.00     0.137 C 
BRANCH   7   8
ATOM      8  C   UNL A   1      31.276  27.773  24.968  1.00  0.00    -0.015 A 
ATOM      9  C   UNL A   1      30.421  26.712  24.594  1.00  0.00     0.042 A 
ATOM     10  C   UNL A   1      29.416  26.963  23.641  1.00  0.00     0.026 A 
ATOM     11  C   UNL A   1      29.227  28.232  23.095  1.00  0.00     0.002 A 
ATOM     12  C   UNL A   1      31.053  29.056  24.427  1.00  0.00     0.006 A 
ATOM     13  C   UNL A   1      30.039  29.283  23.499  1.00  0.00     0.000 A 
BRANCH   9  14
ATOM     14  N   UNL A   1      30.465  25.414  25.146  1.00  0.00    -0.354 N 
ATOM     15  H   UNL A   1      29.904  25.307  25.948  1.00  0.00     0.167 HD
BRANCH  14  16
ATOM     16  C   UNL A   1      31.157  24.238  24.773  1.00  0.00     0.060 A 
ATOM     17  C   UNL A   1      30.244  23.125  26.891  1.00  0.00     0.046 C 
ATOM     18  C   UNL A   1      31.027  23.092  25.603  1.00  0.00    -0.026 A 
ATOM     19  C   UNL A   1      31.605  21.868  25.214  1.00  0.00     0.005 A 
ATOM     20  C   UNL A   1      32.318  21.761  24.026  1.00  0.00     0.002 A 
ATOM     21  C   UNL A   1      31.920  24.110  23.588  1.00  0.00     0.064 A 
ATOM     22  C   UNL A   1      32.482  22.880  23.220  1.00  0.00     0.023 A 
ATOM     23  Cl  UNL A   1      32.321  25.449  22.563  1.00  0.00    -0.082 Cl
ENDBRANCH  14  16
ENDBRANCH   9  14
ENDBRANCH   7   8
ENDBRANCH   4   7
ENDBRANCH   2   3
ENDBRANCH   1   2
BRANCH   1  24
ATOM     24  C   UNL A   1      35.782  31.287  28.369  1.00  0.00     0.118 C 
BRANCH  24  25
ATOM     25  N   UNL A   1      35.682  30.775  29.728  1.00  0.00    -0.352 N 
ATOM     26  C   UNL A   1      36.552  29.988  30.436  1.00  0.00     0.251 C 
ATOM     27  H   UNL A   1      34.865  31.033  30.213  1.00  0.00     0.163 HD
ATOM     28  O   UNL A   1      36.181  29.489  31.500  1.00  0.00    -0.269 OA
BRANCH  26  29
ATOM     29  C   UNL A   1      37.916  29.726  29.931  1.00  0.00     0.039 A 
ATOM     30  C   UNL A   1      38.947  29.511  30.850  1.00  0.00     0.014 A 
ATOM     31  C   UNL A   1      38.192  29.729  28.561  1.00  0.00     0.014 A 
ATOM     32  C   UNL A   1      40.241  29.252  30.394  1.00  0.00     0.010 A 
ATOM     33  C   UNL A   1      39.463  29.392  28.108  1.00  0.00     0.010 A 
ATOM     34  C   UNL A   1      40.505  29.163  29.018  1.00  0.00    -0.014 A 
BRANCH  34  35
ATOM     35  C   UNL A   1      41.867  28.853  28.511  1.00  0.00     0.031 A 
ATOM     36  C   UNL A   1      42.205  27.453  28.072  1.00  0.00     0.074 A 
ATOM     37  C   UNL A   1      42.811  29.815  28.504  1.00  0.00     0.049 A 
ATOM     38  N   UNL A   1      43.352  26.966  27.676  1.00  0.00    -0.248 NA
ATOM     39  C   UNL A   1      41.116  26.462  28.108  1.00  0.00     0.031 C 
ATOM     40  C   UNL A   1      42.616  31.198  28.946  1.00  0.00     0.029 A 
ATOM     41  N   UNL A   1      44.128  29.775  28.121  1.00  0.00    -0.354 N 
ATOM     42  C   UNL A   1      43.129  25.616  27.434  1.00  0.00     0.074 A 
ATOM     43  C   UNL A   1      41.750  25.347  27.776  1.00  0.00     0.031 C 
ATOM     44  C   UNL A   1      43.764  31.877  28.790  1.00  0.00     0.029 A 
ATOM     45  C   UNL A   1      44.788  30.973  28.278  1.00  0.00     0.049 A 
ATOM     46  H   UNL A   1      44.562  28.965  27.767  1.00  0.00     0.167 HD
ATOM     47  C   UNL A   1      43.990  24.689  26.949  1.00  0.00     0.037 A 
ATOM     48  C   UNL A   1      46.074  31.300  28.049  1.00  0.00     0.037 A 
ATOM     49  C   UNL A   1      45.352  24.974  26.580  1.00  0.00     0.049 A 
ATOM     50  C   UNL A   1      47.011  30.250  27.511  1.00  0.00     0.074 A 
ATOM     51  C   UNL A   1      46.287  24.119  26.023  1.00  0.00     0.029 A 
ATOM     52  N   UNL A   1      45.975  26.204  26.731  1.00  0.00    -0.354 N 
ATOM     53  N   UNL A   1      46.765  28.992  27.227  1.00  0.00    -0.248 NA
ATOM     54  C   UNL A   1      48.397  30.664  27.253  1.00  0.00     0.031 C 
ATOM     55  C   UNL A   1      47.490  24.818  25.881  1.00  0.00     0.029 A 
ATOM     56  C   UNL A   1      47.287  26.126  26.296  1.00  0.00     0.049 A 
ATOM     57  H   UNL A   1      45.547  27.013  27.094  1.00  0.00     0.167 HD
ATOM     58  C   UNL A   1      47.954  28.475  26.725  1.00  0.00     0.074 A 
ATOM     59  C   UNL A   1      48.915  29.559  26.734  1.00  0.00     0.031 C 
ATOM     60  C   UNL A   1      48.227  27.219  26.293  1.00  0.00     0.037 A 
BRANCH  47  61
ATOM     61  C   UNL A   1      43.487  23.281  26.779  1.00  0.00     0.058 A 
ATOM     62  C   UNL A   1      43.239  22.733  25.510  1.00  0.00     0.135 A 
ATOM     63  C   UNL A   1      43.310  22.447  27.896  1.00  0.00     0.135 A 
ATOM     64  F   UNL A   1      43.376  23.490  24.409  1.00  0.00    -0.206 F 
ATOM     65  C   UNL A   1      42.815  21.418  25.355  1.00  0.00     0.059 A 
ATOM     66  C   UNL A   1      42.915  21.119  27.762  1.00  0.00     0.059 A 
ATOM     67  F   UNL A   1      43.531  22.919  29.133  1.00  0.00    -0.206 F 
ATOM     68  C   UNL A   1      42.661  20.617  26.487  1.00  0.00     0.060 A 
BRANCH  68  69
ATOM     69  S   UNL A   1      42.138  18.903  26.263  1.00  0.00     0.124 S 
ATOM     70  O   UNL A   1      43.115  18.426  25.289  1.00  0.00    -0.237 OA
ATOM     71  O   UNL A   1      42.270  18.359  27.611  1.00  0.00    -0.237 OA
ATOM     72  O   UNL A   1      40.770  19.026  25.771  1.00  0.00    -0.744 OA
ENDBRANCH  68  69
ENDBRANCH  47  61
BRANCH  48  73
ATOM     73  C   UNL A   1      46.555  32.684  28.310  1.00  0.00     0.058 A 
ATOM     74  C   UNL A   1      46.531  33.660  27.303  1.00  0.00     0.135 A 
ATOM     75  C   UNL A   1      47.059  33.056  29.566  1.00  0.00     0.135 A 
ATOM     76  F   UNL A   1      46.062  33.353  26.084  1.00  0.00    -0.206 F 
ATOM     77  C   UNL A   1      47.017  34.945  27.520  1.00  0.00     0.059 A 
ATOM     78  C   UNL A   1      47.524  34.344  29.817  1.00  0.00     0.059 A 
ATOM     79  F   UNL A   1      47.086  32.167  30.572  1.00  0.00    -0.206 F 
ATOM     80  C   UNL A   1      47.513  35.277  28.782  1.00  0.00     0.060 A 
BRANCH  80  81
ATOM     81  S   UNL A   1      48.120  36.955  29.059  1.00  0.00     0.124 S 
ATOM     82  O   UNL A   1      47.219  37.736  28.219  1.00  0.00    -0.237 OA
ATOM     83  O   UNL A   1      47.945  37.110  30.500  1.00  0.00    -0.237 OA
ATOM     84  O   UNL A   1      49.507  36.888  28.607  1.00  0.00    -0.744 OA
ENDBRANCH  80  81
ENDBRANCH  48  73
BRANCH  60  85
ATOM     85  C   UNL A   1      49.602  26.955  25.744  1.00  0.00     0.058 A 
ATOM     86  C   UNL A   1      49.908  27.141  24.388  1.00  0.00     0.135 A 
ATOM     87  C   UNL A   1      50.641  26.562  26.604  1.00  0.00     0.135 A 
ATOM     88  F   UNL A   1      48.950  27.511  23.523  1.00  0.00    -0.206 F 
ATOM     89  C   UNL A   1      51.191  26.922  23.897  1.00  0.00     0.059 A 
ATOM     90  C   UNL A   1      51.938  26.368  26.140  1.00  0.00     0.059 A 
ATOM     91  F   UNL A   1      50.405  26.381  27.913  1.00  0.00    -0.206 F 
ATOM     92  C   UNL A   1      52.200  26.539  24.783  1.00  0.00     0.060 A 
BRANCH  92  93
ATOM     93  S   UNL A   1      53.869  26.291  24.138  1.00  0.00     0.124 S 
ATOM     94  O   UNL A   1      54.561  27.468  24.653  1.00  0.00    -0.237 OA
ATOM     95  O   UNL A   1      54.250  25.018  24.740  1.00  0.00    -0.237 OA
ATOM     96  O   UNL A   1      53.673  26.262  22.691  1.00  0.00    -0.744 OA
ENDBRANCH  92  93
ENDBRANCH  60  85
ENDBRANCH  34  35
ENDBRANCH  26  29
ENDBRANCH  24  25
ENDBRANCH   1  24
TORSDOF 16
ENDMDL
MODEL 3
REMARK VINA RESULT:     -12.1      2.908      3.943
REMARK SMILES Cc1cccc(Cl)c1Nc1ccccc1CC(=O)NCCCNC(=O)c1ccc(-c2c3nc(c(-c4c(F)cc(S(=O)(=O)[O-])cc4F)c4ccc([nH]4)c(-c4c(F)cc(S(=O)(=O)[O-])cc4F)c4nc(c(-c5c(F)cc(S(=O)(=O)[O-])cc5F)c5ccc2[nH]5)C=C4)C=C3)cc1
REMARK SMILES IDX 21 1 20 2 19 3 17 4 18 5 16 7 15 8 10 9 11 10 12 11 14 12
REMARK SMILES IDX 13 13 9 14 8 16 1 17 2 18 3 19 4 20 6 21 5 22 7 23 22 24
REMARK SMILES IDX 23 25 24 26 25 28 26 29 27 30 91 31 28 32 90 33 29 34 30 35
REMARK SMILES IDX 31 36 84 37 32 38 89 39 83 40 85 41 33 42 88 43 82 44 81 45
REMARK SMILES IDX 34 47 68 48 47 49 67 50 48 51 51 52 66 53 86 54 49 55 50 56
REMARK SMILES IDX 65 58 87 59 52 60 35 61 36 62 45 63 37 64 38 65 44 66 46 67
REMARK SMILES IDX 39 68 40 69 41 70 42 71 43 72 69 73 70 74 79 75 71 76 72 77
REMARK SMILES IDX 78 78 80 79 73 80 74 81 75 82 76 83 77 84 53 85 54 86 63 87
REMARK SMILES IDX 55 88 56 89 62 90 64 91 57 92 58 93 59 94 60 95 61 96
REMARK H PARENT 19 6 9 15 23 27 85 46 51 57
REMARK Flexibility Score: inf
ROOT
ATOM      1  C   UNL A   1      33.045  27.582  25.601  1.00  0.00     0.042 C 
ENDROOT
BRANCH   1   2
ATOM      2  C   UNL A   1      31.670  27.218  26.151  1.00  0.00     0.117 C 
BRANCH   2   3
ATOM      3  N   UNL A   1      31.681  25.951  26.855  1.00  0.00    -0.356 N 
ATOM      4  C   UNL A   1      31.060  24.785  26.507  1.00  0.00     0.224 C 
ATOM      5  O   UNL A   1      31.132  23.828  27.281  1.00  0.00    -0.275 OA
ATOM      6  H   UNL A   1      32.201  25.929  27.691  1.00  0.00     0.163 HD
BRANCH   4   7
ATOM      7  C   UNL A   1      30.355  24.675  25.165  1.00  0.00     0.137 C 
BRANCH   7   8
ATOM      8  C   UNL A   1      31.287  24.679  23.970  1.00  0.00    -0.015 A 
ATOM      9  C   UNL A   1      32.431  23.857  23.874  1.00  0.00     0.042 A 
ATOM     10  C   UNL A   1      33.284  24.018  22.766  1.00  0.00     0.026 A 
ATOM     11  C   UNL A   1      33.004  24.937  21.756  1.00  0.00     0.002 A 
ATOM     12  C   UNL A   1      31.004  25.584  22.926  1.00  0.00     0.006 A 
ATOM     13  C   UNL A   1      31.854  25.712  21.830  1.00  0.00     0.000 A 
BRANCH   9  14
ATOM     14  N   UNL A   1      32.764  22.836  24.790  1.00  0.00    -0.354 N 
ATOM     15  H   UNL A   1      32.051  22.640  25.440  1.00  0.00     0.167 HD
BRANCH  14  16
ATOM     16  C   UNL A   1      33.922  22.040  24.956  1.00  0.00     0.060 A 
ATOM     17  C   UNL A   1      32.496  19.989  24.390  1.00  0.00     0.046 C 
ATOM     18  C   UNL A   1      33.814  20.643  24.726  1.00  0.00    -0.026 A 
ATOM     19  C   UNL A   1      34.960  19.827  24.769  1.00  0.00     0.005 A 
ATOM     20  C   UNL A   1      36.211  20.368  25.046  1.00  0.00     0.002 A 
ATOM     21  C   UNL A   1      35.200  22.558  25.274  1.00  0.00     0.064 A 
ATOM     22  C   UNL A   1      36.328  21.728  25.307  1.00  0.00     0.023 A 
ATOM     23  Cl  UNL A   1      35.471  24.201  25.753  1.00  0.00    -0.082 Cl
ENDBRANCH  14  16
ENDBRANCH   9  14
ENDBRANCH   7   8
ENDBRANCH   4   7
ENDBRANCH   2   3
ENDBRANCH   1   2
BRANCH   1  24
ATOM     24  C   UNL A   1      34.023  28.059  26.667  1.00  0.00     0.118 C 
BRANCH  24  25
ATOM     25  N   UNL A   1      33.755  29.426  27.091  1.00  0.00    -0.352 N 
ATOM     26  C   UNL A   1      34.521  30.281  27.839  1.00  0.00     0.251 C 
ATOM     27  H   UNL A   1      32.891  29.794  26.794  1.00  0.00     0.163 HD
ATOM     28  O   UNL A   1      34.019  31.322  28.266  1.00  0.00    -0.269 OA
BRANCH  26  29
ATOM     29  C   UNL A   1      35.931  29.959  28.145  1.00  0.00     0.039 A 
ATOM     30  C   UNL A   1      36.257  29.504  29.426  1.00  0.00     0.014 A 
ATOM     31  C   UNL A   1      36.937  30.138  27.191  1.00  0.00     0.014 A 
ATOM     32  C   UNL A   1      37.581  29.185  29.734  1.00  0.00     0.010 A 
ATOM     33  C   UNL A   1      38.240  29.743  27.474  1.00  0.00     0.010 A 
ATOM     34  C   UNL A   1      38.581  29.275  28.752  1.00  0.00    -0.014 A 
BRANCH  34  35
ATOM     35  C   UNL A   1      39.989  28.906  29.047  1.00  0.00     0.031 A 
ATOM     36  C   UNL A   1      40.920  29.920  29.656  1.00  0.00     0.074 A 
ATOM     37  C   UNL A   1      40.441  27.681  28.712  1.00  0.00     0.049 A 
ATOM     38  N   UNL A   1      42.198  29.817  29.915  1.00  0.00    -0.248 NA
ATOM     39  C   UNL A   1      40.346  31.233  29.994  1.00  0.00     0.031 C 
ATOM     40  C   UNL A   1      39.646  26.627  28.077  1.00  0.00     0.029 A 
ATOM     41  N   UNL A   1      41.685  27.117  28.849  1.00  0.00    -0.354 N 
ATOM     42  C   UNL A   1      42.583  31.050  30.427  1.00  0.00     0.074 A 
ATOM     43  C   UNL A   1      41.416  31.904  30.396  1.00  0.00     0.031 C 
ATOM     44  C   UNL A   1      40.415  25.541  27.898  1.00  0.00     0.029 A 
ATOM     45  C   UNL A   1      41.766  25.831  28.365  1.00  0.00     0.049 A 
ATOM     46  H   UNL A   1      42.448  27.588  29.254  1.00  0.00     0.167 HD
ATOM     47  C   UNL A   1      43.793  31.430  30.901  1.00  0.00     0.037 A 
ATOM     48  C   UNL A   1      42.815  24.988  28.295  1.00  0.00     0.037 A 
ATOM     49  C   UNL A   1      44.941  30.562  30.959  1.00  0.00     0.049 A 
ATOM     50  C   UNL A   1      44.150  25.435  28.828  1.00  0.00     0.074 A 
ATOM     51  C   UNL A   1      46.196  30.832  31.477  1.00  0.00     0.029 A 
ATOM     52  N   UNL A   1      44.976  29.260  30.483  1.00  0.00    -0.354 N 
ATOM     53  N   UNL A   1      44.480  26.585  29.369  1.00  0.00    -0.248 NA
ATOM     54  C   UNL A   1      45.254  24.469  28.751  1.00  0.00     0.031 C 
ATOM     55  C   UNL A   1      47.004  29.710  31.271  1.00  0.00     0.029 A 
ATOM     56  C   UNL A   1      46.237  28.720  30.678  1.00  0.00     0.049 A 
ATOM     57  H   UNL A   1      44.218  28.790  30.068  1.00  0.00     0.167 HD
ATOM     58  C   UNL A   1      45.818  26.467  29.727  1.00  0.00     0.074 A 
ATOM     59  C   UNL A   1      46.234  25.132  29.353  1.00  0.00     0.031 C 
ATOM     60  C   UNL A   1      46.629  27.381  30.316  1.00  0.00     0.037 A 
BRANCH  47  61
ATOM     61  C   UNL A   1      43.943  32.840  31.405  1.00  0.00     0.058 A 
ATOM     62  C   UNL A   1      43.735  33.168  32.754  1.00  0.00     0.135 A 
ATOM     63  C   UNL A   1      44.361  33.866  30.540  1.00  0.00     0.135 A 
ATOM     64  F   UNL A   1      43.318  32.231  33.621  1.00  0.00    -0.206 F 
ATOM     65  C   UNL A   1      43.914  34.465  33.224  1.00  0.00     0.059 A 
ATOM     66  C   UNL A   1      44.576  35.163  30.995  1.00  0.00     0.059 A 
ATOM     67  F   UNL A   1      44.573  33.609  29.241  1.00  0.00    -0.206 F 
ATOM     68  C   UNL A   1      44.340  35.455  32.338  1.00  0.00     0.060 A 
BRANCH  68  69
ATOM     69  S   UNL A   1      44.598  37.125  32.973  1.00  0.00     0.124 S 
ATOM     70  O   UNL A   1      45.136  37.804  31.798  1.00  0.00    -0.237 OA
ATOM     71  O   UNL A   1      43.250  37.518  33.370  1.00  0.00    -0.237 OA
ATOM     72  O   UNL A   1      45.540  36.930  34.071  1.00  0.00    -0.744 OA
ENDBRANCH  68  69
ENDBRANCH  47  61
BRANCH  48  73
ATOM     73  C   UNL A   1      42.646  23.628  27.711  1.00  0.00     0.058 A 
ATOM     74  C   UNL A   1      42.389  22.518  28.527  1.00  0.00     0.135 A 
ATOM     75  C   UNL A   1      42.753  23.411  26.328  1.00  0.00     0.135 A 
ATOM     76  F   UNL A   1      42.282  22.673  29.856  1.00  0.00    -0.206 F 
ATOM     77  C   UNL A   1      42.272  21.235  28.000  1.00  0.00     0.059 A 
ATOM     78  C   UNL A   1      42.611  22.142  25.774  1.00  0.00     0.059 A 
ATOM     79  F   UNL A   1      42.979  24.442  25.499  1.00  0.00    -0.206 F 
ATOM     80  C   UNL A   1      42.386  21.058  26.621  1.00  0.00     0.060 A 
BRANCH  80  81
ATOM     81  S   UNL A   1      42.211  19.393  25.944  1.00  0.00     0.124 S 
ATOM     82  O   UNL A   1      42.722  18.576  27.040  1.00  0.00    -0.237 OA
ATOM     83  O   UNL A   1      40.774  19.311  25.701  1.00  0.00    -0.237 OA
ATOM     84  O   UNL A   1      43.041  19.430  24.744  1.00  0.00    -0.744 OA
ENDBRANCH  80  81
ENDBRANCH  48  73
BRANCH  60  85
ATOM     85  C   UNL A   1      48.034  26.955  30.642  1.00  0.00     0.058 A 
ATOM     86  C   UNL A   1      49.090  27.119  29.732  1.00  0.00     0.135 A 
ATOM     87  C   UNL A   1      48.335  26.424  31.907  1.00  0.00     0.135 A 
ATOM     88  F   UNL A   1      48.856  27.618  28.508  1.00  0.00    -0.206 F 
ATOM     89  C   UNL A   1      50.391  26.749  30.056  1.00  0.00     0.059 A 
ATOM     90  C   UNL A   1      49.634  26.075  32.263  1.00  0.00     0.059 A 
ATOM     91  F   UNL A   1      47.365  26.255  32.819  1.00  0.00    -0.206 F 
ATOM     92  C   UNL A   1      50.653  26.231  31.326  1.00  0.00     0.060 A 
BRANCH  92  93
ATOM     93  S   UNL A   1      52.353  25.786  31.745  1.00  0.00     0.124 S 
ATOM     94  O   UNL A   1      52.646  26.728  32.820  1.00  0.00    -0.237 OA
ATOM     95  O   UNL A   1      52.220  24.389  32.145  1.00  0.00    -0.237 OA
ATOM     96  O   UNL A   1      53.079  26.010  30.499  1.00  0.00    -0.744 OA
ENDBRANCH  92  93
ENDBRANCH  60  85
ENDBRANCH  34  35
ENDBRANCH  26  29
ENDBRANCH  24  25
ENDBRANCH   1  24
TORSDOF 16
ENDMDL
