MODEL 1
REMARK VINA RESULT:     -12.4      0.000      0.000
REMARK SMILES CCc1cc(Nc2ccc(C(=O)NCCCNC(=O)c3ccc(-c4c5nc(c(-c6c(F)cc(S(=O)(=O)[O-])cc6F)c6ccc([nH]6)c(-c6c(F)cc(S(=O)(=O)[O-])cc6F)c6nc(c(-c7c(F)cc(S(=O)(=O)[O-])cc7F)c7ccc4[nH]7)C=C6)C=C5)cc3)cc2)nc(C(C)C)n1
REMARK SMILES IDX 15 1 14 2 13 3 11 4 12 5 10 7 7 8 8 9 87 10 9 11 86 12 6 13
REMARK SMILES IDX 5 15 3 16 4 17 93 18 89 19 88 20 2 21 1 22 90 23 91 24 92 25
REMARK SMILES IDX 16 26 17 27 18 28 19 30 20 31 21 32 85 33 22 34 84 35 23 36
REMARK SMILES IDX 24 37 25 38 78 39 26 40 83 41 77 42 79 43 27 44 82 45 76 46
REMARK SMILES IDX 75 47 28 49 62 50 41 51 61 52 42 53 45 54 60 55 80 56 43 57
REMARK SMILES IDX 44 58 59 60 81 61 46 62 29 63 30 64 39 65 31 66 32 67 38 68
REMARK SMILES IDX 40 69 33 70 34 71 35 72 36 73 37 74 63 75 64 76 73 77 65 78
REMARK SMILES IDX 66 79 72 80 74 81 67 82 68 83 69 84 70 85 71 86 47 87 48 88
REMARK SMILES IDX 57 89 49 90 50 91 56 92 58 93 51 94 52 95 53 96 54 97 55 98
REMARK H PARENT 13 6 6 14 17 29 79 48 45 59
REMARK Flexibility Score: inf
ROOT
ATOM      1  C   UNL A   1      37.461  23.159  25.765  1.00  0.00     0.042 C 
ENDROOT
BRANCH   1   2
ATOM      2  C   UNL A   1      35.970  23.399  25.991  1.00  0.00     0.118 C 
BRANCH   2   3
ATOM      3  N   UNL A   1      35.304  22.183  26.430  1.00  0.00    -0.352 N 
ATOM      4  C   UNL A   1      33.983  21.821  26.473  1.00  0.00     0.251 C 
ATOM      5  O   UNL A   1      33.712  20.678  26.843  1.00  0.00    -0.269 OA
ATOM      6  H   UNL A   1      35.921  21.489  26.758  1.00  0.00     0.163 HD
BRANCH   4   7
ATOM      7  C   UNL A   1      32.881  22.717  26.031  1.00  0.00     0.039 A 
ATOM      8  C   UNL A   1      30.941  24.476  24.991  1.00  0.00     0.040 A 
ATOM      9  C   UNL A   1      31.554  23.537  24.162  1.00  0.00     0.027 A 
ATOM     10  C   UNL A   1      31.217  24.445  26.361  1.00  0.00     0.027 A 
ATOM     11  C   UNL A   1      32.533  22.679  24.672  1.00  0.00     0.016 A 
ATOM     12  C   UNL A   1      32.164  23.559  26.881  1.00  0.00     0.016 A 
BRANCH   8  13
ATOM     13  N   UNL A   1      29.976  25.352  24.468  1.00  0.00    -0.340 N 
ATOM     14  H   UNL A   1      29.108  24.968  24.205  1.00  0.00     0.168 HD
BRANCH  13  15
ATOM     15  C   UNL A   1      30.155  26.737  24.291  1.00  0.00     0.134 A 
ATOM     16  C   UNL A   1      29.555  28.766  23.240  1.00  0.00     0.046 A 
ATOM     17  C   UNL A   1      29.331  27.413  23.411  1.00  0.00     0.071 A 
ATOM     18  N   UNL A   1      30.582  29.396  23.846  1.00  0.00    -0.238 NA
ATOM     19  C   UNL A   1      31.365  28.661  24.655  1.00  0.00     0.133 A 
ATOM     20  N   UNL A   1      31.177  27.356  24.905  1.00  0.00    -0.216 NA
BRANCH  16  21
ATOM     21  C   UNL A   1      28.717  29.614  22.317  1.00  0.00     0.053 C 
ATOM     22  C   UNL A   1      27.374  30.062  22.880  1.00  0.00     0.011 C 
ENDBRANCH  16  21
BRANCH  19  23
ATOM     23  C   UNL A   1      32.571  29.315  25.290  1.00  0.00     0.051 C 
ATOM     24  C   UNL A   1      32.154  30.183  26.476  1.00  0.00     0.016 C 
ATOM     25  C   UNL A   1      33.612  28.277  25.705  1.00  0.00     0.016 C 
ENDBRANCH  19  23
ENDBRANCH  13  15
ENDBRANCH   8  13
ENDBRANCH   4   7
ENDBRANCH   2   3
ENDBRANCH   1   2
BRANCH   1  26
ATOM     26  C   UNL A   1      38.353  24.162  26.494  1.00  0.00     0.118 C 
BRANCH  26  27
ATOM     27  N   UNL A   1      39.740  24.074  26.060  1.00  0.00    -0.352 N 
ATOM     28  C   UNL A   1      40.817  24.856  26.392  1.00  0.00     0.251 C 
ATOM     29  H   UNL A   1      39.934  23.340  25.432  1.00  0.00     0.163 HD
ATOM     30  O   UNL A   1      41.855  24.752  25.745  1.00  0.00    -0.269 OA
BRANCH  28  31
ATOM     31  C   UNL A   1      40.734  25.824  27.509  1.00  0.00     0.039 A 
ATOM     32  C   UNL A   1      41.696  26.835  27.594  1.00  0.00     0.014 A 
ATOM     33  C   UNL A   1      39.750  25.713  28.496  1.00  0.00     0.014 A 
ATOM     34  C   UNL A   1      41.644  27.760  28.641  1.00  0.00     0.010 A 
ATOM     35  C   UNL A   1      39.661  26.674  29.501  1.00  0.00     0.010 A 
ATOM     36  C   UNL A   1      40.609  27.703  29.587  1.00  0.00    -0.014 A 
BRANCH  36  37
ATOM     37  C   UNL A   1      40.508  28.709  30.677  1.00  0.00     0.031 A 
ATOM     38  C   UNL A   1      41.386  28.597  31.895  1.00  0.00     0.074 A 
ATOM     39  C   UNL A   1      39.582  29.684  30.597  1.00  0.00     0.049 A 
ATOM     40  N   UNL A   1      41.392  29.330  32.979  1.00  0.00    -0.248 NA
ATOM     41  C   UNL A   1      42.371  27.505  31.905  1.00  0.00     0.031 C 
ATOM     42  C   UNL A   1      38.644  29.869  29.488  1.00  0.00     0.029 A 
ATOM     43  N   UNL A   1      39.266  30.695  31.469  1.00  0.00    -0.354 N 
ATOM     44  C   UNL A   1      42.364  28.778  33.805  1.00  0.00     0.074 A 
ATOM     45  C   UNL A   1      42.896  27.622  33.116  1.00  0.00     0.031 C 
ATOM     46  C   UNL A   1      37.870  30.936  29.740  1.00  0.00     0.029 A 
ATOM     47  C   UNL A   1      38.231  31.491  31.040  1.00  0.00     0.049 A 
ATOM     48  H   UNL A   1      39.738  30.838  32.322  1.00  0.00     0.167 HD
ATOM     49  C   UNL A   1      42.787  29.208  35.018  1.00  0.00     0.037 A 
ATOM     50  C   UNL A   1      37.632  32.542  31.633  1.00  0.00     0.037 A 
ATOM     51  C   UNL A   1      42.272  30.375  35.686  1.00  0.00     0.049 A 
ATOM     52  C   UNL A   1      38.124  33.005  32.977  1.00  0.00     0.074 A 
ATOM     53  C   UNL A   1      42.674  30.927  36.890  1.00  0.00     0.029 A 
ATOM     54  N   UNL A   1      41.240  31.171  35.207  1.00  0.00    -0.354 N 
ATOM     55  N   UNL A   1      39.084  32.505  33.719  1.00  0.00    -0.248 NA
ATOM     56  C   UNL A   1      37.458  34.176  33.562  1.00  0.00     0.031 C 
ATOM     57  C   UNL A   1      41.860  32.033  37.157  1.00  0.00     0.029 A 
ATOM     58  C   UNL A   1      40.981  32.197  36.099  1.00  0.00     0.049 A 
ATOM     59  H   UNL A   1      40.763  31.025  34.358  1.00  0.00     0.167 HD
ATOM     60  C   UNL A   1      39.154  33.316  34.846  1.00  0.00     0.074 A 
ATOM     61  C   UNL A   1      38.147  34.344  34.682  1.00  0.00     0.031 C 
ATOM     62  C   UNL A   1      39.978  33.218  35.918  1.00  0.00     0.037 A 
BRANCH  49  63
ATOM     63  C   UNL A   1      43.867  28.413  35.702  1.00  0.00     0.058 A 
ATOM     64  C   UNL A   1      45.228  28.695  35.502  1.00  0.00     0.135 A 
ATOM     65  C   UNL A   1      43.539  27.378  36.592  1.00  0.00     0.135 A 
ATOM     66  F   UNL A   1      45.600  29.666  34.652  1.00  0.00    -0.206 F 
ATOM     67  C   UNL A   1      46.225  27.960  36.135  1.00  0.00     0.059 A 
ATOM     68  C   UNL A   1      44.519  26.646  37.257  1.00  0.00     0.059 A 
ATOM     69  F   UNL A   1      42.253  27.065  36.821  1.00  0.00    -0.206 F 
ATOM     70  C   UNL A   1      45.860  26.935  37.010  1.00  0.00     0.060 A 
BRANCH  70  71
ATOM     71  S   UNL A   1      47.166  25.991  37.824  1.00  0.00     0.124 S 
ATOM     72  O   UNL A   1      48.159  27.030  38.080  1.00  0.00    -0.237 OA
ATOM     73  O   UNL A   1      46.484  25.464  39.001  1.00  0.00    -0.237 OA
ATOM     74  O   UNL A   1      47.542  24.997  36.823  1.00  0.00    -0.744 OA
ENDBRANCH  70  71
ENDBRANCH  49  63
BRANCH  50  75
ATOM     75  C   UNL A   1      36.514  33.241  30.946  1.00  0.00     0.058 A 
ATOM     76  C   UNL A   1      35.200  33.149  31.428  1.00  0.00     0.135 A 
ATOM     77  C   UNL A   1      36.739  34.031  29.807  1.00  0.00     0.135 A 
ATOM     78  F   UNL A   1      34.934  32.402  32.511  1.00  0.00    -0.206 F 
ATOM     79  C   UNL A   1      34.145  33.804  30.799  1.00  0.00     0.059 A 
ATOM     80  C   UNL A   1      35.704  34.713  29.175  1.00  0.00     0.059 A 
ATOM     81  F   UNL A   1      37.981  34.165  29.316  1.00  0.00    -0.206 F 
ATOM     82  C   UNL A   1      34.409  34.585  29.674  1.00  0.00     0.060 A 
BRANCH  82  83
ATOM     83  S   UNL A   1      33.041  35.473  28.896  1.00  0.00     0.124 S 
ATOM     84  O   UNL A   1      32.243  35.856  30.054  1.00  0.00    -0.237 OA
ATOM     85  O   UNL A   1      33.732  36.559  28.207  1.00  0.00    -0.237 OA
ATOM     86  O   UNL A   1      32.445  34.468  28.020  1.00  0.00    -0.744 OA
ENDBRANCH  82  83
ENDBRANCH  50  75
BRANCH  62  87
ATOM     87  C   UNL A   1      39.849  34.268  36.986  1.00  0.00     0.058 A 
ATOM     88  C   UNL A   1      40.500  35.507  36.884  1.00  0.00     0.135 A 
ATOM     89  C   UNL A   1      39.022  34.050  38.100  1.00  0.00     0.135 A 
ATOM     90  F   UNL A   1      41.307  35.762  35.842  1.00  0.00    -0.206 F 
ATOM     91  C   UNL A   1      40.354  36.486  37.861  1.00  0.00     0.059 A 
ATOM     92  C   UNL A   1      38.840  35.024  39.076  1.00  0.00     0.059 A 
ATOM     93  F   UNL A   1      38.369  32.885  38.240  1.00  0.00    -0.206 F 
ATOM     94  C   UNL A   1      39.520  36.235  38.953  1.00  0.00     0.060 A 
BRANCH  94  95
ATOM     95  S   UNL A   1      39.310  37.527  40.197  1.00  0.00     0.124 S 
ATOM     96  O   UNL A   1      38.275  38.356  39.587  1.00  0.00    -0.237 OA
ATOM     97  O   UNL A   1      38.901  36.766  41.374  1.00  0.00    -0.237 OA
ATOM     98  O   UNL A   1      40.634  38.136  40.280  1.00  0.00    -0.744 OA
ENDBRANCH  94  95
ENDBRANCH  62  87
ENDBRANCH  36  37
ENDBRANCH  28  31
ENDBRANCH  26  27
ENDBRANCH   1  26
TORSDOF 17
ENDMDL
MODEL 2
REMARK VINA RESULT:     -12.3      4.971     10.751
REMARK SMILES CCc1cc(Nc2ccc(C(=O)NCCCNC(=O)c3ccc(-c4c5nc(c(-c6c(F)cc(S(=O)(=O)[O-])cc6F)c6ccc([nH]6)c(-c6c(F)cc(S(=O)(=O)[O-])cc6F)c6nc(c(-c7c(F)cc(S(=O)(=O)[O-])cc7F)c7ccc4[nH]7)C=C6)C=C5)cc3)cc2)nc(C(C)C)n1
REMARK SMILES IDX 15 1 14 2 13 3 11 4 12 5 10 7 7 8 8 9 87 10 9 11 86 12 6 13
REMARK SMILES IDX 5 15 3 16 4 17 93 18 89 19 88 20 2 21 1 22 90 23 91 24 92 25
REMARK SMILES IDX 16 26 17 27 18 28 19 30 20 31 21 32 85 33 22 34 84 35 23 36
REMARK SMILES IDX 24 37 25 38 78 39 26 40 83 41 77 42 79 43 27 44 82 45 76 46
REMARK SMILES IDX 75 47 28 49 62 50 41 51 61 52 42 53 45 54 60 55 80 56 43 57
REMARK SMILES IDX 44 58 59 60 81 61 46 62 29 63 30 64 39 65 31 66 32 67 38 68
REMARK SMILES IDX 40 69 33 70 34 71 35 72 36 73 37 74 63 75 64 76 73 77 65 78
REMARK SMILES IDX 66 79 72 80 74 81 67 82 68 83 69 84 70 85 71 86 47 87 48 88
REMARK SMILES IDX 57 89 49 90 50 91 56 92 58 93 51 94 52 95 53 96 54 97 55 98
REMARK H PARENT 13 6 6 14 17 29 79 48 45 59
REMARK Flexibility Score: inf
ROOT
ATOM      1  C   UNL A   1      33.108  27.968  25.443  1.00  0.00     0.042 C 
ENDROOT
BRANCH   1   2
ATOM      2  C   UNL A   1      31.657  28.418  25.607  1.00  0.00     0.118 C 
BRANCH   2   3
ATOM      3  N   UNL A   1      30.883  28.138  24.409  1.00  0.00    -0.352 N 
ATOM      4  C   UNL A   1      30.443  26.966  23.850  1.00  0.00     0.251 C 
ATOM      5  O   UNL A   1      29.738  27.039  22.842  1.00  0.00    -0.269 OA
ATOM      6  H   UNL A   1      30.627  28.943  23.904  1.00  0.00     0.163 HD
BRANCH   4   7
ATOM      7  C   UNL A   1      30.718  25.630  24.444  1.00  0.00     0.039 A 
ATOM      8  C   UNL A   1      31.119  22.998  25.366  1.00  0.00     0.040 A 
ATOM      9  C   UNL A   1      31.404  23.329  24.042  1.00  0.00     0.027 A 
ATOM     10  C   UNL A   1      30.751  24.017  26.250  1.00  0.00     0.027 A 
ATOM     11  C   UNL A   1      31.183  24.629  23.578  1.00  0.00     0.016 A 
ATOM     12  C   UNL A   1      30.571  25.328  25.798  1.00  0.00     0.016 A 
BRANCH   8  13
ATOM     13  N   UNL A   1      31.318  21.685  25.822  1.00  0.00    -0.340 N 
ATOM     14  H   UNL A   1      30.648  21.311  26.439  1.00  0.00     0.168 HD
BRANCH  13  15
ATOM     15  C   UNL A   1      32.406  20.864  25.467  1.00  0.00     0.134 A 
ATOM     16  C   UNL A   1      34.713  20.583  25.043  1.00  0.00     0.046 A 
ATOM     17  C   UNL A   1      33.674  21.411  25.425  1.00  0.00     0.071 A 
ATOM     18  N   UNL A   1      34.497  19.310  24.653  1.00  0.00    -0.238 NA
ATOM     19  C   UNL A   1      33.229  18.863  24.683  1.00  0.00     0.133 A 
ATOM     20  N   UNL A   1      32.180  19.596  25.087  1.00  0.00    -0.216 NA
BRANCH  16  21
ATOM     21  C   UNL A   1      36.141  21.059  24.969  1.00  0.00     0.053 C 
ATOM     22  C   UNL A   1      37.190  19.961  24.837  1.00  0.00     0.011 C 
ENDBRANCH  16  21
BRANCH  19  23
ATOM     23  C   UNL A   1      32.938  17.467  24.179  1.00  0.00     0.051 C 
ATOM     24  C   UNL A   1      34.022  17.009  23.202  1.00  0.00     0.016 C 
ATOM     25  C   UNL A   1      32.784  16.480  25.334  1.00  0.00     0.016 C 
ENDBRANCH  19  23
ENDBRANCH  13  15
ENDBRANCH   8  13
ENDBRANCH   4   7
ENDBRANCH   2   3
ENDBRANCH   1   2
BRANCH   1  26
ATOM     26  C   UNL A   1      33.978  28.272  26.660  1.00  0.00     0.118 C 
BRANCH  26  27
ATOM     27  N   UNL A   1      33.761  29.621  27.162  1.00  0.00    -0.352 N 
ATOM     28  C   UNL A   1      34.554  30.398  27.969  1.00  0.00     0.251 C 
ATOM     29  H   UNL A   1      32.916  30.040  26.879  1.00  0.00     0.163 HD
ATOM     30  O   UNL A   1      34.089  31.423  28.458  1.00  0.00    -0.269 OA
BRANCH  28  31
ATOM     31  C   UNL A   1      35.952  30.007  28.258  1.00  0.00     0.039 A 
ATOM     32  C   UNL A   1      36.899  30.091  27.232  1.00  0.00     0.014 A 
ATOM     33  C   UNL A   1      36.325  29.513  29.511  1.00  0.00     0.014 A 
ATOM     34  C   UNL A   1      38.225  29.725  27.476  1.00  0.00     0.010 A 
ATOM     35  C   UNL A   1      37.661  29.210  29.771  1.00  0.00     0.010 A 
ATOM     36  C   UNL A   1      38.623  29.307  28.755  1.00  0.00    -0.014 A 
BRANCH  36  37
ATOM     37  C   UNL A   1      40.039  28.962  29.046  1.00  0.00     0.031 A 
ATOM     38  C   UNL A   1      40.963  29.992  29.637  1.00  0.00     0.074 A 
ATOM     39  C   UNL A   1      40.505  27.741  28.719  1.00  0.00     0.049 A 
ATOM     40  N   UNL A   1      42.244  29.904  29.891  1.00  0.00    -0.248 NA
ATOM     41  C   UNL A   1      40.376  31.301  29.967  1.00  0.00     0.031 C 
ATOM     42  C   UNL A   1      39.717  26.673  28.100  1.00  0.00     0.029 A 
ATOM     43  N   UNL A   1      41.758  27.196  28.847  1.00  0.00    -0.354 N 
ATOM     44  C   UNL A   1      42.619  31.146  30.389  1.00  0.00     0.074 A 
ATOM     45  C   UNL A   1      41.440  31.985  30.362  1.00  0.00     0.031 C 
ATOM     46  C   UNL A   1      40.499  25.598  27.918  1.00  0.00     0.029 A 
ATOM     47  C   UNL A   1      41.851  25.909  28.372  1.00  0.00     0.049 A 
ATOM     48  H   UNL A   1      42.518  27.680  29.244  1.00  0.00     0.167 HD
ATOM     49  C   UNL A   1      43.830  31.545  30.847  1.00  0.00     0.037 A 
ATOM     50  C   UNL A   1      42.908  25.078  28.300  1.00  0.00     0.037 A 
ATOM     51  C   UNL A   1      44.993  30.696  30.897  1.00  0.00     0.049 A 
ATOM     52  C   UNL A   1      44.241  25.539  28.821  1.00  0.00     0.074 A 
ATOM     53  C   UNL A   1      46.251  30.986  31.396  1.00  0.00     0.029 A 
ATOM     54  N   UNL A   1      45.041  29.390  30.430  1.00  0.00    -0.354 N 
ATOM     55  N   UNL A   1      44.564  26.699  29.343  1.00  0.00    -0.248 NA
ATOM     56  C   UNL A   1      45.352  24.581  28.750  1.00  0.00     0.031 C 
ATOM     57  C   UNL A   1      47.069  29.869  31.196  1.00  0.00     0.029 A 
ATOM     58  C   UNL A   1      46.310  28.867  30.613  1.00  0.00     0.049 A 
ATOM     59  H   UNL A   1      44.283  28.906  30.027  1.00  0.00     0.167 HD
ATOM     60  C   UNL A   1      45.909  26.601  29.686  1.00  0.00     0.074 A 
ATOM     61  C   UNL A   1      46.334  25.264  29.322  1.00  0.00     0.031 C 
ATOM     62  C   UNL A   1      46.715  27.532  30.251  1.00  0.00     0.037 A 
BRANCH  49  63
ATOM     63  C   UNL A   1      43.960  32.962  31.336  1.00  0.00     0.058 A 
ATOM     64  C   UNL A   1      44.345  34.005  30.477  1.00  0.00     0.135 A 
ATOM     65  C   UNL A   1      43.668  33.289  32.670  1.00  0.00     0.135 A 
ATOM     66  F   UNL A   1      44.649  33.747  29.194  1.00  0.00    -0.206 F 
ATOM     67  C   UNL A   1      44.464  35.314  30.930  1.00  0.00     0.059 A 
ATOM     68  C   UNL A   1      43.755  34.597  33.139  1.00  0.00     0.059 A 
ATOM     69  F   UNL A   1      43.295  32.332  33.534  1.00  0.00    -0.206 F 
ATOM     70  C   UNL A   1      44.170  35.600  32.264  1.00  0.00     0.060 A 
BRANCH  70  71
ATOM     71  S   UNL A   1      44.329  37.305  32.836  1.00  0.00     0.124 S 
ATOM     72  O   UNL A   1      43.364  37.336  33.931  1.00  0.00    -0.237 OA
ATOM     73  O   UNL A   1      45.733  37.375  33.228  1.00  0.00    -0.237 OA
ATOM     74  O   UNL A   1      43.969  38.093  31.661  1.00  0.00    -0.744 OA
ENDBRANCH  70  71
ENDBRANCH  49  63
BRANCH  50  75
ATOM     75  C   UNL A   1      42.740  23.714  27.733  1.00  0.00     0.058 A 
ATOM     76  C   UNL A   1      42.495  22.612  28.565  1.00  0.00     0.135 A 
ATOM     77  C   UNL A   1      42.800  23.488  26.348  1.00  0.00     0.135 A 
ATOM     78  F   UNL A   1      42.435  22.776  29.895  1.00  0.00    -0.206 F 
ATOM     79  C   UNL A   1      42.330  21.330  28.047  1.00  0.00     0.059 A 
ATOM     80  C   UNL A   1      42.614  22.220  25.806  1.00  0.00     0.059 A 
ATOM     81  F   UNL A   1      43.014  24.512  25.508  1.00  0.00    -0.206 F 
ATOM     82  C   UNL A   1      42.389  21.146  26.666  1.00  0.00     0.060 A 
BRANCH  82  83
ATOM     83  S   UNL A   1      42.119  19.488  26.000  1.00  0.00     0.124 S 
ATOM     84  O   UNL A   1      42.988  19.497  24.830  1.00  0.00    -0.237 OA
ATOM     85  O   UNL A   1      42.547  18.639  27.108  1.00  0.00    -0.237 OA
ATOM     86  O   UNL A   1      40.686  19.467  25.725  1.00  0.00    -0.744 OA
ENDBRANCH  82  83
ENDBRANCH  50  75
BRANCH  62  87
ATOM     87  C   UNL A   1      48.135  27.130  30.541  1.00  0.00     0.058 A 
ATOM     88  C   UNL A   1      49.165  27.339  29.611  1.00  0.00     0.135 A 
ATOM     89  C   UNL A   1      48.475  26.576  31.786  1.00  0.00     0.135 A 
ATOM     90  F   UNL A   1      48.890  27.859  28.404  1.00  0.00    -0.206 F 
ATOM     91  C   UNL A   1      50.482  26.991  29.896  1.00  0.00     0.059 A 
ATOM     92  C   UNL A   1      49.789  26.245  32.102  1.00  0.00     0.059 A 
ATOM     93  F   UNL A   1      47.529  26.365  32.714  1.00  0.00    -0.206 F 
ATOM     94  C   UNL A   1      50.783  26.446  31.146  1.00  0.00     0.060 A 
BRANCH  94  95
ATOM     95  S   UNL A   1      52.501  26.032  31.518  1.00  0.00     0.124 S 
ATOM     96  O   UNL A   1      53.121  26.143  30.201  1.00  0.00    -0.237 OA
ATOM     97  O   UNL A   1      52.871  27.064  32.483  1.00  0.00    -0.237 OA
ATOM     98  O   UNL A   1      52.414  24.679  32.060  1.00  0.00    -0.744 OA
ENDBRANCH  94  95
ENDBRANCH  62  87
ENDBRANCH  36  37
ENDBRANCH  28  31
ENDBRANCH  26  27
ENDBRANCH   1  26
TORSDOF 17
ENDMDL
MODEL 3
REMARK VINA RESULT:     -12.3      6.628     12.257
REMARK SMILES CCc1cc(Nc2ccc(C(=O)NCCCNC(=O)c3ccc(-c4c5nc(c(-c6c(F)cc(S(=O)(=O)[O-])cc6F)c6ccc([nH]6)c(-c6c(F)cc(S(=O)(=O)[O-])cc6F)c6nc(c(-c7c(F)cc(S(=O)(=O)[O-])cc7F)c7ccc4[nH]7)C=C6)C=C5)cc3)cc2)nc(C(C)C)n1
REMARK SMILES IDX 15 1 14 2 13 3 11 4 12 5 10 7 7 8 8 9 87 10 9 11 86 12 6 13
REMARK SMILES IDX 5 15 3 16 4 17 93 18 89 19 88 20 2 21 1 22 90 23 91 24 92 25
REMARK SMILES IDX 16 26 17 27 18 28 19 30 20 31 21 32 85 33 22 34 84 35 23 36
REMARK SMILES IDX 24 37 25 38 78 39 26 40 83 41 77 42 79 43 27 44 82 45 76 46
REMARK SMILES IDX 75 47 28 49 62 50 41 51 61 52 42 53 45 54 60 55 80 56 43 57
REMARK SMILES IDX 44 58 59 60 81 61 46 62 29 63 30 64 39 65 31 66 32 67 38 68
REMARK SMILES IDX 40 69 33 70 34 71 35 72 36 73 37 74 63 75 64 76 73 77 65 78
REMARK SMILES IDX 66 79 72 80 74 81 67 82 68 83 69 84 70 85 71 86 47 87 48 88
REMARK SMILES IDX 57 89 49 90 50 91 56 92 58 93 51 94 52 95 53 96 54 97 55 98
REMARK H PARENT 13 6 6 14 17 29 79 48 45 59
REMARK Flexibility Score: inf
ROOT
ATOM      1  C   UNL A   1      33.760  29.382  26.911  1.00  0.00     0.042 C 
ENDROOT
BRANCH   1   2
ATOM      2  C   UNL A   1      33.636  28.348  25.793  1.00  0.00     0.118 C 
BRANCH   2   3
ATOM      3  N   UNL A   1      32.372  28.489  25.088  1.00  0.00    -0.352 N 
ATOM      4  C   UNL A   1      31.404  27.582  24.743  1.00  0.00     0.251 C 
ATOM      5  O   UNL A   1      30.388  28.007  24.190  1.00  0.00    -0.269 OA
ATOM      6  H   UNL A   1      32.176  29.411  24.803  1.00  0.00     0.163 HD
BRANCH   4   7
ATOM      7  C   UNL A   1      31.497  26.133  25.068  1.00  0.00     0.039 A 
ATOM      8  C   UNL A   1      31.468  23.354  25.534  1.00  0.00     0.040 A 
ATOM      9  C   UNL A   1      31.368  23.850  24.234  1.00  0.00     0.027 A 
ATOM     10  C   UNL A   1      31.705  24.252  26.579  1.00  0.00     0.027 A 
ATOM     11  C   UNL A   1      31.359  25.229  24.004  1.00  0.00     0.016 A 
ATOM     12  C   UNL A   1      31.739  25.630  26.347  1.00  0.00     0.016 A 
BRANCH   8  13
ATOM     13  N   UNL A   1      31.453  21.969  25.762  1.00  0.00    -0.340 N 
ATOM     14  H   UNL A   1      30.664  21.592  26.217  1.00  0.00     0.168 HD
BRANCH  13  15
ATOM     15  C   UNL A   1      32.479  21.078  25.392  1.00  0.00     0.134 A 
ATOM     16  C   UNL A   1      34.771  20.611  25.063  1.00  0.00     0.046 A 
ATOM     17  C   UNL A   1      33.792  21.501  25.462  1.00  0.00     0.071 A 
ATOM     18  N   UNL A   1      34.462  19.401  24.553  1.00  0.00    -0.238 NA
ATOM     19  C   UNL A   1      33.158  19.078  24.479  1.00  0.00     0.133 A 
ATOM     20  N   UNL A   1      32.159  19.873  24.892  1.00  0.00    -0.216 NA
BRANCH  16  21
ATOM     21  C   UNL A   1      36.239  20.951  25.103  1.00  0.00     0.053 C 
ATOM     22  C   UNL A   1      37.188  19.770  24.935  1.00  0.00     0.011 C 
ENDBRANCH  16  21
BRANCH  19  23
ATOM     23  C   UNL A   1      32.771  17.763  23.841  1.00  0.00     0.051 C 
ATOM     24  C   UNL A   1      32.484  17.949  22.351  1.00  0.00     0.016 C 
ATOM     25  C   UNL A   1      33.841  16.698  24.068  1.00  0.00     0.016 C 
ENDBRANCH  19  23
ENDBRANCH  13  15
ENDBRANCH   8  13
ENDBRANCH   4   7
ENDBRANCH   2   3
ENDBRANCH   1   2
BRANCH   1  26
ATOM     26  C   UNL A   1      35.106  29.338  27.630  1.00  0.00     0.118 C 
BRANCH  26  27
ATOM     27  N   UNL A   1      35.123  30.194  28.808  1.00  0.00    -0.352 N 
ATOM     28  C   UNL A   1      36.131  30.433  29.708  1.00  0.00     0.251 C 
ATOM     29  H   UNL A   1      34.281  30.673  28.987  1.00  0.00     0.163 HD
ATOM     30  O   UNL A   1      35.873  31.015  30.757  1.00  0.00    -0.269 OA
BRANCH  28  31
ATOM     31  C   UNL A   1      37.516  29.989  29.428  1.00  0.00     0.039 A 
ATOM     32  C   UNL A   1      37.999  30.081  28.119  1.00  0.00     0.014 A 
ATOM     33  C   UNL A   1      38.320  29.438  30.430  1.00  0.00     0.014 A 
ATOM     34  C   UNL A   1      39.300  29.666  27.826  1.00  0.00     0.010 A 
ATOM     35  C   UNL A   1      39.638  29.085  30.150  1.00  0.00     0.010 A 
ATOM     36  C   UNL A   1      40.140  29.190  28.845  1.00  0.00    -0.014 A 
BRANCH  36  37
ATOM     37  C   UNL A   1      41.544  28.792  28.561  1.00  0.00     0.031 A 
ATOM     38  C   UNL A   1      42.640  29.822  28.571  1.00  0.00     0.074 A 
ATOM     39  C   UNL A   1      41.817  27.513  28.232  1.00  0.00     0.049 A 
ATOM     40  N   UNL A   1      43.908  29.682  28.276  1.00  0.00    -0.248 NA
ATOM     41  C   UNL A   1      42.259  31.194  28.940  1.00  0.00     0.031 C 
ATOM     42  C   UNL A   1      40.832  26.434  28.146  1.00  0.00     0.029 A 
ATOM     43  N   UNL A   1      43.002  26.908  27.897  1.00  0.00    -0.354 N 
ATOM     44  C   UNL A   1      44.469  30.947  28.405  1.00  0.00     0.074 A 
ATOM     45  C   UNL A   1      43.396  31.850  28.762  1.00  0.00     0.031 C 
ATOM     46  C   UNL A   1      41.455  25.297  27.796  1.00  0.00     0.029 A 
ATOM     47  C   UNL A   1      42.875  25.571  27.600  1.00  0.00     0.049 A 
ATOM     48  H   UNL A   1      43.863  27.385  27.873  1.00  0.00     0.167 HD
ATOM     49  C   UNL A   1      45.764  31.318  28.259  1.00  0.00     0.037 A 
ATOM     50  C   UNL A   1      43.795  24.672  27.204  1.00  0.00     0.037 A 
ATOM     51  C   UNL A   1      46.831  30.408  27.930  1.00  0.00     0.049 A 
ATOM     52  C   UNL A   1      45.228  25.105  27.056  1.00  0.00     0.074 A 
ATOM     53  C   UNL A   1      48.185  30.673  27.816  1.00  0.00     0.029 A 
ATOM     54  N   UNL A   1      46.666  29.056  27.662  1.00  0.00    -0.354 N 
ATOM     55  N   UNL A   1      45.751  26.294  27.238  1.00  0.00    -0.248 NA
ATOM     56  C   UNL A   1      46.196  24.076  26.654  1.00  0.00     0.031 C 
ATOM     57  C   UNL A   1      48.833  29.491  27.442  1.00  0.00     0.029 A 
ATOM     58  C   UNL A   1      47.889  28.479  27.366  1.00  0.00     0.049 A 
ATOM     59  H   UNL A   1      45.805  28.579  27.679  1.00  0.00     0.167 HD
ATOM     60  C   UNL A   1      47.113  26.151  26.998  1.00  0.00     0.074 A 
ATOM     61  C   UNL A   1      47.333  24.757  26.669  1.00  0.00     0.031 C 
ATOM     62  C   UNL A   1      48.092  27.087  27.047  1.00  0.00     0.037 A 
BRANCH  49  63
ATOM     63  C   UNL A   1      46.101  32.771  28.457  1.00  0.00     0.058 A 
ATOM     64  C   UNL A   1      46.066  33.687  27.394  1.00  0.00     0.135 A 
ATOM     65  C   UNL A   1      46.434  33.261  29.730  1.00  0.00     0.135 A 
ATOM     66  F   UNL A   1      45.767  33.271  26.152  1.00  0.00    -0.206 F 
ATOM     67  C   UNL A   1      46.377  35.030  27.579  1.00  0.00     0.059 A 
ATOM     68  C   UNL A   1      46.724  34.606  29.944  1.00  0.00     0.059 A 
ATOM     69  F   UNL A   1      46.483  32.429  30.783  1.00  0.00    -0.206 F 
ATOM     70  C   UNL A   1      46.707  35.480  28.858  1.00  0.00     0.060 A 
BRANCH  70  71
ATOM     71  S   UNL A   1      47.108  37.226  29.082  1.00  0.00     0.124 S 
ATOM     72  O   UNL A   1      47.700  37.556  27.788  1.00  0.00    -0.237 OA
ATOM     73  O   UNL A   1      45.801  37.816  29.349  1.00  0.00    -0.237 OA
ATOM     74  O   UNL A   1      48.033  37.220  30.211  1.00  0.00    -0.744 OA
ENDBRANCH  70  71
ENDBRANCH  49  63
BRANCH  50  75
ATOM     75  C   UNL A   1      43.391  23.265  26.943  1.00  0.00     0.058 A 
ATOM     76  C   UNL A   1      43.340  22.760  25.636  1.00  0.00     0.135 A 
ATOM     77  C   UNL A   1      43.068  22.393  27.995  1.00  0.00     0.135 A 
ATOM     78  F   UNL A   1      43.634  23.557  24.598  1.00  0.00    -0.206 F 
ATOM     79  C   UNL A   1      42.969  21.444  25.377  1.00  0.00     0.059 A 
ATOM     80  C   UNL A   1      42.717  21.066  27.762  1.00  0.00     0.059 A 
ATOM     81  F   UNL A   1      43.119  22.822  29.265  1.00  0.00    -0.206 F 
ATOM     82  C   UNL A   1      42.662  20.604  26.448  1.00  0.00     0.060 A 
BRANCH  82  83
ATOM     83  S   UNL A   1      42.234  18.883  26.105  1.00  0.00     0.124 S 
ATOM     84  O   UNL A   1      43.119  18.577  24.989  1.00  0.00    -0.237 OA
ATOM     85  O   UNL A   1      42.550  18.229  27.371  1.00  0.00    -0.237 OA
ATOM     86  O   UNL A   1      40.811  18.949  25.785  1.00  0.00    -0.744 OA
ENDBRANCH  82  83
ENDBRANCH  50  75
BRANCH  62  87
ATOM     87  C   UNL A   1      49.498  26.632  26.769  1.00  0.00     0.058 A 
ATOM     88  C   UNL A   1      50.375  26.275  27.804  1.00  0.00     0.135 A 
ATOM     89  C   UNL A   1      49.953  26.502  25.447  1.00  0.00     0.135 A 
ATOM     90  F   UNL A   1      49.990  26.387  29.085  1.00  0.00    -0.206 F 
ATOM     91  C   UNL A   1      51.665  25.826  27.539  1.00  0.00     0.059 A 
ATOM     92  C   UNL A   1      51.230  26.032  25.158  1.00  0.00     0.059 A 
ATOM     93  F   UNL A   1      49.150  26.822  24.420  1.00  0.00    -0.206 F 
ATOM     94  C   UNL A   1      52.083  25.707  26.212  1.00  0.00     0.060 A 
BRANCH  94  95
ATOM     95  S   UNL A   1      53.747  25.090  25.880  1.00  0.00     0.124 S 
ATOM     96  O   UNL A   1      54.234  26.067  24.912  1.00  0.00    -0.237 OA
ATOM     97  O   UNL A   1      54.369  25.140  27.200  1.00  0.00    -0.237 OA
ATOM     98  O   UNL A   1      53.512  23.748  25.355  1.00  0.00    -0.744 OA
ENDBRANCH  94  95
ENDBRANCH  62  87
ENDBRANCH  36  37
ENDBRANCH  28  31
ENDBRANCH  26  27
ENDBRANCH   1  26
TORSDOF 17
ENDMDL
