MODEL 1
REMARK VINA RESULT:     -13.1      0.000      0.000
REMARK SMILES CC1=Nc2ncnn2[C@H](c2ccc(F)cc2)[C@@H]1C(=O)NCCCNC(=O)c1ccc(-c2c3nc(c(-c4c(F)cc(S(=O)(=O)[O-])cc4F)c4ccc([nH]4)c(-c4c(F)cc(S(=O)(=O)[O-])cc4F)c4nc(c(-c5c(F)cc(S(=O)(=O)[O-])cc5F)c5ccc2[nH]5)C=C4)C=C3)cc1
REMARK SMILES IDX 23 1 22 2 21 3 20 4 18 5 19 6 17 8 1 9 2 10 3 11 4 12 9 13
REMARK SMILES IDX 5 14 8 15 6 16 7 17 10 18 11 19 16 20 12 21 15 22 13 23
REMARK SMILES IDX 14 24 24 25 25 26 26 28 27 29 28 30 92 31 29 32 91 33 30 34
REMARK SMILES IDX 31 35 32 36 85 37 33 38 90 39 84 40 86 41 34 42 89 43 83 44
REMARK SMILES IDX 82 45 35 47 69 48 48 49 68 50 49 51 52 52 67 53 87 54 50 55
REMARK SMILES IDX 51 56 66 58 88 59 53 60 36 61 37 62 46 63 38 64 39 65 45 66
REMARK SMILES IDX 47 67 40 68 41 69 42 70 43 71 44 72 70 73 71 74 80 75 72 76
REMARK SMILES IDX 73 77 79 78 81 79 74 80 75 81 76 82 77 83 78 84 54 85 55 86
REMARK SMILES IDX 64 87 56 88 57 89 63 90 65 91 58 92 59 93 60 94 61 95 62 96
REMARK H PARENT 20 7 24 27 86 46 52 57
REMARK Flexibility Score: inf
ROOT
ATOM      1  C   UNL A   1      39.476  22.806  26.851  1.00  0.00     0.118 C 
ENDROOT
BRANCH   1   2
ATOM      2  C   UNL A   1      38.360  22.694  25.820  1.00  0.00     0.042 C 
BRANCH   2   3
ATOM      3  C   UNL A   1      37.224  23.688  26.074  1.00  0.00     0.117 C 
BRANCH   3   4
ATOM      4  N   UNL A   1      36.470  23.936  24.856  1.00  0.00    -0.355 N 
ATOM      5  C   UNL A   1      35.205  23.588  24.511  1.00  0.00     0.231 C 
ATOM      6  O   UNL A   1      34.878  23.717  23.331  1.00  0.00    -0.274 OA
ATOM      7  H   UNL A   1      36.959  24.441  24.167  1.00  0.00     0.163 HD
BRANCH   5   8
ATOM      8  C   UNL A   1      34.226  23.108  25.557  1.00  0.00     0.152 C 
ATOM      9  C   UNL A   1      34.478  20.680  24.626  1.00  0.00     0.063 C 
ATOM     10  C   UNL A   1      33.580  21.778  25.167  1.00  0.00     0.034 C 
ATOM     11  N   UNL A   1      32.332  21.471  25.325  1.00  0.00    -0.220 NA
ATOM     12  C   UNL A   1      31.502  22.374  25.882  1.00  0.00     0.248 A 
ATOM     13  C   UNL A   1      33.213  24.200  25.998  1.00  0.00     0.159 C 
ATOM     14  N   UNL A   1      30.262  22.205  26.293  1.00  0.00    -0.198 NA
ATOM     15  N   UNL A   1      31.871  23.659  26.176  1.00  0.00    -0.221 N 
ATOM     16  C   UNL A   1      29.943  23.394  26.876  1.00  0.00     0.248 A 
ATOM     17  N   UNL A   1      30.918  24.302  26.890  1.00  0.00    -0.157 NA
BRANCH  13  18
ATOM     18  C   UNL A   1      33.152  25.582  25.326  1.00  0.00    -0.022 A 
ATOM     19  C   UNL A   1      33.796  26.666  25.967  1.00  0.00     0.009 A 
ATOM     20  C   UNL A   1      32.496  25.851  24.113  1.00  0.00     0.009 A 
ATOM     21  C   UNL A   1      33.858  27.930  25.378  1.00  0.00     0.039 A 
ATOM     22  C   UNL A   1      32.611  27.101  23.493  1.00  0.00     0.039 A 
ATOM     23  C   UNL A   1      33.295  28.127  24.128  1.00  0.00     0.123 A 
ATOM     24  F   UNL A   1      33.400  29.324  23.536  1.00  0.00    -0.207 F 
ENDBRANCH  13  18
ENDBRANCH   5   8
ENDBRANCH   3   4
ENDBRANCH   2   3
ENDBRANCH   1   2
BRANCH   1  25
ATOM     25  N   UNL A   1      40.785  22.415  26.327  1.00  0.00    -0.352 N 
ATOM     26  C   UNL A   1      41.816  23.251  25.924  1.00  0.00     0.251 C 
ATOM     27  H   UNL A   1      40.952  21.447  26.250  1.00  0.00     0.163 HD
ATOM     28  O   UNL A   1      42.696  22.846  25.187  1.00  0.00    -0.269 OA
BRANCH  26  29
ATOM     29  C   UNL A   1      41.817  24.639  26.425  1.00  0.00     0.039 A 
ATOM     30  C   UNL A   1      41.162  25.672  25.749  1.00  0.00     0.014 A 
ATOM     31  C   UNL A   1      42.460  24.874  27.636  1.00  0.00     0.014 A 
ATOM     32  C   UNL A   1      41.101  26.929  26.350  1.00  0.00     0.010 A 
ATOM     33  C   UNL A   1      42.237  26.045  28.304  1.00  0.00     0.010 A 
ATOM     34  C   UNL A   1      41.628  27.101  27.639  1.00  0.00    -0.014 A 
BRANCH  34  35
ATOM     35  C   UNL A   1      41.471  28.352  28.373  1.00  0.00     0.031 A 
ATOM     36  C   UNL A   1      42.564  29.337  28.148  1.00  0.00     0.074 A 
ATOM     37  C   UNL A   1      40.319  28.679  29.002  1.00  0.00     0.049 A 
ATOM     38  N   UNL A   1      43.456  29.739  28.991  1.00  0.00    -0.248 NA
ATOM     39  C   UNL A   1      42.795  29.816  26.773  1.00  0.00     0.031 C 
ATOM     40  C   UNL A   1      39.056  27.924  29.049  1.00  0.00     0.029 A 
ATOM     41  N   UNL A   1      39.997  29.820  29.665  1.00  0.00    -0.354 N 
ATOM     42  C   UNL A   1      44.203  30.708  28.324  1.00  0.00     0.074 A 
ATOM     43  C   UNL A   1      43.893  30.559  26.928  1.00  0.00     0.031 C 
ATOM     44  C   UNL A   1      38.060  28.722  29.493  1.00  0.00     0.029 A 
ATOM     45  C   UNL A   1      38.641  29.971  29.941  1.00  0.00     0.049 A 
ATOM     46  H   UNL A   1      40.670  30.488  29.930  1.00  0.00     0.167 HD
ATOM     47  C   UNL A   1      44.809  31.721  29.005  1.00  0.00     0.037 A 
ATOM     48  C   UNL A   1      38.036  31.044  30.510  1.00  0.00     0.037 A 
ATOM     49  C   UNL A   1      44.881  31.424  30.414  1.00  0.00     0.049 A 
ATOM     50  C   UNL A   1      39.096  31.772  31.251  1.00  0.00     0.074 A 
ATOM     51  C   UNL A   1      45.485  30.443  31.176  1.00  0.00     0.029 A 
ATOM     52  N   UNL A   1      43.922  31.989  31.220  1.00  0.00    -0.354 N 
ATOM     53  N   UNL A   1      39.745  31.270  32.267  1.00  0.00    -0.248 NA
ATOM     54  C   UNL A   1      39.760  32.870  30.568  1.00  0.00     0.031 C 
ATOM     55  C   UNL A   1      44.554  30.159  32.219  1.00  0.00     0.029 A 
ATOM     56  C   UNL A   1      43.466  31.025  32.082  1.00  0.00     0.049 A 
ATOM     57  H   UNL A   1      43.616  32.924  31.184  1.00  0.00     0.167 HD
ATOM     58  C   UNL A   1      41.058  31.687  32.095  1.00  0.00     0.074 A 
ATOM     59  C   UNL A   1      40.985  32.743  31.085  1.00  0.00     0.031 C 
ATOM     60  C   UNL A   1      42.105  30.952  32.577  1.00  0.00     0.037 A 
BRANCH  47  61
ATOM     61  C   UNL A   1      44.976  33.129  28.474  1.00  0.00     0.058 A 
ATOM     62  C   UNL A   1      43.913  34.048  28.322  1.00  0.00     0.135 A 
ATOM     63  C   UNL A   1      46.271  33.684  28.381  1.00  0.00     0.135 A 
ATOM     64  F   UNL A   1      42.632  33.696  28.473  1.00  0.00    -0.206 F 
ATOM     65  C   UNL A   1      44.113  35.405  28.106  1.00  0.00     0.059 A 
ATOM     66  C   UNL A   1      46.493  35.054  28.219  1.00  0.00     0.059 A 
ATOM     67  F   UNL A   1      47.358  32.908  28.521  1.00  0.00    -0.206 F 
ATOM     68  C   UNL A   1      45.404  35.908  28.089  1.00  0.00     0.060 A 
BRANCH  68  69
ATOM     69  S   UNL A   1      45.604  37.694  27.993  1.00  0.00     0.124 S 
ATOM     70  O   UNL A   1      45.780  38.043  29.399  1.00  0.00    -0.237 OA
ATOM     71  O   UNL A   1      46.792  37.816  27.153  1.00  0.00    -0.237 OA
ATOM     72  O   UNL A   1      44.356  38.140  27.383  1.00  0.00    -0.744 OA
ENDBRANCH  68  69
ENDBRANCH  47  61
BRANCH  48  73
ATOM     73  C   UNL A   1      36.741  31.669  30.119  1.00  0.00     0.058 A 
ATOM     74  C   UNL A   1      36.493  32.059  28.787  1.00  0.00     0.135 A 
ATOM     75  C   UNL A   1      35.839  32.156  31.083  1.00  0.00     0.135 A 
ATOM     76  F   UNL A   1      37.321  31.694  27.796  1.00  0.00    -0.206 F 
ATOM     77  C   UNL A   1      35.444  32.908  28.436  1.00  0.00     0.059 A 
ATOM     78  C   UNL A   1      34.777  33.011  30.754  1.00  0.00     0.059 A 
ATOM     79  F   UNL A   1      36.013  31.854  32.378  1.00  0.00    -0.206 F 
ATOM     80  C   UNL A   1      34.603  33.402  29.428  1.00  0.00     0.060 A 
BRANCH  80  81
ATOM     81  S   UNL A   1      33.340  34.606  28.951  1.00  0.00     0.124 S 
ATOM     82  O   UNL A   1      34.147  35.671  28.364  1.00  0.00    -0.237 OA
ATOM     83  O   UNL A   1      32.529  33.837  28.011  1.00  0.00    -0.237 OA
ATOM     84  O   UNL A   1      32.687  34.937  30.213  1.00  0.00    -0.744 OA
ENDBRANCH  80  81
ENDBRANCH  48  73
BRANCH  60  85
ATOM     85  C   UNL A   1      41.811  29.831  33.548  1.00  0.00     0.058 A 
ATOM     86  C   UNL A   1      41.954  30.095  34.918  1.00  0.00     0.135 A 
ATOM     87  C   UNL A   1      41.595  28.490  33.178  1.00  0.00     0.135 A 
ATOM     88  F   UNL A   1      42.209  31.345  35.336  1.00  0.00    -0.206 F 
ATOM     89  C   UNL A   1      41.915  29.083  35.874  1.00  0.00     0.059 A 
ATOM     90  C   UNL A   1      41.522  27.461  34.122  1.00  0.00     0.059 A 
ATOM     91  F   UNL A   1      41.526  28.135  31.889  1.00  0.00    -0.206 F 
ATOM     92  C   UNL A   1      41.706  27.766  35.468  1.00  0.00     0.060 A 
BRANCH  92  93
ATOM     93  S   UNL A   1      41.731  26.472  36.727  1.00  0.00     0.124 S 
ATOM     94  O   UNL A   1      42.891  26.853  37.529  1.00  0.00    -0.237 OA
ATOM     95  O   UNL A   1      40.435  26.645  37.376  1.00  0.00    -0.237 OA
ATOM     96  O   UNL A   1      41.884  25.238  35.960  1.00  0.00    -0.744 OA
ENDBRANCH  92  93
ENDBRANCH  60  85
ENDBRANCH  34  35
ENDBRANCH  26  29
ENDBRANCH   1  25
TORSDOF 14
ENDMDL
MODEL 2
REMARK VINA RESULT:     -12.8      3.356      9.329
REMARK SMILES CC1=Nc2ncnn2[C@H](c2ccc(F)cc2)[C@@H]1C(=O)NCCCNC(=O)c1ccc(-c2c3nc(c(-c4c(F)cc(S(=O)(=O)[O-])cc4F)c4ccc([nH]4)c(-c4c(F)cc(S(=O)(=O)[O-])cc4F)c4nc(c(-c5c(F)cc(S(=O)(=O)[O-])cc5F)c5ccc2[nH]5)C=C4)C=C3)cc1
REMARK SMILES IDX 23 1 22 2 21 3 20 4 18 5 19 6 17 8 1 9 2 10 3 11 4 12 9 13
REMARK SMILES IDX 5 14 8 15 6 16 7 17 10 18 11 19 16 20 12 21 15 22 13 23
REMARK SMILES IDX 14 24 24 25 25 26 26 28 27 29 28 30 92 31 29 32 91 33 30 34
REMARK SMILES IDX 31 35 32 36 85 37 33 38 90 39 84 40 86 41 34 42 89 43 83 44
REMARK SMILES IDX 82 45 35 47 69 48 48 49 68 50 49 51 52 52 67 53 87 54 50 55
REMARK SMILES IDX 51 56 66 58 88 59 53 60 36 61 37 62 46 63 38 64 39 65 45 66
REMARK SMILES IDX 47 67 40 68 41 69 42 70 43 71 44 72 70 73 71 74 80 75 72 76
REMARK SMILES IDX 73 77 79 78 81 79 74 80 75 81 76 82 77 83 78 84 54 85 55 86
REMARK SMILES IDX 64 87 56 88 57 89 63 90 65 91 58 92 59 93 60 94 61 95 62 96
REMARK H PARENT 20 7 24 27 86 46 52 57
REMARK Flexibility Score: inf
ROOT
ATOM      1  C   UNL A   1      35.138  31.477  27.790  1.00  0.00     0.118 C 
ENDROOT
BRANCH   1   2
ATOM      2  C   UNL A   1      34.026  30.553  27.309  1.00  0.00     0.042 C 
BRANCH   2   3
ATOM      3  C   UNL A   1      34.547  29.175  26.894  1.00  0.00     0.117 C 
BRANCH   3   4
ATOM      4  N   UNL A   1      33.537  28.152  27.111  1.00  0.00    -0.355 N 
ATOM      5  C   UNL A   1      32.698  27.535  26.240  1.00  0.00     0.231 C 
ATOM      6  O   UNL A   1      31.775  26.869  26.708  1.00  0.00    -0.274 OA
ATOM      7  H   UNL A   1      33.446  27.857  28.046  1.00  0.00     0.163 HD
BRANCH   5   8
ATOM      8  C   UNL A   1      32.930  27.630  24.750  1.00  0.00     0.152 C 
ATOM      9  C   UNL A   1      30.998  29.382  24.598  1.00  0.00     0.063 C 
ATOM     10  C   UNL A   1      31.704  28.172  24.015  1.00  0.00     0.034 C 
ATOM     11  N   UNL A   1      31.247  27.732  22.885  1.00  0.00    -0.220 NA
ATOM     12  C   UNL A   1      31.884  26.714  22.274  1.00  0.00     0.248 A 
ATOM     13  C   UNL A   1      33.517  26.330  24.134  1.00  0.00     0.159 C 
ATOM     14  N   UNL A   1      31.700  26.243  21.058  1.00  0.00    -0.198 NA
ATOM     15  N   UNL A   1      32.919  26.021  22.841  1.00  0.00    -0.221 N 
ATOM     16  C   UNL A   1      32.680  25.308  20.915  1.00  0.00     0.248 A 
ATOM     17  N   UNL A   1      33.499  25.177  21.957  1.00  0.00    -0.157 NA
BRANCH  13  18
ATOM     18  C   UNL A   1      33.709  25.047  24.960  1.00  0.00    -0.022 A 
ATOM     19  C   UNL A   1      35.018  24.703  25.367  1.00  0.00     0.009 A 
ATOM     20  C   UNL A   1      32.670  24.181  25.340  1.00  0.00     0.009 A 
ATOM     21  C   UNL A   1      35.262  23.601  26.190  1.00  0.00     0.039 A 
ATOM     22  C   UNL A   1      32.906  23.112  26.214  1.00  0.00     0.039 A 
ATOM     23  C   UNL A   1      34.198  22.836  26.635  1.00  0.00     0.123 A 
ATOM     24  F   UNL A   1      34.423  21.811  27.468  1.00  0.00    -0.207 F 
ENDBRANCH  13  18
ENDBRANCH   5   8
ENDBRANCH   3   4
ENDBRANCH   2   3
ENDBRANCH   1   2
BRANCH   1  25
ATOM     25  N   UNL A   1      34.791  32.209  29.008  1.00  0.00    -0.352 N 
ATOM     26  C   UNL A   1      35.186  31.921  30.306  1.00  0.00     0.251 C 
ATOM     27  H   UNL A   1      34.210  32.996  28.893  1.00  0.00     0.163 HD
ATOM     28  O   UNL A   1      34.568  32.361  31.259  1.00  0.00    -0.269 OA
BRANCH  26  29
ATOM     29  C   UNL A   1      36.381  31.075  30.494  1.00  0.00     0.039 A 
ATOM     30  C   UNL A   1      36.296  29.685  30.600  1.00  0.00     0.014 A 
ATOM     31  C   UNL A   1      37.614  31.718  30.512  1.00  0.00     0.014 A 
ATOM     32  C   UNL A   1      37.478  28.946  30.650  1.00  0.00     0.010 A 
ATOM     33  C   UNL A   1      38.760  30.987  30.369  1.00  0.00     0.010 A 
ATOM     34  C   UNL A   1      38.708  29.608  30.514  1.00  0.00    -0.014 A 
BRANCH  34  35
ATOM     35  C   UNL A   1      39.967  28.878  30.419  1.00  0.00     0.031 A 
ATOM     36  C   UNL A   1      40.683  28.715  31.715  1.00  0.00     0.074 A 
ATOM     37  C   UNL A   1      40.325  28.201  29.303  1.00  0.00     0.049 A 
ATOM     38  N   UNL A   1      41.801  29.251  32.076  1.00  0.00    -0.248 NA
ATOM     39  C   UNL A   1      39.995  27.997  32.802  1.00  0.00     0.031 C 
ATOM     40  C   UNL A   1      39.567  28.032  28.054  1.00  0.00     0.029 A 
ATOM     41  N   UNL A   1      41.421  27.429  29.083  1.00  0.00    -0.354 N 
ATOM     42  C   UNL A   1      42.080  28.737  33.340  1.00  0.00     0.074 A 
ATOM     43  C   UNL A   1      40.853  28.153  33.812  1.00  0.00     0.031 C 
ATOM     44  C   UNL A   1      40.109  27.037  27.318  1.00  0.00     0.029 A 
ATOM     45  C   UNL A   1      41.352  26.632  27.943  1.00  0.00     0.049 A 
ATOM     46  H   UNL A   1      42.202  27.432  29.681  1.00  0.00     0.167 HD
ATOM     47  C   UNL A   1      43.364  28.604  33.778  1.00  0.00     0.037 A 
ATOM     48  C   UNL A   1      42.258  25.710  27.533  1.00  0.00     0.037 A 
ATOM     49  C   UNL A   1      44.268  29.379  32.965  1.00  0.00     0.049 A 
ATOM     50  C   UNL A   1      43.540  26.070  28.190  1.00  0.00     0.074 A 
ATOM     51  C   UNL A   1      44.420  30.721  32.681  1.00  0.00     0.029 A 
ATOM     52  N   UNL A   1      44.954  28.706  31.983  1.00  0.00    -0.354 N 
ATOM     53  N   UNL A   1      44.182  27.184  27.964  1.00  0.00    -0.248 NA
ATOM     54  C   UNL A   1      43.861  25.407  29.443  1.00  0.00     0.031 C 
ATOM     55  C   UNL A   1      44.784  30.770  31.303  1.00  0.00     0.029 A 
ATOM     56  C   UNL A   1      44.904  29.458  30.837  1.00  0.00     0.049 A 
ATOM     57  H   UNL A   1      45.403  27.836  32.084  1.00  0.00     0.167 HD
ATOM     58  C   UNL A   1      44.658  27.582  29.206  1.00  0.00     0.074 A 
ATOM     59  C   UNL A   1      44.508  26.401  30.058  1.00  0.00     0.031 C 
ATOM     60  C   UNL A   1      44.865  28.901  29.498  1.00  0.00     0.037 A 
BRANCH  47  61
ATOM     61  C   UNL A   1      43.851  27.484  34.672  1.00  0.00     0.058 A 
ATOM     62  C   UNL A   1      43.974  26.138  34.259  1.00  0.00     0.135 A 
ATOM     63  C   UNL A   1      44.487  27.800  35.893  1.00  0.00     0.135 A 
ATOM     64  F   UNL A   1      43.506  25.702  33.085  1.00  0.00    -0.206 F 
ATOM     65  C   UNL A   1      44.676  25.186  34.985  1.00  0.00     0.059 A 
ATOM     66  C   UNL A   1      45.244  26.870  36.611  1.00  0.00     0.059 A 
ATOM     67  F   UNL A   1      44.447  29.051  36.379  1.00  0.00    -0.206 F 
ATOM     68  C   UNL A   1      45.337  25.565  36.142  1.00  0.00     0.060 A 
BRANCH  68  69
ATOM     69  S   UNL A   1      46.385  24.341  36.946  1.00  0.00     0.124 S 
ATOM     70  O   UNL A   1      47.323  24.015  35.877  1.00  0.00    -0.237 OA
ATOM     71  O   UNL A   1      46.933  25.105  38.062  1.00  0.00    -0.237 OA
ATOM     72  O   UNL A   1      45.448  23.284  37.309  1.00  0.00    -0.744 OA
ENDBRANCH  68  69
ENDBRANCH  47  61
BRANCH  48  73
ATOM     73  C   UNL A   1      41.986  24.360  26.964  1.00  0.00     0.058 A 
ATOM     74  C   UNL A   1      40.999  23.521  27.520  1.00  0.00     0.135 A 
ATOM     75  C   UNL A   1      42.873  23.752  26.056  1.00  0.00     0.135 A 
ATOM     76  F   UNL A   1      40.135  23.985  28.436  1.00  0.00    -0.206 F 
ATOM     77  C   UNL A   1      40.918  22.160  27.227  1.00  0.00     0.059 A 
ATOM     78  C   UNL A   1      42.812  22.386  25.745  1.00  0.00     0.059 A 
ATOM     79  F   UNL A   1      43.859  24.471  25.498  1.00  0.00    -0.206 F 
ATOM     80  C   UNL A   1      41.844  21.592  26.357  1.00  0.00     0.060 A 
BRANCH  80  81
ATOM     81  S   UNL A   1      41.789  19.801  26.108  1.00  0.00     0.124 S 
ATOM     82  O   UNL A   1      42.187  19.303  27.421  1.00  0.00    -0.237 OA
ATOM     83  O   UNL A   1      40.390  19.588  25.749  1.00  0.00    -0.237 OA
ATOM     84  O   UNL A   1      42.750  19.574  25.033  1.00  0.00    -0.744 OA
ENDBRANCH  80  81
ENDBRANCH  48  73
BRANCH  60  85
ATOM     85  C   UNL A   1      44.847  29.900  28.363  1.00  0.00     0.058 A 
ATOM     86  C   UNL A   1      46.072  30.445  27.949  1.00  0.00     0.135 A 
ATOM     87  C   UNL A   1      43.681  30.474  27.822  1.00  0.00     0.135 A 
ATOM     88  F   UNL A   1      47.221  29.977  28.462  1.00  0.00    -0.206 F 
ATOM     89  C   UNL A   1      46.141  31.520  27.067  1.00  0.00     0.059 A 
ATOM     90  C   UNL A   1      43.727  31.534  26.912  1.00  0.00     0.059 A 
ATOM     91  F   UNL A   1      42.468  30.070  28.220  1.00  0.00    -0.206 F 
ATOM     92  C   UNL A   1      44.964  32.066  26.558  1.00  0.00     0.060 A 
BRANCH  92  93
ATOM     93  S   UNL A   1      45.090  33.502  25.472  1.00  0.00     0.124 S 
ATOM     94  O   UNL A   1      44.284  34.491  26.183  1.00  0.00    -0.237 OA
ATOM     95  O   UNL A   1      46.528  33.757  25.458  1.00  0.00    -0.237 OA
ATOM     96  O   UNL A   1      44.528  33.036  24.207  1.00  0.00    -0.744 OA
ENDBRANCH  92  93
ENDBRANCH  60  85
ENDBRANCH  34  35
ENDBRANCH  26  29
ENDBRANCH   1  25
TORSDOF 14
ENDMDL
MODEL 3
REMARK VINA RESULT:     -12.6      1.883      2.616
REMARK SMILES CC1=Nc2ncnn2[C@H](c2ccc(F)cc2)[C@@H]1C(=O)NCCCNC(=O)c1ccc(-c2c3nc(c(-c4c(F)cc(S(=O)(=O)[O-])cc4F)c4ccc([nH]4)c(-c4c(F)cc(S(=O)(=O)[O-])cc4F)c4nc(c(-c5c(F)cc(S(=O)(=O)[O-])cc5F)c5ccc2[nH]5)C=C4)C=C3)cc1
REMARK SMILES IDX 23 1 22 2 21 3 20 4 18 5 19 6 17 8 1 9 2 10 3 11 4 12 9 13
REMARK SMILES IDX 5 14 8 15 6 16 7 17 10 18 11 19 16 20 12 21 15 22 13 23
REMARK SMILES IDX 14 24 24 25 25 26 26 28 27 29 28 30 92 31 29 32 91 33 30 34
REMARK SMILES IDX 31 35 32 36 85 37 33 38 90 39 84 40 86 41 34 42 89 43 83 44
REMARK SMILES IDX 82 45 35 47 69 48 48 49 68 50 49 51 52 52 67 53 87 54 50 55
REMARK SMILES IDX 51 56 66 58 88 59 53 60 36 61 37 62 46 63 38 64 39 65 45 66
REMARK SMILES IDX 47 67 40 68 41 69 42 70 43 71 44 72 70 73 71 74 80 75 72 76
REMARK SMILES IDX 73 77 79 78 81 79 74 80 75 81 76 82 77 83 78 84 54 85 55 86
REMARK SMILES IDX 64 87 56 88 57 89 63 90 65 91 58 92 59 93 60 94 61 95 62 96
REMARK H PARENT 20 7 24 27 86 46 52 57
REMARK Flexibility Score: inf
ROOT
ATOM      1  C   UNL A   1      37.574  23.181  25.930  1.00  0.00     0.118 C 
ENDROOT
BRANCH   1   2
ATOM      2  C   UNL A   1      36.161  22.619  26.017  1.00  0.00     0.042 C 
BRANCH   2   3
ATOM      3  C   UNL A   1      35.093  23.716  26.020  1.00  0.00     0.117 C 
BRANCH   3   4
ATOM      4  N   UNL A   1      33.950  23.324  26.828  1.00  0.00    -0.355 N 
ATOM      5  C   UNL A   1      32.623  23.309  26.540  1.00  0.00     0.231 C 
ATOM      6  O   UNL A   1      31.837  23.154  27.474  1.00  0.00    -0.274 OA
ATOM      7  H   UNL A   1      34.175  23.019  27.737  1.00  0.00     0.163 HD
BRANCH   5   8
ATOM      8  C   UNL A   1      32.144  23.431  25.113  1.00  0.00     0.152 C 
ATOM      9  C   UNL A   1      33.299  21.152  24.568  1.00  0.00     0.063 C 
ATOM     10  C   UNL A   1      32.976  22.576  24.156  1.00  0.00     0.034 C 
ATOM     11  N   UNL A   1      33.375  22.937  22.977  1.00  0.00    -0.220 NA
ATOM     12  C   UNL A   1      33.044  24.160  22.520  1.00  0.00     0.248 A 
ATOM     13  C   UNL A   1      31.957  24.903  24.650  1.00  0.00     0.159 C 
ATOM     14  N   UNL A   1      33.189  24.649  21.305  1.00  0.00    -0.198 NA
ATOM     15  N   UNL A   1      32.416  25.107  23.282  1.00  0.00    -0.221 N 
ATOM     16  C   UNL A   1      32.585  25.868  21.366  1.00  0.00     0.248 A 
ATOM     17  N   UNL A   1      32.035  26.173  22.541  1.00  0.00    -0.157 NA
BRANCH  13  18
ATOM     18  C   UNL A   1      32.353  26.097  25.536  1.00  0.00    -0.022 A 
ATOM     19  C   UNL A   1      33.641  26.655  25.368  1.00  0.00     0.009 A 
ATOM     20  C   UNL A   1      31.524  26.676  26.511  1.00  0.00     0.009 A 
ATOM     21  C   UNL A   1      34.042  27.792  26.072  1.00  0.00     0.039 A 
ATOM     22  C   UNL A   1      31.902  27.851  27.173  1.00  0.00     0.039 A 
ATOM     23  C   UNL A   1      33.154  28.401  26.943  1.00  0.00     0.123 A 
ATOM     24  F   UNL A   1      33.516  29.522  27.580  1.00  0.00    -0.207 F 
ENDBRANCH  13  18
ENDBRANCH   5   8
ENDBRANCH   3   4
ENDBRANCH   2   3
ENDBRANCH   1   2
BRANCH   1  25
ATOM     25  N   UNL A   1      38.587  22.276  26.473  1.00  0.00    -0.352 N 
ATOM     26  C   UNL A   1      39.843  22.609  26.959  1.00  0.00     0.251 C 
ATOM     27  H   UNL A   1      38.351  21.320  26.494  1.00  0.00     0.163 HD
ATOM     28  O   UNL A   1      40.721  21.771  27.047  1.00  0.00    -0.269 OA
BRANCH  26  29
ATOM     29  C   UNL A   1      40.075  24.006  27.375  1.00  0.00     0.039 A 
ATOM     30  C   UNL A   1      39.091  24.990  27.248  1.00  0.00     0.014 A 
ATOM     31  C   UNL A   1      41.307  24.298  27.950  1.00  0.00     0.014 A 
ATOM     32  C   UNL A   1      39.342  26.256  27.779  1.00  0.00     0.010 A 
ATOM     33  C   UNL A   1      41.474  25.471  28.631  1.00  0.00     0.010 A 
ATOM     34  C   UNL A   1      40.532  26.482  28.487  1.00  0.00    -0.014 A 
BRANCH  34  35
ATOM     35  C   UNL A   1      40.788  27.738  29.181  1.00  0.00     0.031 A 
ATOM     36  C   UNL A   1      41.864  28.569  28.573  1.00  0.00     0.074 A 
ATOM     37  C   UNL A   1      39.958  28.214  30.137  1.00  0.00     0.049 A 
ATOM     38  N   UNL A   1      43.027  28.842  29.063  1.00  0.00    -0.248 NA
ATOM     39  C   UNL A   1      41.691  29.018  27.181  1.00  0.00     0.031 C 
ATOM     40  C   UNL A   1      38.694  27.637  30.623  1.00  0.00     0.029 A 
ATOM     41  N   UNL A   1      40.021  29.386  30.823  1.00  0.00    -0.354 N 
ATOM     42  C   UNL A   1      43.632  29.705  28.152  1.00  0.00     0.074 A 
ATOM     43  C   UNL A   1      42.864  29.606  26.940  1.00  0.00     0.031 C 
ATOM     44  C   UNL A   1      38.011  28.559  31.335  1.00  0.00     0.029 A 
ATOM     45  C   UNL A   1      38.862  29.717  31.520  1.00  0.00     0.049 A 
ATOM     46  H   UNL A   1      40.824  29.956  30.828  1.00  0.00     0.167 HD
ATOM     47  C   UNL A   1      44.553  30.624  28.558  1.00  0.00     0.037 A 
ATOM     48  C   UNL A   1      38.620  30.858  32.211  1.00  0.00     0.037 A 
ATOM     49  C   UNL A   1      45.044  30.313  29.878  1.00  0.00     0.049 A 
ATOM     50  C   UNL A   1      39.950  31.433  32.537  1.00  0.00     0.074 A 
ATOM     51  C   UNL A   1      45.733  29.256  30.439  1.00  0.00     0.029 A 
ATOM     52  N   UNL A   1      44.484  30.998  30.928  1.00  0.00    -0.354 N 
ATOM     53  N   UNL A   1      40.825  30.843  33.306  1.00  0.00    -0.248 NA
ATOM     54  C   UNL A   1      40.488  32.435  31.632  1.00  0.00     0.031 C 
ATOM     55  C   UNL A   1      45.167  29.095  31.739  1.00  0.00     0.029 A 
ATOM     56  C   UNL A   1      44.215  30.100  31.929  1.00  0.00     0.049 A 
ATOM     57  H   UNL A   1      44.306  31.966  30.957  1.00  0.00     0.167 HD
ATOM     58  C   UNL A   1      42.051  31.081  32.700  1.00  0.00     0.074 A 
ATOM     59  C   UNL A   1      41.788  32.142  31.728  1.00  0.00     0.031 C 
ATOM     60  C   UNL A   1      43.095  30.209  32.843  1.00  0.00     0.037 A 
BRANCH  47  61
ATOM     61  C   UNL A   1      44.716  31.999  27.946  1.00  0.00     0.058 A 
ATOM     62  C   UNL A   1      43.883  33.101  28.243  1.00  0.00     0.135 A 
ATOM     63  C   UNL A   1      45.910  32.313  27.260  1.00  0.00     0.135 A 
ATOM     64  F   UNL A   1      42.764  32.981  28.966  1.00  0.00    -0.206 F 
ATOM     65  C   UNL A   1      44.206  34.407  27.901  1.00  0.00     0.059 A 
ATOM     66  C   UNL A   1      46.280  33.626  26.955  1.00  0.00     0.059 A 
ATOM     67  F   UNL A   1      46.785  31.348  26.936  1.00  0.00    -0.206 F 
ATOM     68  C   UNL A   1      45.421  34.667  27.287  1.00  0.00     0.060 A 
BRANCH  68  69
ATOM     69  S   UNL A   1      45.877  36.390  27.032  1.00  0.00     0.124 S 
ATOM     70  O   UNL A   1      46.658  36.305  25.803  1.00  0.00    -0.237 OA
ATOM     71  O   UNL A   1      44.570  37.029  26.913  1.00  0.00    -0.237 OA
ATOM     72  O   UNL A   1      46.629  36.721  28.238  1.00  0.00    -0.744 OA
ENDBRANCH  68  69
ENDBRANCH  47  61
BRANCH  48  73
ATOM     73  C   UNL A   1      37.361  31.654  32.239  1.00  0.00     0.058 A 
ATOM     74  C   UNL A   1      36.848  32.246  31.067  1.00  0.00     0.135 A 
ATOM     75  C   UNL A   1      36.792  32.088  33.450  1.00  0.00     0.135 A 
ATOM     76  F   UNL A   1      37.355  31.944  29.862  1.00  0.00    -0.206 F 
ATOM     77  C   UNL A   1      35.863  33.234  31.093  1.00  0.00     0.059 A 
ATOM     78  C   UNL A   1      35.801  33.079  33.503  1.00  0.00     0.059 A 
ATOM     79  F   UNL A   1      37.236  31.594  34.616  1.00  0.00    -0.206 F 
ATOM     80  C   UNL A   1      35.361  33.664  32.317  1.00  0.00     0.060 A 
BRANCH  80  81
ATOM     81  S   UNL A   1      34.185  35.040  32.317  1.00  0.00     0.124 S 
ATOM     82  O   UNL A   1      32.998  34.420  32.899  1.00  0.00    -0.237 OA
ATOM     83  O   UNL A   1      34.864  36.018  33.161  1.00  0.00    -0.237 OA
ATOM     84  O   UNL A   1      34.077  35.399  30.907  1.00  0.00    -0.744 OA
ENDBRANCH  80  81
ENDBRANCH  48  73
BRANCH  60  85
ATOM     85  C   UNL A   1      42.993  29.133  33.901  1.00  0.00     0.058 A 
ATOM     86  C   UNL A   1      42.377  27.924  33.549  1.00  0.00     0.135 A 
ATOM     87  C   UNL A   1      43.292  29.323  35.264  1.00  0.00     0.135 A 
ATOM     88  F   UNL A   1      42.022  27.698  32.275  1.00  0.00    -0.206 F 
ATOM     89  C   UNL A   1      42.046  26.960  34.499  1.00  0.00     0.059 A 
ATOM     90  C   UNL A   1      42.996  28.357  36.231  1.00  0.00     0.059 A 
ATOM     91  F   UNL A   1      43.808  30.479  35.701  1.00  0.00    -0.206 F 
ATOM     92  C   UNL A   1      42.351  27.187  35.840  1.00  0.00     0.060 A 
BRANCH  92  93
ATOM     93  S   UNL A   1      41.845  25.947  37.051  1.00  0.00     0.124 S 
ATOM     94  O   UNL A   1      41.974  24.709  36.287  1.00  0.00    -0.237 OA
ATOM     95  O   UNL A   1      42.825  26.133  38.116  1.00  0.00    -0.237 OA
ATOM     96  O   UNL A   1      40.476  26.327  37.391  1.00  0.00    -0.744 OA
ENDBRANCH  92  93
ENDBRANCH  60  85
ENDBRANCH  34  35
ENDBRANCH  26  29
ENDBRANCH   1  25
TORSDOF 14
ENDMDL
