MODEL 1
REMARK VINA RESULT:      -9.6      0.000      0.000
REMARK SMILES CC/C=C/C/C=C/C/C=C/C/C=C/CC/C=C/COCC(=O)NCCCNC(=O)c1ccc(-c2c3nc(c(-c4c(F)cc(S(=O)(=O)[O-])cc4F)c4ccc([nH]4)c(-c4c(F)cc(S(=O)(=O)[O-])cc4F)c4nc(c(-c5c(F)cc(S(=O)(=O)[O-])cc5F)c5ccc2[nH]5)C=C4)C=C3)cc1
REMARK SMILES IDX 18 1 17 2 16 3 15 4 14 5 13 6 12 7 11 8 10 9 9 10 8 11 7 12
REMARK SMILES IDX 6 13 5 14 4 15 3 16 2 17 1 18 19 19 20 20 21 21 22 22 23 23
REMARK SMILES IDX 24 25 25 26 26 27 27 28 28 29 29 31 30 32 31 33 95 34 32 35
REMARK SMILES IDX 94 36 33 37 34 38 35 39 88 40 36 41 93 42 87 43 89 44 37 45
REMARK SMILES IDX 92 46 86 47 85 48 38 50 72 51 51 52 71 53 52 54 55 55 70 56
REMARK SMILES IDX 90 57 53 58 54 59 69 61 91 62 56 63 39 64 40 65 49 66 41 67
REMARK SMILES IDX 42 68 48 69 50 70 43 71 44 72 45 73 46 74 47 75 73 76 74 77
REMARK SMILES IDX 83 78 75 79 76 80 82 81 84 82 77 83 78 84 79 85 80 86 81 87
REMARK SMILES IDX 57 88 58 89 67 90 59 91 60 92 66 93 68 94 61 95 62 96 63 97
REMARK SMILES IDX 64 98 65 99
REMARK H PARENT 23 24 27 30 89 49 55 60
REMARK Flexibility Score: inf
ROOT
ATOM      1  C   UNL A   1      34.149  21.214  26.381  1.00  0.00     0.188 C 
ENDROOT
BRANCH   1   2
ATOM      2  C   UNL A   1      33.798  20.788  24.989  1.00  0.00    -0.003 C 
ATOM      3  C   UNL A   1      32.538  20.551  24.595  1.00  0.00    -0.029 C 
BRANCH   3   4
ATOM      4  C   UNL A   1      32.153  19.979  23.260  1.00  0.00     0.031 C 
BRANCH   4   5
ATOM      5  C   UNL A   1      32.057  21.056  22.165  1.00  0.00     0.031 C 
BRANCH   5   6
ATOM      6  C   UNL A   1      32.336  22.443  22.677  1.00  0.00    -0.031 C 
ATOM      7  C   UNL A   1      33.284  23.256  22.185  1.00  0.00    -0.027 C 
BRANCH   7   8
ATOM      8  C   UNL A   1      33.587  24.617  22.746  1.00  0.00     0.054 C 
BRANCH   8   9
ATOM      9  C   UNL A   1      32.884  24.810  24.058  1.00  0.00    -0.027 C 
ATOM     10  C   UNL A   1      31.876  25.675  24.254  1.00  0.00    -0.027 C 
BRANCH  10  11
ATOM     11  C   UNL A   1      31.203  25.900  25.576  1.00  0.00     0.054 C 
BRANCH  11  12
ATOM     12  C   UNL A   1      31.428  27.308  26.048  1.00  0.00    -0.027 C 
ATOM     13  C   UNL A   1      31.492  28.374  25.234  1.00  0.00    -0.027 C 
BRANCH  13  14
ATOM     14  C   UNL A   1      31.746  29.777  25.701  1.00  0.00     0.054 C 
BRANCH  14  15
ATOM     15  C   UNL A   1      32.860  29.809  26.711  1.00  0.00    -0.027 C 
ATOM     16  C   UNL A   1      34.121  29.429  26.454  1.00  0.00    -0.031 C 
BRANCH  16  17
ATOM     17  C   UNL A   1      35.224  29.448  27.471  1.00  0.00     0.023 C 
ATOM     18  C   UNL A   1      35.748  30.858  27.692  1.00  0.00     0.008 C 
ENDBRANCH  16  17
ENDBRANCH  14  15
ENDBRANCH  13  14
ENDBRANCH  11  12
ENDBRANCH  10  11
ENDBRANCH   8   9
ENDBRANCH   7   8
ENDBRANCH   5   6
ENDBRANCH   4   5
ENDBRANCH   3   4
ENDBRANCH   1   2
BRANCH   1  19
ATOM     19  O   UNL A   1      35.550  21.484  26.479  1.00  0.00    -0.368 OA
BRANCH  19  20
ATOM     20  C   UNL A   1      36.308  21.026  25.367  1.00  0.00     0.260 C 
BRANCH  20  21
ATOM     21  C   UNL A   1      37.149  22.067  24.619  1.00  0.00     0.246 C 
ATOM     22  O   UNL A   1      36.737  22.638  23.609  1.00  0.00    -0.272 OA
ATOM     23  N   UNL A   1      38.387  22.386  25.101  1.00  0.00    -0.354 N 
ATOM     24  H   UNL A   1      38.879  23.079  24.603  1.00  0.00     0.163 HD
BRANCH  23  25
ATOM     25  C   UNL A   1      39.068  21.831  26.256  1.00  0.00     0.117 C 
BRANCH  25  26
ATOM     26  C   UNL A   1      40.541  22.221  26.305  1.00  0.00     0.042 C 
BRANCH  26  27
ATOM     27  C   UNL A   1      40.799  23.683  26.669  1.00  0.00     0.118 C 
BRANCH  27  28
ATOM     28  N   UNL A   1      41.888  24.277  25.907  1.00  0.00    -0.352 N 
ATOM     29  C   UNL A   1      42.560  25.459  26.084  1.00  0.00     0.251 C 
ATOM     30  H   UNL A   1      42.192  23.742  25.138  1.00  0.00     0.163 HD
ATOM     31  O   UNL A   1      43.347  25.832  25.211  1.00  0.00    -0.269 OA
BRANCH  29  32
ATOM     32  C   UNL A   1      42.344  26.296  27.285  1.00  0.00     0.039 A 
ATOM     33  C   UNL A   1      42.803  27.617  27.271  1.00  0.00     0.014 A 
ATOM     34  C   UNL A   1      41.732  25.788  28.434  1.00  0.00     0.014 A 
ATOM     35  C   UNL A   1      42.594  28.441  28.379  1.00  0.00     0.010 A 
ATOM     36  C   UNL A   1      41.459  26.632  29.511  1.00  0.00     0.010 A 
ATOM     37  C   UNL A   1      41.887  27.967  29.496  1.00  0.00    -0.014 A 
BRANCH  37  38
ATOM     38  C   UNL A   1      41.581  28.859  30.645  1.00  0.00     0.031 A 
ATOM     39  C   UNL A   1      42.392  28.782  31.912  1.00  0.00     0.074 A 
ATOM     40  C   UNL A   1      40.534  29.705  30.567  1.00  0.00     0.049 A 
ATOM     41  N   UNL A   1      42.239  29.443  33.031  1.00  0.00    -0.248 NA
ATOM     42  C   UNL A   1      43.505  27.820  31.931  1.00  0.00     0.031 C 
ATOM     43  C   UNL A   1      39.642  29.842  29.413  1.00  0.00     0.029 A 
ATOM     44  N   UNL A   1      40.038  30.607  31.476  1.00  0.00    -0.354 N 
ATOM     45  C   UNL A   1      43.226  28.972  33.890  1.00  0.00     0.074 A 
ATOM     46  C   UNL A   1      43.939  27.932  33.179  1.00  0.00     0.031 C 
ATOM     47  C   UNL A   1      38.725  30.788  29.675  1.00  0.00     0.029 A 
ATOM     48  C   UNL A   1      38.939  31.299  31.025  1.00  0.00     0.049 A 
ATOM     49  H   UNL A   1      40.433  30.744  32.368  1.00  0.00     0.167 HD
ATOM     50  C   UNL A   1      43.526  29.383  35.146  1.00  0.00     0.037 A 
ATOM     51  C   UNL A   1      38.184  32.236  31.631  1.00  0.00     0.037 A 
ATOM     52  C   UNL A   1      42.827  30.433  35.842  1.00  0.00     0.049 A 
ATOM     53  C   UNL A   1      38.537  32.676  33.026  1.00  0.00     0.074 A 
ATOM     54  C   UNL A   1      43.089  30.956  37.097  1.00  0.00     0.029 A 
ATOM     55  N   UNL A   1      41.730  31.121  35.345  1.00  0.00    -0.354 N 
ATOM     56  N   UNL A   1      39.509  32.259  33.800  1.00  0.00    -0.248 NA
ATOM     57  C   UNL A   1      37.695  33.720  33.625  1.00  0.00     0.031 C 
ATOM     58  C   UNL A   1      42.125  31.932  37.374  1.00  0.00     0.029 A 
ATOM     59  C   UNL A   1      41.292  32.051  36.274  1.00  0.00     0.049 A 
ATOM     60  H   UNL A   1      41.322  30.971  34.462  1.00  0.00     0.167 HD
ATOM     61  C   UNL A   1      39.412  33.006  34.967  1.00  0.00     0.074 A 
ATOM     62  C   UNL A   1      38.295  33.911  34.792  1.00  0.00     0.031 C 
ATOM     63  C   UNL A   1      40.180  32.949  36.085  1.00  0.00     0.037 A 
BRANCH  50  64
ATOM     64  C   UNL A   1      44.666  28.697  35.849  1.00  0.00     0.058 A 
ATOM     65  C   UNL A   1      44.464  27.548  36.630  1.00  0.00     0.135 A 
ATOM     66  C   UNL A   1      45.981  29.172  35.713  1.00  0.00     0.135 A 
ATOM     67  F   UNL A   1      43.226  27.059  36.806  1.00  0.00    -0.206 F 
ATOM     68  C   UNL A   1      45.519  26.912  37.276  1.00  0.00     0.059 A 
ATOM     69  C   UNL A   1      47.056  28.534  36.328  1.00  0.00     0.059 A 
ATOM     70  F   UNL A   1      46.232  30.266  34.977  1.00  0.00    -0.206 F 
ATOM     71  C   UNL A   1      46.812  27.414  37.119  1.00  0.00     0.060 A 
BRANCH  71  72
ATOM     72  S   UNL A   1      48.170  26.576  37.963  1.00  0.00     0.124 S 
ATOM     73  O   UNL A   1      48.726  27.659  38.768  1.00  0.00    -0.237 OA
ATOM     74  O   UNL A   1      47.478  25.527  38.706  1.00  0.00    -0.237 OA
ATOM     75  O   UNL A   1      49.016  26.110  36.868  1.00  0.00    -0.744 OA
ENDBRANCH  71  72
ENDBRANCH  50  64
BRANCH  51  76
ATOM     76  C   UNL A   1      37.034  32.843  30.908  1.00  0.00     0.058 A 
ATOM     77  C   UNL A   1      35.714  32.502  31.241  1.00  0.00     0.135 A 
ATOM     78  C   UNL A   1      37.229  33.782  29.884  1.00  0.00     0.135 A 
ATOM     79  F   UNL A   1      35.477  31.604  32.210  1.00  0.00    -0.206 F 
ATOM     80  C   UNL A   1      34.627  33.057  30.574  1.00  0.00     0.059 A 
ATOM     81  C   UNL A   1      36.157  34.370  29.219  1.00  0.00     0.059 A 
ATOM     82  F   UNL A   1      38.471  34.154  29.540  1.00  0.00    -0.206 F 
ATOM     83  C   UNL A   1      34.860  33.993  29.565  1.00  0.00     0.060 A 
BRANCH  83  84
ATOM     84  S   UNL A   1      33.441  34.746  28.738  1.00  0.00     0.124 S 
ATOM     85  O   UNL A   1      33.054  33.694  27.806  1.00  0.00    -0.237 OA
ATOM     86  O   UNL A   1      32.528  34.983  29.851  1.00  0.00    -0.237 OA
ATOM     87  O   UNL A   1      34.006  35.949  28.134  1.00  0.00    -0.744 OA
ENDBRANCH  83  84
ENDBRANCH  51  76
BRANCH  63  88
ATOM     88  C   UNL A   1      39.859  33.915  37.192  1.00  0.00     0.058 A 
ATOM     89  C   UNL A   1      39.032  33.557  38.268  1.00  0.00     0.135 A 
ATOM     90  C   UNL A   1      40.415  35.205  37.193  1.00  0.00     0.135 A 
ATOM     91  F   UNL A   1      38.470  32.339  38.312  1.00  0.00    -0.206 F 
ATOM     92  C   UNL A   1      38.744  34.453  39.292  1.00  0.00     0.059 A 
ATOM     93  C   UNL A   1      40.163  36.108  38.222  1.00  0.00     0.059 A 
ATOM     94  F   UNL A   1      41.221  35.594  36.193  1.00  0.00    -0.206 F 
ATOM     95  C   UNL A   1      39.314  35.728  39.260  1.00  0.00     0.060 A 
BRANCH  95  96
ATOM     96  S   UNL A   1      38.950  36.875  40.605  1.00  0.00     0.124 S 
ATOM     97  O   UNL A   1      40.290  37.238  41.052  1.00  0.00    -0.237 OA
ATOM     98  O   UNL A   1      38.201  37.927  39.926  1.00  0.00    -0.237 OA
ATOM     99  O   UNL A   1      38.174  36.065  41.541  1.00  0.00    -0.744 OA
ENDBRANCH  95  96
ENDBRANCH  63  88
ENDBRANCH  37  38
ENDBRANCH  29  32
ENDBRANCH  27  28
ENDBRANCH  26  27
ENDBRANCH  25  26
ENDBRANCH  23  25
ENDBRANCH  20  21
ENDBRANCH  19  20
ENDBRANCH   1  19
TORSDOF 26
ENDMDL
MODEL 2
REMARK VINA RESULT:      -9.5      6.104     12.428
REMARK SMILES CC/C=C/C/C=C/C/C=C/C/C=C/CC/C=C/COCC(=O)NCCCNC(=O)c1ccc(-c2c3nc(c(-c4c(F)cc(S(=O)(=O)[O-])cc4F)c4ccc([nH]4)c(-c4c(F)cc(S(=O)(=O)[O-])cc4F)c4nc(c(-c5c(F)cc(S(=O)(=O)[O-])cc5F)c5ccc2[nH]5)C=C4)C=C3)cc1
REMARK SMILES IDX 18 1 17 2 16 3 15 4 14 5 13 6 12 7 11 8 10 9 9 10 8 11 7 12
REMARK SMILES IDX 6 13 5 14 4 15 3 16 2 17 1 18 19 19 20 20 21 21 22 22 23 23
REMARK SMILES IDX 24 25 25 26 26 27 27 28 28 29 29 31 30 32 31 33 95 34 32 35
REMARK SMILES IDX 94 36 33 37 34 38 35 39 88 40 36 41 93 42 87 43 89 44 37 45
REMARK SMILES IDX 92 46 86 47 85 48 38 50 72 51 51 52 71 53 52 54 55 55 70 56
REMARK SMILES IDX 90 57 53 58 54 59 69 61 91 62 56 63 39 64 40 65 49 66 41 67
REMARK SMILES IDX 42 68 48 69 50 70 43 71 44 72 45 73 46 74 47 75 73 76 74 77
REMARK SMILES IDX 83 78 75 79 76 80 82 81 84 82 77 83 78 84 79 85 80 86 81 87
REMARK SMILES IDX 57 88 58 89 67 90 59 91 60 92 66 93 68 94 61 95 62 96 63 97
REMARK SMILES IDX 64 98 65 99
REMARK H PARENT 23 24 27 30 89 49 55 60
REMARK Flexibility Score: inf
ROOT
ATOM      1  C   UNL A   1      34.139  32.897  27.982  1.00  0.00     0.188 C 
ENDROOT
BRANCH   1   2
ATOM      2  C   UNL A   1      33.679  31.471  27.994  1.00  0.00    -0.003 C 
ATOM      3  C   UNL A   1      33.001  30.915  26.978  1.00  0.00    -0.029 C 
BRANCH   3   4
ATOM      4  C   UNL A   1      32.390  29.542  27.009  1.00  0.00     0.031 C 
BRANCH   4   5
ATOM      5  C   UNL A   1      33.421  28.448  27.338  1.00  0.00     0.031 C 
BRANCH   5   6
ATOM      6  C   UNL A   1      33.589  27.444  26.230  1.00  0.00    -0.031 C 
ATOM      7  C   UNL A   1      32.884  27.451  25.088  1.00  0.00    -0.027 C 
BRANCH   7   8
ATOM      8  C   UNL A   1      33.025  26.407  24.016  1.00  0.00     0.054 C 
BRANCH   8   9
ATOM      9  C   UNL A   1      33.251  25.055  24.630  1.00  0.00    -0.027 C 
ATOM     10  C   UNL A   1      32.437  24.002  24.455  1.00  0.00    -0.027 C 
BRANCH  10  11
ATOM     11  C   UNL A   1      32.639  22.663  25.104  1.00  0.00     0.054 C 
BRANCH  11  12
ATOM     12  C   UNL A   1      33.849  21.981  24.533  1.00  0.00    -0.027 C 
ATOM     13  C   UNL A   1      35.086  22.087  25.046  1.00  0.00    -0.027 C 
BRANCH  13  14
ATOM     14  C   UNL A   1      36.300  21.429  24.460  1.00  0.00     0.054 C 
BRANCH  14  15
ATOM     15  C   UNL A   1      37.518  21.717  25.293  1.00  0.00    -0.027 C 
ATOM     16  C   UNL A   1      37.822  22.925  25.792  1.00  0.00    -0.031 C 
BRANCH  16  17
ATOM     17  C   UNL A   1      39.048  23.208  26.609  1.00  0.00     0.023 C 
ATOM     18  C   UNL A   1      39.273  24.704  26.768  1.00  0.00     0.008 C 
ENDBRANCH  16  17
ENDBRANCH  14  15
ENDBRANCH  13  14
ENDBRANCH  11  12
ENDBRANCH  10  11
ENDBRANCH   8   9
ENDBRANCH   7   8
ENDBRANCH   5   6
ENDBRANCH   4   5
ENDBRANCH   3   4
ENDBRANCH   1   2
BRANCH   1  19
ATOM     19  O   UNL A   1      33.114  33.753  28.492  1.00  0.00    -0.368 OA
BRANCH  19  20
ATOM     20  C   UNL A   1      33.540  35.088  28.730  1.00  0.00     0.260 C 
BRANCH  20  21
ATOM     21  C   UNL A   1      33.441  35.607  30.169  1.00  0.00     0.246 C 
ATOM     22  O   UNL A   1      32.533  36.356  30.534  1.00  0.00    -0.272 OA
ATOM     23  N   UNL A   1      34.377  35.210  31.081  1.00  0.00    -0.354 N 
ATOM     24  H   UNL A   1      34.257  35.546  31.999  1.00  0.00     0.163 HD
BRANCH  23  25
ATOM     25  C   UNL A   1      35.528  34.351  30.866  1.00  0.00     0.117 C 
BRANCH  25  26
ATOM     26  C   UNL A   1      36.550  34.457  31.992  1.00  0.00     0.042 C 
BRANCH  26  27
ATOM     27  C   UNL A   1      37.431  33.221  32.168  1.00  0.00     0.118 C 
BRANCH  27  28
ATOM     28  N   UNL A   1      36.673  31.978  32.183  1.00  0.00    -0.352 N 
ATOM     29  C   UNL A   1      36.963  30.749  31.647  1.00  0.00     0.251 C 
ATOM     30  H   UNL A   1      35.810  32.028  32.656  1.00  0.00     0.163 HD
ATOM     31  O   UNL A   1      36.090  29.879  31.649  1.00  0.00    -0.269 OA
BRANCH  29  32
ATOM     32  C   UNL A   1      38.288  30.460  31.056  1.00  0.00     0.039 A 
ATOM     33  C   UNL A   1      39.322  30.045  31.903  1.00  0.00     0.014 A 
ATOM     34  C   UNL A   1      38.537  30.629  29.692  1.00  0.00     0.014 A 
ATOM     35  C   UNL A   1      40.578  29.741  31.375  1.00  0.00     0.010 A 
ATOM     36  C   UNL A   1      39.770  30.257  29.155  1.00  0.00     0.010 A 
ATOM     37  C   UNL A   1      40.804  29.809  29.990  1.00  0.00    -0.014 A 
BRANCH  37  38
ATOM     38  C   UNL A   1      42.110  29.405  29.405  1.00  0.00     0.031 A 
ATOM     39  C   UNL A   1      43.231  30.402  29.272  1.00  0.00     0.074 A 
ATOM     40  C   UNL A   1      42.269  28.149  28.943  1.00  0.00     0.049 A 
ATOM     41  N   UNL A   1      44.418  30.243  28.743  1.00  0.00    -0.248 NA
ATOM     42  C   UNL A   1      42.977  31.759  29.779  1.00  0.00     0.031 C 
ATOM     43  C   UNL A   1      41.244  27.102  28.970  1.00  0.00     0.029 A 
ATOM     44  N   UNL A   1      43.348  27.538  28.354  1.00  0.00    -0.354 N 
ATOM     45  C   UNL A   1      45.047  31.479  28.843  1.00  0.00     0.074 A 
ATOM     46  C   UNL A   1      44.092  32.390  29.437  1.00  0.00     0.031 C 
ATOM     47  C   UNL A   1      41.752  25.974  28.446  1.00  0.00     0.029 A 
ATOM     48  C   UNL A   1      43.122  26.225  28.012  1.00  0.00     0.049 A 
ATOM     49  H   UNL A   1      44.204  27.997  28.192  1.00  0.00     0.167 HD
ATOM     50  C   UNL A   1      46.312  31.819  28.494  1.00  0.00     0.037 A 
ATOM     51  C   UNL A   1      43.926  25.325  27.412  1.00  0.00     0.037 A 
ATOM     52  C   UNL A   1      47.267  30.903  27.923  1.00  0.00     0.049 A 
ATOM     53  C   UNL A   1      45.326  25.726  27.035  1.00  0.00     0.074 A 
ATOM     54  C   UNL A   1      48.588  31.139  27.583  1.00  0.00     0.029 A 
ATOM     55  N   UNL A   1      47.005  29.578  27.608  1.00  0.00    -0.354 N 
ATOM     56  N   UNL A   1      45.921  26.883  27.189  1.00  0.00    -0.248 NA
ATOM     57  C   UNL A   1      46.165  24.695  26.408  1.00  0.00     0.031 C 
ATOM     58  C   UNL A   1      49.112  29.968  27.024  1.00  0.00     0.029 A 
ATOM     59  C   UNL A   1      48.134  28.989  27.061  1.00  0.00     0.049 A 
ATOM     60  H   UNL A   1      46.144  29.123  27.751  1.00  0.00     0.167 HD
ATOM     61  C   UNL A   1      47.212  26.713  26.703  1.00  0.00     0.074 A 
ATOM     62  C   UNL A   1      47.315  25.337  26.262  1.00  0.00     0.031 C 
ATOM     63  C   UNL A   1      48.223  27.616  26.629  1.00  0.00     0.037 A 
BRANCH  50  64
ATOM     64  C   UNL A   1      46.740  33.243  28.726  1.00  0.00     0.058 A 
ATOM     65  C   UNL A   1      47.323  33.647  29.939  1.00  0.00     0.135 A 
ATOM     66  C   UNL A   1      46.600  34.207  27.715  1.00  0.00     0.135 A 
ATOM     67  F   UNL A   1      47.467  32.770  30.945  1.00  0.00    -0.206 F 
ATOM     68  C   UNL A   1      47.722  34.962  30.151  1.00  0.00     0.059 A 
ATOM     69  C   UNL A   1      47.020  35.523  27.896  1.00  0.00     0.059 A 
ATOM     70  F   UNL A   1      46.051  33.876  26.536  1.00  0.00    -0.206 F 
ATOM     71  C   UNL A   1      47.565  35.893  29.124  1.00  0.00     0.060 A 
BRANCH  71  72
ATOM     72  S   UNL A   1      48.090  37.596  29.416  1.00  0.00     0.124 S 
ATOM     73  O   UNL A   1      47.809  38.213  28.123  1.00  0.00    -0.237 OA
ATOM     74  O   UNL A   1      47.222  38.007  30.515  1.00  0.00    -0.237 OA
ATOM     75  O   UNL A   1      49.504  37.463  29.754  1.00  0.00    -0.744 OA
ENDBRANCH  71  72
ENDBRANCH  50  64
BRANCH  51  76
ATOM     76  C   UNL A   1      43.433  23.945  27.157  1.00  0.00     0.058 A 
ATOM     77  C   UNL A   1      43.379  22.997  28.190  1.00  0.00     0.135 A 
ATOM     78  C   UNL A   1      42.994  23.551  25.884  1.00  0.00     0.135 A 
ATOM     79  F   UNL A   1      43.793  23.325  29.424  1.00  0.00    -0.206 F 
ATOM     80  C   UNL A   1      42.923  21.702  27.968  1.00  0.00     0.059 A 
ATOM     81  C   UNL A   1      42.511  22.268  25.643  1.00  0.00     0.059 A 
ATOM     82  F   UNL A   1      43.009  24.426  24.866  1.00  0.00    -0.206 F 
ATOM     83  C   UNL A   1      42.489  21.348  26.689  1.00  0.00     0.060 A 
BRANCH  83  84
ATOM     84  S   UNL A   1      41.853  19.678  26.423  1.00  0.00     0.124 S 
ATOM     85  O   UNL A   1      40.413  19.901  26.475  1.00  0.00    -0.237 OA
ATOM     86  O   UNL A   1      42.402  19.346  25.112  1.00  0.00    -0.237 OA
ATOM     87  O   UNL A   1      42.416  18.924  27.538  1.00  0.00    -0.744 OA
ENDBRANCH  83  84
ENDBRANCH  51  76
BRANCH  63  88
ATOM     88  C   UNL A   1      49.539  27.134  26.081  1.00  0.00     0.058 A 
ATOM     89  C   UNL A   1      49.773  27.040  24.701  1.00  0.00     0.135 A 
ATOM     90  C   UNL A   1      50.590  26.797  26.950  1.00  0.00     0.135 A 
ATOM     91  F   UNL A   1      48.800  27.343  23.827  1.00  0.00    -0.206 F 
ATOM     92  C   UNL A   1      50.994  26.599  24.200  1.00  0.00     0.059 A 
ATOM     93  C   UNL A   1      51.828  26.382  26.471  1.00  0.00     0.059 A 
ATOM     94  F   UNL A   1      50.421  26.882  28.279  1.00  0.00    -0.206 F 
ATOM     95  C   UNL A   1      52.016  26.271  25.094  1.00  0.00     0.060 A 
BRANCH  95  96
ATOM     96  S   UNL A   1      53.604  25.722  24.433  1.00  0.00     0.124 S 
ATOM     97  O   UNL A   1      54.542  26.449  25.280  1.00  0.00    -0.237 OA
ATOM     98  O   UNL A   1      53.548  24.279  24.641  1.00  0.00    -0.237 OA
ATOM     99  O   UNL A   1      53.556  26.150  23.037  1.00  0.00    -0.744 OA
ENDBRANCH  95  96
ENDBRANCH  63  88
ENDBRANCH  37  38
ENDBRANCH  29  32
ENDBRANCH  27  28
ENDBRANCH  26  27
ENDBRANCH  25  26
ENDBRANCH  23  25
ENDBRANCH  20  21
ENDBRANCH  19  20
ENDBRANCH   1  19
TORSDOF 26
ENDMDL
MODEL 3
REMARK VINA RESULT:      -9.0      5.564      9.986
REMARK SMILES CC/C=C/C/C=C/C/C=C/C/C=C/CC/C=C/COCC(=O)NCCCNC(=O)c1ccc(-c2c3nc(c(-c4c(F)cc(S(=O)(=O)[O-])cc4F)c4ccc([nH]4)c(-c4c(F)cc(S(=O)(=O)[O-])cc4F)c4nc(c(-c5c(F)cc(S(=O)(=O)[O-])cc5F)c5ccc2[nH]5)C=C4)C=C3)cc1
REMARK SMILES IDX 18 1 17 2 16 3 15 4 14 5 13 6 12 7 11 8 10 9 9 10 8 11 7 12
REMARK SMILES IDX 6 13 5 14 4 15 3 16 2 17 1 18 19 19 20 20 21 21 22 22 23 23
REMARK SMILES IDX 24 25 25 26 26 27 27 28 28 29 29 31 30 32 31 33 95 34 32 35
REMARK SMILES IDX 94 36 33 37 34 38 35 39 88 40 36 41 93 42 87 43 89 44 37 45
REMARK SMILES IDX 92 46 86 47 85 48 38 50 72 51 51 52 71 53 52 54 55 55 70 56
REMARK SMILES IDX 90 57 53 58 54 59 69 61 91 62 56 63 39 64 40 65 49 66 41 67
REMARK SMILES IDX 42 68 48 69 50 70 43 71 44 72 45 73 46 74 47 75 73 76 74 77
REMARK SMILES IDX 83 78 75 79 76 80 82 81 84 82 77 83 78 84 79 85 80 86 81 87
REMARK SMILES IDX 57 88 58 89 67 90 59 91 60 92 66 93 68 94 61 95 62 96 63 97
REMARK SMILES IDX 64 98 65 99
REMARK H PARENT 23 24 27 30 89 49 55 60
REMARK Flexibility Score: inf
ROOT
ATOM      1  C   UNL A   1      35.703  33.124  33.647  1.00  0.00     0.188 C 
ENDROOT
BRANCH   1   2
ATOM      2  C   UNL A   1      35.541  32.126  32.542  1.00  0.00    -0.003 C 
ATOM      3  C   UNL A   1      36.298  31.022  32.440  1.00  0.00    -0.029 C 
BRANCH   3   4
ATOM      4  C   UNL A   1      36.275  30.076  31.272  1.00  0.00     0.031 C 
BRANCH   4   5
ATOM      5  C   UNL A   1      37.373  29.002  31.366  1.00  0.00     0.031 C 
BRANCH   5   6
ATOM      6  C   UNL A   1      37.861  28.539  30.020  1.00  0.00    -0.031 C 
ATOM      7  C   UNL A   1      39.046  27.947  29.806  1.00  0.00    -0.027 C 
BRANCH   7   8
ATOM      8  C   UNL A   1      39.542  27.541  28.446  1.00  0.00     0.054 C 
BRANCH   8   9
ATOM      9  C   UNL A   1      40.338  26.271  28.537  1.00  0.00    -0.027 C 
ATOM     10  C   UNL A   1      40.901  25.657  27.484  1.00  0.00    -0.027 C 
BRANCH  10  11
ATOM     11  C   UNL A   1      41.659  24.364  27.569  1.00  0.00     0.054 C 
BRANCH  11  12
ATOM     12  C   UNL A   1      40.981  23.303  26.750  1.00  0.00    -0.027 C 
ATOM     13  C   UNL A   1      39.694  22.945  26.898  1.00  0.00    -0.027 C 
BRANCH  13  14
ATOM     14  C   UNL A   1      39.025  21.865  26.100  1.00  0.00     0.054 C 
BRANCH  14  15
ATOM     15  C   UNL A   1      37.691  22.329  25.588  1.00  0.00    -0.027 C 
ATOM     16  C   UNL A   1      37.266  23.602  25.638  1.00  0.00    -0.031 C 
BRANCH  16  17
ATOM     17  C   UNL A   1      35.925  24.056  25.138  1.00  0.00     0.023 C 
ATOM     18  C   UNL A   1      34.805  23.579  26.050  1.00  0.00     0.008 C 
ENDBRANCH  16  17
ENDBRANCH  14  15
ENDBRANCH  13  14
ENDBRANCH  11  12
ENDBRANCH  10  11
ENDBRANCH   8   9
ENDBRANCH   7   8
ENDBRANCH   5   6
ENDBRANCH   4   5
ENDBRANCH   3   4
ENDBRANCH   1   2
BRANCH   1  19
ATOM     19  O   UNL A   1      34.468  33.805  33.885  1.00  0.00    -0.368 OA
BRANCH  19  20
ATOM     20  C   UNL A   1      33.890  34.380  32.720  1.00  0.00     0.260 C 
BRANCH  20  21
ATOM     21  C   UNL A   1      34.160  35.867  32.467  1.00  0.00     0.246 C 
ATOM     22  O   UNL A   1      34.781  36.565  33.271  1.00  0.00    -0.272 OA
ATOM     23  N   UNL A   1      33.717  36.432  31.305  1.00  0.00    -0.354 N 
ATOM     24  H   UNL A   1      33.938  37.383  31.175  1.00  0.00     0.163 HD
BRANCH  23  25
ATOM     25  C   UNL A   1      32.960  35.804  30.237  1.00  0.00     0.117 C 
BRANCH  25  26
ATOM     26  C   UNL A   1      33.366  36.316  28.860  1.00  0.00     0.042 C 
BRANCH  26  27
ATOM     27  C   UNL A   1      34.334  35.407  28.104  1.00  0.00     0.118 C 
BRANCH  27  28
ATOM     28  N   UNL A   1      33.931  34.008  28.119  1.00  0.00    -0.352 N 
ATOM     29  C   UNL A   1      34.650  32.874  28.399  1.00  0.00     0.251 C 
ATOM     30  H   UNL A   1      32.986  33.849  27.890  1.00  0.00     0.163 HD
ATOM     31  O   UNL A   1      34.132  31.775  28.190  1.00  0.00    -0.269 OA
BRANCH  29  32
ATOM     32  C   UNL A   1      36.031  32.949  28.924  1.00  0.00     0.039 A 
ATOM     33  C   UNL A   1      36.974  32.026  28.459  1.00  0.00     0.014 A 
ATOM     34  C   UNL A   1      36.399  33.886  29.893  1.00  0.00     0.014 A 
ATOM     35  C   UNL A   1      38.293  32.083  28.916  1.00  0.00     0.010 A 
ATOM     36  C   UNL A   1      37.731  33.989  30.294  1.00  0.00     0.010 A 
ATOM     37  C   UNL A   1      38.692  33.089  29.811  1.00  0.00    -0.014 A 
BRANCH  37  38
ATOM     38  C   UNL A   1      40.111  33.216  30.239  1.00  0.00     0.031 A 
ATOM     39  C   UNL A   1      40.708  32.236  31.214  1.00  0.00     0.074 A 
ATOM     40  C   UNL A   1      40.849  34.250  29.788  1.00  0.00     0.049 A 
ATOM     41  N   UNL A   1      41.908  32.219  31.736  1.00  0.00    -0.248 NA
ATOM     42  C   UNL A   1      39.835  31.146  31.679  1.00  0.00     0.031 C 
ATOM     43  C   UNL A   1      40.374  35.294  28.876  1.00  0.00     0.029 A 
ATOM     44  N   UNL A   1      42.154  34.599  30.037  1.00  0.00    -0.354 N 
ATOM     45  C   UNL A   1      41.932  31.128  32.598  1.00  0.00     0.074 A 
ATOM     46  C   UNL A   1      40.610  30.539  32.567  1.00  0.00     0.031 C 
ATOM     47  C   UNL A   1      41.378  36.150  28.625  1.00  0.00     0.029 A 
ATOM     48  C   UNL A   1      42.555  35.740  29.383  1.00  0.00     0.049 A 
ATOM     49  H   UNL A   1      42.745  34.080  30.628  1.00  0.00     0.167 HD
ATOM     50  C   UNL A   1      42.966  30.647  33.331  1.00  0.00     0.037 A 
ATOM     51  C   UNL A   1      43.737  36.387  29.395  1.00  0.00     0.037 A 
ATOM     52  C   UNL A   1      44.286  31.224  33.343  1.00  0.00     0.049 A 
ATOM     53  C   UNL A   1      44.870  35.833  30.217  1.00  0.00     0.074 A 
ATOM     54  C   UNL A   1      45.413  30.780  34.013  1.00  0.00     0.029 A 
ATOM     55  N   UNL A   1      44.658  32.370  32.655  1.00  0.00    -0.354 N 
ATOM     56  N   UNL A   1      44.890  34.769  30.980  1.00  0.00    -0.248 NA
ATOM     57  C   UNL A   1      46.142  36.566  30.171  1.00  0.00     0.031 C 
ATOM     58  C   UNL A   1      46.455  31.679  33.762  1.00  0.00     0.029 A 
ATOM     59  C   UNL A   1      45.991  32.657  32.897  1.00  0.00     0.049 A 
ATOM     60  H   UNL A   1      44.061  32.900  32.079  1.00  0.00     0.167 HD
ATOM     61  C   UNL A   1      46.182  34.688  31.486  1.00  0.00     0.074 A 
ATOM     62  C   UNL A   1      46.918  35.805  30.929  1.00  0.00     0.031 C 
ATOM     63  C   UNL A   1      46.712  33.771  32.334  1.00  0.00     0.037 A 
BRANCH  50  64
ATOM     64  C   UNL A   1      42.712  29.429  34.178  1.00  0.00     0.058 A 
ATOM     65  C   UNL A   1      42.275  29.537  35.508  1.00  0.00     0.135 A 
ATOM     66  C   UNL A   1      42.871  28.139  33.646  1.00  0.00     0.135 A 
ATOM     67  F   UNL A   1      42.120  30.745  36.074  1.00  0.00    -0.206 F 
ATOM     68  C   UNL A   1      42.036  28.411  36.290  1.00  0.00     0.059 A 
ATOM     69  C   UNL A   1      42.610  26.999  34.401  1.00  0.00     0.059 A 
ATOM     70  F   UNL A   1      43.285  27.977  32.378  1.00  0.00    -0.206 F 
ATOM     71  C   UNL A   1      42.208  27.146  35.727  1.00  0.00     0.060 A 
BRANCH  71  72
ATOM     72  S   UNL A   1      41.892  25.695  36.754  1.00  0.00     0.124 S 
ATOM     73  O   UNL A   1      42.920  24.774  36.280  1.00  0.00    -0.237 OA
ATOM     74  O   UNL A   1      42.085  26.219  38.103  1.00  0.00    -0.237 OA
ATOM     75  O   UNL A   1      40.519  25.331  36.417  1.00  0.00    -0.744 OA
ENDBRANCH  71  72
ENDBRANCH  50  64
BRANCH  51  76
ATOM     76  C   UNL A   1      43.917  37.618  28.581  1.00  0.00     0.058 A 
ATOM     77  C   UNL A   1      44.276  37.539  27.227  1.00  0.00     0.135 A 
ATOM     78  C   UNL A   1      43.721  38.893  29.133  1.00  0.00     0.135 A 
ATOM     79  F   UNL A   1      44.479  36.342  26.655  1.00  0.00    -0.206 F 
ATOM     80  C   UNL A   1      44.451  38.681  26.451  1.00  0.00     0.059 A 
ATOM     81  C   UNL A   1      43.867  40.049  28.371  1.00  0.00     0.059 A 
ATOM     82  F   UNL A   1      43.361  39.022  30.419  1.00  0.00    -0.206 F 
ATOM     83  C   UNL A   1      44.241  39.932  27.033  1.00  0.00     0.060 A 
BRANCH  83  84
ATOM     84  S   UNL A   1      44.423  41.406  26.005  1.00  0.00     0.124 S 
ATOM     85  O   UNL A   1      43.117  41.476  25.360  1.00  0.00    -0.237 OA
ATOM     86  O   UNL A   1      44.703  42.440  26.996  1.00  0.00    -0.237 OA
ATOM     87  O   UNL A   1      45.542  41.068  25.131  1.00  0.00    -0.744 OA
ENDBRANCH  83  84
ENDBRANCH  51  76
BRANCH  63  88
ATOM     88  C   UNL A   1      48.168  33.918  32.685  1.00  0.00     0.058 A 
ATOM     89  C   UNL A   1      49.178  33.328  31.909  1.00  0.00     0.135 A 
ATOM     90  C   UNL A   1      48.558  34.690  33.791  1.00  0.00     0.135 A 
ATOM     91  F   UNL A   1      48.859  32.574  30.845  1.00  0.00    -0.206 F 
ATOM     92  C   UNL A   1      50.522  33.472  32.235  1.00  0.00     0.059 A 
ATOM     93  C   UNL A   1      49.898  34.872  34.119  1.00  0.00     0.059 A 
ATOM     94  F   UNL A   1      47.632  35.286  34.559  1.00  0.00    -0.206 F 
ATOM     95  C   UNL A   1      50.873  34.247  33.343  1.00  0.00     0.060 A 
BRANCH  95  96
ATOM     96  S   UNL A   1      52.622  34.446  33.744  1.00  0.00     0.124 S 
ATOM     97  O   UNL A   1      52.741  35.897  33.825  1.00  0.00    -0.237 OA
ATOM     98  O   UNL A   1      52.737  33.728  35.009  1.00  0.00    -0.237 OA
ATOM     99  O   UNL A   1      53.302  33.822  32.612  1.00  0.00    -0.744 OA
ENDBRANCH  95  96
ENDBRANCH  63  88
ENDBRANCH  37  38
ENDBRANCH  29  32
ENDBRANCH  27  28
ENDBRANCH  26  27
ENDBRANCH  25  26
ENDBRANCH  23  25
ENDBRANCH  20  21
ENDBRANCH  19  20
ENDBRANCH   1  19
TORSDOF 26
ENDMDL
