MODEL 1
REMARK VINA RESULT:     -10.6      0.000      0.000
REMARK SMILES CC[N@@H+](C[C@H]1CCCO1)[C@@H](C)c1ccc(C(=O)NCCCNC(=O)c2ccc(-c3c4nc(c(-c5c(F)cc(S(=O)(=O)[O-])cc5F)c5ccc([nH]5)c(-c5c(F)cc(S(=O)(=O)[O-])cc5F)c5nc(c(-c6c(F)cc(S(=O)(=O)[O-])cc6F)c6ccc3[nH]6)C=C5)C=C4)cc2)o1
REMARK SMILES IDX 19 1 18 2 16 3 17 4 15 6 12 7 13 8 91 9 14 10 10 11 11 12
REMARK SMILES IDX 3 13 2 15 1 16 4 17 5 18 6 19 9 20 7 21 8 22 20 23 21 24
REMARK SMILES IDX 22 25 23 26 24 28 25 29 26 30 90 31 27 32 89 33 28 34 29 35
REMARK SMILES IDX 30 36 83 37 31 38 88 39 82 40 84 41 32 42 87 43 81 44 80 45
REMARK SMILES IDX 33 47 67 48 46 49 66 50 47 51 50 52 65 53 85 54 48 55 49 56
REMARK SMILES IDX 64 58 86 59 51 60 34 61 35 62 44 63 36 64 37 65 43 66 45 67
REMARK SMILES IDX 38 68 39 69 40 70 41 71 42 72 68 73 69 74 78 75 70 76 71 77
REMARK SMILES IDX 77 78 79 79 72 80 73 81 74 82 75 83 76 84 52 85 53 86 62 87
REMARK SMILES IDX 54 88 55 89 61 90 63 91 56 92 57 93 58 94 59 95 60 96
REMARK H PARENT 18 5 3 14 22 27 84 46 50 57
REMARK Flexibility Score: inf
ROOT
ATOM      1  C   UNL A   1      32.097  27.563  24.765  1.00  0.00     0.118 C 
ENDROOT
BRANCH   1   2
ATOM      2  N   UNL A   1      32.892  27.300  23.589  1.00  0.00    -0.349 N 
ATOM      3  C   UNL A   1      33.130  26.120  22.928  1.00  0.00     0.287 C 
ATOM      4  O   UNL A   1      33.834  26.202  21.924  1.00  0.00    -0.266 OA
ATOM      5  H   UNL A   1      33.334  28.090  23.200  1.00  0.00     0.163 HD
BRANCH   3   6
ATOM      6  C   UNL A   1      32.523  24.881  23.378  1.00  0.00     0.191 A 
ATOM      7  C   UNL A   1      32.640  22.985  24.513  1.00  0.00     0.161 A 
ATOM      8  C   UNL A   1      31.427  22.966  23.864  1.00  0.00     0.053 A 
ATOM      9  O   UNL A   1      33.281  24.154  24.251  1.00  0.00    -0.450 OA
ATOM     10  C   UNL A   1      31.336  24.201  23.169  1.00  0.00     0.057 A 
BRANCH   7  11
ATOM     11  C   UNL A   1      33.277  22.121  25.554  1.00  0.00     0.248 C 
ATOM     12  C   UNL A   1      33.039  22.825  26.891  1.00  0.00     0.084 C 
BRANCH  11  13
ATOM     13  N   UNL A   1      34.640  21.629  25.277  1.00  0.00    -0.324 N 
ATOM     14  H   UNL A   1      34.710  22.291  24.503  1.00  0.00     0.348 HD
BRANCH  13  15
ATOM     15  C   UNL A   1      35.855  22.112  25.931  1.00  0.00     0.259 C 
ATOM     16  C   UNL A   1      36.436  23.492  25.631  1.00  0.00     0.071 C 
ENDBRANCH  13  15
BRANCH  13  17
ATOM     17  C   UNL A   1      34.733  20.218  24.836  1.00  0.00     0.295 C 
BRANCH  17  18
ATOM     18  C   UNL A   1      33.530  19.232  24.675  1.00  0.00     0.173 C 
ATOM     19  C   UNL A   1      32.528  19.362  23.536  1.00  0.00     0.040 C 
ATOM     20  O   UNL A   1      33.960  17.860  24.716  1.00  0.00    -0.372 OA
ATOM     21  C   UNL A   1      32.587  18.045  22.801  1.00  0.00     0.031 C 
ATOM     22  C   UNL A   1      33.154  17.090  23.821  1.00  0.00     0.161 C 
ENDBRANCH  17  18
ENDBRANCH  13  17
ENDBRANCH  11  13
ENDBRANCH   7  11
ENDBRANCH   3   6
ENDBRANCH   1   2
BRANCH   1  23
ATOM     23  C   UNL A   1      32.943  27.433  26.026  1.00  0.00     0.042 C 
BRANCH  23  24
ATOM     24  C   UNL A   1      34.188  28.313  25.974  1.00  0.00     0.118 C 
BRANCH  24  25
ATOM     25  N   UNL A   1      33.866  29.701  26.280  1.00  0.00    -0.352 N 
ATOM     26  C   UNL A   1      34.363  30.516  27.263  1.00  0.00     0.251 C 
ATOM     27  H   UNL A   1      33.191  30.113  25.694  1.00  0.00     0.163 HD
ATOM     28  O   UNL A   1      33.754  31.538  27.565  1.00  0.00    -0.269 OA
BRANCH  26  29
ATOM     29  C   UNL A   1      35.626  30.169  27.947  1.00  0.00     0.039 A 
ATOM     30  C   UNL A   1      35.574  29.609  29.224  1.00  0.00     0.014 A 
ATOM     31  C   UNL A   1      36.859  30.442  27.346  1.00  0.00     0.014 A 
ATOM     32  C   UNL A   1      36.761  29.282  29.882  1.00  0.00     0.010 A 
ATOM     33  C   UNL A   1      38.037  30.046  27.970  1.00  0.00     0.010 A 
ATOM     34  C   UNL A   1      38.000  29.474  29.250  1.00  0.00    -0.014 A 
BRANCH  34  35
ATOM     35  C   UNL A   1      39.273  29.104  29.917  1.00  0.00     0.031 A 
ATOM     36  C   UNL A   1      39.747  29.886  31.112  1.00  0.00     0.074 A 
ATOM     37  C   UNL A   1      40.021  28.105  29.410  1.00  0.00     0.049 A 
ATOM     38  N   UNL A   1      40.872  29.785  31.770  1.00  0.00    -0.248 NA
ATOM     39  C   UNL A   1      38.850  30.940  31.618  1.00  0.00     0.031 C 
ATOM     40  C   UNL A   1      39.683  27.307  28.228  1.00  0.00     0.029 A 
ATOM     41  N   UNL A   1      41.229  27.599  29.815  1.00  0.00    -0.354 N 
ATOM     42  C   UNL A   1      40.820  30.758  32.762  1.00  0.00     0.074 A 
ATOM     43  C   UNL A   1      39.580  31.481  32.582  1.00  0.00     0.031 C 
ATOM     44  C   UNL A   1      40.654  26.405  28.013  1.00  0.00     0.029 A 
ATOM     45  C   UNL A   1      41.699  26.583  29.014  1.00  0.00     0.049 A 
ATOM     46  H   UNL A   1      41.716  27.929  30.605  1.00  0.00     0.167 HD
ATOM     47  C   UNL A   1      41.711  31.006  33.751  1.00  0.00     0.037 A 
ATOM     48  C   UNL A   1      42.851  25.888  29.073  1.00  0.00     0.037 A 
ATOM     49  C   UNL A   1      42.931  30.265  33.937  1.00  0.00     0.049 A 
ATOM     50  C   UNL A   1      43.828  26.190  30.178  1.00  0.00     0.074 A 
ATOM     51  C   UNL A   1      43.892  30.420  34.921  1.00  0.00     0.029 A 
ATOM     52  N   UNL A   1      43.353  29.221  33.127  1.00  0.00    -0.354 N 
ATOM     53  N   UNL A   1      43.742  27.088  31.131  1.00  0.00    -0.248 NA
ATOM     54  C   UNL A   1      45.054  25.381  30.223  1.00  0.00     0.031 C 
ATOM     55  C   UNL A   1      44.909  29.490  34.690  1.00  0.00     0.029 A 
ATOM     56  C   UNL A   1      44.561  28.725  33.587  1.00  0.00     0.049 A 
ATOM     57  H   UNL A   1      42.867  28.883  32.341  1.00  0.00     0.167 HD
ATOM     58  C   UNL A   1      44.886  26.930  31.906  1.00  0.00     0.074 A 
ATOM     59  C   UNL A   1      45.640  25.842  31.319  1.00  0.00     0.031 C 
ATOM     60  C   UNL A   1      45.282  27.624  33.000  1.00  0.00     0.037 A 
BRANCH  47  61
ATOM     61  C   UNL A   1      41.388  32.101  34.729  1.00  0.00     0.058 A 
ATOM     62  C   UNL A   1      41.828  33.418  34.519  1.00  0.00     0.135 A 
ATOM     63  C   UNL A   1      40.580  31.852  35.851  1.00  0.00     0.135 A 
ATOM     64  F   UNL A   1      42.619  33.707  33.475  1.00  0.00    -0.206 F 
ATOM     65  C   UNL A   1      41.489  34.447  35.392  1.00  0.00     0.059 A 
ATOM     66  C   UNL A   1      40.206  32.871  36.723  1.00  0.00     0.059 A 
ATOM     67  F   UNL A   1      40.135  30.610  36.102  1.00  0.00    -0.206 F 
ATOM     68  C   UNL A   1      40.671  34.164  36.487  1.00  0.00     0.060 A 
BRANCH  68  69
ATOM     69  S   UNL A   1      40.210  35.521  37.586  1.00  0.00     0.124 S 
ATOM     70  O   UNL A   1      41.416  35.663  38.395  1.00  0.00    -0.237 OA
ATOM     71  O   UNL A   1      39.947  36.606  36.647  1.00  0.00    -0.237 OA
ATOM     72  O   UNL A   1      39.040  35.007  38.289  1.00  0.00    -0.744 OA
ENDBRANCH  68  69
ENDBRANCH  47  61
BRANCH  48  73
ATOM     73  C   UNL A   1      43.151  24.838  28.062  1.00  0.00     0.058 A 
ATOM     74  C   UNL A   1      42.815  23.495  28.291  1.00  0.00     0.135 A 
ATOM     75  C   UNL A   1      43.804  25.151  26.861  1.00  0.00     0.135 A 
ATOM     76  F   UNL A   1      42.188  23.146  29.426  1.00  0.00    -0.206 F 
ATOM     77  C   UNL A   1      43.154  22.494  27.388  1.00  0.00     0.059 A 
ATOM     78  C   UNL A   1      44.129  24.171  25.927  1.00  0.00     0.059 A 
ATOM     79  F   UNL A   1      44.127  26.424  26.581  1.00  0.00    -0.206 F 
ATOM     80  C   UNL A   1      43.818  22.842  26.210  1.00  0.00     0.060 A 
BRANCH  80  81
ATOM     81  S   UNL A   1      44.259  21.537  25.043  1.00  0.00     0.124 S 
ATOM     82  O   UNL A   1      43.202  20.561  25.283  1.00  0.00    -0.237 OA
ATOM     83  O   UNL A   1      44.204  22.237  23.763  1.00  0.00    -0.237 OA
ATOM     84  O   UNL A   1      45.597  21.140  25.475  1.00  0.00    -0.744 OA
ENDBRANCH  80  81
ENDBRANCH  48  73
BRANCH  60  85
ATOM     85  C   UNL A   1      46.561  27.198  33.663  1.00  0.00     0.058 A 
ATOM     86  C   UNL A   1      47.795  27.774  33.326  1.00  0.00     0.135 A 
ATOM     87  C   UNL A   1      46.542  26.235  34.686  1.00  0.00     0.135 A 
ATOM     88  F   UNL A   1      47.866  28.694  32.350  1.00  0.00    -0.206 F 
ATOM     89  C   UNL A   1      48.971  27.393  33.962  1.00  0.00     0.059 A 
ATOM     90  C   UNL A   1      47.701  25.859  35.354  1.00  0.00     0.059 A 
ATOM     91  F   UNL A   1      45.385  25.661  35.053  1.00  0.00    -0.206 F 
ATOM     92  C   UNL A   1      48.913  26.435  34.976  1.00  0.00     0.060 A 
BRANCH  92  93
ATOM     93  S   UNL A   1      50.443  25.973  35.817  1.00  0.00     0.124 S 
ATOM     94  O   UNL A   1      51.345  27.038  35.392  1.00  0.00    -0.237 OA
ATOM     95  O   UNL A   1      50.047  26.001  37.223  1.00  0.00    -0.237 OA
ATOM     96  O   UNL A   1      50.738  24.648  35.282  1.00  0.00    -0.744 OA
ENDBRANCH  92  93
ENDBRANCH  60  85
ENDBRANCH  34  35
ENDBRANCH  26  29
ENDBRANCH  24  25
ENDBRANCH  23  24
ENDBRANCH   1  23
TORSDOF 18
ENDMDL
MODEL 2
REMARK VINA RESULT:     -10.6      4.885      6.160
REMARK SMILES CC[N@@H+](C[C@H]1CCCO1)[C@@H](C)c1ccc(C(=O)NCCCNC(=O)c2ccc(-c3c4nc(c(-c5c(F)cc(S(=O)(=O)[O-])cc5F)c5ccc([nH]5)c(-c5c(F)cc(S(=O)(=O)[O-])cc5F)c5nc(c(-c6c(F)cc(S(=O)(=O)[O-])cc6F)c6ccc3[nH]6)C=C5)C=C4)cc2)o1
REMARK SMILES IDX 19 1 18 2 16 3 17 4 15 6 12 7 13 8 91 9 14 10 10 11 11 12
REMARK SMILES IDX 3 13 2 15 1 16 4 17 5 18 6 19 9 20 7 21 8 22 20 23 21 24
REMARK SMILES IDX 22 25 23 26 24 28 25 29 26 30 90 31 27 32 89 33 28 34 29 35
REMARK SMILES IDX 30 36 83 37 31 38 88 39 82 40 84 41 32 42 87 43 81 44 80 45
REMARK SMILES IDX 33 47 67 48 46 49 66 50 47 51 50 52 65 53 85 54 48 55 49 56
REMARK SMILES IDX 64 58 86 59 51 60 34 61 35 62 44 63 36 64 37 65 43 66 45 67
REMARK SMILES IDX 38 68 39 69 40 70 41 71 42 72 68 73 69 74 78 75 70 76 71 77
REMARK SMILES IDX 77 78 79 79 72 80 73 81 74 82 75 83 76 84 52 85 53 86 62 87
REMARK SMILES IDX 54 88 55 89 61 90 63 91 56 92 57 93 58 94 59 95 60 96
REMARK H PARENT 18 5 3 14 22 27 84 46 50 57
REMARK Flexibility Score: inf
ROOT
ATOM      1  C   UNL A   1      33.063  29.673  26.292  1.00  0.00     0.118 C 
ENDROOT
BRANCH   1   2
ATOM      2  N   UNL A   1      33.595  29.568  24.955  1.00  0.00    -0.349 N 
ATOM      3  C   UNL A   1      33.177  28.803  23.893  1.00  0.00     0.287 C 
ATOM      4  O   UNL A   1      33.813  28.940  22.851  1.00  0.00    -0.266 OA
ATOM      5  H   UNL A   1      34.382  30.132  24.774  1.00  0.00     0.163 HD
BRANCH   3   6
ATOM      6  C   UNL A   1      32.015  27.942  24.012  1.00  0.00     0.191 A 
ATOM      7  C   UNL A   1      31.119  25.978  24.502  1.00  0.00     0.161 A 
ATOM      8  C   UNL A   1      30.093  26.754  24.012  1.00  0.00     0.053 A 
ATOM      9  O   UNL A   1      32.265  26.707  24.537  1.00  0.00    -0.450 OA
ATOM     10  C   UNL A   1      30.661  28.025  23.736  1.00  0.00     0.057 A 
BRANCH   7  11
ATOM     11  C   UNL A   1      31.188  24.637  25.158  1.00  0.00     0.248 C 
ATOM     12  C   UNL A   1      31.831  24.869  26.527  1.00  0.00     0.084 C 
BRANCH  11  13
ATOM     13  N   UNL A   1      31.701  23.517  24.346  1.00  0.00    -0.324 N 
ATOM     14  H   UNL A   1      30.740  23.232  24.152  1.00  0.00     0.348 HD
BRANCH  13  15
ATOM     15  C   UNL A   1      32.066  23.604  22.934  1.00  0.00     0.259 C 
ATOM     16  C   UNL A   1      33.515  23.783  22.487  1.00  0.00     0.071 C 
ENDBRANCH  13  15
BRANCH  13  17
ATOM     17  C   UNL A   1      32.467  22.489  25.088  1.00  0.00     0.295 C 
BRANCH  17  18
ATOM     18  C   UNL A   1      32.194  20.949  25.055  1.00  0.00     0.173 C 
ATOM     19  C   UNL A   1      32.223  20.152  23.758  1.00  0.00     0.040 C 
ATOM     20  O   UNL A   1      33.009  20.247  26.010  1.00  0.00    -0.372 OA
ATOM     21  C   UNL A   1      33.273  19.088  23.967  1.00  0.00     0.031 C 
ATOM     22  C   UNL A   1      33.377  18.976  25.467  1.00  0.00     0.161 C 
ENDBRANCH  17  18
ENDBRANCH  13  17
ENDBRANCH  11  13
ENDBRANCH   7  11
ENDBRANCH   3   6
ENDBRANCH   1   2
BRANCH   1  23
ATOM     23  C   UNL A   1      33.876  28.824  27.263  1.00  0.00     0.042 C 
BRANCH  23  24
ATOM     24  C   UNL A   1      35.258  29.415  27.522  1.00  0.00     0.118 C 
BRANCH  24  25
ATOM     25  N   UNL A   1      35.267  30.218  28.739  1.00  0.00    -0.352 N 
ATOM     26  C   UNL A   1      36.250  30.362  29.682  1.00  0.00     0.251 C 
ATOM     27  H   UNL A   1      34.446  30.733  28.907  1.00  0.00     0.163 HD
ATOM     28  O   UNL A   1      35.967  30.821  30.785  1.00  0.00    -0.269 OA
BRANCH  26  29
ATOM     29  C   UNL A   1      37.641  29.972  29.371  1.00  0.00     0.039 A 
ATOM     30  C   UNL A   1      38.538  29.762  30.419  1.00  0.00     0.014 A 
ATOM     31  C   UNL A   1      38.070  29.863  28.044  1.00  0.00     0.014 A 
ATOM     32  C   UNL A   1      39.856  29.398  30.137  1.00  0.00     0.010 A 
ATOM     33  C   UNL A   1      39.360  29.426  27.766  1.00  0.00     0.010 A 
ATOM     34  C   UNL A   1      40.269  29.202  28.810  1.00  0.00    -0.014 A 
BRANCH  34  35
ATOM     35  C   UNL A   1      41.656  28.785  28.487  1.00  0.00     0.031 A 
ATOM     36  C   UNL A   1      42.758  29.810  28.447  1.00  0.00     0.074 A 
ATOM     37  C   UNL A   1      41.907  27.498  28.177  1.00  0.00     0.049 A 
ATOM     38  N   UNL A   1      44.007  29.665  28.092  1.00  0.00    -0.248 NA
ATOM     39  C   UNL A   1      42.401  31.186  28.832  1.00  0.00     0.031 C 
ATOM     40  C   UNL A   1      40.908  26.425  28.139  1.00  0.00     0.029 A 
ATOM     41  N   UNL A   1      43.074  26.874  27.820  1.00  0.00    -0.354 N 
ATOM     42  C   UNL A   1      44.583  30.925  28.207  1.00  0.00     0.074 A 
ATOM     43  C   UNL A   1      43.534  31.836  28.606  1.00  0.00     0.031 C 
ATOM     44  C   UNL A   1      41.509  25.275  27.792  1.00  0.00     0.029 A 
ATOM     45  C   UNL A   1      42.923  25.534  27.545  1.00  0.00     0.049 A 
ATOM     46  H   UNL A   1      43.940  27.340  27.765  1.00  0.00     0.167 HD
ATOM     47  C   UNL A   1      45.877  31.283  28.026  1.00  0.00     0.037 A 
ATOM     48  C   UNL A   1      43.823  24.623  27.126  1.00  0.00     0.037 A 
ATOM     49  C   UNL A   1      46.919  30.364  27.652  1.00  0.00     0.049 A 
ATOM     50  C   UNL A   1      45.252  25.051  26.925  1.00  0.00     0.074 A 
ATOM     51  C   UNL A   1      48.267  30.620  27.465  1.00  0.00     0.029 A 
ATOM     52  N   UNL A   1      46.733  29.009  27.419  1.00  0.00    -0.354 N 
ATOM     53  N   UNL A   1      45.786  26.240  27.077  1.00  0.00    -0.248 NA
ATOM     54  C   UNL A   1      46.204  24.014  26.502  1.00  0.00     0.031 C 
ATOM     55  C   UNL A   1      48.891  29.426  27.091  1.00  0.00     0.029 A 
ATOM     56  C   UNL A   1      47.940  28.417  27.087  1.00  0.00     0.049 A 
ATOM     57  H   UNL A   1      45.872  28.538  27.480  1.00  0.00     0.167 HD
ATOM     58  C   UNL A   1      47.140  26.086  26.800  1.00  0.00     0.074 A 
ATOM     59  C   UNL A   1      47.345  24.688  26.485  1.00  0.00     0.031 C 
ATOM     60  C   UNL A   1      48.125  27.017  26.800  1.00  0.00     0.037 A 
BRANCH  47  61
ATOM     61  C   UNL A   1      46.246  32.721  28.260  1.00  0.00     0.058 A 
ATOM     62  C   UNL A   1      46.704  33.161  29.512  1.00  0.00     0.135 A 
ATOM     63  C   UNL A   1      46.208  33.656  27.212  1.00  0.00     0.135 A 
ATOM     64  F   UNL A   1      46.743  32.314  30.553  1.00  0.00    -0.206 F 
ATOM     65  C   UNL A   1      47.098  34.478  29.722  1.00  0.00     0.059 A 
ATOM     66  C   UNL A   1      46.622  34.973  27.392  1.00  0.00     0.059 A 
ATOM     67  F   UNL A   1      45.775  33.290  25.995  1.00  0.00    -0.206 F 
ATOM     68  C   UNL A   1      47.060  35.375  28.654  1.00  0.00     0.060 A 
BRANCH  68  69
ATOM     69  S   UNL A   1      47.613  37.071  28.937  1.00  0.00     0.124 S 
ATOM     70  O   UNL A   1      48.212  36.963  30.264  1.00  0.00    -0.237 OA
ATOM     71  O   UNL A   1      48.547  37.281  27.836  1.00  0.00    -0.237 OA
ATOM     72  O   UNL A   1      46.380  37.847  28.866  1.00  0.00    -0.744 OA
ENDBRANCH  68  69
ENDBRANCH  47  61
BRANCH  48  73
ATOM     73  C   UNL A   1      43.408  23.217  26.869  1.00  0.00     0.058 A 
ATOM     74  C   UNL A   1      43.146  22.334  27.927  1.00  0.00     0.135 A 
ATOM     75  C   UNL A   1      43.294  22.721  25.562  1.00  0.00     0.135 A 
ATOM     76  F   UNL A   1      43.241  22.762  29.196  1.00  0.00    -0.206 F 
ATOM     77  C   UNL A   1      42.829  20.999  27.702  1.00  0.00     0.059 A 
ATOM     78  C   UNL A   1      42.949  21.397  25.309  1.00  0.00     0.059 A 
ATOM     79  F   UNL A   1      43.510  23.530  24.513  1.00  0.00    -0.206 F 
ATOM     80  C   UNL A   1      42.740  20.538  26.387  1.00  0.00     0.060 A 
BRANCH  80  81
ATOM     81  S   UNL A   1      42.331  18.802  26.101  1.00  0.00     0.124 S 
ATOM     82  O   UNL A   1      43.268  18.452  25.041  1.00  0.00    -0.237 OA
ATOM     83  O   UNL A   1      42.590  18.205  27.407  1.00  0.00    -0.237 OA
ATOM     84  O   UNL A   1      40.924  18.852  25.711  1.00  0.00    -0.744 OA
ENDBRANCH  80  81
ENDBRANCH  48  73
BRANCH  60  85
ATOM     85  C   UNL A   1      49.519  26.547  26.499  1.00  0.00     0.058 A 
ATOM     86  C   UNL A   1      50.338  25.983  27.490  1.00  0.00     0.135 A 
ATOM     87  C   UNL A   1      50.023  26.615  25.190  1.00  0.00     0.135 A 
ATOM     88  F   UNL A   1      49.904  25.900  28.758  1.00  0.00    -0.206 F 
ATOM     89  C   UNL A   1      51.618  25.526  27.199  1.00  0.00     0.059 A 
ATOM     90  C   UNL A   1      51.290  26.139  24.871  1.00  0.00     0.059 A 
ATOM     91  F   UNL A   1      49.276  27.137  24.205  1.00  0.00    -0.206 F 
ATOM     92  C   UNL A   1      52.085  25.607  25.885  1.00  0.00     0.060 A 
BRANCH  92  93
ATOM     93  S   UNL A   1      53.737  24.979  25.514  1.00  0.00     0.124 S 
ATOM     94  O   UNL A   1      54.456  25.301  26.742  1.00  0.00    -0.237 OA
ATOM     95  O   UNL A   1      53.486  23.560  25.279  1.00  0.00    -0.237 OA
ATOM     96  O   UNL A   1      54.132  25.742  24.334  1.00  0.00    -0.744 OA
ENDBRANCH  92  93
ENDBRANCH  60  85
ENDBRANCH  34  35
ENDBRANCH  26  29
ENDBRANCH  24  25
ENDBRANCH  23  24
ENDBRANCH   1  23
TORSDOF 18
ENDMDL
MODEL 3
REMARK VINA RESULT:     -10.6      2.550      3.556
REMARK SMILES CC[N@@H+](C[C@H]1CCCO1)[C@@H](C)c1ccc(C(=O)NCCCNC(=O)c2ccc(-c3c4nc(c(-c5c(F)cc(S(=O)(=O)[O-])cc5F)c5ccc([nH]5)c(-c5c(F)cc(S(=O)(=O)[O-])cc5F)c5nc(c(-c6c(F)cc(S(=O)(=O)[O-])cc6F)c6ccc3[nH]6)C=C5)C=C4)cc2)o1
REMARK SMILES IDX 19 1 18 2 16 3 17 4 15 6 12 7 13 8 91 9 14 10 10 11 11 12
REMARK SMILES IDX 3 13 2 15 1 16 4 17 5 18 6 19 9 20 7 21 8 22 20 23 21 24
REMARK SMILES IDX 22 25 23 26 24 28 25 29 26 30 90 31 27 32 89 33 28 34 29 35
REMARK SMILES IDX 30 36 83 37 31 38 88 39 82 40 84 41 32 42 87 43 81 44 80 45
REMARK SMILES IDX 33 47 67 48 46 49 66 50 47 51 50 52 65 53 85 54 48 55 49 56
REMARK SMILES IDX 64 58 86 59 51 60 34 61 35 62 44 63 36 64 37 65 43 66 45 67
REMARK SMILES IDX 38 68 39 69 40 70 41 71 42 72 68 73 69 74 78 75 70 76 71 77
REMARK SMILES IDX 77 78 79 79 72 80 73 81 74 82 75 83 76 84 52 85 53 86 62 87
REMARK SMILES IDX 54 88 55 89 61 90 63 91 56 92 57 93 58 94 59 95 60 96
REMARK H PARENT 18 5 3 14 22 27 84 46 50 57
REMARK Flexibility Score: inf
ROOT
ATOM      1  C   UNL A   1      31.468  28.178  25.360  1.00  0.00     0.118 C 
ENDROOT
BRANCH   1   2
ATOM      2  N   UNL A   1      32.239  28.249  24.143  1.00  0.00    -0.349 N 
ATOM      3  C   UNL A   1      32.492  27.284  23.198  1.00  0.00     0.287 C 
ATOM      4  O   UNL A   1      33.167  27.642  22.235  1.00  0.00    -0.266 OA
ATOM      5  H   UNL A   1      32.648  29.126  23.960  1.00  0.00     0.163 HD
BRANCH   3   6
ATOM      6  C   UNL A   1      31.931  25.953  23.329  1.00  0.00     0.191 A 
ATOM      7  C   UNL A   1      32.179  23.753  23.323  1.00  0.00     0.161 A 
ATOM      8  C   UNL A   1      30.829  23.984  23.455  1.00  0.00     0.053 A 
ATOM      9  O   UNL A   1      32.843  24.938  23.286  1.00  0.00    -0.450 OA
ATOM     10  C   UNL A   1      30.676  25.395  23.499  1.00  0.00     0.057 A 
BRANCH   7  11
ATOM     11  C   UNL A   1      33.040  22.534  23.411  1.00  0.00     0.248 C 
ATOM     12  C   UNL A   1      32.219  21.393  22.806  1.00  0.00     0.084 C 
BRANCH  11  13
ATOM     13  N   UNL A   1      33.713  22.279  24.699  1.00  0.00    -0.324 N 
ATOM     14  H   UNL A   1      33.851  23.284  24.813  1.00  0.00     0.348 HD
BRANCH  13  15
ATOM     15  C   UNL A   1      33.035  22.125  25.984  1.00  0.00     0.259 C 
ATOM     16  C   UNL A   1      32.713  23.323  26.874  1.00  0.00     0.071 C 
ENDBRANCH  13  15
BRANCH  13  17
ATOM     17  C   UNL A   1      34.989  21.531  24.615  1.00  0.00     0.295 C 
BRANCH  17  18
ATOM     18  C   UNL A   1      36.413  22.166  24.490  1.00  0.00     0.173 C 
ATOM     19  C   UNL A   1      36.716  23.571  24.992  1.00  0.00     0.040 C 
ATOM     20  O   UNL A   1      37.430  21.293  25.012  1.00  0.00    -0.372 OA
ATOM     21  C   UNL A   1      37.825  23.403  26.002  1.00  0.00     0.031 C 
ATOM     22  C   UNL A   1      38.449  22.080  25.633  1.00  0.00     0.161 C 
ENDBRANCH  17  18
ENDBRANCH  13  17
ENDBRANCH  11  13
ENDBRANCH   7  11
ENDBRANCH   3   6
ENDBRANCH   1   2
BRANCH   1  23
ATOM     23  C   UNL A   1      32.212  27.377  26.423  1.00  0.00     0.042 C 
BRANCH  23  24
ATOM     24  C   UNL A   1      33.527  28.039  26.822  1.00  0.00     0.118 C 
BRANCH  24  25
ATOM     25  N   UNL A   1      33.349  29.466  27.056  1.00  0.00    -0.352 N 
ATOM     26  C   UNL A   1      34.140  30.342  27.752  1.00  0.00     0.251 C 
ATOM     27  H   UNL A   1      32.540  29.859  26.656  1.00  0.00     0.163 HD
ATOM     28  O   UNL A   1      33.678  31.421  28.109  1.00  0.00    -0.269 OA
BRANCH  26  29
ATOM     29  C   UNL A   1      35.542  29.990  28.063  1.00  0.00     0.039 A 
ATOM     30  C   UNL A   1      36.499  30.057  27.050  1.00  0.00     0.014 A 
ATOM     31  C   UNL A   1      35.898  29.549  29.341  1.00  0.00     0.014 A 
ATOM     32  C   UNL A   1      37.825  29.723  27.330  1.00  0.00     0.010 A 
ATOM     33  C   UNL A   1      37.231  29.291  29.639  1.00  0.00     0.010 A 
ATOM     34  C   UNL A   1      38.205  29.362  28.633  1.00  0.00    -0.014 A 
BRANCH  34  35
ATOM     35  C   UNL A   1      39.614  29.034  28.962  1.00  0.00     0.031 A 
ATOM     36  C   UNL A   1      40.504  30.079  29.578  1.00  0.00     0.074 A 
ATOM     37  C   UNL A   1      40.101  27.816  28.653  1.00  0.00     0.049 A 
ATOM     38  N   UNL A   1      41.782  30.022  29.847  1.00  0.00    -0.248 NA
ATOM     39  C   UNL A   1      39.880  31.371  29.913  1.00  0.00     0.031 C 
ATOM     40  C   UNL A   1      39.344  26.737  28.011  1.00  0.00     0.029 A 
ATOM     41  N   UNL A   1      41.354  27.283  28.821  1.00  0.00    -0.354 N 
ATOM     42  C   UNL A   1      42.115  31.263  30.377  1.00  0.00     0.074 A 
ATOM     43  C   UNL A   1      40.919  32.076  30.337  1.00  0.00     0.031 C 
ATOM     44  C   UNL A   1      40.143  25.670  27.854  1.00  0.00     0.029 A 
ATOM     45  C   UNL A   1      41.476  25.998  28.345  1.00  0.00     0.049 A 
ATOM     46  H   UNL A   1      42.096  27.774  29.243  1.00  0.00     0.167 HD
ATOM     47  C   UNL A   1      43.302  31.676  30.881  1.00  0.00     0.037 A 
ATOM     48  C   UNL A   1      42.549  25.185  28.297  1.00  0.00     0.037 A 
ATOM     49  C   UNL A   1      44.480  30.852  30.939  1.00  0.00     0.049 A 
ATOM     50  C   UNL A   1      43.859  25.674  28.855  1.00  0.00     0.074 A 
ATOM     51  C   UNL A   1      45.728  31.167  31.450  1.00  0.00     0.029 A 
ATOM     52  N   UNL A   1      44.554  29.545  30.480  1.00  0.00    -0.354 N 
ATOM     53  N   UNL A   1      44.144  26.838  29.389  1.00  0.00    -0.248 NA
ATOM     54  C   UNL A   1      44.992  24.739  28.813  1.00  0.00     0.031 C 
ATOM     55  C   UNL A   1      46.564  30.061  31.274  1.00  0.00     0.029 A 
ATOM     56  C   UNL A   1      45.826  29.041  30.693  1.00  0.00     0.049 A 
ATOM     57  H   UNL A   1      43.813  29.049  30.064  1.00  0.00     0.167 HD
ATOM     58  C   UNL A   1      45.478  26.763  29.775  1.00  0.00     0.074 A 
ATOM     59  C   UNL A   1      45.938  25.435  29.426  1.00  0.00     0.031 C 
ATOM     60  C   UNL A   1      46.255  27.707  30.359  1.00  0.00     0.037 A 
BRANCH  47  61
ATOM     61  C   UNL A   1      43.381  33.070  31.438  1.00  0.00     0.058 A 
ATOM     62  C   UNL A   1      43.100  33.332  32.789  1.00  0.00     0.135 A 
ATOM     63  C   UNL A   1      43.803  34.145  30.638  1.00  0.00     0.135 A 
ATOM     64  F   UNL A   1      42.674  32.346  33.593  1.00  0.00    -0.206 F 
ATOM     65  C   UNL A   1      43.222  34.610  33.324  1.00  0.00     0.059 A 
ATOM     66  C   UNL A   1      43.958  35.427  31.158  1.00  0.00     0.059 A 
ATOM     67  F   UNL A   1      44.081  33.952  29.339  1.00  0.00    -0.206 F 
ATOM     68  C   UNL A   1      43.659  35.650  32.502  1.00  0.00     0.060 A 
BRANCH  68  69
ATOM     69  S   UNL A   1      43.849  37.293  33.225  1.00  0.00     0.124 S 
ATOM     70  O   UNL A   1      43.823  38.139  32.036  1.00  0.00    -0.237 OA
ATOM     71  O   UNL A   1      42.682  37.387  34.095  1.00  0.00    -0.237 OA
ATOM     72  O   UNL A   1      45.134  37.216  33.912  1.00  0.00    -0.744 OA
ENDBRANCH  68  69
ENDBRANCH  47  61
BRANCH  48  73
ATOM     73  C   UNL A   1      42.439  23.826  27.702  1.00  0.00     0.058 A 
ATOM     74  C   UNL A   1      42.336  22.686  28.513  1.00  0.00     0.135 A 
ATOM     75  C   UNL A   1      42.462  23.637  26.312  1.00  0.00     0.135 A 
ATOM     76  F   UNL A   1      42.310  22.815  29.849  1.00  0.00    -0.206 F 
ATOM     77  C   UNL A   1      42.306  21.406  27.972  1.00  0.00     0.059 A 
ATOM     78  C   UNL A   1      42.403  22.368  25.744  1.00  0.00     0.059 A 
ATOM     79  F   UNL A   1      42.534  24.695  25.489  1.00  0.00    -0.206 F 
ATOM     80  C   UNL A   1      42.347  21.256  26.585  1.00  0.00     0.060 A 
BRANCH  80  81
ATOM     81  S   UNL A   1      42.310  19.591  25.888  1.00  0.00     0.124 S 
ATOM     82  O   UNL A   1      42.639  18.779  27.053  1.00  0.00    -0.237 OA
ATOM     83  O   UNL A   1      40.936  19.489  25.405  1.00  0.00    -0.237 OA
ATOM     84  O   UNL A   1      43.330  19.643  24.844  1.00  0.00    -0.744 OA
ENDBRANCH  80  81
ENDBRANCH  48  73
BRANCH  60  85
ATOM     85  C   UNL A   1      47.666  27.323  30.704  1.00  0.00     0.058 A 
ATOM     86  C   UNL A   1      47.970  26.599  31.867  1.00  0.00     0.135 A 
ATOM     87  C   UNL A   1      48.720  27.641  29.832  1.00  0.00     0.135 A 
ATOM     88  F   UNL A   1      46.999  26.277  32.736  1.00  0.00    -0.206 F 
ATOM     89  C   UNL A   1      49.276  26.225  32.167  1.00  0.00     0.059 A 
ATOM     90  C   UNL A   1      50.028  27.252  30.098  1.00  0.00     0.059 A 
ATOM     91  F   UNL A   1      48.480  28.323  28.701  1.00  0.00    -0.206 F 
ATOM     92  C   UNL A   1      50.298  26.555  31.275  1.00  0.00     0.060 A 
BRANCH  92  93
ATOM     93  S   UNL A   1      51.983  26.034  31.659  1.00  0.00     0.124 S 
ATOM     94  O   UNL A   1      51.750  24.764  32.339  1.00  0.00    -0.237 OA
ATOM     95  O   UNL A   1      52.591  25.942  30.335  1.00  0.00    -0.237 OA
ATOM     96  O   UNL A   1      52.489  27.114  32.501  1.00  0.00    -0.744 OA
ENDBRANCH  92  93
ENDBRANCH  60  85
ENDBRANCH  34  35
ENDBRANCH  26  29
ENDBRANCH  24  25
ENDBRANCH  23  24
ENDBRANCH   1  23
TORSDOF 18
ENDMDL
