MODEL 1
REMARK VINA RESULT:     -12.1      0.000      0.000
REMARK SMILES CCc1cc(/C=C/C(=O)NCCCNC(=O)c2ccc(-c3c4nc(c(-c5c(F)cc(S(=O)(=O)[O-])cc5F)c5ccc([nH]5)c(-c5c(F)cc(S(=O)(=O)[O-])cc5F)c5nc(c(-c6c(F)cc(S(=O)(=O)[O-])cc6F)c6ccc3[nH]6)C=C5)C=C4)cc2)cc(C(=O)c2ccccc2)c1
REMARK SMILES IDX 12 1 11 2 10 3 8 4 9 5 7 7 6 8 5 9 3 10 4 11 93 12 84 13
REMARK SMILES IDX 83 14 2 15 1 16 85 17 86 18 87 19 88 20 92 21 89 22 91 23
REMARK SMILES IDX 90 24 13 25 14 26 15 27 16 29 17 30 18 31 82 32 19 33 81 34
REMARK SMILES IDX 20 35 21 36 22 37 75 38 23 39 80 40 74 41 76 42 24 43 79 44
REMARK SMILES IDX 73 45 72 46 25 48 59 49 38 50 58 51 39 52 42 53 57 54 77 55
REMARK SMILES IDX 40 56 41 57 56 59 78 60 43 61 26 62 27 63 36 64 28 65 29 66
REMARK SMILES IDX 35 67 37 68 30 69 31 70 32 71 33 72 34 73 60 74 61 75 70 76
REMARK SMILES IDX 62 77 63 78 69 79 71 80 64 81 65 82 66 83 67 84 68 85 44 86
REMARK SMILES IDX 45 87 54 88 46 89 47 90 53 91 55 92 48 93 49 94 50 95 51 96
REMARK SMILES IDX 52 97
REMARK H PARENT 10 6 14 28 76 47 42 58
REMARK Flexibility Score: inf
ROOT
ATOM      1  C   UNL A   1      37.798  23.080  25.785  1.00  0.00     0.042 C 
ENDROOT
BRANCH   1   2
ATOM      2  C   UNL A   1      36.533  23.830  25.372  1.00  0.00     0.118 C 
BRANCH   2   3
ATOM      3  N   UNL A   1      35.944  23.275  24.166  1.00  0.00    -0.352 N 
ATOM      4  C   UNL A   1      34.843  23.649  23.463  1.00  0.00     0.244 C 
ATOM      5  O   UNL A   1      34.608  23.122  22.378  1.00  0.00    -0.270 OA
ATOM      6  H   UNL A   1      36.423  22.498  23.795  1.00  0.00     0.163 HD
BRANCH   4   7
ATOM      7  C   UNL A   1      33.959  24.737  23.936  1.00  0.00     0.072 C 
ATOM      8  C   UNL A   1      33.236  25.536  23.137  1.00  0.00     0.014 C 
BRANCH   8   9
ATOM      9  C   UNL A   1      32.423  26.661  23.612  1.00  0.00    -0.024 A 
ATOM     10  C   UNL A   1      30.595  28.261  23.298  1.00  0.00    -0.047 A 
ATOM     11  C   UNL A   1      31.424  27.235  22.814  1.00  0.00     0.011 A 
ATOM     12  C   UNL A   1      30.791  28.710  24.609  1.00  0.00     0.016 A 
ATOM     13  C   UNL A   1      31.758  28.119  25.435  1.00  0.00     0.023 A 
ATOM     14  C   UNL A   1      32.580  27.106  24.928  1.00  0.00     0.020 A 
BRANCH  10  15
ATOM     15  C   UNL A   1      29.506  28.785  22.390  1.00  0.00     0.032 C 
ATOM     16  C   UNL A   1      28.108  28.897  22.985  1.00  0.00     0.009 C 
ENDBRANCH  10  15
BRANCH  13  17
ATOM     17  C   UNL A   1      31.953  28.560  26.845  1.00  0.00     0.193 C 
ATOM     18  O   UNL A   1      31.208  28.136  27.724  1.00  0.00    -0.289 OA
BRANCH  17  19
ATOM     19  C   UNL A   1      33.067  29.468  27.214  1.00  0.00     0.022 A 
ATOM     20  C   UNL A   1      34.345  28.924  27.374  1.00  0.00     0.012 A 
ATOM     21  C   UNL A   1      32.863  30.843  27.385  1.00  0.00     0.012 A 
ATOM     22  C   UNL A   1      35.427  29.762  27.647  1.00  0.00     0.001 A 
ATOM     23  C   UNL A   1      33.949  31.677  27.656  1.00  0.00     0.001 A 
ATOM     24  C   UNL A   1      35.230  31.137  27.776  1.00  0.00     0.000 A 
ENDBRANCH  17  19
ENDBRANCH  13  17
ENDBRANCH   8   9
ENDBRANCH   4   7
ENDBRANCH   2   3
ENDBRANCH   1   2
BRANCH   1  25
ATOM     25  C   UNL A   1      38.725  23.890  26.687  1.00  0.00     0.118 C 
BRANCH  25  26
ATOM     26  N   UNL A   1      40.060  24.025  26.121  1.00  0.00    -0.352 N 
ATOM     27  C   UNL A   1      41.021  24.980  26.337  1.00  0.00     0.251 C 
ATOM     28  H   UNL A   1      40.312  23.319  25.483  1.00  0.00     0.163 HD
ATOM     29  O   UNL A   1      41.988  25.037  25.582  1.00  0.00    -0.269 OA
BRANCH  27  30
ATOM     30  C   UNL A   1      40.901  25.936  27.460  1.00  0.00     0.039 A 
ATOM     31  C   UNL A   1      41.801  27.004  27.534  1.00  0.00     0.014 A 
ATOM     32  C   UNL A   1      39.949  25.755  28.468  1.00  0.00     0.014 A 
ATOM     33  C   UNL A   1      41.716  27.913  28.592  1.00  0.00     0.010 A 
ATOM     34  C   UNL A   1      39.823  26.700  29.484  1.00  0.00     0.010 A 
ATOM     35  C   UNL A   1      40.711  27.783  29.562  1.00  0.00    -0.014 A 
BRANCH  35  36
ATOM     36  C   UNL A   1      40.577  28.764  30.669  1.00  0.00     0.031 A 
ATOM     37  C   UNL A   1      41.432  28.635  31.901  1.00  0.00     0.074 A 
ATOM     38  C   UNL A   1      39.643  29.731  30.590  1.00  0.00     0.049 A 
ATOM     39  N   UNL A   1      41.408  29.342  33.001  1.00  0.00    -0.248 NA
ATOM     40  C   UNL A   1      42.428  27.551  31.908  1.00  0.00     0.031 C 
ATOM     41  C   UNL A   1      38.725  29.929  29.465  1.00  0.00     0.029 A 
ATOM     42  N   UNL A   1      39.300  30.722  31.474  1.00  0.00    -0.354 N 
ATOM     43  C   UNL A   1      42.369  28.782  33.835  1.00  0.00     0.074 A 
ATOM     44  C   UNL A   1      42.925  27.646  33.133  1.00  0.00     0.031 C 
ATOM     45  C   UNL A   1      37.938  30.987  29.721  1.00  0.00     0.029 A 
ATOM     46  C   UNL A   1      38.268  31.519  31.039  1.00  0.00     0.049 A 
ATOM     47  H   UNL A   1      39.751  30.851  32.340  1.00  0.00     0.167 HD
ATOM     48  C   UNL A   1      42.768  29.191  35.064  1.00  0.00     0.037 A 
ATOM     49  C   UNL A   1      37.652  32.558  31.636  1.00  0.00     0.037 A 
ATOM     50  C   UNL A   1      42.228  30.340  35.744  1.00  0.00     0.049 A 
ATOM     51  C   UNL A   1      38.117  32.997  32.998  1.00  0.00     0.074 A 
ATOM     52  C   UNL A   1      42.599  30.870  36.968  1.00  0.00     0.029 A 
ATOM     53  N   UNL A   1      41.201  31.138  35.258  1.00  0.00    -0.354 N 
ATOM     54  N   UNL A   1      39.064  32.489  33.749  1.00  0.00    -0.248 NA
ATOM     55  C   UNL A   1      37.434  34.156  33.591  1.00  0.00     0.031 C 
ATOM     56  C   UNL A   1      41.772  31.966  37.238  1.00  0.00     0.029 A 
ATOM     57  C   UNL A   1      40.916  32.147  36.163  1.00  0.00     0.049 A 
ATOM     58  H   UNL A   1      40.744  31.006  34.396  1.00  0.00     0.167 HD
ATOM     59  C   UNL A   1      39.109  33.279  34.892  1.00  0.00     0.074 A 
ATOM     60  C   UNL A   1      38.102  34.308  34.726  1.00  0.00     0.031 C 
ATOM     61  C   UNL A   1      39.913  33.166  35.979  1.00  0.00     0.037 A 
BRANCH  48  62
ATOM     62  C   UNL A   1      43.844  28.393  35.749  1.00  0.00     0.058 A 
ATOM     63  C   UNL A   1      45.206  28.675  35.556  1.00  0.00     0.135 A 
ATOM     64  C   UNL A   1      43.511  27.354  36.634  1.00  0.00     0.135 A 
ATOM     65  F   UNL A   1      45.581  29.648  34.711  1.00  0.00    -0.206 F 
ATOM     66  C   UNL A   1      46.200  27.936  36.189  1.00  0.00     0.059 A 
ATOM     67  C   UNL A   1      44.489  26.619  37.300  1.00  0.00     0.059 A 
ATOM     68  F   UNL A   1      42.226  27.041  36.858  1.00  0.00    -0.206 F 
ATOM     69  C   UNL A   1      45.832  26.907  37.058  1.00  0.00     0.060 A 
BRANCH  69  70
ATOM     70  S   UNL A   1      47.134  25.957  37.871  1.00  0.00     0.124 S 
ATOM     71  O   UNL A   1      47.169  26.581  39.190  1.00  0.00    -0.237 OA
ATOM     72  O   UNL A   1      46.602  24.599  37.828  1.00  0.00    -0.237 OA
ATOM     73  O   UNL A   1      48.304  26.197  37.032  1.00  0.00    -0.744 OA
ENDBRANCH  69  70
ENDBRANCH  48  62
BRANCH  49  74
ATOM     74  C   UNL A   1      36.547  33.265  30.938  1.00  0.00     0.058 A 
ATOM     75  C   UNL A   1      35.218  33.119  31.362  1.00  0.00     0.135 A 
ATOM     76  C   UNL A   1      36.797  34.117  29.851  1.00  0.00     0.135 A 
ATOM     77  F   UNL A   1      34.928  32.311  32.393  1.00  0.00    -0.206 F 
ATOM     78  C   UNL A   1      34.172  33.777  30.722  1.00  0.00     0.059 A 
ATOM     79  C   UNL A   1      35.771  34.806  29.211  1.00  0.00     0.059 A 
ATOM     80  F   UNL A   1      38.053  34.305  29.419  1.00  0.00    -0.206 F 
ATOM     81  C   UNL A   1      34.460  34.622  29.648  1.00  0.00     0.060 A 
BRANCH  81  82
ATOM     82  S   UNL A   1      33.101  35.510  28.856  1.00  0.00     0.124 S 
ATOM     83  O   UNL A   1      32.363  36.006  30.010  1.00  0.00    -0.237 OA
ATOM     84  O   UNL A   1      33.809  36.516  28.070  1.00  0.00    -0.237 OA
ATOM     85  O   UNL A   1      32.434  34.472  28.076  1.00  0.00    -0.744 OA
ENDBRANCH  81  82
ENDBRANCH  49  74
BRANCH  61  86
ATOM     86  C   UNL A   1      39.758  34.198  37.061  1.00  0.00     0.058 A 
ATOM     87  C   UNL A   1      39.004  33.947  38.217  1.00  0.00     0.135 A 
ATOM     88  C   UNL A   1      40.417  35.435  36.960  1.00  0.00     0.135 A 
ATOM     89  F   UNL A   1      38.350  32.783  38.357  1.00  0.00    -0.206 F 
ATOM     90  C   UNL A   1      38.887  34.896  39.226  1.00  0.00     0.059 A 
ATOM     91  C   UNL A   1      40.335  36.388  37.970  1.00  0.00     0.059 A 
ATOM     92  F   UNL A   1      41.160  35.720  35.880  1.00  0.00    -0.206 F 
ATOM     93  C   UNL A   1      39.558  36.113  39.095  1.00  0.00     0.060 A 
BRANCH  93  94
ATOM     94  S   UNL A   1      39.426  37.324  40.429  1.00  0.00     0.124 S 
ATOM     95  O   UNL A   1      38.839  36.521  41.496  1.00  0.00    -0.237 OA
ATOM     96  O   UNL A   1      40.816  37.724  40.627  1.00  0.00    -0.237 OA
ATOM     97  O   UNL A   1      38.558  38.354  39.868  1.00  0.00    -0.744 OA
ENDBRANCH  93  94
ENDBRANCH  61  86
ENDBRANCH  35  36
ENDBRANCH  27  30
ENDBRANCH  25  26
ENDBRANCH   1  25
TORSDOF 17
ENDMDL
MODEL 2
REMARK VINA RESULT:     -12.0      3.669     10.026
REMARK SMILES CCc1cc(/C=C/C(=O)NCCCNC(=O)c2ccc(-c3c4nc(c(-c5c(F)cc(S(=O)(=O)[O-])cc5F)c5ccc([nH]5)c(-c5c(F)cc(S(=O)(=O)[O-])cc5F)c5nc(c(-c6c(F)cc(S(=O)(=O)[O-])cc6F)c6ccc3[nH]6)C=C5)C=C4)cc2)cc(C(=O)c2ccccc2)c1
REMARK SMILES IDX 12 1 11 2 10 3 8 4 9 5 7 7 6 8 5 9 3 10 4 11 93 12 84 13
REMARK SMILES IDX 83 14 2 15 1 16 85 17 86 18 87 19 88 20 92 21 89 22 91 23
REMARK SMILES IDX 90 24 13 25 14 26 15 27 16 29 17 30 18 31 82 32 19 33 81 34
REMARK SMILES IDX 20 35 21 36 22 37 75 38 23 39 80 40 74 41 76 42 24 43 79 44
REMARK SMILES IDX 73 45 72 46 25 48 59 49 38 50 58 51 39 52 42 53 57 54 77 55
REMARK SMILES IDX 40 56 41 57 56 59 78 60 43 61 26 62 27 63 36 64 28 65 29 66
REMARK SMILES IDX 35 67 37 68 30 69 31 70 32 71 33 72 34 73 60 74 61 75 70 76
REMARK SMILES IDX 62 77 63 78 69 79 71 80 64 81 65 82 66 83 67 84 68 85 44 86
REMARK SMILES IDX 45 87 54 88 46 89 47 90 53 91 55 92 48 93 49 94 50 95 51 96
REMARK SMILES IDX 52 97
REMARK H PARENT 10 6 14 28 76 47 42 58
REMARK Flexibility Score: inf
ROOT
ATOM      1  C   UNL A   1      33.187  27.290  26.046  1.00  0.00     0.042 C 
ENDROOT
BRANCH   1   2
ATOM      2  C   UNL A   1      32.190  27.089  24.906  1.00  0.00     0.118 C 
BRANCH   2   3
ATOM      3  N   UNL A   1      32.799  27.319  23.607  1.00  0.00    -0.352 N 
ATOM      4  C   UNL A   1      33.422  26.462  22.756  1.00  0.00     0.244 C 
ATOM      5  O   UNL A   1      33.738  26.846  21.632  1.00  0.00    -0.270 OA
ATOM      6  H   UNL A   1      32.754  28.250  23.291  1.00  0.00     0.163 HD
BRANCH   4   7
ATOM      7  C   UNL A   1      33.658  25.047  23.121  1.00  0.00     0.072 C 
ATOM      8  C   UNL A   1      34.630  24.622  23.942  1.00  0.00     0.014 C 
BRANCH   8   9
ATOM      9  C   UNL A   1      34.905  23.211  24.234  1.00  0.00    -0.024 A 
ATOM     10  C   UNL A   1      36.459  21.416  24.836  1.00  0.00    -0.047 A 
ATOM     11  C   UNL A   1      36.206  22.751  24.480  1.00  0.00     0.011 A 
ATOM     12  C   UNL A   1      35.373  20.538  24.937  1.00  0.00     0.016 A 
ATOM     13  C   UNL A   1      34.061  20.992  24.735  1.00  0.00     0.023 A 
ATOM     14  C   UNL A   1      33.834  22.323  24.371  1.00  0.00     0.020 A 
BRANCH  10  15
ATOM     15  C   UNL A   1      37.885  21.017  25.139  1.00  0.00     0.032 C 
ATOM     16  C   UNL A   1      38.717  21.999  25.954  1.00  0.00     0.009 C 
ENDBRANCH  10  15
BRANCH  13  17
ATOM     17  C   UNL A   1      32.891  20.079  24.876  1.00  0.00     0.193 C 
ATOM     18  O   UNL A   1      31.769  20.549  25.046  1.00  0.00    -0.289 OA
BRANCH  17  19
ATOM     19  C   UNL A   1      33.052  18.609  24.766  1.00  0.00     0.022 A 
ATOM     20  C   UNL A   1      32.764  17.821  25.885  1.00  0.00     0.012 A 
ATOM     21  C   UNL A   1      33.467  18.006  23.572  1.00  0.00     0.012 A 
ATOM     22  C   UNL A   1      32.834  16.431  25.792  1.00  0.00     0.001 A 
ATOM     23  C   UNL A   1      33.532  16.614  23.483  1.00  0.00     0.001 A 
ATOM     24  C   UNL A   1      33.206  15.829  24.589  1.00  0.00     0.000 A 
ENDBRANCH  17  19
ENDBRANCH  13  17
ENDBRANCH   8   9
ENDBRANCH   4   7
ENDBRANCH   2   3
ENDBRANCH   1   2
BRANCH   1  25
ATOM     25  C   UNL A   1      34.248  28.349  25.755  1.00  0.00     0.118 C 
BRANCH  25  26
ATOM     26  N   UNL A   1      33.829  29.676  26.182  1.00  0.00    -0.352 N 
ATOM     27  C   UNL A   1      34.298  30.466  27.201  1.00  0.00     0.251 C 
ATOM     28  H   UNL A   1      33.094  30.067  25.657  1.00  0.00     0.163 HD
ATOM     29  O   UNL A   1      33.649  31.453  27.539  1.00  0.00    -0.269 OA
BRANCH  27  30
ATOM     30  C   UNL A   1      35.565  30.141  27.892  1.00  0.00     0.039 A 
ATOM     31  C   UNL A   1      35.510  29.606  29.183  1.00  0.00     0.014 A 
ATOM     32  C   UNL A   1      36.803  30.413  27.302  1.00  0.00     0.014 A 
ATOM     33  C   UNL A   1      36.693  29.302  29.861  1.00  0.00     0.010 A 
ATOM     34  C   UNL A   1      37.979  30.047  27.953  1.00  0.00     0.010 A 
ATOM     35  C   UNL A   1      37.937  29.497  29.242  1.00  0.00    -0.014 A 
BRANCH  35  36
ATOM     36  C   UNL A   1      39.204  29.139  29.930  1.00  0.00     0.031 A 
ATOM     37  C   UNL A   1      39.646  29.904  31.148  1.00  0.00     0.074 A 
ATOM     38  C   UNL A   1      39.985  28.167  29.419  1.00  0.00     0.049 A 
ATOM     39  N   UNL A   1      40.751  29.794  31.837  1.00  0.00    -0.248 NA
ATOM     40  C   UNL A   1      38.735  30.950  31.642  1.00  0.00     0.031 C 
ATOM     41  C   UNL A   1      39.684  27.386  28.216  1.00  0.00     0.029 A 
ATOM     42  N   UNL A   1      41.197  27.677  29.836  1.00  0.00    -0.354 N 
ATOM     43  C   UNL A   1      40.679  30.762  32.832  1.00  0.00     0.074 A 
ATOM     44  C   UNL A   1      39.441  31.483  32.627  1.00  0.00     0.031 C 
ATOM     45  C   UNL A   1      40.675  26.504  28.006  1.00  0.00     0.029 A 
ATOM     46  C   UNL A   1      41.697  26.681  29.033  1.00  0.00     0.049 A 
ATOM     47  H   UNL A   1      41.665  28.009  30.636  1.00  0.00     0.167 HD
ATOM     48  C   UNL A   1      41.552  31.011  33.838  1.00  0.00     0.037 A 
ATOM     49  C   UNL A   1      42.851  25.991  29.109  1.00  0.00     0.037 A 
ATOM     50  C   UNL A   1      42.768  30.270  34.050  1.00  0.00     0.049 A 
ATOM     51  C   UNL A   1      43.802  26.282  30.239  1.00  0.00     0.074 A 
ATOM     52  C   UNL A   1      43.695  30.408  35.069  1.00  0.00     0.029 A 
ATOM     53  N   UNL A   1      43.227  29.249  33.229  1.00  0.00    -0.354 N 
ATOM     54  N   UNL A   1      43.691  27.165  31.202  1.00  0.00    -0.248 NA
ATOM     55  C   UNL A   1      45.031  25.478  30.296  1.00  0.00     0.031 C 
ATOM     56  C   UNL A   1      44.732  29.496  34.843  1.00  0.00     0.029 A 
ATOM     57  C   UNL A   1      44.430  28.758  33.709  1.00  0.00     0.049 A 
ATOM     58  H   UNL A   1      42.764  28.922  32.424  1.00  0.00     0.167 HD
ATOM     59  C   UNL A   1      44.823  27.007  31.995  1.00  0.00     0.074 A 
ATOM     60  C   UNL A   1      45.598  25.934  31.404  1.00  0.00     0.031 C 
ATOM     61  C   UNL A   1      45.186  27.686  33.111  1.00  0.00     0.037 A 
BRANCH  48  62
ATOM     62  C   UNL A   1      41.220  32.129  34.788  1.00  0.00     0.058 A 
ATOM     63  C   UNL A   1      41.602  33.455  34.528  1.00  0.00     0.135 A 
ATOM     64  C   UNL A   1      40.485  31.880  35.960  1.00  0.00     0.135 A 
ATOM     65  F   UNL A   1      42.318  33.749  33.432  1.00  0.00    -0.206 F 
ATOM     66  C   UNL A   1      41.296  34.488  35.408  1.00  0.00     0.059 A 
ATOM     67  C   UNL A   1      40.144  32.902  36.841  1.00  0.00     0.059 A 
ATOM     68  F   UNL A   1      40.092  30.632  36.258  1.00  0.00    -0.206 F 
ATOM     69  C   UNL A   1      40.568  34.202  36.565  1.00  0.00     0.060 A 
BRANCH  69  70
ATOM     70  S   UNL A   1      40.180  35.553  37.697  1.00  0.00     0.124 S 
ATOM     71  O   UNL A   1      40.131  36.692  36.785  1.00  0.00    -0.237 OA
ATOM     72  O   UNL A   1      38.898  35.134  38.255  1.00  0.00    -0.237 OA
ATOM     73  O   UNL A   1      41.301  35.546  38.632  1.00  0.00    -0.744 OA
ENDBRANCH  69  70
ENDBRANCH  48  62
BRANCH  49  74
ATOM     74  C   UNL A   1      43.158  24.943  28.100  1.00  0.00     0.058 A 
ATOM     75  C   UNL A   1      43.807  25.268  26.900  1.00  0.00     0.135 A 
ATOM     76  C   UNL A   1      42.829  23.597  28.322  1.00  0.00     0.135 A 
ATOM     77  F   UNL A   1      44.136  26.543  26.639  1.00  0.00    -0.206 F 
ATOM     78  C   UNL A   1      44.105  24.300  25.947  1.00  0.00     0.059 A 
ATOM     79  C   UNL A   1      43.139  22.606  27.395  1.00  0.00     0.059 A 
ATOM     80  F   UNL A   1      42.224  23.232  29.463  1.00  0.00    -0.206 F 
ATOM     81  C   UNL A   1      43.769  22.969  26.206  1.00  0.00     0.060 A 
BRANCH  81  82
ATOM     82  S   UNL A   1      44.204  21.712  24.984  1.00  0.00     0.124 S 
ATOM     83  O   UNL A   1      44.088  22.461  23.739  1.00  0.00    -0.237 OA
ATOM     84  O   UNL A   1      45.559  21.347  25.386  1.00  0.00    -0.237 OA
ATOM     85  O   UNL A   1      43.196  20.677  25.196  1.00  0.00    -0.744 OA
ENDBRANCH  81  82
ENDBRANCH  49  74
BRANCH  61  86
ATOM     86  C   UNL A   1      46.462  27.270  33.786  1.00  0.00     0.058 A 
ATOM     87  C   UNL A   1      47.690  27.875  33.479  1.00  0.00     0.135 A 
ATOM     88  C   UNL A   1      46.446  26.288  34.791  1.00  0.00     0.135 A 
ATOM     89  F   UNL A   1      47.760  28.814  32.522  1.00  0.00    -0.206 F 
ATOM     90  C   UNL A   1      48.863  27.504  34.127  1.00  0.00     0.059 A 
ATOM     91  C   UNL A   1      47.603  25.920  35.470  1.00  0.00     0.059 A 
ATOM     92  F   UNL A   1      45.295  25.686  35.130  1.00  0.00    -0.206 F 
ATOM     93  C   UNL A   1      48.810  26.526  35.122  1.00  0.00     0.060 A 
BRANCH  93  94
ATOM     94  S   UNL A   1      50.334  26.078  35.980  1.00  0.00     0.124 S 
ATOM     95  O   UNL A   1      50.143  24.646  36.188  1.00  0.00    -0.237 OA
ATOM     96  O   UNL A   1      51.360  26.447  35.010  1.00  0.00    -0.237 OA
ATOM     97  O   UNL A   1      50.298  26.898  37.187  1.00  0.00    -0.744 OA
ENDBRANCH  93  94
ENDBRANCH  61  86
ENDBRANCH  35  36
ENDBRANCH  27  30
ENDBRANCH  25  26
ENDBRANCH   1  25
TORSDOF 17
ENDMDL
MODEL 3
REMARK VINA RESULT:     -11.9      0.986      2.876
REMARK SMILES CCc1cc(/C=C/C(=O)NCCCNC(=O)c2ccc(-c3c4nc(c(-c5c(F)cc(S(=O)(=O)[O-])cc5F)c5ccc([nH]5)c(-c5c(F)cc(S(=O)(=O)[O-])cc5F)c5nc(c(-c6c(F)cc(S(=O)(=O)[O-])cc6F)c6ccc3[nH]6)C=C5)C=C4)cc2)cc(C(=O)c2ccccc2)c1
REMARK SMILES IDX 12 1 11 2 10 3 8 4 9 5 7 7 6 8 5 9 3 10 4 11 93 12 84 13
REMARK SMILES IDX 83 14 2 15 1 16 85 17 86 18 87 19 88 20 92 21 89 22 91 23
REMARK SMILES IDX 90 24 13 25 14 26 15 27 16 29 17 30 18 31 82 32 19 33 81 34
REMARK SMILES IDX 20 35 21 36 22 37 75 38 23 39 80 40 74 41 76 42 24 43 79 44
REMARK SMILES IDX 73 45 72 46 25 48 59 49 38 50 58 51 39 52 42 53 57 54 77 55
REMARK SMILES IDX 40 56 41 57 56 59 78 60 43 61 26 62 27 63 36 64 28 65 29 66
REMARK SMILES IDX 35 67 37 68 30 69 31 70 32 71 33 72 34 73 60 74 61 75 70 76
REMARK SMILES IDX 62 77 63 78 69 79 71 80 64 81 65 82 66 83 67 84 68 85 44 86
REMARK SMILES IDX 45 87 54 88 46 89 47 90 53 91 55 92 48 93 49 94 50 95 51 96
REMARK SMILES IDX 52 97
REMARK H PARENT 10 6 14 28 76 47 42 58
REMARK Flexibility Score: inf
ROOT
ATOM      1  C   UNL A   1      38.175  23.295  25.781  1.00  0.00     0.042 C 
ENDROOT
BRANCH   1   2
ATOM      2  C   UNL A   1      36.866  23.934  26.240  1.00  0.00     0.118 C 
BRANCH   2   3
ATOM      3  N   UNL A   1      35.711  23.151  25.836  1.00  0.00    -0.352 N 
ATOM      4  C   UNL A   1      34.520  23.535  25.307  1.00  0.00     0.244 C 
ATOM      5  O   UNL A   1      33.733  22.683  24.901  1.00  0.00    -0.270 OA
ATOM      6  H   UNL A   1      35.807  22.180  25.967  1.00  0.00     0.163 HD
BRANCH   4   7
ATOM      7  C   UNL A   1      34.177  24.965  25.134  1.00  0.00     0.072 C 
ATOM      8  C   UNL A   1      33.589  25.728  26.067  1.00  0.00     0.014 C 
BRANCH   8   9
ATOM      9  C   UNL A   1      33.183  27.121  25.857  1.00  0.00    -0.024 A 
ATOM     10  C   UNL A   1      33.242  29.485  26.497  1.00  0.00    -0.047 A 
ATOM     11  C   UNL A   1      33.566  28.140  26.741  1.00  0.00     0.011 A 
ATOM     12  C   UNL A   1      32.514  29.794  25.342  1.00  0.00     0.016 A 
ATOM     13  C   UNL A   1      32.159  28.793  24.426  1.00  0.00     0.023 A 
ATOM     14  C   UNL A   1      32.483  27.459  24.695  1.00  0.00     0.020 A 
BRANCH  10  15
ATOM     15  C   UNL A   1      33.742  30.527  27.472  1.00  0.00     0.032 C 
ATOM     16  C   UNL A   1      35.251  30.635  27.650  1.00  0.00     0.009 C 
ENDBRANCH  10  15
BRANCH  13  17
ATOM     17  C   UNL A   1      31.417  29.111  23.173  1.00  0.00     0.193 C 
ATOM     18  O   UNL A   1      32.016  29.138  22.101  1.00  0.00    -0.289 OA
BRANCH  17  19
ATOM     19  C   UNL A   1      29.953  29.348  23.192  1.00  0.00     0.022 A 
ATOM     20  C   UNL A   1      29.099  28.253  23.034  1.00  0.00     0.012 A 
ATOM     21  C   UNL A   1      29.423  30.631  23.378  1.00  0.00     0.012 A 
ATOM     22  C   UNL A   1      27.718  28.431  23.121  1.00  0.00     0.001 A 
ATOM     23  C   UNL A   1      28.041  30.804  23.467  1.00  0.00     0.001 A 
ATOM     24  C   UNL A   1      27.191  29.703  23.349  1.00  0.00     0.000 A 
ENDBRANCH  17  19
ENDBRANCH  13  17
ENDBRANCH   8   9
ENDBRANCH   4   7
ENDBRANCH   2   3
ENDBRANCH   1   2
BRANCH   1  25
ATOM     25  C   UNL A   1      39.309  23.421  26.795  1.00  0.00     0.118 C 
BRANCH  25  26
ATOM     26  N   UNL A   1      40.591  23.676  26.154  1.00  0.00    -0.352 N 
ATOM     27  C   UNL A   1      41.463  24.725  26.304  1.00  0.00     0.251 C 
ATOM     28  H   UNL A   1      40.877  22.987  25.512  1.00  0.00     0.163 HD
ATOM     29  O   UNL A   1      42.377  24.863  25.496  1.00  0.00    -0.269 OA
BRANCH  27  30
ATOM     30  C   UNL A   1      41.310  25.685  27.420  1.00  0.00     0.039 A 
ATOM     31  C   UNL A   1      42.356  26.571  27.694  1.00  0.00     0.014 A 
ATOM     32  C   UNL A   1      40.171  25.677  28.232  1.00  0.00     0.014 A 
ATOM     33  C   UNL A   1      42.241  27.477  28.750  1.00  0.00     0.010 A 
ATOM     34  C   UNL A   1      40.031  26.627  29.241  1.00  0.00     0.010 A 
ATOM     35  C   UNL A   1      41.067  27.530  29.517  1.00  0.00    -0.014 A 
BRANCH  35  36
ATOM     36  C   UNL A   1      40.908  28.518  30.616  1.00  0.00     0.031 A 
ATOM     37  C   UNL A   1      41.761  28.417  31.852  1.00  0.00     0.074 A 
ATOM     38  C   UNL A   1      39.953  29.464  30.526  1.00  0.00     0.049 A 
ATOM     39  N   UNL A   1      41.718  29.132  32.946  1.00  0.00    -0.248 NA
ATOM     40  C   UNL A   1      42.780  27.355  31.871  1.00  0.00     0.031 C 
ATOM     41  C   UNL A   1      39.035  29.632  29.396  1.00  0.00     0.029 A 
ATOM     42  N   UNL A   1      39.586  30.454  31.401  1.00  0.00    -0.354 N 
ATOM     43  C   UNL A   1      42.688  28.600  33.788  1.00  0.00     0.074 A 
ATOM     44  C   UNL A   1      43.270  27.470  33.096  1.00  0.00     0.031 C 
ATOM     45  C   UNL A   1      38.225  30.675  29.641  1.00  0.00     0.029 A 
ATOM     46  C   UNL A   1      38.539  31.225  30.956  1.00  0.00     0.049 A 
ATOM     47  H   UNL A   1      40.031  30.599  32.267  1.00  0.00     0.167 HD
ATOM     48  C   UNL A   1      43.073  29.027  35.014  1.00  0.00     0.037 A 
ATOM     49  C   UNL A   1      37.898  32.254  31.542  1.00  0.00     0.037 A 
ATOM     50  C   UNL A   1      42.506  30.169  35.683  1.00  0.00     0.049 A 
ATOM     51  C   UNL A   1      38.348  32.715  32.902  1.00  0.00     0.074 A 
ATOM     52  C   UNL A   1      42.861  30.717  36.904  1.00  0.00     0.029 A 
ATOM     53  N   UNL A   1      41.464  30.941  35.187  1.00  0.00    -0.354 N 
ATOM     54  N   UNL A   1      39.303  32.233  33.660  1.00  0.00    -0.248 NA
ATOM     55  C   UNL A   1      37.639  33.863  33.483  1.00  0.00     0.031 C 
ATOM     56  C   UNL A   1      42.009  31.797  37.162  1.00  0.00     0.029 A 
ATOM     57  C   UNL A   1      41.153  31.951  36.083  1.00  0.00     0.049 A 
ATOM     58  H   UNL A   1      41.013  30.792  34.325  1.00  0.00     0.167 HD
ATOM     59  C   UNL A   1      39.328  33.033  34.797  1.00  0.00     0.074 A 
ATOM     60  C   UNL A   1      38.299  34.039  34.619  1.00  0.00     0.031 C 
ATOM     61  C   UNL A   1      40.129  32.946  35.887  1.00  0.00     0.037 A 
BRANCH  48  62
ATOM     62  C   UNL A   1      44.164  28.259  35.710  1.00  0.00     0.058 A 
ATOM     63  C   UNL A   1      43.875  27.206  36.592  1.00  0.00     0.135 A 
ATOM     64  C   UNL A   1      45.516  28.558  35.470  1.00  0.00     0.135 A 
ATOM     65  F   UNL A   1      42.601  26.886  36.869  1.00  0.00    -0.206 F 
ATOM     66  C   UNL A   1      44.884  26.496  37.236  1.00  0.00     0.059 A 
ATOM     67  C   UNL A   1      46.542  27.843  36.082  1.00  0.00     0.059 A 
ATOM     68  F   UNL A   1      45.851  29.553  34.635  1.00  0.00    -0.206 F 
ATOM     69  C   UNL A   1      46.216  26.824  36.977  1.00  0.00     0.060 A 
BRANCH  69  70
ATOM     70  S   UNL A   1      47.513  25.896  37.821  1.00  0.00     0.124 S 
ATOM     71  O   UNL A   1      46.796  24.687  38.216  1.00  0.00    -0.237 OA
ATOM     72  O   UNL A   1      48.510  25.724  36.769  1.00  0.00    -0.237 OA
ATOM     73  O   UNL A   1      47.906  26.778  38.916  1.00  0.00    -0.744 OA
ENDBRANCH  69  70
ENDBRANCH  48  62
BRANCH  49  74
ATOM     74  C   UNL A   1      36.780  32.932  30.835  1.00  0.00     0.058 A 
ATOM     75  C   UNL A   1      35.446  32.607  31.119  1.00  0.00     0.135 A 
ATOM     76  C   UNL A   1      37.021  33.932  29.879  1.00  0.00     0.135 A 
ATOM     77  F   UNL A   1      35.165  31.654  32.020  1.00  0.00    -0.206 F 
ATOM     78  C   UNL A   1      34.388  33.234  30.469  1.00  0.00     0.059 A 
ATOM     79  C   UNL A   1      35.978  34.592  29.234  1.00  0.00     0.059 A 
ATOM     80  F   UNL A   1      38.279  34.293  29.584  1.00  0.00    -0.206 F 
ATOM     81  C   UNL A   1      34.665  34.229  29.529  1.00  0.00     0.060 A 
BRANCH  81  82
ATOM     82  S   UNL A   1      33.284  35.072  28.727  1.00  0.00     0.124 S 
ATOM     83  O   UNL A   1      33.973  36.113  27.974  1.00  0.00    -0.237 OA
ATOM     84  O   UNL A   1      32.687  34.000  27.936  1.00  0.00    -0.237 OA
ATOM     85  O   UNL A   1      32.476  35.534  29.851  1.00  0.00    -0.744 OA
ENDBRANCH  81  82
ENDBRANCH  49  74
BRANCH  61  86
ATOM     86  C   UNL A   1      39.949  33.983  36.961  1.00  0.00     0.058 A 
ATOM     87  C   UNL A   1      40.582  35.233  36.893  1.00  0.00     0.135 A 
ATOM     88  C   UNL A   1      39.090  33.738  38.045  1.00  0.00     0.135 A 
ATOM     89  F   UNL A   1      41.417  35.513  35.880  1.00  0.00    -0.206 F 
ATOM     90  C   UNL A   1      40.389  36.197  37.876  1.00  0.00     0.059 A 
ATOM     91  C   UNL A   1      38.863  34.699  39.026  1.00  0.00     0.059 A 
ATOM     92  F   UNL A   1      38.452  32.562  38.151  1.00  0.00    -0.206 F 
ATOM     93  C   UNL A   1      39.527  35.922  38.938  1.00  0.00     0.060 A 
BRANCH  93  94
ATOM     94  S   UNL A   1      39.258  37.195  40.190  1.00  0.00     0.124 S 
ATOM     95  O   UNL A   1      38.463  38.170  39.451  1.00  0.00    -0.237 OA
ATOM     96  O   UNL A   1      38.552  36.463  41.236  1.00  0.00    -0.237 OA
ATOM     97  O   UNL A   1      40.611  37.621  40.536  1.00  0.00    -0.744 OA
ENDBRANCH  93  94
ENDBRANCH  61  86
ENDBRANCH  35  36
ENDBRANCH  27  30
ENDBRANCH  25  26
ENDBRANCH   1  25
TORSDOF 17
ENDMDL
