MODEL 1
REMARK VINA RESULT:     -10.8      0.000      0.000
REMARK SMILES CC(C)C[C@@H](CNc1nccc(C(F)(F)F)n1)C(=O)NCCCNC(=O)c1ccc(-c2c3nc(c(-c4c(F)cc(S(=O)(=O)[O-])cc4F)c4ccc([nH]4)c(-c4c(F)cc(S(=O)(=O)[O-])cc4F)c4nc(c(-c5c(F)cc(S(=O)(=O)[O-])cc5F)c5ccc2[nH]5)C=C4)C=C3)cc1
REMARK SMILES IDX 21 1 20 2 18 3 19 4 5 6 4 7 2 8 1 9 3 10 6 11 7 12 8 14 9 15
REMARK SMILES IDX 17 16 10 17 12 18 11 19 13 20 14 21 15 22 16 23 22 24 23 25
REMARK SMILES IDX 24 26 25 27 26 29 27 30 28 31 92 32 29 33 91 34 30 35 31 36
REMARK SMILES IDX 32 37 85 38 33 39 90 40 84 41 86 42 34 43 89 44 83 45 82 46
REMARK SMILES IDX 35 48 69 49 48 50 68 51 49 52 52 53 67 54 87 55 50 56 51 57
REMARK SMILES IDX 66 59 88 60 53 61 36 62 37 63 46 64 38 65 39 66 45 67 47 68
REMARK SMILES IDX 40 69 41 70 42 71 43 72 44 73 70 74 71 75 80 76 72 77 73 78
REMARK SMILES IDX 79 79 81 80 74 81 75 82 76 83 77 84 78 85 54 86 55 87 64 88
REMARK SMILES IDX 56 89 57 90 63 91 65 92 58 93 59 94 60 95 61 96 62 97
REMARK H PARENT 20 5 7 13 24 28 86 47 52 58
REMARK Flexibility Score: inf
ROOT
ATOM      1  C   UNL A   1      34.738  24.474  25.435  1.00  0.00     0.117 C 
ENDROOT
BRANCH   1   2
ATOM      2  N   UNL A   1      33.631  24.541  26.365  1.00  0.00    -0.356 N 
ATOM      3  C   UNL A   1      32.434  23.898  26.337  1.00  0.00     0.224 C 
ATOM      4  O   UNL A   1      31.787  23.870  27.390  1.00  0.00    -0.275 OA
ATOM      5  H   UNL A   1      33.766  25.143  27.134  1.00  0.00     0.163 HD
BRANCH   3   6
ATOM      6  C   UNL A   1      31.861  23.253  25.073  1.00  0.00     0.098 C 
BRANCH   6   7
ATOM      7  C   UNL A   1      31.515  21.764  25.281  1.00  0.00     0.018 C 
BRANCH   7   8
ATOM      8  C   UNL A   1      32.263  20.752  24.395  1.00  0.00    -0.017 C 
ATOM      9  C   UNL A   1      32.397  21.224  22.949  1.00  0.00     0.007 C 
ATOM     10  C   UNL A   1      33.657  20.506  24.986  1.00  0.00     0.007 C 
ENDBRANCH   7   8
ENDBRANCH   6   7
BRANCH   6  11
ATOM     11  C   UNL A   1      30.865  24.158  24.322  1.00  0.00     0.129 C 
BRANCH  11  12
ATOM     12  N   UNL A   1      30.253  25.199  25.120  1.00  0.00    -0.353 N 
ATOM     13  H   UNL A   1      29.613  24.954  25.825  1.00  0.00     0.163 HD
BRANCH  12  14
ATOM     14  C   UNL A   1      30.553  26.521  24.909  1.00  0.00     0.223 A 
ATOM     15  N   UNL A   1      31.474  27.049  25.724  1.00  0.00    -0.222 NA
ATOM     16  N   UNL A   1      29.947  27.213  23.941  1.00  0.00    -0.209 NA
ATOM     17  C   UNL A   1      31.864  28.314  25.493  1.00  0.00     0.117 A 
ATOM     18  C   UNL A   1      30.286  28.522  23.787  1.00  0.00     0.149 A 
ATOM     19  C   UNL A   1      31.292  29.108  24.533  1.00  0.00     0.054 A 
BRANCH  18  20
ATOM     20  C   UNL A   1      29.467  29.382  22.841  1.00  0.00     0.433 C 
ATOM     21  F   UNL A   1      29.028  30.549  23.392  1.00  0.00    -0.165 F 
ATOM     22  F   UNL A   1      30.163  29.733  21.720  1.00  0.00    -0.165 F 
ATOM     23  F   UNL A   1      28.343  28.753  22.381  1.00  0.00    -0.165 F 
ENDBRANCH  18  20
ENDBRANCH  12  14
ENDBRANCH  11  12
ENDBRANCH   6  11
ENDBRANCH   3   6
ENDBRANCH   1   2
BRANCH   1  24
ATOM     24  C   UNL A   1      35.830  23.502  25.831  1.00  0.00     0.042 C 
BRANCH  24  25
ATOM     25  C   UNL A   1      37.041  23.585  24.917  1.00  0.00     0.118 C 
BRANCH  25  26
ATOM     26  N   UNL A   1      38.127  22.697  25.337  1.00  0.00    -0.352 N 
ATOM     27  C   UNL A   1      39.254  22.952  26.085  1.00  0.00     0.251 C 
ATOM     28  H   UNL A   1      38.037  21.765  25.032  1.00  0.00     0.163 HD
ATOM     29  O   UNL A   1      40.144  22.116  26.159  1.00  0.00    -0.269 OA
BRANCH  27  30
ATOM     30  C   UNL A   1      39.380  24.254  26.773  1.00  0.00     0.039 A 
ATOM     31  C   UNL A   1      38.826  24.424  28.045  1.00  0.00     0.014 A 
ATOM     32  C   UNL A   1      40.099  25.286  26.174  1.00  0.00     0.014 A 
ATOM     33  C   UNL A   1      39.094  25.595  28.759  1.00  0.00     0.010 A 
ATOM     34  C   UNL A   1      40.460  26.392  26.927  1.00  0.00     0.010 A 
ATOM     35  C   UNL A   1      39.965  26.560  28.229  1.00  0.00    -0.014 A 
BRANCH  35  36
ATOM     36  C   UNL A   1      40.389  27.765  28.985  1.00  0.00     0.031 A 
ATOM     37  C   UNL A   1      41.683  27.729  29.754  1.00  0.00     0.074 A 
ATOM     38  C   UNL A   1      39.558  28.821  29.100  1.00  0.00     0.049 A 
ATOM     39  N   UNL A   1      42.125  28.547  30.671  1.00  0.00    -0.248 NA
ATOM     40  C   UNL A   1      42.571  26.582  29.493  1.00  0.00     0.031 C 
ATOM     41  C   UNL A   1      38.254  28.955  28.448  1.00  0.00     0.029 A 
ATOM     42  N   UNL A   1      39.679  29.976  29.833  1.00  0.00    -0.354 N 
ATOM     43  C   UNL A   1      43.310  27.987  31.134  1.00  0.00     0.074 A 
ATOM     44  C   UNL A   1      43.495  26.739  30.428  1.00  0.00     0.031 C 
ATOM     45  C   UNL A   1      37.704  30.130  28.797  1.00  0.00     0.029 A 
ATOM     46  C   UNL A   1      38.590  30.811  29.734  1.00  0.00     0.049 A 
ATOM     47  H   UNL A   1      40.471  30.186  30.380  1.00  0.00     0.167 HD
ATOM     48  C   UNL A   1      44.177  28.480  32.050  1.00  0.00     0.037 A 
ATOM     49  C   UNL A   1      38.329  31.983  30.345  1.00  0.00     0.037 A 
ATOM     50  C   UNL A   1      44.018  29.756  32.694  1.00  0.00     0.049 A 
ATOM     51  C   UNL A   1      39.337  32.542  31.312  1.00  0.00     0.074 A 
ATOM     52  C   UNL A   1      44.871  30.383  33.584  1.00  0.00     0.029 A 
ATOM     53  N   UNL A   1      42.943  30.610  32.495  1.00  0.00    -0.354 N 
ATOM     54  N   UNL A   1      40.468  32.016  31.716  1.00  0.00    -0.248 NA
ATOM     55  C   UNL A   1      39.038  33.855  31.903  1.00  0.00     0.031 C 
ATOM     56  C   UNL A   1      44.302  31.611  33.938  1.00  0.00     0.029 A 
ATOM     57  C   UNL A   1      43.112  31.761  33.243  1.00  0.00     0.049 A 
ATOM     58  H   UNL A   1      42.174  30.424  31.911  1.00  0.00     0.167 HD
ATOM     59  C   UNL A   1      41.032  32.946  32.581  1.00  0.00     0.074 A 
ATOM     60  C   UNL A   1      40.117  34.068  32.644  1.00  0.00     0.031 C 
ATOM     61  C   UNL A   1      42.203  32.879  33.261  1.00  0.00     0.037 A 
BRANCH  48  62
ATOM     62  C   UNL A   1      45.376  27.642  32.394  1.00  0.00     0.058 A 
ATOM     63  C   UNL A   1      45.351  26.723  33.457  1.00  0.00     0.135 A 
ATOM     64  C   UNL A   1      46.561  27.748  31.648  1.00  0.00     0.135 A 
ATOM     65  F   UNL A   1      44.251  26.596  34.214  1.00  0.00    -0.206 F 
ATOM     66  C   UNL A   1      46.470  25.969  33.792  1.00  0.00     0.059 A 
ATOM     67  C   UNL A   1      47.683  26.980  31.947  1.00  0.00     0.059 A 
ATOM     68  F   UNL A   1      46.639  28.610  30.622  1.00  0.00    -0.206 F 
ATOM     69  C   UNL A   1      47.633  26.108  33.033  1.00  0.00     0.060 A 
BRANCH  69  70
ATOM     70  S   UNL A   1      49.079  25.126  33.482  1.00  0.00     0.124 S 
ATOM     71  O   UNL A   1      49.745  24.985  32.191  1.00  0.00    -0.237 OA
ATOM     72  O   UNL A   1      49.754  25.984  34.451  1.00  0.00    -0.237 OA
ATOM     73  O   UNL A   1      48.502  23.902  34.028  1.00  0.00    -0.744 OA
ENDBRANCH  69  70
ENDBRANCH  48  62
BRANCH  49  74
ATOM     74  C   UNL A   1      37.075  32.719  30.035  1.00  0.00     0.058 A 
ATOM     75  C   UNL A   1      35.896  32.450  30.745  1.00  0.00     0.135 A 
ATOM     76  C   UNL A   1      37.032  33.715  29.047  1.00  0.00     0.135 A 
ATOM     77  F   UNL A   1      35.888  31.504  31.697  1.00  0.00    -0.206 F 
ATOM     78  C   UNL A   1      34.713  33.130  30.479  1.00  0.00     0.059 A 
ATOM     79  C   UNL A   1      35.864  34.424  28.777  1.00  0.00     0.059 A 
ATOM     80  F   UNL A   1      38.138  34.024  28.354  1.00  0.00    -0.206 F 
ATOM     81  C   UNL A   1      34.707  34.117  29.492  1.00  0.00     0.060 A 
BRANCH  81  82
ATOM     82  S   UNL A   1      33.178  35.030  29.189  1.00  0.00     0.124 S 
ATOM     83  O   UNL A   1      33.691  36.317  28.732  1.00  0.00    -0.237 OA
ATOM     84  O   UNL A   1      32.522  34.207  28.178  1.00  0.00    -0.237 OA
ATOM     85  O   UNL A   1      32.529  35.037  30.497  1.00  0.00    -0.744 OA
ENDBRANCH  81  82
ENDBRANCH  49  74
BRANCH  61  86
ATOM     86  C   UNL A   1      42.599  34.069  34.084  1.00  0.00     0.058 A 
ATOM     87  C   UNL A   1      42.240  34.185  35.434  1.00  0.00     0.135 A 
ATOM     88  C   UNL A   1      43.429  35.059  33.533  1.00  0.00     0.135 A 
ATOM     89  F   UNL A   1      41.442  33.266  36.002  1.00  0.00    -0.206 F 
ATOM     90  C   UNL A   1      42.688  35.245  36.212  1.00  0.00     0.059 A 
ATOM     91  C   UNL A   1      43.906  36.117  34.299  1.00  0.00     0.059 A 
ATOM     92  F   UNL A   1      43.806  34.986  32.247  1.00  0.00    -0.206 F 
ATOM     93  C   UNL A   1      43.527  36.203  35.638  1.00  0.00     0.060 A 
BRANCH  93  94
ATOM     94  S   UNL A   1      44.160  37.538  36.677  1.00  0.00     0.124 S 
ATOM     95  O   UNL A   1      44.137  38.666  35.751  1.00  0.00    -0.237 OA
ATOM     96  O   UNL A   1      43.181  37.584  37.759  1.00  0.00    -0.237 OA
ATOM     97  O   UNL A   1      45.487  37.067  37.061  1.00  0.00    -0.744 OA
ENDBRANCH  93  94
ENDBRANCH  61  86
ENDBRANCH  35  36
ENDBRANCH  27  30
ENDBRANCH  25  26
ENDBRANCH  24  25
ENDBRANCH   1  24
TORSDOF 19
ENDMDL
MODEL 2
REMARK VINA RESULT:     -10.7      3.177      9.074
REMARK SMILES CC(C)C[C@@H](CNc1nccc(C(F)(F)F)n1)C(=O)NCCCNC(=O)c1ccc(-c2c3nc(c(-c4c(F)cc(S(=O)(=O)[O-])cc4F)c4ccc([nH]4)c(-c4c(F)cc(S(=O)(=O)[O-])cc4F)c4nc(c(-c5c(F)cc(S(=O)(=O)[O-])cc5F)c5ccc2[nH]5)C=C4)C=C3)cc1
REMARK SMILES IDX 21 1 20 2 18 3 19 4 5 6 4 7 2 8 1 9 3 10 6 11 7 12 8 14 9 15
REMARK SMILES IDX 17 16 10 17 12 18 11 19 13 20 14 21 15 22 16 23 22 24 23 25
REMARK SMILES IDX 24 26 25 27 26 29 27 30 28 31 92 32 29 33 91 34 30 35 31 36
REMARK SMILES IDX 32 37 85 38 33 39 90 40 84 41 86 42 34 43 89 44 83 45 82 46
REMARK SMILES IDX 35 48 69 49 48 50 68 51 49 52 52 53 67 54 87 55 50 56 51 57
REMARK SMILES IDX 66 59 88 60 53 61 36 62 37 63 46 64 38 65 39 66 45 67 47 68
REMARK SMILES IDX 40 69 41 70 42 71 43 72 44 73 70 74 71 75 80 76 72 77 73 78
REMARK SMILES IDX 79 79 81 80 74 81 75 82 76 83 77 84 78 85 54 86 55 87 64 88
REMARK SMILES IDX 56 89 57 90 63 91 65 92 58 93 59 94 60 95 61 96 62 97
REMARK H PARENT 20 5 7 13 24 28 86 47 52 58
REMARK Flexibility Score: inf
ROOT
ATOM      1  C   UNL A   1      32.320  26.623  26.474  1.00  0.00     0.117 C 
ENDROOT
BRANCH   1   2
ATOM      2  N   UNL A   1      31.131  25.851  26.766  1.00  0.00    -0.356 N 
ATOM      3  C   UNL A   1      30.846  24.554  26.476  1.00  0.00     0.224 C 
ATOM      4  O   UNL A   1      29.913  24.032  27.096  1.00  0.00    -0.275 OA
ATOM      5  H   UNL A   1      30.423  26.339  27.248  1.00  0.00     0.163 HD
BRANCH   3   6
ATOM      6  C   UNL A   1      31.600  23.749  25.414  1.00  0.00     0.098 C 
BRANCH   6   7
ATOM      7  C   UNL A   1      31.876  22.300  25.864  1.00  0.00     0.018 C 
BRANCH   7   8
ATOM      8  C   UNL A   1      33.353  21.892  26.004  1.00  0.00    -0.017 C 
ATOM      9  C   UNL A   1      33.861  21.100  24.801  1.00  0.00     0.007 C 
ATOM     10  C   UNL A   1      34.204  23.155  26.184  1.00  0.00     0.007 C 
ENDBRANCH   7   8
ENDBRANCH   6   7
BRANCH   6  11
ATOM     11  C   UNL A   1      31.097  24.009  23.980  1.00  0.00     0.129 C 
BRANCH  11  12
ATOM     12  N   UNL A   1      32.063  24.611  23.086  1.00  0.00    -0.353 N 
ATOM     13  H   UNL A   1      32.645  24.032  22.543  1.00  0.00     0.163 HD
BRANCH  12  14
ATOM     14  C   UNL A   1      32.179  25.973  22.982  1.00  0.00     0.223 A 
ATOM     15  N   UNL A   1      33.424  26.460  23.022  1.00  0.00    -0.222 NA
ATOM     16  N   UNL A   1      31.095  26.742  22.847  1.00  0.00    -0.209 NA
ATOM     17  C   UNL A   1      33.588  27.780  22.831  1.00  0.00     0.117 A 
ATOM     18  C   UNL A   1      31.277  28.088  22.753  1.00  0.00     0.149 A 
ATOM     19  C   UNL A   1      32.538  28.652  22.698  1.00  0.00     0.054 A 
BRANCH  18  20
ATOM     20  C   UNL A   1      30.061  28.995  22.812  1.00  0.00     0.433 C 
ATOM     21  F   UNL A   1      28.872  28.329  22.828  1.00  0.00    -0.165 F 
ATOM     22  F   UNL A   1      30.060  29.793  23.920  1.00  0.00    -0.165 F 
ATOM     23  F   UNL A   1      29.980  29.856  21.753  1.00  0.00    -0.165 F 
ENDBRANCH  18  20
ENDBRANCH  12  14
ENDBRANCH  11  12
ENDBRANCH   6  11
ENDBRANCH   3   6
ENDBRANCH   1   2
BRANCH   1  24
ATOM     24  C   UNL A   1      32.429  27.921  27.247  1.00  0.00     0.042 C 
BRANCH  24  25
ATOM     25  C   UNL A   1      33.671  28.714  26.880  1.00  0.00     0.118 C 
BRANCH  25  26
ATOM     26  N   UNL A   1      33.700  30.040  27.500  1.00  0.00    -0.352 N 
ATOM     27  C   UNL A   1      34.667  30.649  28.267  1.00  0.00     0.251 C 
ATOM     28  H   UNL A   1      32.894  30.584  27.343  1.00  0.00     0.163 HD
ATOM     29  O   UNL A   1      34.415  31.690  28.858  1.00  0.00    -0.269 OA
BRANCH  27  30
ATOM     30  C   UNL A   1      35.998  30.016  28.383  1.00  0.00     0.039 A 
ATOM     31  C   UNL A   1      36.903  30.105  27.323  1.00  0.00     0.014 A 
ATOM     32  C   UNL A   1      36.360  29.381  29.569  1.00  0.00     0.014 A 
ATOM     33  C   UNL A   1      38.214  29.656  27.502  1.00  0.00     0.010 A 
ATOM     34  C   UNL A   1      37.688  29.045  29.783  1.00  0.00     0.010 A 
ATOM     35  C   UNL A   1      38.632  29.179  28.755  1.00  0.00    -0.014 A 
BRANCH  35  36
ATOM     36  C   UNL A   1      40.038  28.803  29.046  1.00  0.00     0.031 A 
ATOM     37  C   UNL A   1      40.980  29.849  29.581  1.00  0.00     0.074 A 
ATOM     38  C   UNL A   1      40.500  27.584  28.700  1.00  0.00     0.049 A 
ATOM     39  N   UNL A   1      42.283  29.824  29.668  1.00  0.00    -0.248 NA
ATOM     40  C   UNL A   1      40.372  31.117  30.023  1.00  0.00     0.031 C 
ATOM     41  C   UNL A   1      39.701  26.501  28.123  1.00  0.00     0.029 A 
ATOM     42  N   UNL A   1      41.768  27.061  28.758  1.00  0.00    -0.354 N 
ATOM     43  C   UNL A   1      42.653  31.085  30.120  1.00  0.00     0.074 A 
ATOM     44  C   UNL A   1      41.442  31.864  30.247  1.00  0.00     0.031 C 
ATOM     45  C   UNL A   1      40.492  25.439  27.897  1.00  0.00     0.029 A 
ATOM     46  C   UNL A   1      41.862  25.781  28.264  1.00  0.00     0.049 A 
ATOM     47  H   UNL A   1      42.539  27.556  29.119  1.00  0.00     0.167 HD
ATOM     48  C   UNL A   1      43.890  31.546  30.423  1.00  0.00     0.037 A 
ATOM     49  C   UNL A   1      42.934  24.980  28.108  1.00  0.00     0.037 A 
ATOM     50  C   UNL A   1      45.079  30.740  30.360  1.00  0.00     0.049 A 
ATOM     51  C   UNL A   1      44.291  25.491  28.511  1.00  0.00     0.074 A 
ATOM     52  C   UNL A   1      46.372  31.084  30.711  1.00  0.00     0.029 A 
ATOM     53  N   UNL A   1      45.113  29.418  29.938  1.00  0.00    -0.354 N 
ATOM     54  N   UNL A   1      44.620  26.676  28.967  1.00  0.00    -0.248 NA
ATOM     55  C   UNL A   1      45.420  24.559  28.383  1.00  0.00     0.031 C 
ATOM     56  C   UNL A   1      47.193  29.974  30.484  1.00  0.00     0.029 A 
ATOM     57  C   UNL A   1      46.405  28.931  30.024  1.00  0.00     0.049 A 
ATOM     58  H   UNL A   1      44.335  28.905  29.624  1.00  0.00     0.167 HD
ATOM     59  C   UNL A   1      45.988  26.621  29.212  1.00  0.00     0.074 A 
ATOM     60  C   UNL A   1      46.424  25.287  28.853  1.00  0.00     0.031 C 
ATOM     61  C   UNL A   1      46.807  27.587  29.694  1.00  0.00     0.037 A 
BRANCH  48  62
ATOM     62  C   UNL A   1      44.011  32.979  30.861  1.00  0.00     0.058 A 
ATOM     63  C   UNL A   1      44.329  34.001  29.952  1.00  0.00     0.135 A 
ATOM     64  C   UNL A   1      43.796  33.336  32.201  1.00  0.00     0.135 A 
ATOM     65  F   UNL A   1      44.563  33.711  28.663  1.00  0.00    -0.206 F 
ATOM     66  C   UNL A   1      44.468  35.322  30.364  1.00  0.00     0.059 A 
ATOM     67  C   UNL A   1      43.900  34.657  32.630  1.00  0.00     0.059 A 
ATOM     68  F   UNL A   1      43.490  32.399  33.112  1.00  0.00    -0.206 F 
ATOM     69  C   UNL A   1      44.255  35.639  31.706  1.00  0.00     0.060 A 
BRANCH  69  70
ATOM     70  S   UNL A   1      44.445  37.356  32.228  1.00  0.00     0.124 S 
ATOM     71  O   UNL A   1      43.754  37.345  33.514  1.00  0.00    -0.237 OA
ATOM     72  O   UNL A   1      45.894  37.509  32.289  1.00  0.00    -0.237 OA
ATOM     73  O   UNL A   1      43.782  38.108  31.167  1.00  0.00    -0.744 OA
ENDBRANCH  69  70
ENDBRANCH  48  62
BRANCH  49  74
ATOM     74  C   UNL A   1      42.763  23.603  27.576  1.00  0.00     0.058 A 
ATOM     75  C   UNL A   1      42.538  22.524  28.445  1.00  0.00     0.135 A 
ATOM     76  C   UNL A   1      42.797  23.337  26.198  1.00  0.00     0.135 A 
ATOM     77  F   UNL A   1      42.501  22.729  29.770  1.00  0.00    -0.206 F 
ATOM     78  C   UNL A   1      42.368  21.229  27.970  1.00  0.00     0.059 A 
ATOM     79  C   UNL A   1      42.608  22.051  25.698  1.00  0.00     0.059 A 
ATOM     80  F   UNL A   1      42.988  24.338  25.325  1.00  0.00    -0.206 F 
ATOM     81  C   UNL A   1      42.403  21.002  26.594  1.00  0.00     0.060 A 
BRANCH  81  82
ATOM     82  S   UNL A   1      42.130  19.323  25.985  1.00  0.00     0.124 S 
ATOM     83  O   UNL A   1      40.684  19.313  25.794  1.00  0.00    -0.237 OA
ATOM     84  O   UNL A   1      42.936  19.301  24.768  1.00  0.00    -0.237 OA
ATOM     85  O   UNL A   1      42.630  18.488  27.074  1.00  0.00    -0.744 OA
ENDBRANCH  81  82
ENDBRANCH  49  74
BRANCH  61  86
ATOM     86  C   UNL A   1      48.247  27.229  29.922  1.00  0.00     0.058 A 
ATOM     87  C   UNL A   1      49.212  27.381  28.917  1.00  0.00     0.135 A 
ATOM     88  C   UNL A   1      48.675  26.817  31.194  1.00  0.00     0.135 A 
ATOM     89  F   UNL A   1      48.849  27.766  27.683  1.00  0.00    -0.206 F 
ATOM     90  C   UNL A   1      50.557  27.133  29.165  1.00  0.00     0.059 A 
ATOM     91  C   UNL A   1      50.017  26.584  31.470  1.00  0.00     0.059 A 
ATOM     92  F   UNL A   1      47.787  26.666  32.189  1.00  0.00    -0.206 F 
ATOM     93  C   UNL A   1      50.952  26.742  30.446  1.00  0.00     0.060 A 
BRANCH  93  94
ATOM     94  S   UNL A   1      52.709  26.492  30.776  1.00  0.00     0.124 S 
ATOM     95  O   UNL A   1      53.233  26.282  29.431  1.00  0.00    -0.237 OA
ATOM     96  O   UNL A   1      53.090  27.748  31.416  1.00  0.00    -0.237 OA
ATOM     97  O   UNL A   1      52.727  25.322  31.648  1.00  0.00    -0.744 OA
ENDBRANCH  93  94
ENDBRANCH  61  86
ENDBRANCH  35  36
ENDBRANCH  27  30
ENDBRANCH  25  26
ENDBRANCH  24  25
ENDBRANCH   1  24
TORSDOF 19
ENDMDL
MODEL 3
REMARK VINA RESULT:     -10.4      1.214      2.078
REMARK SMILES CC(C)C[C@@H](CNc1nccc(C(F)(F)F)n1)C(=O)NCCCNC(=O)c1ccc(-c2c3nc(c(-c4c(F)cc(S(=O)(=O)[O-])cc4F)c4ccc([nH]4)c(-c4c(F)cc(S(=O)(=O)[O-])cc4F)c4nc(c(-c5c(F)cc(S(=O)(=O)[O-])cc5F)c5ccc2[nH]5)C=C4)C=C3)cc1
REMARK SMILES IDX 21 1 20 2 18 3 19 4 5 6 4 7 2 8 1 9 3 10 6 11 7 12 8 14 9 15
REMARK SMILES IDX 17 16 10 17 12 18 11 19 13 20 14 21 15 22 16 23 22 24 23 25
REMARK SMILES IDX 24 26 25 27 26 29 27 30 28 31 92 32 29 33 91 34 30 35 31 36
REMARK SMILES IDX 32 37 85 38 33 39 90 40 84 41 86 42 34 43 89 44 83 45 82 46
REMARK SMILES IDX 35 48 69 49 48 50 68 51 49 52 52 53 67 54 87 55 50 56 51 57
REMARK SMILES IDX 66 59 88 60 53 61 36 62 37 63 46 64 38 65 39 66 45 67 47 68
REMARK SMILES IDX 40 69 41 70 42 71 43 72 44 73 70 74 71 75 80 76 72 77 73 78
REMARK SMILES IDX 79 79 81 80 74 81 75 82 76 83 77 84 78 85 54 86 55 87 64 88
REMARK SMILES IDX 56 89 57 90 63 91 65 92 58 93 59 94 60 95 61 96 62 97
REMARK H PARENT 20 5 7 13 24 28 86 47 52 58
REMARK Flexibility Score: inf
ROOT
ATOM      1  C   UNL A   1      35.493  23.220  23.541  1.00  0.00     0.117 C 
ENDROOT
BRANCH   1   2
ATOM      2  N   UNL A   1      34.173  22.694  23.268  1.00  0.00    -0.356 N 
ATOM      3  C   UNL A   1      32.993  23.351  23.107  1.00  0.00     0.224 C 
ATOM      4  O   UNL A   1      32.070  22.725  22.575  1.00  0.00    -0.275 OA
ATOM      5  H   UNL A   1      34.121  21.713  23.187  1.00  0.00     0.163 HD
BRANCH   3   6
ATOM      6  C   UNL A   1      32.766  24.789  23.579  1.00  0.00     0.098 C 
BRANCH   6   7
ATOM      7  C   UNL A   1      33.256  25.015  25.024  1.00  0.00     0.018 C 
BRANCH   7   8
ATOM      8  C   UNL A   1      32.189  24.953  26.131  1.00  0.00    -0.017 C 
ATOM      9  C   UNL A   1      30.785  25.262  25.613  1.00  0.00     0.007 C 
ATOM     10  C   UNL A   1      32.206  23.556  26.763  1.00  0.00     0.007 C 
ENDBRANCH   7   8
ENDBRANCH   6   7
BRANCH   6  11
ATOM     11  C   UNL A   1      33.089  25.844  22.502  1.00  0.00     0.129 C 
BRANCH  11  12
ATOM     12  N   UNL A   1      31.942  26.518  21.934  1.00  0.00    -0.353 N 
ATOM     13  H   UNL A   1      31.580  26.214  21.071  1.00  0.00     0.163 HD
BRANCH  12  14
ATOM     14  C   UNL A   1      31.349  27.573  22.580  1.00  0.00     0.223 A 
ATOM     15  N   UNL A   1      32.052  28.115  23.582  1.00  0.00    -0.222 NA
ATOM     16  N   UNL A   1      30.143  28.010  22.209  1.00  0.00    -0.209 NA
ATOM     17  C   UNL A   1      31.548  29.209  24.180  1.00  0.00     0.117 A 
ATOM     18  C   UNL A   1      29.608  29.058  22.894  1.00  0.00     0.149 A 
ATOM     19  C   UNL A   1      30.314  29.724  23.879  1.00  0.00     0.054 A 
BRANCH  18  20
ATOM     20  C   UNL A   1      28.160  29.437  22.634  1.00  0.00     0.433 C 
ATOM     21  F   UNL A   1      27.916  29.857  21.361  1.00  0.00    -0.165 F 
ATOM     22  F   UNL A   1      27.302  28.399  22.860  1.00  0.00    -0.165 F 
ATOM     23  F   UNL A   1      27.716  30.448  23.441  1.00  0.00    -0.165 F 
ENDBRANCH  18  20
ENDBRANCH  12  14
ENDBRANCH  11  12
ENDBRANCH   6  11
ENDBRANCH   3   6
ENDBRANCH   1   2
BRANCH   1  24
ATOM     24  C   UNL A   1      36.078  22.785  24.869  1.00  0.00     0.042 C 
BRANCH  24  25
ATOM     25  C   UNL A   1      37.254  23.646  25.296  1.00  0.00     0.118 C 
BRANCH  25  26
ATOM     26  N   UNL A   1      38.464  22.863  25.555  1.00  0.00    -0.352 N 
ATOM     27  C   UNL A   1      39.636  23.208  26.188  1.00  0.00     0.251 C 
ATOM     28  H   UNL A   1      38.434  21.937  25.219  1.00  0.00     0.163 HD
ATOM     29  O   UNL A   1      40.608  22.467  26.126  1.00  0.00    -0.269 OA
BRANCH  27  30
ATOM     30  C   UNL A   1      39.708  24.491  26.917  1.00  0.00     0.039 A 
ATOM     31  C   UNL A   1      39.100  24.613  28.169  1.00  0.00     0.014 A 
ATOM     32  C   UNL A   1      40.429  25.554  26.377  1.00  0.00     0.014 A 
ATOM     33  C   UNL A   1      39.315  25.768  28.927  1.00  0.00     0.010 A 
ATOM     34  C   UNL A   1      40.737  26.644  27.175  1.00  0.00     0.010 A 
ATOM     35  C   UNL A   1      40.187  26.765  28.460  1.00  0.00    -0.014 A 
BRANCH  35  36
ATOM     36  C   UNL A   1      40.556  27.955  29.267  1.00  0.00     0.031 A 
ATOM     37  C   UNL A   1      41.817  27.921  30.089  1.00  0.00     0.074 A 
ATOM     38  C   UNL A   1      39.700  28.992  29.376  1.00  0.00     0.049 A 
ATOM     39  N   UNL A   1      42.204  28.720  31.046  1.00  0.00    -0.248 NA
ATOM     40  C   UNL A   1      42.737  26.798  29.833  1.00  0.00     0.031 C 
ATOM     41  C   UNL A   1      38.421  29.121  28.674  1.00  0.00     0.029 A 
ATOM     42  N   UNL A   1      39.767  30.127  30.146  1.00  0.00    -0.354 N 
ATOM     43  C   UNL A   1      43.380  28.169  31.543  1.00  0.00     0.074 A 
ATOM     44  C   UNL A   1      43.618  26.945  30.810  1.00  0.00     0.031 C 
ATOM     45  C   UNL A   1      37.834  30.275  29.032  1.00  0.00     0.029 A 
ATOM     46  C   UNL A   1      38.668  30.945  30.025  1.00  0.00     0.049 A 
ATOM     47  H   UNL A   1      40.531  30.336  30.731  1.00  0.00     0.167 HD
ATOM     48  C   UNL A   1      44.198  28.651  32.508  1.00  0.00     0.037 A 
ATOM     49  C   UNL A   1      38.359  32.094  30.656  1.00  0.00     0.037 A 
ATOM     50  C   UNL A   1      43.988  29.905  33.179  1.00  0.00     0.049 A 
ATOM     51  C   UNL A   1      39.314  32.644  31.680  1.00  0.00     0.074 A 
ATOM     52  C   UNL A   1      44.790  30.522  34.122  1.00  0.00     0.029 A 
ATOM     53  N   UNL A   1      42.905  30.744  32.960  1.00  0.00    -0.354 N 
ATOM     54  N   UNL A   1      40.438  32.126  32.116  1.00  0.00    -0.248 NA
ATOM     55  C   UNL A   1      38.965  33.933  32.294  1.00  0.00     0.031 C 
ATOM     56  C   UNL A   1      44.183  31.728  34.486  1.00  0.00     0.029 A 
ATOM     57  C   UNL A   1      43.021  31.877  33.746  1.00  0.00     0.049 A 
ATOM     58  H   UNL A   1      42.164  30.561  32.338  1.00  0.00     0.167 HD
ATOM     59  C   UNL A   1      40.947  33.042  33.030  1.00  0.00     0.074 A 
ATOM     60  C   UNL A   1      40.009  34.144  33.086  1.00  0.00     0.031 C 
ATOM     61  C   UNL A   1      42.090  32.976  33.757  1.00  0.00     0.037 A 
BRANCH  48  62
ATOM     62  C   UNL A   1      45.398  27.825  32.879  1.00  0.00     0.058 A 
ATOM     63  C   UNL A   1      46.617  27.949  32.192  1.00  0.00     0.135 A 
ATOM     64  C   UNL A   1      45.333  26.907  33.938  1.00  0.00     0.135 A 
ATOM     65  F   UNL A   1      46.727  28.799  31.160  1.00  0.00    -0.206 F 
ATOM     66  C   UNL A   1      47.718  27.165  32.519  1.00  0.00     0.059 A 
ATOM     67  C   UNL A   1      46.432  26.132  34.302  1.00  0.00     0.059 A 
ATOM     68  F   UNL A   1      44.192  26.748  34.628  1.00  0.00    -0.206 F 
ATOM     69  C   UNL A   1      47.614  26.256  33.573  1.00  0.00     0.060 A 
BRANCH  69  70
ATOM     70  S   UNL A   1      49.049  25.241  33.981  1.00  0.00     0.124 S 
ATOM     71  O   UNL A   1      49.989  25.636  32.936  1.00  0.00    -0.237 OA
ATOM     72  O   UNL A   1      49.378  25.688  35.330  1.00  0.00    -0.237 OA
ATOM     73  O   UNL A   1      48.539  23.877  33.883  1.00  0.00    -0.744 OA
ENDBRANCH  69  70
ENDBRANCH  48  62
BRANCH  49  74
ATOM     74  C   UNL A   1      37.105  32.816  30.315  1.00  0.00     0.058 A 
ATOM     75  C   UNL A   1      37.059  33.684  29.214  1.00  0.00     0.135 A 
ATOM     76  C   UNL A   1      35.929  32.640  31.060  1.00  0.00     0.135 A 
ATOM     77  F   UNL A   1      38.159  33.886  28.473  1.00  0.00    -0.206 F 
ATOM     78  C   UNL A   1      35.896  34.365  28.870  1.00  0.00     0.059 A 
ATOM     79  C   UNL A   1      34.747  33.295  30.722  1.00  0.00     0.059 A 
ATOM     80  F   UNL A   1      35.916  31.805  32.110  1.00  0.00    -0.206 F 
ATOM     81  C   UNL A   1      34.743  34.163  29.631  1.00  0.00     0.060 A 
BRANCH  81  82
ATOM     82  S   UNL A   1      33.225  35.013  29.146  1.00  0.00     0.124 S 
ATOM     83  O   UNL A   1      32.704  34.117  28.119  1.00  0.00    -0.237 OA
ATOM     84  O   UNL A   1      32.479  35.052  30.400  1.00  0.00    -0.237 OA
ATOM     85  O   UNL A   1      33.705  36.308  28.672  1.00  0.00    -0.744 OA
ENDBRANCH  81  82
ENDBRANCH  49  74
BRANCH  61  86
ATOM     86  C   UNL A   1      42.428  34.150  34.629  1.00  0.00     0.058 A 
ATOM     87  C   UNL A   1      42.082  34.183  35.986  1.00  0.00     0.135 A 
ATOM     88  C   UNL A   1      43.191  35.211  34.114  1.00  0.00     0.135 A 
ATOM     89  F   UNL A   1      41.348  33.194  36.521  1.00  0.00    -0.206 F 
ATOM     90  C   UNL A   1      42.479  35.232  36.807  1.00  0.00     0.059 A 
ATOM     91  C   UNL A   1      43.617  36.259  34.921  1.00  0.00     0.059 A 
ATOM     92  F   UNL A   1      43.552  35.218  32.821  1.00  0.00    -0.206 F 
ATOM     93  C   UNL A   1      43.252  36.262  36.267  1.00  0.00     0.060 A 
BRANCH  93  94
ATOM     94  S   UNL A   1      43.822  37.584  37.358  1.00  0.00     0.124 S 
ATOM     95  O   UNL A   1      42.688  37.727  38.264  1.00  0.00    -0.237 OA
ATOM     96  O   UNL A   1      45.031  37.008  37.941  1.00  0.00    -0.237 OA
ATOM     97  O   UNL A   1      44.046  38.702  36.448  1.00  0.00    -0.744 OA
ENDBRANCH  93  94
ENDBRANCH  61  86
ENDBRANCH  35  36
ENDBRANCH  27  30
ENDBRANCH  25  26
ENDBRANCH  24  25
ENDBRANCH   1  24
TORSDOF 19
ENDMDL
