MODEL 1
REMARK VINA RESULT:     -12.4      0.000      0.000
REMARK SMILES Cc1ccc(F)cc1NC(=O)c1nn(C)cc1C(=O)NCCCNC(=O)c1ccc(-c2c3nc(c(-c4c(F)cc(S(=O)(=O)[O-])cc4F)c4ccc([nH]4)c(-c4c(F)cc(S(=O)(=O)[O-])cc4F)c4nc(c(-c5c(F)cc(S(=O)(=O)[O-])cc5F)c5ccc2[nH]5)C=C4)C=C3)cc1
REMARK SMILES IDX 22 1 21 2 20 3 18 4 19 5 17 7 12 8 13 9 14 10 16 11 15 12
REMARK SMILES IDX 10 13 9 14 11 16 8 17 1 18 2 19 3 20 4 21 7 22 5 23 6 24
REMARK SMILES IDX 23 25 24 26 25 27 26 29 27 30 28 31 92 32 29 33 91 34 30 35
REMARK SMILES IDX 31 36 32 37 85 38 33 39 90 40 84 41 86 42 34 43 89 44 83 45
REMARK SMILES IDX 82 46 35 48 69 49 48 50 68 51 49 52 52 53 67 54 87 55 50 56
REMARK SMILES IDX 51 57 66 59 88 60 53 61 36 62 37 63 46 64 38 65 39 66 45 67
REMARK SMILES IDX 47 68 40 69 41 70 42 71 43 72 44 73 70 74 71 75 80 76 72 77
REMARK SMILES IDX 73 78 79 79 81 80 74 81 75 82 76 83 77 84 78 85 54 86 55 87
REMARK SMILES IDX 64 88 56 89 57 90 63 91 65 92 58 93 59 94 60 95 61 96 62 97
REMARK H PARENT 20 6 9 15 24 28 86 47 52 58
REMARK Flexibility Score: inf
ROOT
ATOM      1  C   UNL A   1      37.527  24.090  25.926  1.00  0.00     0.042 C 
ENDROOT
BRANCH   1   2
ATOM      2  C   UNL A   1      36.456  23.021  25.727  1.00  0.00     0.118 C 
BRANCH   2   3
ATOM      3  N   UNL A   1      35.526  22.903  26.836  1.00  0.00    -0.352 N 
ATOM      4  C   UNL A   1      34.214  22.512  26.945  1.00  0.00     0.255 C 
ATOM      5  O   UNL A   1      33.760  22.473  28.091  1.00  0.00    -0.269 OA
ATOM      6  H   UNL A   1      35.922  23.159  27.699  1.00  0.00     0.163 HD
BRANCH   4   7
ATOM      7  C   UNL A   1      33.371  22.193  25.801  1.00  0.00     0.090 A 
ATOM      8  C   UNL A   1      32.112  22.828  25.491  1.00  0.00     0.163 A 
ATOM      9  N   UNL A   1      31.560  22.315  24.373  1.00  0.00    -0.167 NA
ATOM     10  N   UNL A   1      32.433  21.391  23.968  1.00  0.00    -0.274 N 
ATOM     11  C   UNL A   1      33.506  21.251  24.798  1.00  0.00     0.123 A 
ATOM     12  C   UNL A   1      32.183  20.669  22.743  1.00  0.00     0.173 C 
BRANCH   8  13
ATOM     13  C   UNL A   1      31.414  23.899  26.213  1.00  0.00     0.277 C 
ATOM     14  N   UNL A   1      31.448  25.209  25.776  1.00  0.00    -0.320 N 
ATOM     15  H   UNL A   1      31.004  25.836  26.392  1.00  0.00     0.170 HD
ATOM     16  O   UNL A   1      30.776  23.668  27.245  1.00  0.00    -0.267 OA
BRANCH  14  17
ATOM     17  C   UNL A   1      31.984  25.838  24.634  1.00  0.00     0.047 A 
ATOM     18  C   UNL A   1      33.941  26.798  26.034  1.00  0.00     0.046 C 
ATOM     19  C   UNL A   1      33.207  26.541  24.742  1.00  0.00    -0.027 A 
ATOM     20  C   UNL A   1      33.807  27.065  23.577  1.00  0.00     0.008 A 
ATOM     21  C   UNL A   1      33.204  26.923  22.332  1.00  0.00     0.039 A 
ATOM     22  C   UNL A   1      31.352  25.790  23.389  1.00  0.00     0.065 A 
ATOM     23  C   UNL A   1      31.971  26.303  22.254  1.00  0.00     0.125 A 
ATOM     24  F   UNL A   1      31.364  26.185  21.067  1.00  0.00    -0.207 F 
ENDBRANCH  14  17
ENDBRANCH   8  13
ENDBRANCH   4   7
ENDBRANCH   2   3
ENDBRANCH   1   2
BRANCH   1  25
ATOM     25  C   UNL A   1      38.692  23.676  26.828  1.00  0.00     0.118 C 
BRANCH  25  26
ATOM     26  N   UNL A   1      39.993  23.928  26.219  1.00  0.00    -0.352 N 
ATOM     27  C   UNL A   1      40.898  24.948  26.368  1.00  0.00     0.251 C 
ATOM     28  H   UNL A   1      40.274  23.235  25.579  1.00  0.00     0.163 HD
ATOM     29  O   UNL A   1      41.817  25.028  25.554  1.00  0.00    -0.269 OA
BRANCH  27  30
ATOM     30  C   UNL A   1      40.809  25.939  27.466  1.00  0.00     0.039 A 
ATOM     31  C   UNL A   1      39.833  25.748  28.453  1.00  0.00     0.014 A 
ATOM     32  C   UNL A   1      41.590  27.097  27.494  1.00  0.00     0.014 A 
ATOM     33  C   UNL A   1      39.674  26.683  29.480  1.00  0.00     0.010 A 
ATOM     34  C   UNL A   1      41.476  27.998  28.557  1.00  0.00     0.010 A 
ATOM     35  C   UNL A   1      40.513  27.805  29.558  1.00  0.00    -0.014 A 
BRANCH  35  36
ATOM     36  C   UNL A   1      40.396  28.764  30.691  1.00  0.00     0.031 A 
ATOM     37  C   UNL A   1      41.253  28.618  31.921  1.00  0.00     0.074 A 
ATOM     38  C   UNL A   1      39.477  29.748  30.626  1.00  0.00     0.049 A 
ATOM     39  N   UNL A   1      41.269  29.350  33.007  1.00  0.00    -0.248 NA
ATOM     40  C   UNL A   1      42.197  27.489  31.950  1.00  0.00     0.031 C 
ATOM     41  C   UNL A   1      38.537  29.957  29.520  1.00  0.00     0.029 A 
ATOM     42  N   UNL A   1      39.171  30.753  31.511  1.00  0.00    -0.354 N 
ATOM     43  C   UNL A   1      42.204  28.763  33.852  1.00  0.00     0.074 A 
ATOM     44  C   UNL A   1      42.710  27.593  33.169  1.00  0.00     0.031 C 
ATOM     45  C   UNL A   1      37.775  31.029  29.785  1.00  0.00     0.029 A 
ATOM     46  C   UNL A   1      38.149  31.571  31.087  1.00  0.00     0.049 A 
ATOM     47  H   UNL A   1      39.639  30.876  32.368  1.00  0.00     0.167 HD
ATOM     48  C   UNL A   1      42.616  29.174  35.075  1.00  0.00     0.037 A 
ATOM     49  C   UNL A   1      37.575  32.635  31.680  1.00  0.00     0.037 A 
ATOM     50  C   UNL A   1      42.143  30.366  35.734  1.00  0.00     0.049 A 
ATOM     51  C   UNL A   1      38.090  33.100  33.014  1.00  0.00     0.074 A 
ATOM     52  C   UNL A   1      42.569  30.913  36.933  1.00  0.00     0.029 A 
ATOM     53  N   UNL A   1      41.139  31.193  35.253  1.00  0.00    -0.354 N 
ATOM     54  N   UNL A   1      39.037  32.581  33.757  1.00  0.00    -0.248 NA
ATOM     55  C   UNL A   1      37.467  34.303  33.585  1.00  0.00     0.031 C 
ATOM     56  C   UNL A   1      41.798  32.051  37.194  1.00  0.00     0.029 A 
ATOM     57  C   UNL A   1      40.919  32.234  36.139  1.00  0.00     0.049 A 
ATOM     58  H   UNL A   1      40.655  31.061  34.405  1.00  0.00     0.167 HD
ATOM     59  C   UNL A   1      39.134  33.402  34.876  1.00  0.00     0.074 A 
ATOM     60  C   UNL A   1      38.167  34.465  34.699  1.00  0.00     0.031 C 
ATOM     61  C   UNL A   1      39.949  33.283  35.953  1.00  0.00     0.037 A 
BRANCH  48  62
ATOM     62  C   UNL A   1      43.645  28.341  35.791  1.00  0.00     0.058 A 
ATOM     63  C   UNL A   1      45.021  28.559  35.616  1.00  0.00     0.135 A 
ATOM     64  C   UNL A   1      43.250  27.362  36.718  1.00  0.00     0.135 A 
ATOM     65  F   UNL A   1      45.453  29.473  34.733  1.00  0.00    -0.206 F 
ATOM     66  C   UNL A   1      45.968  27.828  36.323  1.00  0.00     0.059 A 
ATOM     67  C   UNL A   1      44.182  26.634  37.454  1.00  0.00     0.059 A 
ATOM     68  F   UNL A   1      41.948  27.112  36.923  1.00  0.00    -0.206 F 
ATOM     69  C   UNL A   1      45.540  26.868  37.242  1.00  0.00     0.060 A 
BRANCH  69  70
ATOM     70  S   UNL A   1      46.782  25.949  38.175  1.00  0.00     0.124 S 
ATOM     71  O   UNL A   1      47.009  24.800  37.304  1.00  0.00    -0.237 OA
ATOM     72  O   UNL A   1      47.881  26.905  38.260  1.00  0.00    -0.237 OA
ATOM     73  O   UNL A   1      46.112  25.656  39.438  1.00  0.00    -0.744 OA
ENDBRANCH  69  70
ENDBRANCH  48  62
BRANCH  49  74
ATOM     74  C   UNL A   1      36.456  33.346  31.007  1.00  0.00     0.058 A 
ATOM     75  C   UNL A   1      36.680  34.139  29.873  1.00  0.00     0.135 A 
ATOM     76  C   UNL A   1      35.141  33.243  31.486  1.00  0.00     0.135 A 
ATOM     77  F   UNL A   1      37.921  34.272  29.382  1.00  0.00    -0.206 F 
ATOM     78  C   UNL A   1      35.644  34.826  29.248  1.00  0.00     0.059 A 
ATOM     79  C   UNL A   1      34.084  33.900  30.864  1.00  0.00     0.059 A 
ATOM     80  F   UNL A   1      34.872  32.479  32.556  1.00  0.00    -0.206 F 
ATOM     81  C   UNL A   1      34.348  34.701  29.753  1.00  0.00     0.060 A 
BRANCH  81  82
ATOM     82  S   UNL A   1      33.001  35.562  28.914  1.00  0.00     0.124 S 
ATOM     83  O   UNL A   1      32.411  34.486  28.126  1.00  0.00    -0.237 OA
ATOM     84  O   UNL A   1      32.200  36.049  30.033  1.00  0.00    -0.237 OA
ATOM     85  O   UNL A   1      33.693  36.599  28.153  1.00  0.00    -0.744 OA
ENDBRANCH  81  82
ENDBRANCH  49  74
BRANCH  61  86
ATOM     86  C   UNL A   1      39.835  34.340  37.016  1.00  0.00     0.058 A 
ATOM     87  C   UNL A   1      40.512  35.565  36.907  1.00  0.00     0.135 A 
ATOM     88  C   UNL A   1      39.029  34.132  38.146  1.00  0.00     0.135 A 
ATOM     89  F   UNL A   1      41.300  35.810  35.849  1.00  0.00    -0.206 F 
ATOM     90  C   UNL A   1      40.418  36.536  37.899  1.00  0.00     0.059 A 
ATOM     91  C   UNL A   1      38.900  35.100  39.138  1.00  0.00     0.059 A 
ATOM     92  F   UNL A   1      38.352  32.982  38.293  1.00  0.00    -0.206 F 
ATOM     93  C   UNL A   1      39.613  36.292  39.013  1.00  0.00     0.060 A 
BRANCH  93  94
ATOM     94  S   UNL A   1      39.495  37.560  40.293  1.00  0.00     0.124 S 
ATOM     95  O   UNL A   1      38.897  36.812  41.393  1.00  0.00    -0.237 OA
ATOM     96  O   UNL A   1      40.888  37.955  40.476  1.00  0.00    -0.237 OA
ATOM     97  O   UNL A   1      38.639  38.575  39.684  1.00  0.00    -0.744 OA
ENDBRANCH  93  94
ENDBRANCH  61  86
ENDBRANCH  35  36
ENDBRANCH  27  30
ENDBRANCH  25  26
ENDBRANCH   1  25
TORSDOF 15
ENDMDL
MODEL 2
REMARK VINA RESULT:     -12.3      1.509      2.038
REMARK SMILES Cc1ccc(F)cc1NC(=O)c1nn(C)cc1C(=O)NCCCNC(=O)c1ccc(-c2c3nc(c(-c4c(F)cc(S(=O)(=O)[O-])cc4F)c4ccc([nH]4)c(-c4c(F)cc(S(=O)(=O)[O-])cc4F)c4nc(c(-c5c(F)cc(S(=O)(=O)[O-])cc5F)c5ccc2[nH]5)C=C4)C=C3)cc1
REMARK SMILES IDX 22 1 21 2 20 3 18 4 19 5 17 7 12 8 13 9 14 10 16 11 15 12
REMARK SMILES IDX 10 13 9 14 11 16 8 17 1 18 2 19 3 20 4 21 7 22 5 23 6 24
REMARK SMILES IDX 23 25 24 26 25 27 26 29 27 30 28 31 92 32 29 33 91 34 30 35
REMARK SMILES IDX 31 36 32 37 85 38 33 39 90 40 84 41 86 42 34 43 89 44 83 45
REMARK SMILES IDX 82 46 35 48 69 49 48 50 68 51 49 52 52 53 67 54 87 55 50 56
REMARK SMILES IDX 51 57 66 59 88 60 53 61 36 62 37 63 46 64 38 65 39 66 45 67
REMARK SMILES IDX 47 68 40 69 41 70 42 71 43 72 44 73 70 74 71 75 80 76 72 77
REMARK SMILES IDX 73 78 79 79 81 80 74 81 75 82 76 83 77 84 78 85 54 86 55 87
REMARK SMILES IDX 64 88 56 89 57 90 63 91 65 92 58 93 59 94 60 95 61 96 62 97
REMARK H PARENT 20 6 9 15 24 28 86 47 52 58
REMARK Flexibility Score: inf
ROOT
ATOM      1  C   UNL A   1      37.234  23.426  25.352  1.00  0.00     0.042 C 
ENDROOT
BRANCH   1   2
ATOM      2  C   UNL A   1      35.833  24.006  25.183  1.00  0.00     0.118 C 
BRANCH   2   3
ATOM      3  N   UNL A   1      35.318  23.924  23.828  1.00  0.00    -0.352 N 
ATOM      4  C   UNL A   1      34.058  23.876  23.285  1.00  0.00     0.255 C 
ATOM      5  O   UNL A   1      34.004  23.878  22.053  1.00  0.00    -0.269 OA
ATOM      6  H   UNL A   1      36.029  23.895  23.148  1.00  0.00     0.163 HD
BRANCH   4   7
ATOM      7  C   UNL A   1      32.841  23.792  24.082  1.00  0.00     0.090 A 
ATOM      8  C   UNL A   1      31.709  24.681  23.970  1.00  0.00     0.163 A 
ATOM      9  N   UNL A   1      30.736  24.357  24.844  1.00  0.00    -0.167 NA
ATOM     10  N   UNL A   1      31.213  23.292  25.490  1.00  0.00    -0.274 N 
ATOM     11  C   UNL A   1      32.472  22.937  25.104  1.00  0.00     0.123 A 
ATOM     12  C   UNL A   1      30.391  22.636  26.479  1.00  0.00     0.173 C 
BRANCH   8  13
ATOM     13  C   UNL A   1      31.516  25.825  23.069  1.00  0.00     0.277 C 
ATOM     14  N   UNL A   1      31.671  27.126  23.507  1.00  0.00    -0.320 N 
ATOM     15  H   UNL A   1      31.438  27.796  22.824  1.00  0.00     0.170 HD
ATOM     16  O   UNL A   1      31.201  25.664  21.886  1.00  0.00    -0.267 OA
BRANCH  14  17
ATOM     17  C   UNL A   1      32.091  27.697  24.725  1.00  0.00     0.047 A 
ATOM     18  C   UNL A   1      34.311  28.474  23.640  1.00  0.00     0.046 C 
ATOM     19  C   UNL A   1      33.320  28.396  24.773  1.00  0.00    -0.027 A 
ATOM     20  C   UNL A   1      33.683  29.072  25.958  1.00  0.00     0.008 A 
ATOM     21  C   UNL A   1      32.866  29.040  27.083  1.00  0.00     0.039 A 
ATOM     22  C   UNL A   1      31.333  27.601  25.896  1.00  0.00     0.065 A 
ATOM     23  C   UNL A   1      31.708  28.288  27.045  1.00  0.00     0.125 A 
ATOM     24  F   UNL A   1      30.926  28.223  28.131  1.00  0.00    -0.207 F 
ENDBRANCH  14  17
ENDBRANCH   8  13
ENDBRANCH   4   7
ENDBRANCH   2   3
ENDBRANCH   1   2
BRANCH   1  25
ATOM     25  C   UNL A   1      38.092  24.113  26.417  1.00  0.00     0.118 C 
BRANCH  25  26
ATOM     26  N   UNL A   1      39.510  24.121  26.079  1.00  0.00    -0.352 N 
ATOM     27  C   UNL A   1      40.546  24.934  26.465  1.00  0.00     0.251 C 
ATOM     28  H   UNL A   1      39.775  23.407  25.454  1.00  0.00     0.163 HD
ATOM     29  O   UNL A   1      41.603  24.856  25.842  1.00  0.00    -0.269 OA
BRANCH  27  30
ATOM     30  C   UNL A   1      40.433  25.886  27.596  1.00  0.00     0.039 A 
ATOM     31  C   UNL A   1      41.350  26.942  27.665  1.00  0.00     0.014 A 
ATOM     32  C   UNL A   1      39.517  25.707  28.634  1.00  0.00     0.014 A 
ATOM     33  C   UNL A   1      41.318  27.835  28.740  1.00  0.00     0.010 A 
ATOM     34  C   UNL A   1      39.442  26.638  29.675  1.00  0.00     0.010 A 
ATOM     35  C   UNL A   1      40.345  27.709  29.743  1.00  0.00    -0.014 A 
BRANCH  35  36
ATOM     36  C   UNL A   1      40.261  28.701  30.850  1.00  0.00     0.031 A 
ATOM     37  C   UNL A   1      41.128  28.570  32.075  1.00  0.00     0.074 A 
ATOM     38  C   UNL A   1      39.363  29.703  30.767  1.00  0.00     0.049 A 
ATOM     39  N   UNL A   1      41.171  29.331  33.140  1.00  0.00    -0.248 NA
ATOM     40  C   UNL A   1      42.048  27.422  32.126  1.00  0.00     0.031 C 
ATOM     41  C   UNL A   1      38.417  29.902  29.666  1.00  0.00     0.029 A 
ATOM     42  N   UNL A   1      39.089  30.738  31.627  1.00  0.00    -0.354 N 
ATOM     43  C   UNL A   1      42.102  28.747  33.992  1.00  0.00     0.074 A 
ATOM     44  C   UNL A   1      42.575  27.547  33.336  1.00  0.00     0.031 C 
ATOM     45  C   UNL A   1      37.681  30.997  29.909  1.00  0.00     0.029 A 
ATOM     46  C   UNL A   1      38.081  31.566  31.191  1.00  0.00     0.049 A 
ATOM     47  H   UNL A   1      39.569  30.874  32.476  1.00  0.00     0.167 HD
ATOM     48  C   UNL A   1      42.537  29.182  35.199  1.00  0.00     0.037 A 
ATOM     49  C   UNL A   1      37.536  32.659  31.760  1.00  0.00     0.037 A 
ATOM     50  C   UNL A   1      42.097  30.401  35.829  1.00  0.00     0.049 A 
ATOM     51  C   UNL A   1      38.076  33.149  33.075  1.00  0.00     0.074 A 
ATOM     52  C   UNL A   1      42.547  30.972  37.008  1.00  0.00     0.029 A 
ATOM     53  N   UNL A   1      41.106  31.237  35.335  1.00  0.00    -0.354 N 
ATOM     54  N   UNL A   1      39.019  32.630  33.823  1.00  0.00    -0.248 NA
ATOM     55  C   UNL A   1      37.485  34.380  33.619  1.00  0.00     0.031 C 
ATOM     56  C   UNL A   1      41.804  32.133  37.246  1.00  0.00     0.029 A 
ATOM     57  C   UNL A   1      40.918  32.307  36.195  1.00  0.00     0.049 A 
ATOM     58  H   UNL A   1      40.610  31.092  34.497  1.00  0.00     0.167 HD
ATOM     59  C   UNL A   1      39.146  33.478  34.918  1.00  0.00     0.074 A 
ATOM     60  C   UNL A   1      38.200  34.557  34.721  1.00  0.00     0.031 C 
ATOM     61  C   UNL A   1      39.969  33.371  35.990  1.00  0.00     0.037 A 
BRANCH  48  62
ATOM     62  C   UNL A   1      43.555  28.346  35.927  1.00  0.00     0.058 A 
ATOM     63  C   UNL A   1      44.931  28.601  35.817  1.00  0.00     0.135 A 
ATOM     64  C   UNL A   1      43.146  27.326  36.801  1.00  0.00     0.135 A 
ATOM     65  F   UNL A   1      45.377  29.556  34.987  1.00  0.00    -0.206 F 
ATOM     66  C   UNL A   1      45.866  27.865  36.537  1.00  0.00     0.059 A 
ATOM     67  C   UNL A   1      44.063  26.592  37.549  1.00  0.00     0.059 A 
ATOM     68  F   UNL A   1      41.842  27.040  36.943  1.00  0.00    -0.206 F 
ATOM     69  C   UNL A   1      45.423  26.863  37.403  1.00  0.00     0.060 A 
BRANCH  69  70
ATOM     70  S   UNL A   1      46.647  25.939  38.354  1.00  0.00     0.124 S 
ATOM     71  O   UNL A   1      46.998  26.905  39.391  1.00  0.00    -0.237 OA
ATOM     72  O   UNL A   1      45.885  24.778  38.802  1.00  0.00    -0.237 OA
ATOM     73  O   UNL A   1      47.695  25.658  37.378  1.00  0.00    -0.744 OA
ENDBRANCH  69  70
ENDBRANCH  48  62
BRANCH  49  74
ATOM     74  C   UNL A   1      36.426  33.376  31.079  1.00  0.00     0.058 A 
ATOM     75  C   UNL A   1      36.654  34.128  29.919  1.00  0.00     0.135 A 
ATOM     76  C   UNL A   1      35.115  33.320  31.577  1.00  0.00     0.135 A 
ATOM     77  F   UNL A   1      37.892  34.215  29.408  1.00  0.00    -0.206 F 
ATOM     78  C   UNL A   1      35.627  34.820  29.285  1.00  0.00     0.059 A 
ATOM     79  C   UNL A   1      34.067  33.983  30.948  1.00  0.00     0.059 A 
ATOM     80  F   UNL A   1      34.842  32.596  32.674  1.00  0.00    -0.206 F 
ATOM     81  C   UNL A   1      34.335  34.742  29.809  1.00  0.00     0.060 A 
BRANCH  81  82
ATOM     82  S   UNL A   1      32.998  35.610  28.961  1.00  0.00     0.124 S 
ATOM     83  O   UNL A   1      32.408  34.536  28.170  1.00  0.00    -0.237 OA
ATOM     84  O   UNL A   1      32.192  36.102  30.074  1.00  0.00    -0.237 OA
ATOM     85  O   UNL A   1      33.700  36.642  28.203  1.00  0.00    -0.744 OA
ENDBRANCH  81  82
ENDBRANCH  49  74
BRANCH  61  86
ATOM     86  C   UNL A   1      39.890  34.459  37.024  1.00  0.00     0.058 A 
ATOM     87  C   UNL A   1      40.627  35.648  36.896  1.00  0.00     0.135 A 
ATOM     88  C   UNL A   1      39.057  34.319  38.145  1.00  0.00     0.135 A 
ATOM     89  F   UNL A   1      41.443  35.827  35.846  1.00  0.00    -0.206 F 
ATOM     90  C   UNL A   1      40.565  36.647  37.862  1.00  0.00     0.059 A 
ATOM     91  C   UNL A   1      38.959  35.317  39.110  1.00  0.00     0.059 A 
ATOM     92  F   UNL A   1      38.323  33.207  38.308  1.00  0.00    -0.206 F 
ATOM     93  C   UNL A   1      39.731  36.470  38.968  1.00  0.00     0.060 A 
BRANCH  93  94
ATOM     94  S   UNL A   1      39.654  37.775  40.214  1.00  0.00     0.124 S 
ATOM     95  O   UNL A   1      38.631  38.653  39.656  1.00  0.00    -0.237 OA
ATOM     96  O   UNL A   1      39.273  37.041  41.417  1.00  0.00    -0.237 OA
ATOM     97  O   UNL A   1      41.011  38.315  40.222  1.00  0.00    -0.744 OA
ENDBRANCH  93  94
ENDBRANCH  61  86
ENDBRANCH  35  36
ENDBRANCH  27  30
ENDBRANCH  25  26
ENDBRANCH   1  25
TORSDOF 15
ENDMDL
MODEL 3
REMARK VINA RESULT:     -12.3      1.051      2.059
REMARK SMILES Cc1ccc(F)cc1NC(=O)c1nn(C)cc1C(=O)NCCCNC(=O)c1ccc(-c2c3nc(c(-c4c(F)cc(S(=O)(=O)[O-])cc4F)c4ccc([nH]4)c(-c4c(F)cc(S(=O)(=O)[O-])cc4F)c4nc(c(-c5c(F)cc(S(=O)(=O)[O-])cc5F)c5ccc2[nH]5)C=C4)C=C3)cc1
REMARK SMILES IDX 22 1 21 2 20 3 18 4 19 5 17 7 12 8 13 9 14 10 16 11 15 12
REMARK SMILES IDX 10 13 9 14 11 16 8 17 1 18 2 19 3 20 4 21 7 22 5 23 6 24
REMARK SMILES IDX 23 25 24 26 25 27 26 29 27 30 28 31 92 32 29 33 91 34 30 35
REMARK SMILES IDX 31 36 32 37 85 38 33 39 90 40 84 41 86 42 34 43 89 44 83 45
REMARK SMILES IDX 82 46 35 48 69 49 48 50 68 51 49 52 52 53 67 54 87 55 50 56
REMARK SMILES IDX 51 57 66 59 88 60 53 61 36 62 37 63 46 64 38 65 39 66 45 67
REMARK SMILES IDX 47 68 40 69 41 70 42 71 43 72 44 73 70 74 71 75 80 76 72 77
REMARK SMILES IDX 73 78 79 79 81 80 74 81 75 82 76 83 77 84 78 85 54 86 55 87
REMARK SMILES IDX 64 88 56 89 57 90 63 91 65 92 58 93 59 94 60 95 61 96 62 97
REMARK H PARENT 20 6 9 15 24 28 86 47 52 58
REMARK Flexibility Score: inf
ROOT
ATOM      1  C   UNL A   1      37.542  23.703  25.738  1.00  0.00     0.042 C 
ENDROOT
BRANCH   1   2
ATOM      2  C   UNL A   1      36.666  22.455  25.804  1.00  0.00     0.118 C 
BRANCH   2   3
ATOM      3  N   UNL A   1      35.627  22.515  26.817  1.00  0.00    -0.352 N 
ATOM      4  C   UNL A   1      34.260  22.637  26.779  1.00  0.00     0.255 C 
ATOM      5  O   UNL A   1      33.686  22.581  27.869  1.00  0.00    -0.269 OA
ATOM      6  H   UNL A   1      35.981  22.454  27.734  1.00  0.00     0.163 HD
BRANCH   4   7
ATOM      7  C   UNL A   1      33.506  22.856  25.552  1.00  0.00     0.090 A 
ATOM      8  C   UNL A   1      32.216  23.500  25.471  1.00  0.00     0.163 A 
ATOM      9  N   UNL A   1      31.766  23.551  24.202  1.00  0.00    -0.167 NA
ATOM     10  N   UNL A   1      32.732  22.973  23.485  1.00  0.00    -0.274 N 
ATOM     11  C   UNL A   1      33.769  22.509  24.239  1.00  0.00     0.123 A 
ATOM     12  C   UNL A   1      32.605  22.905  22.049  1.00  0.00     0.173 C 
BRANCH   8  13
ATOM     13  C   UNL A   1      31.396  24.066  26.549  1.00  0.00     0.277 C 
ATOM     14  N   UNL A   1      31.340  25.427  26.780  1.00  0.00    -0.320 N 
ATOM     15  H   UNL A   1      30.815  25.665  27.578  1.00  0.00     0.170 HD
ATOM     16  O   UNL A   1      30.729  23.342  27.297  1.00  0.00    -0.267 OA
BRANCH  14  17
ATOM     17  C   UNL A   1      31.876  26.547  26.113  1.00  0.00     0.047 A 
ATOM     18  C   UNL A   1      29.866  26.584  24.479  1.00  0.00     0.046 C 
ATOM     19  C   UNL A   1      31.143  27.139  25.057  1.00  0.00    -0.027 A 
ATOM     20  C   UNL A   1      31.619  28.332  24.471  1.00  0.00     0.008 A 
ATOM     21  C   UNL A   1      32.806  28.918  24.896  1.00  0.00     0.039 A 
ATOM     22  C   UNL A   1      33.112  27.101  26.458  1.00  0.00     0.065 A 
ATOM     23  C   UNL A   1      33.551  28.284  25.873  1.00  0.00     0.125 A 
ATOM     24  F   UNL A   1      34.711  28.820  26.271  1.00  0.00    -0.207 F 
ENDBRANCH  14  17
ENDBRANCH   8  13
ENDBRANCH   4   7
ENDBRANCH   2   3
ENDBRANCH   1   2
BRANCH   1  25
ATOM     25  C   UNL A   1      38.667  23.757  26.774  1.00  0.00     0.118 C 
BRANCH  25  26
ATOM     26  N   UNL A   1      39.973  24.003  26.174  1.00  0.00    -0.352 N 
ATOM     27  C   UNL A   1      40.884  25.017  26.333  1.00  0.00     0.251 C 
ATOM     28  H   UNL A   1      40.254  23.310  25.533  1.00  0.00     0.163 HD
ATOM     29  O   UNL A   1      41.808  25.094  25.524  1.00  0.00    -0.269 OA
BRANCH  27  30
ATOM     30  C   UNL A   1      40.794  26.004  27.434  1.00  0.00     0.039 A 
ATOM     31  C   UNL A   1      39.827  25.801  28.427  1.00  0.00     0.014 A 
ATOM     32  C   UNL A   1      41.564  27.169  27.458  1.00  0.00     0.014 A 
ATOM     33  C   UNL A   1      39.667  26.732  29.458  1.00  0.00     0.010 A 
ATOM     34  C   UNL A   1      41.450  28.066  28.525  1.00  0.00     0.010 A 
ATOM     35  C   UNL A   1      40.497  27.862  29.533  1.00  0.00    -0.014 A 
BRANCH  35  36
ATOM     36  C   UNL A   1      40.380  28.816  30.669  1.00  0.00     0.031 A 
ATOM     37  C   UNL A   1      41.240  28.669  31.897  1.00  0.00     0.074 A 
ATOM     38  C   UNL A   1      39.458  29.798  30.610  1.00  0.00     0.049 A 
ATOM     39  N   UNL A   1      41.256  29.398  32.985  1.00  0.00    -0.248 NA
ATOM     40  C   UNL A   1      42.188  27.543  31.920  1.00  0.00     0.031 C 
ATOM     41  C   UNL A   1      38.515  30.008  29.507  1.00  0.00     0.029 A 
ATOM     42  N   UNL A   1      39.151  30.799  31.498  1.00  0.00    -0.354 N 
ATOM     43  C   UNL A   1      42.195  28.811  33.826  1.00  0.00     0.074 A 
ATOM     44  C   UNL A   1      42.702  27.644  33.138  1.00  0.00     0.031 C 
ATOM     45  C   UNL A   1      37.750  31.077  29.777  1.00  0.00     0.029 A 
ATOM     46  C   UNL A   1      38.126  31.616  31.080  1.00  0.00     0.049 A 
ATOM     47  H   UNL A   1      39.621  30.921  32.355  1.00  0.00     0.167 HD
ATOM     48  C   UNL A   1      42.609  29.219  35.050  1.00  0.00     0.037 A 
ATOM     49  C   UNL A   1      37.550  32.677  31.677  1.00  0.00     0.037 A 
ATOM     50  C   UNL A   1      42.134  30.407  35.713  1.00  0.00     0.049 A 
ATOM     51  C   UNL A   1      38.067  33.139  33.011  1.00  0.00     0.074 A 
ATOM     52  C   UNL A   1      42.561  30.952  36.913  1.00  0.00     0.029 A 
ATOM     53  N   UNL A   1      41.127  31.233  35.237  1.00  0.00    -0.354 N 
ATOM     54  N   UNL A   1      39.017  32.620  33.751  1.00  0.00    -0.248 NA
ATOM     55  C   UNL A   1      37.442  34.337  33.588  1.00  0.00     0.031 C 
ATOM     56  C   UNL A   1      41.787  32.086  37.180  1.00  0.00     0.029 A 
ATOM     57  C   UNL A   1      40.906  32.271  36.128  1.00  0.00     0.049 A 
ATOM     58  H   UNL A   1      40.641  31.102  34.390  1.00  0.00     0.167 HD
ATOM     59  C   UNL A   1      39.115  33.437  34.872  1.00  0.00     0.074 A 
ATOM     60  C   UNL A   1      38.144  34.498  34.701  1.00  0.00     0.031 C 
ATOM     61  C   UNL A   1      39.932  33.317  35.947  1.00  0.00     0.037 A 
BRANCH  48  62
ATOM     62  C   UNL A   1      43.642  28.386  35.760  1.00  0.00     0.058 A 
ATOM     63  C   UNL A   1      43.279  27.354  36.640  1.00  0.00     0.135 A 
ATOM     64  C   UNL A   1      45.010  28.574  35.501  1.00  0.00     0.135 A 
ATOM     65  F   UNL A   1      41.986  27.139  36.933  1.00  0.00    -0.206 F 
ATOM     66  C   UNL A   1      44.234  26.548  37.248  1.00  0.00     0.059 A 
ATOM     67  C   UNL A   1      45.982  27.764  36.081  1.00  0.00     0.059 A 
ATOM     68  F   UNL A   1      45.412  29.547  34.669  1.00  0.00    -0.206 F 
ATOM     69  C   UNL A   1      45.585  26.758  36.961  1.00  0.00     0.060 A 
BRANCH  69  70
ATOM     70  S   UNL A   1      46.810  25.682  37.734  1.00  0.00     0.124 S 
ATOM     71  O   UNL A   1      47.828  25.603  36.690  1.00  0.00    -0.237 OA
ATOM     72  O   UNL A   1      47.184  26.437  38.926  1.00  0.00    -0.237 OA
ATOM     73  O   UNL A   1      46.072  24.448  37.984  1.00  0.00    -0.744 OA
ENDBRANCH  69  70
ENDBRANCH  48  62
BRANCH  49  74
ATOM     74  C   UNL A   1      36.427  33.387  31.009  1.00  0.00     0.058 A 
ATOM     75  C   UNL A   1      35.114  33.274  31.486  1.00  0.00     0.135 A 
ATOM     76  C   UNL A   1      36.650  34.193  29.884  1.00  0.00     0.135 A 
ATOM     77  F   UNL A   1      34.852  32.510  32.557  1.00  0.00    -0.206 F 
ATOM     78  C   UNL A   1      34.053  33.917  30.856  1.00  0.00     0.059 A 
ATOM     79  C   UNL A   1      35.610  34.866  29.251  1.00  0.00     0.059 A 
ATOM     80  F   UNL A   1      37.892  34.350  29.402  1.00  0.00    -0.206 F 
ATOM     81  C   UNL A   1      34.312  34.711  29.737  1.00  0.00     0.060 A 
BRANCH  81  82
ATOM     82  S   UNL A   1      32.937  35.575  28.948  1.00  0.00     0.124 S 
ATOM     83  O   UNL A   1      32.128  35.954  30.101  1.00  0.00    -0.237 OA
ATOM     84  O   UNL A   1      33.614  36.667  28.255  1.00  0.00    -0.237 OA
ATOM     85  O   UNL A   1      32.359  34.555  28.077  1.00  0.00    -0.744 OA
ENDBRANCH  81  82
ENDBRANCH  49  74
BRANCH  61  86
ATOM     86  C   UNL A   1      39.818  34.370  37.014  1.00  0.00     0.058 A 
ATOM     87  C   UNL A   1      39.077  34.149  38.186  1.00  0.00     0.135 A 
ATOM     88  C   UNL A   1      40.470  35.605  36.871  1.00  0.00     0.135 A 
ATOM     89  F   UNL A   1      38.430  32.988  38.367  1.00  0.00    -0.206 F 
ATOM     90  C   UNL A   1      38.959  35.131  39.165  1.00  0.00     0.059 A 
ATOM     91  C   UNL A   1      40.388  36.591  37.849  1.00  0.00     0.059 A 
ATOM     92  F   UNL A   1      41.201  35.862  35.774  1.00  0.00    -0.206 F 
ATOM     93  C   UNL A   1      39.615  36.350  38.985  1.00  0.00     0.060 A 
BRANCH  93  94
ATOM     94  S   UNL A   1      39.460  37.615  40.264  1.00  0.00     0.124 S 
ATOM     95  O   UNL A   1      40.752  38.286  40.172  1.00  0.00    -0.237 OA
ATOM     96  O   UNL A   1      38.309  38.388  39.807  1.00  0.00    -0.237 OA
ATOM     97  O   UNL A   1      39.240  36.839  41.482  1.00  0.00    -0.744 OA
ENDBRANCH  93  94
ENDBRANCH  61  86
ENDBRANCH  35  36
ENDBRANCH  27  30
ENDBRANCH  25  26
ENDBRANCH   1  25
TORSDOF 15
ENDMDL
