MODEL 1
REMARK VINA RESULT:     -11.9      0.000      0.000
REMARK SMILES CCC(C)(C)[C@@H]1CCc2c(sc(=O)n2CCCC(=O)NCCCNC(=O)c2ccc(-c3c4nc(c(-c5c(F)cc(S(=O)(=O)[O-])cc5F)c5ccc([nH]5)c(-c5c(F)cc(S(=O)(=O)[O-])cc5F)c5nc(c(-c6c(F)cc(S(=O)(=O)[O-])cc6F)c6ccc3[nH]6)C=C5)C=C4)cc2)C1
REMARK SMILES IDX 21 1 20 2 18 3 19 4 17 6 16 7 15 8 14 9 6 10 7 11 93 12 8 13
REMARK SMILES IDX 10 14 9 15 11 16 12 17 13 18 3 19 4 20 5 21 2 22 1 23 22 24
REMARK SMILES IDX 23 25 24 26 25 27 26 29 27 30 28 31 92 32 29 33 91 34 30 35
REMARK SMILES IDX 31 36 32 37 85 38 33 39 90 40 84 41 86 42 34 43 89 44 83 45
REMARK SMILES IDX 82 46 35 48 69 49 48 50 68 51 49 52 52 53 67 54 87 55 50 56
REMARK SMILES IDX 51 57 66 59 88 60 53 61 36 62 37 63 46 64 38 65 39 66 45 67
REMARK SMILES IDX 47 68 40 69 41 70 42 71 43 72 44 73 70 74 71 75 80 76 72 77
REMARK SMILES IDX 73 78 79 79 81 80 74 81 75 82 76 83 77 84 78 85 54 86 55 87
REMARK SMILES IDX 64 88 56 89 57 90 63 91 65 92 58 93 59 94 60 95 61 96 62 97
REMARK H PARENT 20 5 24 28 86 47 52 58
REMARK Flexibility Score: inf
ROOT
ATOM      1  C   UNL A   1      40.025  21.093  26.156  1.00  0.00     0.117 C 
ENDROOT
BRANCH   1   2
ATOM      2  N   UNL A   1      38.797  20.864  25.419  1.00  0.00    -0.356 N 
ATOM      3  C   UNL A   1      37.759  21.678  25.097  1.00  0.00     0.220 C 
ATOM      4  O   UNL A   1      36.878  21.191  24.381  1.00  0.00    -0.275 OA
ATOM      5  H   UNL A   1      38.697  19.943  25.088  1.00  0.00     0.163 HD
BRANCH   3   6
ATOM      6  C   UNL A   1      37.680  23.143  25.484  1.00  0.00     0.102 C 
BRANCH   6   7
ATOM      7  C   UNL A   1      36.422  23.713  26.138  1.00  0.00     0.032 C 
BRANCH   7   8
ATOM      8  C   UNL A   1      35.246  24.255  25.331  1.00  0.00     0.127 C 
BRANCH   8   9
ATOM      9  N   UNL A   1      33.843  24.139  25.757  1.00  0.00    -0.303 N 
ATOM     10  C   UNL A   1      31.204  27.515  25.643  1.00  0.00     0.000 C 
ATOM     11  C   UNL A   1      32.597  27.768  26.266  1.00  0.00     0.011 C 
ATOM     12  C   UNL A   1      30.713  26.122  26.124  1.00  0.00     0.053 C 
ATOM     13  C   UNL A   1      33.650  26.676  25.987  1.00  0.00     0.055 C 
ATOM     14  C   UNL A   1      31.755  25.068  26.024  1.00  0.00     0.030 A 
ATOM     15  C   UNL A   1      33.070  25.294  25.930  1.00  0.00     0.035 A 
ATOM     16  S   UNL A   1      31.375  23.390  25.988  1.00  0.00    -0.079 S 
ATOM     17  C   UNL A   1      33.083  22.974  25.785  1.00  0.00     0.307 A 
ATOM     18  O   UNL A   1      33.419  21.805  25.653  1.00  0.00    -0.257 OA
BRANCH  10  19
ATOM     19  C   UNL A   1      31.040  27.865  24.095  1.00  0.00    -0.032 C 
ATOM     20  C   UNL A   1      30.681  29.368  23.990  1.00  0.00     0.011 C 
ATOM     21  C   UNL A   1      29.841  27.092  23.487  1.00  0.00     0.011 C 
BRANCH  19  22
ATOM     22  C   UNL A   1      32.257  27.558  23.174  1.00  0.00     0.003 C 
ATOM     23  C   UNL A   1      33.175  28.714  22.784  1.00  0.00     0.004 C 
ENDBRANCH  19  22
ENDBRANCH  10  19
ENDBRANCH   8   9
ENDBRANCH   7   8
ENDBRANCH   6   7
ENDBRANCH   3   6
ENDBRANCH   1   2
BRANCH   1  24
ATOM     24  C   UNL A   1      40.833  19.802  26.335  1.00  0.00     0.042 C 
BRANCH  24  25
ATOM     25  C   UNL A   1      42.217  20.036  26.899  1.00  0.00     0.118 C 
BRANCH  25  26
ATOM     26  N   UNL A   1      43.295  19.677  25.972  1.00  0.00    -0.352 N 
ATOM     27  C   UNL A   1      44.006  20.538  25.146  1.00  0.00     0.251 C 
ATOM     28  H   UNL A   1      43.541  18.725  25.931  1.00  0.00     0.163 HD
ATOM     29  O   UNL A   1      44.625  20.118  24.177  1.00  0.00    -0.269 OA
BRANCH  27  30
ATOM     30  C   UNL A   1      43.980  21.975  25.473  1.00  0.00     0.039 A 
ATOM     31  C   UNL A   1      43.064  22.863  24.904  1.00  0.00     0.014 A 
ATOM     32  C   UNL A   1      44.843  22.391  26.478  1.00  0.00     0.014 A 
ATOM     33  C   UNL A   1      42.966  24.147  25.441  1.00  0.00     0.010 A 
ATOM     34  C   UNL A   1      44.563  23.538  27.160  1.00  0.00     0.010 A 
ATOM     35  C   UNL A   1      43.700  24.464  26.596  1.00  0.00    -0.014 A 
BRANCH  35  36
ATOM     36  C   UNL A   1      43.524  25.724  27.306  1.00  0.00     0.031 A 
ATOM     37  C   UNL A   1      44.530  26.764  26.961  1.00  0.00     0.074 A 
ATOM     38  C   UNL A   1      42.411  25.997  28.025  1.00  0.00     0.049 A 
ATOM     39  N   UNL A   1      45.483  27.211  27.708  1.00  0.00    -0.248 NA
ATOM     40  C   UNL A   1      44.606  27.236  25.566  1.00  0.00     0.031 C 
ATOM     41  C   UNL A   1      41.195  25.185  28.183  1.00  0.00     0.029 A 
ATOM     42  N   UNL A   1      42.080  27.136  28.687  1.00  0.00    -0.354 N 
ATOM     43  C   UNL A   1      46.111  28.209  26.970  1.00  0.00     0.074 A 
ATOM     44  C   UNL A   1      45.687  28.020  25.608  1.00  0.00     0.031 C 
ATOM     45  C   UNL A   1      40.190  25.953  28.658  1.00  0.00     0.029 A 
ATOM     46  C   UNL A   1      40.730  27.248  29.016  1.00  0.00     0.049 A 
ATOM     47  H   UNL A   1      42.742  27.828  28.915  1.00  0.00     0.167 HD
ATOM     48  C   UNL A   1      46.718  29.263  27.587  1.00  0.00     0.037 A 
ATOM     49  C   UNL A   1      40.110  28.350  29.512  1.00  0.00     0.037 A 
ATOM     50  C   UNL A   1      46.906  28.992  28.993  1.00  0.00     0.049 A 
ATOM     51  C   UNL A   1      41.181  29.205  30.100  1.00  0.00     0.074 A 
ATOM     52  C   UNL A   1      47.546  27.992  29.703  1.00  0.00     0.029 A 
ATOM     53  N   UNL A   1      46.030  29.575  29.880  1.00  0.00    -0.354 N 
ATOM     54  N   UNL A   1      41.895  28.851  31.137  1.00  0.00    -0.248 NA
ATOM     55  C   UNL A   1      41.799  30.192  29.228  1.00  0.00     0.031 C 
ATOM     56  C   UNL A   1      46.662  27.689  30.780  1.00  0.00     0.029 A 
ATOM     57  C   UNL A   1      45.594  28.587  30.730  1.00  0.00     0.049 A 
ATOM     58  H   UNL A   1      45.765  30.522  29.902  1.00  0.00     0.167 HD
ATOM     59  C   UNL A   1      43.194  29.226  30.822  1.00  0.00     0.074 A 
ATOM     60  C   UNL A   1      43.062  30.102  29.657  1.00  0.00     0.031 C 
ATOM     61  C   UNL A   1      44.277  28.563  31.332  1.00  0.00     0.037 A 
BRANCH  48  62
ATOM     62  C   UNL A   1      46.803  30.661  27.021  1.00  0.00     0.058 A 
ATOM     63  C   UNL A   1      48.046  31.329  27.023  1.00  0.00     0.135 A 
ATOM     64  C   UNL A   1      45.682  31.469  26.726  1.00  0.00     0.135 A 
ATOM     65  F   UNL A   1      49.180  30.665  27.298  1.00  0.00    -0.206 F 
ATOM     66  C   UNL A   1      48.156  32.706  26.820  1.00  0.00     0.059 A 
ATOM     67  C   UNL A   1      45.776  32.831  26.465  1.00  0.00     0.059 A 
ATOM     68  F   UNL A   1      44.429  31.002  26.769  1.00  0.00    -0.206 F 
ATOM     69  C   UNL A   1      47.012  33.449  26.553  1.00  0.00     0.060 A 
BRANCH  69  70
ATOM     70  S   UNL A   1      47.138  35.235  26.370  1.00  0.00     0.124 S 
ATOM     71  O   UNL A   1      45.904  35.543  25.656  1.00  0.00    -0.237 OA
ATOM     72  O   UNL A   1      47.201  35.676  27.761  1.00  0.00    -0.237 OA
ATOM     73  O   UNL A   1      48.371  35.409  25.608  1.00  0.00    -0.744 OA
ENDBRANCH  69  70
ENDBRANCH  48  62
BRANCH  49  74
ATOM     74  C   UNL A   1      38.753  28.861  29.161  1.00  0.00     0.058 A 
ATOM     75  C   UNL A   1      37.771  29.073  30.146  1.00  0.00     0.135 A 
ATOM     76  C   UNL A   1      38.479  29.413  27.891  1.00  0.00     0.135 A 
ATOM     77  F   UNL A   1      37.952  28.601  31.389  1.00  0.00    -0.206 F 
ATOM     78  C   UNL A   1      36.614  29.828  29.902  1.00  0.00     0.059 A 
ATOM     79  C   UNL A   1      37.331  30.158  27.622  1.00  0.00     0.059 A 
ATOM     80  F   UNL A   1      39.366  29.323  26.890  1.00  0.00    -0.206 F 
ATOM     81  C   UNL A   1      36.414  30.386  28.640  1.00  0.00     0.060 A 
BRANCH  81  82
ATOM     82  S   UNL A   1      35.022  31.512  28.367  1.00  0.00     0.124 S 
ATOM     83  O   UNL A   1      34.697  31.927  29.728  1.00  0.00    -0.237 OA
ATOM     84  O   UNL A   1      35.615  32.535  27.513  1.00  0.00    -0.237 OA
ATOM     85  O   UNL A   1      34.023  30.666  27.717  1.00  0.00    -0.744 OA
ENDBRANCH  81  82
ENDBRANCH  49  74
BRANCH  61  86
ATOM     86  C   UNL A   1      44.075  27.578  32.459  1.00  0.00     0.058 A 
ATOM     87  C   UNL A   1      43.981  26.182  32.305  1.00  0.00     0.135 A 
ATOM     88  C   UNL A   1      44.162  28.066  33.772  1.00  0.00     0.135 A 
ATOM     89  F   UNL A   1      44.002  25.618  31.090  1.00  0.00    -0.206 F 
ATOM     90  C   UNL A   1      43.935  25.320  33.405  1.00  0.00     0.059 A 
ATOM     91  C   UNL A   1      44.152  27.224  34.880  1.00  0.00     0.059 A 
ATOM     92  F   UNL A   1      44.317  29.382  33.991  1.00  0.00    -0.206 F 
ATOM     93  C   UNL A   1      44.023  25.851  34.691  1.00  0.00     0.060 A 
BRANCH  93  94
ATOM     94  S   UNL A   1      44.022  24.738  36.113  1.00  0.00     0.124 S 
ATOM     95  O   UNL A   1      45.443  24.630  36.418  1.00  0.00    -0.237 OA
ATOM     96  O   UNL A   1      43.216  25.469  37.088  1.00  0.00    -0.237 OA
ATOM     97  O   UNL A   1      43.401  23.521  35.594  1.00  0.00    -0.744 OA
ENDBRANCH  93  94
ENDBRANCH  61  86
ENDBRANCH  35  36
ENDBRANCH  27  30
ENDBRANCH  25  26
ENDBRANCH  24  25
ENDBRANCH   1  24
TORSDOF 18
ENDMDL
MODEL 2
REMARK VINA RESULT:     -11.7      2.476      3.231
REMARK SMILES CCC(C)(C)[C@@H]1CCc2c(sc(=O)n2CCCC(=O)NCCCNC(=O)c2ccc(-c3c4nc(c(-c5c(F)cc(S(=O)(=O)[O-])cc5F)c5ccc([nH]5)c(-c5c(F)cc(S(=O)(=O)[O-])cc5F)c5nc(c(-c6c(F)cc(S(=O)(=O)[O-])cc6F)c6ccc3[nH]6)C=C5)C=C4)cc2)C1
REMARK SMILES IDX 21 1 20 2 18 3 19 4 17 6 16 7 15 8 14 9 6 10 7 11 93 12 8 13
REMARK SMILES IDX 10 14 9 15 11 16 12 17 13 18 3 19 4 20 5 21 2 22 1 23 22 24
REMARK SMILES IDX 23 25 24 26 25 27 26 29 27 30 28 31 92 32 29 33 91 34 30 35
REMARK SMILES IDX 31 36 32 37 85 38 33 39 90 40 84 41 86 42 34 43 89 44 83 45
REMARK SMILES IDX 82 46 35 48 69 49 48 50 68 51 49 52 52 53 67 54 87 55 50 56
REMARK SMILES IDX 51 57 66 59 88 60 53 61 36 62 37 63 46 64 38 65 39 66 45 67
REMARK SMILES IDX 47 68 40 69 41 70 42 71 43 72 44 73 70 74 71 75 80 76 72 77
REMARK SMILES IDX 73 78 79 79 81 80 74 81 75 82 76 83 77 84 78 85 54 86 55 87
REMARK SMILES IDX 64 88 56 89 57 90 63 91 65 92 58 93 59 94 60 95 61 96 62 97
REMARK H PARENT 20 5 24 28 86 47 52 58
REMARK Flexibility Score: inf
ROOT
ATOM      1  C   UNL A   1      37.785  23.410  25.830  1.00  0.00     0.117 C 
ENDROOT
BRANCH   1   2
ATOM      2  N   UNL A   1      37.461  23.390  24.416  1.00  0.00    -0.356 N 
ATOM      3  C   UNL A   1      36.453  22.808  23.718  1.00  0.00     0.220 C 
ATOM      4  O   UNL A   1      36.414  23.044  22.506  1.00  0.00    -0.275 OA
ATOM      5  H   UNL A   1      38.093  23.895  23.855  1.00  0.00     0.163 HD
BRANCH   3   6
ATOM      6  C   UNL A   1      35.349  21.983  24.353  1.00  0.00     0.102 C 
BRANCH   6   7
ATOM      7  C   UNL A   1      34.094  22.651  24.911  1.00  0.00     0.032 C 
BRANCH   7   8
ATOM      8  C   UNL A   1      32.799  22.771  24.112  1.00  0.00     0.127 C 
BRANCH   8   9
ATOM      9  N   UNL A   1      32.462  23.931  23.274  1.00  0.00    -0.303 N 
ATOM     10  C   UNL A   1      31.302  27.670  25.021  1.00  0.00     0.000 C 
ATOM     11  C   UNL A   1      30.617  26.411  25.604  1.00  0.00     0.011 C 
ATOM     12  C   UNL A   1      31.395  27.492  23.481  1.00  0.00     0.053 C 
ATOM     13  C   UNL A   1      31.282  25.069  25.232  1.00  0.00     0.055 C 
ATOM     14  C   UNL A   1      31.880  26.149  23.075  1.00  0.00     0.030 A 
ATOM     15  C   UNL A   1      31.868  25.059  23.852  1.00  0.00     0.035 A 
ATOM     16  S   UNL A   1      32.558  25.837  21.524  1.00  0.00    -0.079 S 
ATOM     17  C   UNL A   1      32.889  24.157  21.968  1.00  0.00     0.307 A 
ATOM     18  O   UNL A   1      33.453  23.413  21.179  1.00  0.00    -0.257 OA
BRANCH  10  19
ATOM     19  C   UNL A   1      32.600  28.194  25.786  1.00  0.00    -0.032 C 
ATOM     20  C   UNL A   1      33.456  28.987  24.767  1.00  0.00     0.011 C 
ATOM     21  C   UNL A   1      33.477  27.001  26.250  1.00  0.00     0.011 C 
BRANCH  19  22
ATOM     22  C   UNL A   1      32.363  29.068  27.053  1.00  0.00     0.003 C 
ATOM     23  C   UNL A   1      31.841  30.490  26.860  1.00  0.00     0.004 C 
ENDBRANCH  19  22
ENDBRANCH  10  19
ENDBRANCH   8   9
ENDBRANCH   7   8
ENDBRANCH   6   7
ENDBRANCH   3   6
ENDBRANCH   1   2
BRANCH   1  24
ATOM     24  C   UNL A   1      38.747  22.279  26.213  1.00  0.00     0.042 C 
BRANCH  24  25
ATOM     25  C   UNL A   1      39.991  22.764  26.923  1.00  0.00     0.118 C 
BRANCH  25  26
ATOM     26  N   UNL A   1      41.237  22.356  26.267  1.00  0.00    -0.352 N 
ATOM     27  C   UNL A   1      42.213  23.190  25.737  1.00  0.00     0.251 C 
ATOM     28  H   UNL A   1      41.399  21.388  26.194  1.00  0.00     0.163 HD
ATOM     29  O   UNL A   1      43.023  22.776  24.919  1.00  0.00    -0.269 OA
BRANCH  27  30
ATOM     30  C   UNL A   1      42.231  24.593  26.189  1.00  0.00     0.039 A 
ATOM     31  C   UNL A   1      41.387  25.570  25.657  1.00  0.00     0.014 A 
ATOM     32  C   UNL A   1      43.056  24.878  27.270  1.00  0.00     0.014 A 
ATOM     33  C   UNL A   1      41.315  26.805  26.300  1.00  0.00     0.010 A 
ATOM     34  C   UNL A   1      42.788  25.974  28.036  1.00  0.00     0.010 A 
ATOM     35  C   UNL A   1      41.998  26.986  27.514  1.00  0.00    -0.014 A 
BRANCH  35  36
ATOM     36  C   UNL A   1      41.838  28.186  28.324  1.00  0.00     0.031 A 
ATOM     37  C   UNL A   1      42.918  29.193  28.143  1.00  0.00     0.074 A 
ATOM     38  C   UNL A   1      40.693  28.459  28.991  1.00  0.00     0.049 A 
ATOM     39  N   UNL A   1      43.839  29.515  28.989  1.00  0.00    -0.248 NA
ATOM     40  C   UNL A   1      43.117  29.780  26.806  1.00  0.00     0.031 C 
ATOM     41  C   UNL A   1      39.428  27.708  28.993  1.00  0.00     0.029 A 
ATOM     42  N   UNL A   1      40.376  29.552  29.731  1.00  0.00    -0.354 N 
ATOM     43  C   UNL A   1      44.568  30.536  28.388  1.00  0.00     0.074 A 
ATOM     44  C   UNL A   1      44.232  30.493  26.990  1.00  0.00     0.031 C 
ATOM     45  C   UNL A   1      38.433  28.488  29.470  1.00  0.00     0.029 A 
ATOM     46  C   UNL A   1      39.013  29.713  29.980  1.00  0.00     0.049 A 
ATOM     47  H   UNL A   1      41.055  30.182  30.065  1.00  0.00     0.167 HD
ATOM     48  C   UNL A   1      45.184  31.494  29.138  1.00  0.00     0.037 A 
ATOM     49  C   UNL A   1      38.418  30.801  30.534  1.00  0.00     0.037 A 
ATOM     50  C   UNL A   1      45.257  31.090  30.523  1.00  0.00     0.049 A 
ATOM     51  C   UNL A   1      39.488  31.537  31.267  1.00  0.00     0.074 A 
ATOM     52  C   UNL A   1      45.793  29.996  31.178  1.00  0.00     0.029 A 
ATOM     53  N   UNL A   1      44.353  31.642  31.401  1.00  0.00    -0.354 N 
ATOM     54  N   UNL A   1      40.108  31.052  32.312  1.00  0.00    -0.248 NA
ATOM     55  C   UNL A   1      40.217  32.560  30.532  1.00  0.00     0.031 C 
ATOM     56  C   UNL A   1      44.821  29.651  32.163  1.00  0.00     0.029 A 
ATOM     57  C   UNL A   1      43.808  30.610  32.125  1.00  0.00     0.049 A 
ATOM     58  H   UNL A   1      44.137  32.598  31.492  1.00  0.00     0.167 HD
ATOM     59  C   UNL A   1      41.444  31.377  32.119  1.00  0.00     0.074 A 
ATOM     60  C   UNL A   1      41.440  32.359  31.032  1.00  0.00     0.031 C 
ATOM     61  C   UNL A   1      42.452  30.611  32.634  1.00  0.00     0.037 A 
BRANCH  48  62
ATOM     62  C   UNL A   1      45.382  32.930  28.710  1.00  0.00     0.058 A 
ATOM     63  C   UNL A   1      46.673  33.494  28.770  1.00  0.00     0.135 A 
ATOM     64  C   UNL A   1      44.329  33.849  28.502  1.00  0.00     0.135 A 
ATOM     65  F   UNL A   1      47.750  32.718  28.972  1.00  0.00    -0.206 F 
ATOM     66  C   UNL A   1      46.894  34.870  28.700  1.00  0.00     0.059 A 
ATOM     67  C   UNL A   1      44.532  35.218  28.374  1.00  0.00     0.059 A 
ATOM     68  F   UNL A   1      43.042  33.482  28.507  1.00  0.00    -0.206 F 
ATOM     69  C   UNL A   1      45.813  35.725  28.514  1.00  0.00     0.060 A 
BRANCH  69  70
ATOM     70  S   UNL A   1      46.082  37.504  28.504  1.00  0.00     0.124 S 
ATOM     71  O   UNL A   1      45.830  37.829  27.105  1.00  0.00    -0.237 OA
ATOM     72  O   UNL A   1      45.078  37.965  29.460  1.00  0.00    -0.237 OA
ATOM     73  O   UNL A   1      47.466  37.637  28.946  1.00  0.00    -0.744 OA
ENDBRANCH  69  70
ENDBRANCH  48  62
BRANCH  49  74
ATOM     74  C   UNL A   1      37.118  31.419  30.143  1.00  0.00     0.058 A 
ATOM     75  C   UNL A   1      36.257  31.986  31.101  1.00  0.00     0.135 A 
ATOM     76  C   UNL A   1      36.817  31.713  28.796  1.00  0.00     0.135 A 
ATOM     77  F   UNL A   1      36.475  31.777  32.408  1.00  0.00    -0.206 F 
ATOM     78  C   UNL A   1      35.196  32.833  30.748  1.00  0.00     0.059 A 
ATOM     79  C   UNL A   1      35.761  32.544  28.421  1.00  0.00     0.059 A 
ATOM     80  F   UNL A   1      37.598  31.275  27.799  1.00  0.00    -0.206 F 
ATOM     81  C   UNL A   1      34.969  33.124  29.404  1.00  0.00     0.060 A 
BRANCH  81  82
ATOM     82  S   UNL A   1      33.723  34.357  28.950  1.00  0.00     0.124 S 
ATOM     83  O   UNL A   1      34.544  35.425  28.390  1.00  0.00    -0.237 OA
ATOM     84  O   UNL A   1      32.895  33.624  27.999  1.00  0.00    -0.237 OA
ATOM     85  O   UNL A   1      33.075  34.670  30.222  1.00  0.00    -0.744 OA
ENDBRANCH  81  82
ENDBRANCH  49  74
BRANCH  61  86
ATOM     86  C   UNL A   1      42.119  29.543  33.651  1.00  0.00     0.058 A 
ATOM     87  C   UNL A   1      41.741  28.223  33.342  1.00  0.00     0.135 A 
ATOM     88  C   UNL A   1      42.374  29.829  35.000  1.00  0.00     0.135 A 
ATOM     89  F   UNL A   1      41.583  27.829  32.071  1.00  0.00    -0.206 F 
ATOM     90  C   UNL A   1      41.585  27.249  34.333  1.00  0.00     0.059 A 
ATOM     91  C   UNL A   1      42.257  28.867  36.000  1.00  0.00     0.059 A 
ATOM     92  F   UNL A   1      42.800  31.051  35.360  1.00  0.00    -0.206 F 
ATOM     93  C   UNL A   1      41.847  27.581  35.661  1.00  0.00     0.060 A 
BRANCH  93  94
ATOM     94  S   UNL A   1      41.703  26.312  36.938  1.00  0.00     0.124 S 
ATOM     95  O   UNL A   1      42.886  26.562  37.753  1.00  0.00    -0.237 OA
ATOM     96  O   UNL A   1      40.422  26.634  37.562  1.00  0.00    -0.237 OA
ATOM     97  O   UNL A   1      41.719  25.062  36.182  1.00  0.00    -0.744 OA
ENDBRANCH  93  94
ENDBRANCH  61  86
ENDBRANCH  35  36
ENDBRANCH  27  30
ENDBRANCH  25  26
ENDBRANCH  24  25
ENDBRANCH   1  24
TORSDOF 18
ENDMDL
MODEL 3
REMARK VINA RESULT:     -11.6      2.717      9.387
REMARK SMILES CCC(C)(C)[C@@H]1CCc2c(sc(=O)n2CCCC(=O)NCCCNC(=O)c2ccc(-c3c4nc(c(-c5c(F)cc(S(=O)(=O)[O-])cc5F)c5ccc([nH]5)c(-c5c(F)cc(S(=O)(=O)[O-])cc5F)c5nc(c(-c6c(F)cc(S(=O)(=O)[O-])cc6F)c6ccc3[nH]6)C=C5)C=C4)cc2)C1
REMARK SMILES IDX 21 1 20 2 18 3 19 4 17 6 16 7 15 8 14 9 6 10 7 11 93 12 8 13
REMARK SMILES IDX 10 14 9 15 11 16 12 17 13 18 3 19 4 20 5 21 2 22 1 23 22 24
REMARK SMILES IDX 23 25 24 26 25 27 26 29 27 30 28 31 92 32 29 33 91 34 30 35
REMARK SMILES IDX 31 36 32 37 85 38 33 39 90 40 84 41 86 42 34 43 89 44 83 45
REMARK SMILES IDX 82 46 35 48 69 49 48 50 68 51 49 52 52 53 67 54 87 55 50 56
REMARK SMILES IDX 51 57 66 59 88 60 53 61 36 62 37 63 46 64 38 65 39 66 45 67
REMARK SMILES IDX 47 68 40 69 41 70 42 71 43 72 44 73 70 74 71 75 80 76 72 77
REMARK SMILES IDX 73 78 79 79 81 80 74 81 75 82 76 83 77 84 78 85 54 86 55 87
REMARK SMILES IDX 64 88 56 89 57 90 63 91 65 92 58 93 59 94 60 95 61 96 62 97
REMARK H PARENT 20 5 24 28 86 47 52 58
REMARK Flexibility Score: inf
ROOT
ATOM      1  C   UNL A   1      32.452  29.583  25.291  1.00  0.00     0.117 C 
ENDROOT
BRANCH   1   2
ATOM      2  N   UNL A   1      31.193  30.081  24.772  1.00  0.00    -0.356 N 
ATOM      3  C   UNL A   1      30.359  29.623  23.803  1.00  0.00     0.220 C 
ATOM      4  O   UNL A   1      29.304  30.246  23.644  1.00  0.00    -0.275 OA
ATOM      5  H   UNL A   1      30.882  30.909  25.205  1.00  0.00     0.163 HD
BRANCH   3   6
ATOM      6  C   UNL A   1      30.610  28.364  22.995  1.00  0.00     0.102 C 
BRANCH   6   7
ATOM      7  C   UNL A   1      30.263  26.988  23.560  1.00  0.00     0.032 C 
BRANCH   7   8
ATOM      8  C   UNL A   1      31.297  26.085  24.226  1.00  0.00     0.127 C 
BRANCH   8   9
ATOM      9  N   UNL A   1      30.962  24.818  24.895  1.00  0.00    -0.303 N 
ATOM     10  C   UNL A   1      33.378  21.318  24.352  1.00  0.00     0.000 C 
ATOM     11  C   UNL A   1      33.011  22.092  23.064  1.00  0.00     0.011 C 
ATOM     12  C   UNL A   1      32.125  21.300  25.270  1.00  0.00     0.053 C 
ATOM     13  C   UNL A   1      32.459  23.515  23.286  1.00  0.00     0.055 C 
ATOM     14  C   UNL A   1      31.463  22.625  25.382  1.00  0.00     0.030 A 
ATOM     15  C   UNL A   1      31.622  23.640  24.524  1.00  0.00     0.035 A 
ATOM     16  S   UNL A   1      30.407  23.027  26.681  1.00  0.00    -0.079 S 
ATOM     17  C   UNL A   1      30.212  24.672  26.057  1.00  0.00     0.307 A 
ATOM     18  O   UNL A   1      29.530  25.483  26.668  1.00  0.00    -0.257 OA
BRANCH  10  19
ATOM     19  C   UNL A   1      34.782  21.672  25.022  1.00  0.00    -0.032 C 
ATOM     20  C   UNL A   1      35.683  20.417  24.912  1.00  0.00     0.011 C 
ATOM     21  C   UNL A   1      34.607  21.946  26.539  1.00  0.00     0.011 C 
BRANCH  19  22
ATOM     22  C   UNL A   1      35.541  22.906  24.451  1.00  0.00     0.003 C 
ATOM     23  C   UNL A   1      35.470  24.219  25.227  1.00  0.00     0.004 C 
ENDBRANCH  19  22
ENDBRANCH  10  19
ENDBRANCH   8   9
ENDBRANCH   7   8
ENDBRANCH   6   7
ENDBRANCH   3   6
ENDBRANCH   1   2
BRANCH   1  24
ATOM     24  C   UNL A   1      32.387  29.328  26.802  1.00  0.00     0.042 C 
BRANCH  24  25
ATOM     25  C   UNL A   1      33.628  29.775  27.540  1.00  0.00     0.118 C 
BRANCH  25  26
ATOM     26  N   UNL A   1      34.034  31.149  27.225  1.00  0.00    -0.352 N 
ATOM     27  C   UNL A   1      35.184  31.797  27.654  1.00  0.00     0.251 C 
ATOM     28  H   UNL A   1      33.426  31.665  26.649  1.00  0.00     0.163 HD
ATOM     29  O   UNL A   1      35.266  33.019  27.637  1.00  0.00    -0.269 OA
BRANCH  27  30
ATOM     30  C   UNL A   1      36.298  30.963  28.139  1.00  0.00     0.039 A 
ATOM     31  C   UNL A   1      36.559  29.685  27.640  1.00  0.00     0.014 A 
ATOM     32  C   UNL A   1      37.163  31.562  29.046  1.00  0.00     0.014 A 
ATOM     33  C   UNL A   1      37.759  29.069  27.992  1.00  0.00     0.010 A 
ATOM     34  C   UNL A   1      38.431  31.077  29.171  1.00  0.00     0.010 A 
ATOM     35  C   UNL A   1      38.708  29.791  28.735  1.00  0.00    -0.014 A 
BRANCH  35  36
ATOM     36  C   UNL A   1      40.045  29.276  28.998  1.00  0.00     0.031 A 
ATOM     37  C   UNL A   1      40.352  29.084  30.440  1.00  0.00     0.074 A 
ATOM     38  C   UNL A   1      40.837  28.792  28.013  1.00  0.00     0.049 A 
ATOM     39  N   UNL A   1      41.167  29.773  31.166  1.00  0.00    -0.248 NA
ATOM     40  C   UNL A   1      39.529  28.139  31.216  1.00  0.00     0.031 C 
ATOM     41  C   UNL A   1      40.531  28.622  26.585  1.00  0.00     0.029 A 
ATOM     42  N   UNL A   1      42.071  28.231  28.109  1.00  0.00    -0.354 N 
ATOM     43  C   UNL A   1      41.156  29.177  32.423  1.00  0.00     0.074 A 
ATOM     44  C   UNL A   1      39.983  28.344  32.455  1.00  0.00     0.031 C 
ATOM     45  C   UNL A   1      41.426  27.780  26.022  1.00  0.00     0.029 A 
ATOM     46  C   UNL A   1      42.468  27.503  26.988  1.00  0.00     0.049 A 
ATOM     47  H   UNL A   1      42.638  28.330  28.906  1.00  0.00     0.167 HD
ATOM     48  C   UNL A   1      42.255  29.219  33.230  1.00  0.00     0.037 A 
ATOM     49  C   UNL A   1      43.562  26.703  26.892  1.00  0.00     0.037 A 
ATOM     50  C   UNL A   1      43.196  30.209  32.761  1.00  0.00     0.049 A 
ATOM     51  C   UNL A   1      44.493  27.136  27.974  1.00  0.00     0.074 A 
ATOM     52  C   UNL A   1      43.119  31.568  32.513  1.00  0.00     0.029 A 
ATOM     53  N   UNL A   1      44.298  29.767  32.065  1.00  0.00    -0.354 N 
ATOM     54  N   UNL A   1      45.064  28.312  28.003  1.00  0.00    -0.248 NA
ATOM     55  C   UNL A   1      44.370  26.473  29.263  1.00  0.00     0.031 C 
ATOM     56  C   UNL A   1      43.833  31.756  31.294  1.00  0.00     0.029 A 
ATOM     57  C   UNL A   1      44.393  30.531  30.927  1.00  0.00     0.049 A 
ATOM     58  H   UNL A   1      44.904  29.039  32.332  1.00  0.00     0.167 HD
ATOM     59  C   UNL A   1      44.977  28.720  29.328  1.00  0.00     0.074 A 
ATOM     60  C   UNL A   1      44.591  27.517  30.068  1.00  0.00     0.031 C 
ATOM     61  C   UNL A   1      44.923  30.043  29.670  1.00  0.00     0.037 A 
BRANCH  48  62
ATOM     62  C   UNL A   1      42.651  28.134  34.204  1.00  0.00     0.058 A 
ATOM     63  C   UNL A   1      42.696  28.431  35.583  1.00  0.00     0.135 A 
ATOM     64  C   UNL A   1      43.243  26.907  33.830  1.00  0.00     0.135 A 
ATOM     65  F   UNL A   1      42.172  29.574  36.055  1.00  0.00    -0.206 F 
ATOM     66  C   UNL A   1      43.341  27.607  36.506  1.00  0.00     0.059 A 
ATOM     67  C   UNL A   1      43.842  26.045  34.741  1.00  0.00     0.059 A 
ATOM     68  F   UNL A   1      43.357  26.524  32.553  1.00  0.00    -0.206 F 
ATOM     69  C   UNL A   1      43.921  26.420  36.071  1.00  0.00     0.060 A 
BRANCH  69  70
ATOM     70  S   UNL A   1      44.824  25.394  37.242  1.00  0.00     0.124 S 
ATOM     71  O   UNL A   1      44.257  25.833  38.511  1.00  0.00    -0.237 OA
ATOM     72  O   UNL A   1      44.458  24.049  36.808  1.00  0.00    -0.237 OA
ATOM     73  O   UNL A   1      46.217  25.763  37.009  1.00  0.00    -0.744 OA
ENDBRANCH  69  70
ENDBRANCH  48  62
BRANCH  49  74
ATOM     74  C   UNL A   1      43.663  25.385  26.202  1.00  0.00     0.058 A 
ATOM     75  C   UNL A   1      44.684  25.120  25.270  1.00  0.00     0.135 A 
ATOM     76  C   UNL A   1      42.928  24.264  26.642  1.00  0.00     0.135 A 
ATOM     77  F   UNL A   1      45.449  26.121  24.808  1.00  0.00    -0.206 F 
ATOM     78  C   UNL A   1      44.990  23.820  24.842  1.00  0.00     0.059 A 
ATOM     79  C   UNL A   1      43.207  22.963  26.222  1.00  0.00     0.059 A 
ATOM     80  F   UNL A   1      41.967  24.385  27.570  1.00  0.00    -0.206 F 
ATOM     81  C   UNL A   1      44.258  22.744  25.342  1.00  0.00     0.060 A 
BRANCH  81  82
ATOM     82  S   UNL A   1      44.762  21.052  24.940  1.00  0.00     0.124 S 
ATOM     83  O   UNL A   1      43.799  20.261  25.699  1.00  0.00    -0.237 OA
ATOM     84  O   UNL A   1      44.610  21.020  23.490  1.00  0.00    -0.237 OA
ATOM     85  O   UNL A   1      46.141  20.985  25.419  1.00  0.00    -0.744 OA
ENDBRANCH  81  82
ENDBRANCH  49  74
BRANCH  61  86
ATOM     86  C   UNL A   1      45.228  31.089  28.623  1.00  0.00     0.058 A 
ATOM     87  C   UNL A   1      44.320  31.549  27.651  1.00  0.00     0.135 A 
ATOM     88  C   UNL A   1      46.444  31.781  28.732  1.00  0.00     0.135 A 
ATOM     89  F   UNL A   1      43.093  31.020  27.547  1.00  0.00    -0.206 F 
ATOM     90  C   UNL A   1      44.625  32.618  26.804  1.00  0.00     0.059 A 
ATOM     91  C   UNL A   1      46.755  32.869  27.922  1.00  0.00     0.059 A 
ATOM     92  F   UNL A   1      47.331  31.436  29.680  1.00  0.00    -0.206 F 
ATOM     93  C   UNL A   1      45.847  33.274  26.948  1.00  0.00     0.060 A 
BRANCH  93  94
ATOM     94  S   UNL A   1      46.223  34.692  25.895  1.00  0.00     0.124 S 
ATOM     95  O   UNL A   1      45.583  35.787  26.615  1.00  0.00    -0.237 OA
ATOM     96  O   UNL A   1      47.683  34.704  25.887  1.00  0.00    -0.237 OA
ATOM     97  O   UNL A   1      45.605  34.342  24.617  1.00  0.00    -0.744 OA
ENDBRANCH  93  94
ENDBRANCH  61  86
ENDBRANCH  35  36
ENDBRANCH  27  30
ENDBRANCH  25  26
ENDBRANCH  24  25
ENDBRANCH   1  24
TORSDOF 18
ENDMDL
