MODEL 1
REMARK VINA RESULT:     -11.8      0.000      0.000
REMARK SMILES O=C(NCCCNC(=O)c1ccc(-c2c3nc(c(-c4c(F)cc(S(=O)(=O)[O-])cc4F)c4ccc([nH]4)c(-c4c(F)cc(S(=O)(=O)[O-])cc4F)c4nc(c(-c5c(F)cc(S(=O)(=O)[O-])cc5F)c5ccc2[nH]5)C=C4)C=C3)cc1)C1=Cc2cc(Cl)cc(Cl)c2O[C@@H]1C(F)(F)F
REMARK SMILES IDX 6 1 5 2 4 3 3 4 1 5 2 6 76 8 77 9 87 10 78 11 86 12 79 13
REMARK SMILES IDX 85 14 80 15 83 16 81 17 82 18 84 19 88 20 89 21 90 22 91 23
REMARK SMILES IDX 7 24 8 25 9 27 10 28 11 29 75 30 12 31 74 32 13 33 14 34
REMARK SMILES IDX 15 35 68 36 16 37 73 38 67 39 69 40 17 41 72 42 66 43 65 44
REMARK SMILES IDX 18 46 52 47 31 48 51 49 32 50 35 51 50 52 70 53 33 54 34 55
REMARK SMILES IDX 49 57 71 58 36 59 19 60 20 61 29 62 21 63 22 64 28 65 30 66
REMARK SMILES IDX 23 67 24 68 25 69 26 70 27 71 53 72 54 73 63 74 55 75 56 76
REMARK SMILES IDX 62 77 64 78 57 79 58 80 59 81 60 82 61 83 37 84 38 85 47 86
REMARK SMILES IDX 39 87 40 88 46 89 48 90 41 91 42 92 43 93 44 94 45 95
REMARK H PARENT 3 7 7 26 69 45 35 56
REMARK Flexibility Score: inf
ROOT
ATOM      1  C   UNL A   1      33.568  28.363  27.185  1.00  0.00     0.118 C 
ENDROOT
BRANCH   1   2
ATOM      2  C   UNL A   1      33.614  28.191  25.672  1.00  0.00     0.042 C 
BRANCH   2   3
ATOM      3  C   UNL A   1      32.485  27.312  25.150  1.00  0.00     0.118 C 
BRANCH   3   4
ATOM      4  N   UNL A   1      32.146  26.213  26.056  1.00  0.00    -0.352 N 
ATOM      5  O   UNL A   1      32.380  24.197  27.067  1.00  0.00    -0.270 OA
ATOM      6  C   UNL A   1      32.597  24.918  26.102  1.00  0.00     0.251 C 
ATOM      7  H   UNL A   1      31.484  26.441  26.748  1.00  0.00     0.163 HD
BRANCH   6   8
ATOM      8  C   UNL A   1      33.437  24.456  24.983  1.00  0.00     0.067 C 
ATOM      9  C   UNL A   1      34.738  24.765  24.998  1.00  0.00     0.025 C 
ATOM     10  C   UNL A   1      32.874  23.375  24.119  1.00  0.00     0.314 C 
ATOM     11  C   UNL A   1      35.591  23.582  24.810  1.00  0.00     0.020 A 
ATOM     12  O   UNL A   1      33.704  22.191  24.106  1.00  0.00    -0.474 OA
ATOM     13  C   UNL A   1      36.881  23.639  25.351  1.00  0.00     0.032 A 
ATOM     14  C   UNL A   1      35.011  22.330  24.516  1.00  0.00     0.146 A 
ATOM     15  C   UNL A   1      37.544  22.460  25.686  1.00  0.00     0.043 A 
ATOM     16  C   UNL A   1      35.706  21.155  24.837  1.00  0.00     0.085 A 
ATOM     17  Cl  UNL A   1      39.046  22.544  26.517  1.00  0.00    -0.084 Cl
ATOM     18  C   UNL A   1      36.958  21.219  25.447  1.00  0.00     0.045 A 
ATOM     19  Cl  UNL A   1      34.962  19.603  24.659  1.00  0.00    -0.080 Cl
BRANCH  10  20
ATOM     20  C   UNL A   1      32.637  23.887  22.689  1.00  0.00     0.429 C 
ATOM     21  F   UNL A   1      31.339  24.227  22.498  1.00  0.00    -0.167 F 
ATOM     22  F   UNL A   1      33.372  24.992  22.417  1.00  0.00    -0.167 F 
ATOM     23  F   UNL A   1      32.949  22.959  21.753  1.00  0.00    -0.167 F 
ENDBRANCH  10  20
ENDBRANCH   6   8
ENDBRANCH   3   4
ENDBRANCH   2   3
ENDBRANCH   1   2
BRANCH   1  24
ATOM     24  N   UNL A   1      33.505  29.749  27.635  1.00  0.00    -0.352 N 
ATOM     25  C   UNL A   1      34.492  30.554  28.179  1.00  0.00     0.251 C 
ATOM     26  H   UNL A   1      32.625  30.179  27.538  1.00  0.00     0.163 HD
ATOM     27  O   UNL A   1      34.208  31.680  28.549  1.00  0.00    -0.269 OA
BRANCH  25  28
ATOM     28  C   UNL A   1      35.873  30.032  28.353  1.00  0.00     0.039 A 
ATOM     29  C   UNL A   1      36.770  30.107  27.282  1.00  0.00     0.014 A 
ATOM     30  C   UNL A   1      36.297  29.499  29.568  1.00  0.00     0.014 A 
ATOM     31  C   UNL A   1      38.104  29.725  27.465  1.00  0.00     0.010 A 
ATOM     32  C   UNL A   1      37.647  29.262  29.788  1.00  0.00     0.010 A 
ATOM     33  C   UNL A   1      38.566  29.343  28.735  1.00  0.00    -0.014 A 
BRANCH  33  34
ATOM     34  C   UNL A   1      39.984  28.972  28.985  1.00  0.00     0.031 A 
ATOM     35  C   UNL A   1      40.929  29.993  29.574  1.00  0.00     0.074 A 
ATOM     36  C   UNL A   1      40.444  27.762  28.607  1.00  0.00     0.049 A 
ATOM     37  N   UNL A   1      42.222  29.917  29.759  1.00  0.00    -0.248 NA
ATOM     38  C   UNL A   1      40.352  31.295  29.951  1.00  0.00     0.031 C 
ATOM     39  C   UNL A   1      39.655  26.716  27.951  1.00  0.00     0.029 A 
ATOM     40  N   UNL A   1      41.695  27.207  28.716  1.00  0.00    -0.354 N 
ATOM     41  C   UNL A   1      42.611  31.168  30.229  1.00  0.00     0.074 A 
ATOM     42  C   UNL A   1      41.435  32.006  30.224  1.00  0.00     0.031 C 
ATOM     43  C   UNL A   1      40.426  25.635  27.756  1.00  0.00     0.029 A 
ATOM     44  C   UNL A   1      41.773  25.919  28.240  1.00  0.00     0.049 A 
ATOM     45  H   UNL A   1      42.465  27.686  29.100  1.00  0.00     0.167 HD
ATOM     46  C   UNL A   1      43.826  31.572  30.670  1.00  0.00     0.037 A 
ATOM     47  C   UNL A   1      42.813  25.063  28.206  1.00  0.00     0.037 A 
ATOM     48  C   UNL A   1      44.972  30.708  30.745  1.00  0.00     0.049 A 
ATOM     49  C   UNL A   1      44.134  25.505  28.777  1.00  0.00     0.074 A 
ATOM     50  C   UNL A   1      46.231  30.984  31.247  1.00  0.00     0.029 A 
ATOM     51  N   UNL A   1      44.990  29.386  30.322  1.00  0.00    -0.354 N 
ATOM     52  N   UNL A   1      44.468  26.674  29.271  1.00  0.00    -0.248 NA
ATOM     53  C   UNL A   1      45.212  24.509  28.801  1.00  0.00     0.031 C 
ATOM     54  C   UNL A   1      47.019  29.836  31.102  1.00  0.00     0.029 A 
ATOM     55  C   UNL A   1      46.237  28.832  30.550  1.00  0.00     0.049 A 
ATOM     56  H   UNL A   1      44.227  28.912  29.918  1.00  0.00     0.167 HD
ATOM     57  C   UNL A   1      45.787  26.544  29.694  1.00  0.00     0.074 A 
ATOM     58  C   UNL A   1      46.181  25.178  29.409  1.00  0.00     0.031 C 
ATOM     59  C   UNL A   1      46.600  27.467  30.265  1.00  0.00     0.037 A 
BRANCH  46  60
ATOM     60  C   UNL A   1      43.959  33.000  31.130  1.00  0.00     0.058 A 
ATOM     61  C   UNL A   1      43.671  33.382  32.452  1.00  0.00     0.135 A 
ATOM     62  C   UNL A   1      44.380  34.002  30.241  1.00  0.00     0.135 A 
ATOM     63  F   UNL A   1      43.246  32.469  33.341  1.00  0.00    -0.206 F 
ATOM     64  C   UNL A   1      43.751  34.707  32.863  1.00  0.00     0.059 A 
ATOM     65  C   UNL A   1      44.501  35.331  30.640  1.00  0.00     0.059 A 
ATOM     66  F   UNL A   1      44.669  33.697  28.966  1.00  0.00    -0.206 F 
ATOM     67  C   UNL A   1      44.164  35.676  31.947  1.00  0.00     0.060 A 
BRANCH  67  68
ATOM     68  S   UNL A   1      44.257  37.394  32.495  1.00  0.00     0.124 S 
ATOM     69  O   UNL A   1      43.235  37.422  33.537  1.00  0.00    -0.237 OA
ATOM     70  O   UNL A   1      45.637  37.501  32.959  1.00  0.00    -0.237 OA
ATOM     71  O   UNL A   1      43.945  38.153  31.288  1.00  0.00    -0.744 OA
ENDBRANCH  67  68
ENDBRANCH  46  60
BRANCH  47  72
ATOM     72  C   UNL A   1      42.630  23.687  27.671  1.00  0.00     0.058 A 
ATOM     73  C   UNL A   1      42.714  23.435  26.293  1.00  0.00     0.135 A 
ATOM     74  C   UNL A   1      42.387  22.596  28.518  1.00  0.00     0.135 A 
ATOM     75  F   UNL A   1      42.942  24.446  25.441  1.00  0.00    -0.206 F 
ATOM     76  C   UNL A   1      42.543  22.158  25.771  1.00  0.00     0.059 A 
ATOM     77  C   UNL A   1      42.238  21.303  28.023  1.00  0.00     0.059 A 
ATOM     78  F   UNL A   1      42.319  22.778  29.846  1.00  0.00    -0.206 F 
ATOM     79  C   UNL A   1      42.306  21.096  26.645  1.00  0.00     0.060 A 
BRANCH  79  80
ATOM     80  S   UNL A   1      42.134  19.433  25.962  1.00  0.00     0.124 S 
ATOM     81  O   UNL A   1      40.696  19.357  25.732  1.00  0.00    -0.237 OA
ATOM     82  O   UNL A   1      42.969  19.503  24.767  1.00  0.00    -0.237 OA
ATOM     83  O   UNL A   1      42.650  18.578  27.027  1.00  0.00    -0.744 OA
ENDBRANCH  79  80
ENDBRANCH  47  72
BRANCH  59  84
ATOM     84  C   UNL A   1      47.977  27.014  30.658  1.00  0.00     0.058 A 
ATOM     85  C   UNL A   1      48.241  26.459  31.921  1.00  0.00     0.135 A 
ATOM     86  C   UNL A   1      49.043  27.120  29.750  1.00  0.00     0.135 A 
ATOM     87  F   UNL A   1      47.256  26.337  32.824  1.00  0.00    -0.206 F 
ATOM     88  C   UNL A   1      49.524  26.065  32.285  1.00  0.00     0.059 A 
ATOM     89  C   UNL A   1      50.328  26.705  30.083  1.00  0.00     0.059 A 
ATOM     90  F   UNL A   1      48.840  27.628  28.524  1.00  0.00    -0.206 F 
ATOM     91  C   UNL A   1      50.562  26.198  31.361  1.00  0.00     0.060 A 
BRANCH  91  92
ATOM     92  S   UNL A   1      52.224  25.688  31.845  1.00  0.00     0.124 S 
ATOM     93  O   UNL A   1      52.982  25.978  30.632  1.00  0.00    -0.237 OA
ATOM     94  O   UNL A   1      52.499  26.552  32.987  1.00  0.00    -0.237 OA
ATOM     95  O   UNL A   1      52.064  24.272  32.161  1.00  0.00    -0.744 OA
ENDBRANCH  91  92
ENDBRANCH  59  84
ENDBRANCH  33  34
ENDBRANCH  25  28
ENDBRANCH   1  24
TORSDOF 14
ENDMDL
MODEL 2
REMARK VINA RESULT:     -11.8      4.165      7.020
REMARK SMILES O=C(NCCCNC(=O)c1ccc(-c2c3nc(c(-c4c(F)cc(S(=O)(=O)[O-])cc4F)c4ccc([nH]4)c(-c4c(F)cc(S(=O)(=O)[O-])cc4F)c4nc(c(-c5c(F)cc(S(=O)(=O)[O-])cc5F)c5ccc2[nH]5)C=C4)C=C3)cc1)C1=Cc2cc(Cl)cc(Cl)c2O[C@@H]1C(F)(F)F
REMARK SMILES IDX 6 1 5 2 4 3 3 4 1 5 2 6 76 8 77 9 87 10 78 11 86 12 79 13
REMARK SMILES IDX 85 14 80 15 83 16 81 17 82 18 84 19 88 20 89 21 90 22 91 23
REMARK SMILES IDX 7 24 8 25 9 27 10 28 11 29 75 30 12 31 74 32 13 33 14 34
REMARK SMILES IDX 15 35 68 36 16 37 73 38 67 39 69 40 17 41 72 42 66 43 65 44
REMARK SMILES IDX 18 46 52 47 31 48 51 49 32 50 35 51 50 52 70 53 33 54 34 55
REMARK SMILES IDX 49 57 71 58 36 59 19 60 20 61 29 62 21 63 22 64 28 65 30 66
REMARK SMILES IDX 23 67 24 68 25 69 26 70 27 71 53 72 54 73 63 74 55 75 56 76
REMARK SMILES IDX 62 77 64 78 57 79 58 80 59 81 60 82 61 83 37 84 38 85 47 86
REMARK SMILES IDX 39 87 40 88 46 89 48 90 41 91 42 92 43 93 44 94 45 95
REMARK H PARENT 3 7 7 26 69 45 35 56
REMARK Flexibility Score: inf
ROOT
ATOM      1  C   UNL A   1      34.496  32.562  28.329  1.00  0.00     0.118 C 
ENDROOT
BRANCH   1   2
ATOM      2  C   UNL A   1      34.444  32.927  29.807  1.00  0.00     0.042 C 
BRANCH   2   3
ATOM      3  C   UNL A   1      35.420  34.039  30.169  1.00  0.00     0.118 C 
BRANCH   3   4
ATOM      4  N   UNL A   1      34.975  34.848  31.306  1.00  0.00    -0.352 N 
ATOM      5  O   UNL A   1      35.132  35.880  33.318  1.00  0.00    -0.270 OA
ATOM      6  C   UNL A   1      35.499  34.987  32.567  1.00  0.00     0.251 C 
ATOM      7  H   UNL A   1      34.166  35.382  31.137  1.00  0.00     0.163 HD
BRANCH   6   8
ATOM      8  C   UNL A   1      36.589  34.073  32.948  1.00  0.00     0.067 C 
ATOM      9  C   UNL A   1      37.835  34.558  32.990  1.00  0.00     0.025 C 
ATOM     10  C   UNL A   1      36.197  32.797  33.618  1.00  0.00     0.314 C 
ATOM     11  C   UNL A   1      38.499  34.273  34.271  1.00  0.00     0.020 A 
ATOM     12  O   UNL A   1      36.779  32.664  34.936  1.00  0.00    -0.474 OA
ATOM     13  C   UNL A   1      39.511  35.154  34.670  1.00  0.00     0.032 A 
ATOM     14  C   UNL A   1      37.864  33.456  35.231  1.00  0.00     0.146 A 
ATOM     15  C   UNL A   1      39.817  35.289  36.022  1.00  0.00     0.043 A 
ATOM     16  C   UNL A   1      38.206  33.590  36.584  1.00  0.00     0.085 A 
ATOM     17  Cl  UNL A   1      40.929  36.504  36.517  1.00  0.00    -0.084 Cl
ATOM     18  C   UNL A   1      39.160  34.525  36.982  1.00  0.00     0.045 A 
ATOM     19  Cl  UNL A   1      37.332  32.740  37.811  1.00  0.00    -0.080 Cl
BRANCH  10  20
ATOM     20  C   UNL A   1      36.559  31.587  32.741  1.00  0.00     0.429 C 
ATOM     21  F   UNL A   1      37.340  31.954  31.696  1.00  0.00    -0.167 F 
ATOM     22  F   UNL A   1      37.247  30.647  33.430  1.00  0.00    -0.167 F 
ATOM     23  F   UNL A   1      35.461  30.982  32.225  1.00  0.00    -0.167 F 
ENDBRANCH  10  20
ENDBRANCH   6   8
ENDBRANCH   3   4
ENDBRANCH   2   3
ENDBRANCH   1   2
BRANCH   1  24
ATOM     24  N   UNL A   1      33.892  31.276  28.002  1.00  0.00    -0.352 N 
ATOM     25  C   UNL A   1      34.461  30.015  27.944  1.00  0.00     0.251 C 
ATOM     26  H   UNL A   1      32.932  31.309  27.788  1.00  0.00     0.163 HD
ATOM     27  O   UNL A   1      33.782  29.069  27.585  1.00  0.00    -0.269 OA
BRANCH  25  28
ATOM     28  C   UNL A   1      35.898  29.825  28.271  1.00  0.00     0.039 A 
ATOM     29  C   UNL A   1      36.252  29.350  29.538  1.00  0.00     0.014 A 
ATOM     30  C   UNL A   1      36.894  30.084  27.332  1.00  0.00     0.014 A 
ATOM     31  C   UNL A   1      37.592  29.060  29.822  1.00  0.00     0.010 A 
ATOM     32  C   UNL A   1      38.195  29.657  27.565  1.00  0.00     0.010 A 
ATOM     33  C   UNL A   1      38.569  29.166  28.821  1.00  0.00    -0.014 A 
BRANCH  33  34
ATOM     34  C   UNL A   1      39.997  28.825  29.066  1.00  0.00     0.031 A 
ATOM     35  C   UNL A   1      40.915  29.858  29.677  1.00  0.00     0.074 A 
ATOM     36  C   UNL A   1      40.488  27.635  28.665  1.00  0.00     0.049 A 
ATOM     37  N   UNL A   1      42.209  29.811  29.863  1.00  0.00    -0.248 NA
ATOM     38  C   UNL A   1      40.305  31.137  30.079  1.00  0.00     0.031 C 
ATOM     39  C   UNL A   1      39.725  26.583  27.986  1.00  0.00     0.029 A 
ATOM     40  N   UNL A   1      41.752  27.110  28.765  1.00  0.00    -0.354 N 
ATOM     41  C   UNL A   1      42.566  31.061  30.358  1.00  0.00     0.074 A 
ATOM     42  C   UNL A   1      41.369  31.869  30.368  1.00  0.00     0.031 C 
ATOM     43  C   UNL A   1      40.524  25.526  27.771  1.00  0.00     0.029 A 
ATOM     44  C   UNL A   1      41.863  25.834  28.263  1.00  0.00     0.049 A 
ATOM     45  H   UNL A   1      42.508  27.600  29.160  1.00  0.00     0.167 HD
ATOM     46  C   UNL A   1      43.769  31.487  30.809  1.00  0.00     0.037 A 
ATOM     47  C   UNL A   1      42.924  25.005  28.215  1.00  0.00     0.037 A 
ATOM     48  C   UNL A   1      44.937  30.650  30.869  1.00  0.00     0.049 A 
ATOM     49  C   UNL A   1      44.233  25.469  28.796  1.00  0.00     0.074 A 
ATOM     50  C   UNL A   1      46.188  30.948  31.378  1.00  0.00     0.029 A 
ATOM     51  N   UNL A   1      44.989  29.339  30.419  1.00  0.00    -0.354 N 
ATOM     52  N   UNL A   1      44.537  26.635  29.314  1.00  0.00    -0.248 NA
ATOM     53  C   UNL A   1      45.335  24.499  28.802  1.00  0.00     0.031 C 
ATOM     54  C   UNL A   1      47.005  29.823  31.212  1.00  0.00     0.029 A 
ATOM     55  C   UNL A   1      46.249  28.811  30.639  1.00  0.00     0.049 A 
ATOM     56  H   UNL A   1      44.238  28.853  30.005  1.00  0.00     0.167 HD
ATOM     57  C   UNL A   1      45.858  26.530  29.737  1.00  0.00     0.074 A 
ATOM     58  C   UNL A   1      46.286  25.180  29.425  1.00  0.00     0.031 C 
ATOM     59  C   UNL A   1      46.647  27.461  30.327  1.00  0.00     0.037 A 
BRANCH  46  60
ATOM     60  C   UNL A   1      43.866  32.908  31.297  1.00  0.00     0.058 A 
ATOM     61  C   UNL A   1      43.704  33.237  32.655  1.00  0.00     0.135 A 
ATOM     62  C   UNL A   1      44.125  33.957  30.401  1.00  0.00     0.135 A 
ATOM     63  F   UNL A   1      43.437  32.277  33.555  1.00  0.00    -0.206 F 
ATOM     64  C   UNL A   1      43.749  34.554  33.097  1.00  0.00     0.059 A 
ATOM     65  C   UNL A   1      44.208  35.281  30.826  1.00  0.00     0.059 A 
ATOM     66  F   UNL A   1      44.289  33.704  29.092  1.00  0.00    -0.206 F 
ATOM     67  C   UNL A   1      43.999  35.571  32.174  1.00  0.00     0.060 A 
BRANCH  67  68
ATOM     68  S   UNL A   1      44.047  37.277  32.762  1.00  0.00     0.124 S 
ATOM     69  O   UNL A   1      45.392  37.350  33.327  1.00  0.00    -0.237 OA
ATOM     70  O   UNL A   1      43.834  38.038  31.535  1.00  0.00    -0.237 OA
ATOM     71  O   UNL A   1      42.956  37.334  33.729  1.00  0.00    -0.744 OA
ENDBRANCH  67  68
ENDBRANCH  46  60
BRANCH  47  72
ATOM     72  C   UNL A   1      42.776  23.636  27.652  1.00  0.00     0.058 A 
ATOM     73  C   UNL A   1      42.463  22.548  28.481  1.00  0.00     0.135 A 
ATOM     74  C   UNL A   1      42.924  23.387  26.279  1.00  0.00     0.135 A 
ATOM     75  F   UNL A   1      42.314  22.734  29.801  1.00  0.00    -0.206 F 
ATOM     76  C   UNL A   1      42.324  21.259  27.976  1.00  0.00     0.059 A 
ATOM     77  C   UNL A   1      42.764  22.111  25.745  1.00  0.00     0.059 A 
ATOM     78  F   UNL A   1      43.202  24.396  25.439  1.00  0.00    -0.206 F 
ATOM     79  C   UNL A   1      42.475  21.050  26.605  1.00  0.00     0.060 A 
BRANCH  79  80
ATOM     80  S   UNL A   1      42.244  19.382  25.952  1.00  0.00     0.124 S 
ATOM     81  O   UNL A   1      42.721  18.564  27.060  1.00  0.00    -0.237 OA
ATOM     82  O   UNL A   1      40.806  19.345  25.703  1.00  0.00    -0.237 OA
ATOM     83  O   UNL A   1      43.078  19.373  24.754  1.00  0.00    -0.744 OA
ENDBRANCH  79  80
ENDBRANCH  47  72
BRANCH  59  84
ATOM     84  C   UNL A   1      48.034  27.036  30.714  1.00  0.00     0.058 A 
ATOM     85  C   UNL A   1      49.121  27.169  29.836  1.00  0.00     0.135 A 
ATOM     86  C   UNL A   1      48.281  26.504  31.991  1.00  0.00     0.135 A 
ATOM     87  F   UNL A   1      48.937  27.670  28.605  1.00  0.00    -0.206 F 
ATOM     88  C   UNL A   1      50.397  26.749  30.194  1.00  0.00     0.059 A 
ATOM     89  C   UNL A   1      49.555  26.106  32.380  1.00  0.00     0.059 A 
ATOM     90  F   UNL A   1      47.279  26.372  32.874  1.00  0.00    -0.206 F 
ATOM     91  C   UNL A   1      50.602  26.213  31.466  1.00  0.00     0.060 A 
BRANCH  91  92
ATOM     92  S   UNL A   1      52.262  25.668  31.920  1.00  0.00     0.124 S 
ATOM     93  O   UNL A   1      53.012  25.978  30.707  1.00  0.00    -0.237 OA
ATOM     94  O   UNL A   1      52.560  26.499  33.081  1.00  0.00    -0.237 OA
ATOM     95  O   UNL A   1      52.085  24.246  32.202  1.00  0.00    -0.744 OA
ENDBRANCH  91  92
ENDBRANCH  59  84
ENDBRANCH  33  34
ENDBRANCH  25  28
ENDBRANCH   1  24
TORSDOF 14
ENDMDL
MODEL 3
REMARK VINA RESULT:     -11.7      3.730      6.472
REMARK SMILES O=C(NCCCNC(=O)c1ccc(-c2c3nc(c(-c4c(F)cc(S(=O)(=O)[O-])cc4F)c4ccc([nH]4)c(-c4c(F)cc(S(=O)(=O)[O-])cc4F)c4nc(c(-c5c(F)cc(S(=O)(=O)[O-])cc5F)c5ccc2[nH]5)C=C4)C=C3)cc1)C1=Cc2cc(Cl)cc(Cl)c2O[C@@H]1C(F)(F)F
REMARK SMILES IDX 6 1 5 2 4 3 3 4 1 5 2 6 76 8 77 9 87 10 78 11 86 12 79 13
REMARK SMILES IDX 85 14 80 15 83 16 81 17 82 18 84 19 88 20 89 21 90 22 91 23
REMARK SMILES IDX 7 24 8 25 9 27 10 28 11 29 75 30 12 31 74 32 13 33 14 34
REMARK SMILES IDX 15 35 68 36 16 37 73 38 67 39 69 40 17 41 72 42 66 43 65 44
REMARK SMILES IDX 18 46 52 47 31 48 51 49 32 50 35 51 50 52 70 53 33 54 34 55
REMARK SMILES IDX 49 57 71 58 36 59 19 60 20 61 29 62 21 63 22 64 28 65 30 66
REMARK SMILES IDX 23 67 24 68 25 69 26 70 27 71 53 72 54 73 63 74 55 75 56 76
REMARK SMILES IDX 62 77 64 78 57 79 58 80 59 81 60 82 61 83 37 84 38 85 47 86
REMARK SMILES IDX 39 87 40 88 46 89 48 90 41 91 42 92 43 93 44 94 45 95
REMARK H PARENT 3 7 7 26 69 45 35 56
REMARK Flexibility Score: inf
ROOT
ATOM      1  C   UNL A   1      34.429  32.500  28.500  1.00  0.00     0.118 C 
ENDROOT
BRANCH   1   2
ATOM      2  C   UNL A   1      34.447  32.667  30.014  1.00  0.00     0.042 C 
BRANCH   2   3
ATOM      3  C   UNL A   1      34.834  34.077  30.442  1.00  0.00     0.118 C 
BRANCH   3   4
ATOM      4  N   UNL A   1      36.251  34.375  30.223  1.00  0.00    -0.352 N 
ATOM      5  O   UNL A   1      38.492  34.127  30.450  1.00  0.00    -0.270 OA
ATOM      6  C   UNL A   1      37.369  33.969  30.907  1.00  0.00     0.251 C 
ATOM      7  H   UNL A   1      36.432  34.965  29.455  1.00  0.00     0.163 HD
BRANCH   6   8
ATOM      8  C   UNL A   1      37.158  33.248  32.174  1.00  0.00     0.067 C 
ATOM      9  C   UNL A   1      37.227  31.912  32.161  1.00  0.00     0.025 C 
ATOM     10  C   UNL A   1      37.259  34.049  33.431  1.00  0.00     0.314 C 
ATOM     11  C   UNL A   1      38.151  31.395  33.183  1.00  0.00     0.020 A 
ATOM     12  O   UNL A   1      38.292  33.559  34.316  1.00  0.00    -0.474 OA
ATOM     13  C   UNL A   1      38.742  30.152  32.930  1.00  0.00     0.032 A 
ATOM     14  C   UNL A   1      38.743  32.275  34.113  1.00  0.00     0.146 A 
ATOM     15  C   UNL A   1      39.962  29.832  33.523  1.00  0.00     0.043 A 
ATOM     16  C   UNL A   1      39.957  31.923  34.719  1.00  0.00     0.085 A 
ATOM     17  Cl  UNL A   1      40.769  28.385  33.064  1.00  0.00    -0.084 Cl
ATOM     18  C   UNL A   1      40.580  30.716  34.404  1.00  0.00     0.045 A 
ATOM     19  Cl  UNL A   1      40.807  33.042  35.727  1.00  0.00    -0.080 Cl
BRANCH  10  20
ATOM     20  C   UNL A   1      35.904  34.101  34.154  1.00  0.00     0.429 C 
ATOM     21  F   UNL A   1      36.053  33.932  35.490  1.00  0.00    -0.167 F 
ATOM     22  F   UNL A   1      35.280  35.291  33.980  1.00  0.00    -0.167 F 
ATOM     23  F   UNL A   1      35.055  33.137  33.723  1.00  0.00    -0.167 F 
ENDBRANCH  10  20
ENDBRANCH   6   8
ENDBRANCH   3   4
ENDBRANCH   2   3
ENDBRANCH   1   2
BRANCH   1  24
ATOM     24  N   UNL A   1      33.869  31.235  28.037  1.00  0.00    -0.352 N 
ATOM     25  C   UNL A   1      34.476  30.002  27.870  1.00  0.00     0.251 C 
ATOM     26  H   UNL A   1      32.913  31.263  27.808  1.00  0.00     0.163 HD
ATOM     27  O   UNL A   1      33.831  29.077  27.406  1.00  0.00    -0.269 OA
BRANCH  25  28
ATOM     28  C   UNL A   1      35.912  29.821  28.208  1.00  0.00     0.039 A 
ATOM     29  C   UNL A   1      36.259  29.339  29.474  1.00  0.00     0.014 A 
ATOM     30  C   UNL A   1      36.914  30.093  27.279  1.00  0.00     0.014 A 
ATOM     31  C   UNL A   1      37.598  29.057  29.768  1.00  0.00     0.010 A 
ATOM     32  C   UNL A   1      38.216  29.674  27.519  1.00  0.00     0.010 A 
ATOM     33  C   UNL A   1      38.583  29.177  28.775  1.00  0.00    -0.014 A 
BRANCH  33  34
ATOM     34  C   UNL A   1      40.011  28.845  29.030  1.00  0.00     0.031 A 
ATOM     35  C   UNL A   1      40.916  29.880  29.655  1.00  0.00     0.074 A 
ATOM     36  C   UNL A   1      40.514  27.661  28.625  1.00  0.00     0.049 A 
ATOM     37  N   UNL A   1      42.209  29.842  29.851  1.00  0.00    -0.248 NA
ATOM     38  C   UNL A   1      40.294  31.153  30.061  1.00  0.00     0.031 C 
ATOM     39  C   UNL A   1      39.765  26.609  27.933  1.00  0.00     0.029 A 
ATOM     40  N   UNL A   1      41.781  27.144  28.732  1.00  0.00    -0.354 N 
ATOM     41  C   UNL A   1      42.552  31.091  30.359  1.00  0.00     0.074 A 
ATOM     42  C   UNL A   1      41.350  31.890  30.364  1.00  0.00     0.031 C 
ATOM     43  C   UNL A   1      40.573  25.559  27.718  1.00  0.00     0.029 A 
ATOM     44  C   UNL A   1      41.905  25.873  28.223  1.00  0.00     0.049 A 
ATOM     45  H   UNL A   1      42.530  27.638  29.137  1.00  0.00     0.167 HD
ATOM     46  C   UNL A   1      43.749  31.522  30.823  1.00  0.00     0.037 A 
ATOM     47  C   UNL A   1      42.973  25.052  28.178  1.00  0.00     0.037 A 
ATOM     48  C   UNL A   1      44.922  30.694  30.886  1.00  0.00     0.049 A 
ATOM     49  C   UNL A   1      44.273  25.521  28.773  1.00  0.00     0.074 A 
ATOM     50  C   UNL A   1      46.167  30.997  31.408  1.00  0.00     0.029 A 
ATOM     51  N   UNL A   1      44.988  29.386  30.428  1.00  0.00    -0.354 N 
ATOM     52  N   UNL A   1      44.564  26.687  29.302  1.00  0.00    -0.248 NA
ATOM     53  C   UNL A   1      45.383  24.560  28.782  1.00  0.00     0.031 C 
ATOM     54  C   UNL A   1      46.993  29.879  31.241  1.00  0.00     0.029 A 
ATOM     55  C   UNL A   1      46.250  28.866  30.655  1.00  0.00     0.049 A 
ATOM     56  H   UNL A   1      44.244  28.897  30.005  1.00  0.00     0.167 HD
ATOM     57  C   UNL A   1      45.883  26.588  29.734  1.00  0.00     0.074 A 
ATOM     58  C   UNL A   1      46.324  25.244  29.417  1.00  0.00     0.031 C 
ATOM     59  C   UNL A   1      46.660  27.521  30.338  1.00  0.00     0.037 A 
BRANCH  46  60
ATOM     60  C   UNL A   1      43.831  32.941  31.321  1.00  0.00     0.058 A 
ATOM     61  C   UNL A   1      43.569  33.271  32.662  1.00  0.00     0.135 A 
ATOM     62  C   UNL A   1      44.178  33.986  30.450  1.00  0.00     0.135 A 
ATOM     63  F   UNL A   1      43.215  32.314  33.536  1.00  0.00    -0.206 F 
ATOM     64  C   UNL A   1      43.601  34.586  33.111  1.00  0.00     0.059 A 
ATOM     65  C   UNL A   1      44.250  35.308  30.885  1.00  0.00     0.059 A 
ATOM     66  F   UNL A   1      44.439  33.733  29.158  1.00  0.00    -0.206 F 
ATOM     67  C   UNL A   1      43.940  35.599  32.213  1.00  0.00     0.060 A 
BRANCH  67  68
ATOM     68  S   UNL A   1      43.971  37.303  32.809  1.00  0.00     0.124 S 
ATOM     69  O   UNL A   1      43.752  38.047  31.571  1.00  0.00    -0.237 OA
ATOM     70  O   UNL A   1      42.866  37.322  33.762  1.00  0.00    -0.237 OA
ATOM     71  O   UNL A   1      45.301  37.434  33.394  1.00  0.00    -0.744 OA
ENDBRANCH  67  68
ENDBRANCH  46  60
BRANCH  47  72
ATOM     72  C   UNL A   1      42.840  23.686  27.604  1.00  0.00     0.058 A 
ATOM     73  C   UNL A   1      43.060  23.455  26.238  1.00  0.00     0.135 A 
ATOM     74  C   UNL A   1      42.510  22.582  28.405  1.00  0.00     0.135 A 
ATOM     75  F   UNL A   1      43.375  24.478  25.429  1.00  0.00    -0.206 F 
ATOM     76  C   UNL A   1      42.938  22.187  25.680  1.00  0.00     0.059 A 
ATOM     77  C   UNL A   1      42.407  21.298  27.877  1.00  0.00     0.059 A 
ATOM     78  F   UNL A   1      42.311  22.744  29.723  1.00  0.00    -0.206 F 
ATOM     79  C   UNL A   1      42.612  21.112  26.509  1.00  0.00     0.060 A 
BRANCH  79  80
ATOM     80  S   UNL A   1      42.503  19.462  25.785  1.00  0.00     0.124 S 
ATOM     81  O   UNL A   1      41.088  19.383  25.443  1.00  0.00    -0.237 OA
ATOM     82  O   UNL A   1      43.428  19.557  24.660  1.00  0.00    -0.237 OA
ATOM     83  O   UNL A   1      42.940  18.590  26.872  1.00  0.00    -0.744 OA
ENDBRANCH  79  80
ENDBRANCH  47  72
BRANCH  59  84
ATOM     84  C   UNL A   1      48.047  27.103  30.733  1.00  0.00     0.058 A 
ATOM     85  C   UNL A   1      49.150  27.304  29.888  1.00  0.00     0.135 A 
ATOM     86  C   UNL A   1      48.277  26.510  31.985  1.00  0.00     0.135 A 
ATOM     87  F   UNL A   1      48.982  27.865  28.681  1.00  0.00    -0.206 F 
ATOM     88  C   UNL A   1      50.426  26.891  30.252  1.00  0.00     0.059 A 
ATOM     89  C   UNL A   1      49.550  26.117  32.382  1.00  0.00     0.059 A 
ATOM     90  F   UNL A   1      47.259  26.311  32.838  1.00  0.00    -0.206 F 
ATOM     91  C   UNL A   1      50.615  26.292  31.500  1.00  0.00     0.060 A 
BRANCH  91  92
ATOM     92  S   UNL A   1      52.275  25.756  31.962  1.00  0.00     0.124 S 
ATOM     93  O   UNL A   1      52.527  26.575  33.143  1.00  0.00    -0.237 OA
ATOM     94  O   UNL A   1      52.090  24.330  32.205  1.00  0.00    -0.237 OA
ATOM     95  O   UNL A   1      53.076  26.087  30.786  1.00  0.00    -0.744 OA
ENDBRANCH  91  92
ENDBRANCH  59  84
ENDBRANCH  33  34
ENDBRANCH  25  28
ENDBRANCH   1  24
TORSDOF 14
ENDMDL
