MODEL 1
REMARK VINA RESULT:     -12.1      0.000      0.000
REMARK SMILES COc1cc(/C=C2/C(=O)N(c3ccccc3)C(=O)[NH+]=C2NCCCNC(=O)c2ccc(-c3c4nc(c(-c5c(F)cc(S(=O)(=O)[O-])cc5F)c5ccc([nH]5)c(-c5c(F)cc(S(=O)(=O)[O-])cc5F)c5nc(c(-c6c(F)cc(S(=O)(=O)[O-])cc6F)c6ccc3[nH]6)C=C5)C=C4)cc2)ccc1OCC(=O)[O-]
REMARK SMILES IDX 23 1 22 2 21 3 6 4 7 5 8 6 20 7 9 8 10 9 19 10 17 11 18 14
REMARK SMILES IDX 5 15 3 16 4 17 96 18 95 19 94 20 2 21 1 22 97 23 98 24 99 25
REMARK SMILES IDX 100 26 101 27 11 28 12 29 16 30 13 31 15 32 14 33 24 34
REMARK SMILES IDX 25 35 26 36 27 38 28 39 29 40 93 41 30 42 92 43 31 44 32 45
REMARK SMILES IDX 33 46 86 47 34 48 91 49 85 50 87 51 35 52 90 53 84 54 83 55
REMARK SMILES IDX 36 57 70 58 49 59 69 60 50 61 53 62 68 63 88 64 51 65 52 66
REMARK SMILES IDX 67 68 89 69 54 70 37 71 38 72 47 73 39 74 40 75 46 76 48 77
REMARK SMILES IDX 41 78 42 79 43 80 44 81 45 82 71 83 72 84 81 85 73 86 74 87
REMARK SMILES IDX 80 88 82 89 75 90 76 91 77 92 78 93 79 94 55 95 56 96 65 97
REMARK SMILES IDX 57 98 58 99 64 100 66 101 59 102 60 103 61 104 62 105 63 106
REMARK H PARENT 19 12 21 13 25 37 87 56 53 67
REMARK Flexibility Score: inf
ROOT
ATOM      1  C   UNL A   1      44.360  38.495  28.171  1.00  0.00     0.059 C 
ENDROOT
BRANCH   1   2
ATOM      2  C   UNL A   1      44.371  40.452  27.170  1.00  0.00     0.195 C 
BRANCH   2   3
ATOM      3  N   UNL A   1      43.275  41.099  26.151  1.00  0.00    -0.305 N 
ATOM      4  C   UNL A   1      45.901  42.334  25.254  1.00  0.00     0.030 C 
ATOM      5  C   UNL A   1      44.831  42.178  24.465  1.00  0.00     0.129 C 
ATOM      6  C   UNL A   1      44.870  42.406  23.009  1.00  0.00     0.328 C 
ATOM      7  C   UNL A   1      43.491  41.888  25.036  1.00  0.00     0.236 C 
ATOM      8  O   UNL A   1      45.868  42.137  22.348  1.00  0.00    -0.249 OA
ATOM      9  N   UNL A   1      43.691  42.965  22.549  1.00  0.00    -0.155 N 
ATOM     10  N   UNL A   1      42.459  42.474  24.497  1.00  0.00    -0.209 N 
ATOM     11  C   UNL A   1      42.683  43.331  23.437  1.00  0.00     0.448 C 
ATOM     12  H   UNL A   1      41.549  42.311  24.834  1.00  0.00     0.270 HD
ATOM     13  H   UNL A   1      42.334  40.901  26.357  1.00  0.00     0.256 HD
ATOM     14  O   UNL A   1      42.021  44.358  23.308  1.00  0.00    -0.212 OA
BRANCH   4  15
ATOM     15  C   UNL A   1      45.721  41.967  26.655  1.00  0.00    -0.021 A 
ATOM     16  C   UNL A   1      47.265  40.893  29.152  1.00  0.00     0.161 A 
ATOM     17  C   UNL A   1      46.741  40.668  27.432  1.00  0.00     0.058 A 
ATOM     18  C   UNL A   1      46.580  42.260  30.139  1.00  0.00     0.161 A 
ATOM     19  C   UNL A   1      45.568  43.506  29.362  1.00  0.00     0.051 A 
ATOM     20  C   UNL A   1      45.082  43.326  27.648  1.00  0.00     0.012 A 
BRANCH  16  21
ATOM     21  O   UNL A   1      48.334  40.244  29.707  1.00  0.00    -0.493 OA
ATOM     22  C   UNL A   1      49.617  40.610  29.217  1.00  0.00     0.278 C 
ENDBRANCH  16  21
BRANCH  18  23
ATOM     23  O   UNL A   1      46.739  42.206  31.495  1.00  0.00    -0.484 OA
BRANCH  23  24
ATOM     24  C   UNL A   1      45.715  41.504  32.196  1.00  0.00     0.282 C 
BRANCH  24  25
ATOM     25  C   UNL A   1      44.372  42.089  32.700  1.00  0.00     0.079 C 
ATOM     26  O   UNL A   1      43.266  41.983  32.204  1.00  0.00    -0.546 OA
ATOM     27  O   UNL A   1      44.500  42.819  33.830  1.00  0.00    -0.546 OA
ENDBRANCH  24  25
ENDBRANCH  23  24
ENDBRANCH  18  23
ENDBRANCH   4  15
BRANCH   9  28
ATOM     28  C   UNL A   1      43.607  43.365  21.198  1.00  0.00     0.111 A 
ATOM     29  C   UNL A   1      44.423  44.377  20.685  1.00  0.00     0.044 A 
ATOM     30  C   UNL A   1      42.663  42.738  20.378  1.00  0.00     0.044 A 
ATOM     31  C   UNL A   1      44.293  44.754  19.346  1.00  0.00     0.004 A 
ATOM     32  C   UNL A   1      42.521  43.134  19.050  1.00  0.00     0.004 A 
ATOM     33  C   UNL A   1      43.339  44.138  18.534  1.00  0.00     0.000 A 
ENDBRANCH   9  28
ENDBRANCH   2   3
ENDBRANCH   1   2
BRANCH   1  34
ATOM     34  C   UNL A   1      45.044  37.845  29.660  1.00  0.00     0.119 C 
BRANCH  34  35
ATOM     35  N   UNL A   1      46.501  37.695  29.838  1.00  0.00    -0.352 N 
ATOM     36  C   UNL A   1      47.365  36.665  29.623  1.00  0.00     0.251 C 
ATOM     37  H   UNL A   1      46.938  38.506  30.184  1.00  0.00     0.163 HD
ATOM     38  O   UNL A   1      48.572  36.836  29.771  1.00  0.00    -0.269 OA
BRANCH  36  39
ATOM     39  C   UNL A   1      46.834  35.338  29.340  1.00  0.00     0.039 A 
ATOM     40  C   UNL A   1      46.500  35.070  28.008  1.00  0.00     0.014 A 
ATOM     41  C   UNL A   1      46.786  34.358  30.329  1.00  0.00     0.014 A 
ATOM     42  C   UNL A   1      46.198  33.772  27.637  1.00  0.00     0.010 A 
ATOM     43  C   UNL A   1      46.518  33.057  29.952  1.00  0.00     0.010 A 
ATOM     44  C   UNL A   1      46.229  32.768  28.607  1.00  0.00    -0.014 A 
BRANCH  44  45
ATOM     45  C   UNL A   1      45.801  31.406  28.275  1.00  0.00     0.031 A 
ATOM     46  C   UNL A   1      44.376  31.061  28.556  1.00  0.00     0.074 A 
ATOM     47  C   UNL A   1      46.694  30.518  27.807  1.00  0.00     0.049 A 
ATOM     48  N   UNL A   1      43.790  29.899  28.529  1.00  0.00    -0.248 NA
ATOM     49  C   UNL A   1      43.500  32.178  28.958  1.00  0.00     0.031 C 
ATOM     50  C   UNL A   1      48.100  30.801  27.508  1.00  0.00     0.029 A 
ATOM     51  N   UNL A   1      46.552  29.190  27.520  1.00  0.00    -0.354 N 
ATOM     52  C   UNL A   1      42.481  30.142  28.921  1.00  0.00     0.074 A 
ATOM     53  C   UNL A   1      42.372  31.547  29.236  1.00  0.00     0.031 C 
ATOM     54  C   UNL A   1      48.693  29.670  27.085  1.00  0.00     0.029 A 
ATOM     55  C   UNL A   1      47.718  28.585  27.117  1.00  0.00     0.049 A 
ATOM     56  H   UNL A   1      45.694  28.711  27.594  1.00  0.00     0.167 HD
ATOM     57  C   UNL A   1      41.457  29.264  28.980  1.00  0.00     0.037 A 
ATOM     58  C   UNL A   1      47.950  27.291  26.829  1.00  0.00     0.037 A 
ATOM     59  C   UNL A   1      41.603  27.876  28.647  1.00  0.00     0.049 A 
ATOM     60  C   UNL A   1      46.797  26.325  26.938  1.00  0.00     0.074 A 
ATOM     61  C   UNL A   1      40.654  26.875  28.680  1.00  0.00     0.029 A 
ATOM     62  N   UNL A   1      42.787  27.303  28.202  1.00  0.00    -0.354 N 
ATOM     63  N   UNL A   1      45.556  26.560  27.303  1.00  0.00    -0.248 NA
ATOM     64  C   UNL A   1      47.067  24.923  26.597  1.00  0.00     0.031 C 
ATOM     65  C   UNL A   1      41.269  25.688  28.268  1.00  0.00     0.029 A 
ATOM     66  C   UNL A   1      42.591  25.960  27.943  1.00  0.00     0.049 A 
ATOM     67  H   UNL A   1      43.639  27.782  28.086  1.00  0.00     0.167 HD
ATOM     68  C   UNL A   1      44.888  25.348  27.185  1.00  0.00     0.074 A 
ATOM     69  C   UNL A   1      45.863  24.381  26.722  1.00  0.00     0.031 C 
ATOM     70  C   UNL A   1      43.588  25.053  27.433  1.00  0.00     0.037 A 
BRANCH  57  71
ATOM     71  C   UNL A   1      40.122  29.795  29.404  1.00  0.00     0.058 A 
ATOM     72  C   UNL A   1      39.092  30.002  28.471  1.00  0.00     0.135 A 
ATOM     73  C   UNL A   1      39.866  30.116  30.745  1.00  0.00     0.135 A 
ATOM     74  F   UNL A   1      39.297  29.742  27.170  1.00  0.00    -0.206 F 
ATOM     75  C   UNL A   1      37.864  30.531  28.849  1.00  0.00     0.059 A 
ATOM     76  C   UNL A   1      38.634  30.620  31.151  1.00  0.00     0.059 A 
ATOM     77  F   UNL A   1      40.822  29.953  31.675  1.00  0.00    -0.206 F 
ATOM     78  C   UNL A   1      37.644  30.837  30.192  1.00  0.00     0.060 A 
BRANCH  78  79
ATOM     79  S   UNL A   1      36.039  31.511  30.668  1.00  0.00     0.124 S 
ATOM     80  O   UNL A   1      35.276  31.339  29.436  1.00  0.00    -0.237 OA
ATOM     81  O   UNL A   1      35.655  30.644  31.778  1.00  0.00    -0.237 OA
ATOM     82  O   UNL A   1      36.344  32.891  31.031  1.00  0.00    -0.744 OA
ENDBRANCH  78  79
ENDBRANCH  57  71
BRANCH  58  83
ATOM     83  C   UNL A   1      49.297  26.833  26.398  1.00  0.00     0.058 A 
ATOM     84  C   UNL A   1      49.699  26.949  25.059  1.00  0.00     0.135 A 
ATOM     85  C   UNL A   1      50.197  26.241  27.298  1.00  0.00     0.135 A 
ATOM     86  F   UNL A   1      48.877  27.512  24.160  1.00  0.00    -0.206 F 
ATOM     87  C   UNL A   1      50.922  26.455  24.616  1.00  0.00     0.059 A 
ATOM     88  C   UNL A   1      51.437  25.761  26.884  1.00  0.00     0.059 A 
ATOM     89  F   UNL A   1      49.875  26.128  28.596  1.00  0.00    -0.206 F 
ATOM     90  C   UNL A   1      51.780  25.852  25.536  1.00  0.00     0.060 A 
BRANCH  90  91
ATOM     91  S   UNL A   1      53.361  25.205  24.950  1.00  0.00     0.124 S 
ATOM     92  O   UNL A   1      53.337  25.602  23.547  1.00  0.00    -0.237 OA
ATOM     93  O   UNL A   1      54.316  25.911  25.797  1.00  0.00    -0.237 OA
ATOM     94  O   UNL A   1      53.250  23.772  25.204  1.00  0.00    -0.744 OA
ENDBRANCH  90  91
ENDBRANCH  58  83
BRANCH  70  95
ATOM     95  C   UNL A   1      43.126  23.659  27.133  1.00  0.00     0.058 A 
ATOM     96  C   UNL A   1      42.823  23.249  25.827  1.00  0.00     0.135 A 
ATOM     97  C   UNL A   1      43.102  22.696  28.155  1.00  0.00     0.135 A 
ATOM     98  F   UNL A   1      42.827  24.137  24.821  1.00  0.00    -0.206 F 
ATOM     99  C   UNL A   1      42.511  21.925  25.543  1.00  0.00     0.059 A 
ATOM    100  C   UNL A   1      42.818  21.363  27.889  1.00  0.00     0.059 A 
ATOM    101  F   UNL A   1      43.396  23.044  29.418  1.00  0.00    -0.206 F 
ATOM    102  C   UNL A   1      42.524  20.988  26.579  1.00  0.00     0.060 A 
BRANCH 102 103
ATOM    103  S   UNL A   1      42.206  19.258  26.180  1.00  0.00     0.124 S 
ATOM    104  O   UNL A   1      40.765  19.271  25.946  1.00  0.00    -0.237 OA
ATOM    105  O   UNL A   1      43.039  19.052  24.999  1.00  0.00    -0.237 OA
ATOM    106  O   UNL A   1      42.641  18.547  27.379  1.00  0.00    -0.744 OA
ENDBRANCH 102 103
ENDBRANCH  70  95
ENDBRANCH  44  45
ENDBRANCH  36  39
ENDBRANCH  34  35
ENDBRANCH   1  34
TORSDOF 18
ENDMDL
MODEL 2
REMARK VINA RESULT:     -12.0      5.405     11.911
REMARK SMILES COc1cc(/C=C2/C(=O)N(c3ccccc3)C(=O)[NH+]=C2NCCCNC(=O)c2ccc(-c3c4nc(c(-c5c(F)cc(S(=O)(=O)[O-])cc5F)c5ccc([nH]5)c(-c5c(F)cc(S(=O)(=O)[O-])cc5F)c5nc(c(-c6c(F)cc(S(=O)(=O)[O-])cc6F)c6ccc3[nH]6)C=C5)C=C4)cc2)ccc1OCC(=O)[O-]
REMARK SMILES IDX 23 1 22 2 21 3 6 4 7 5 8 6 20 7 9 8 10 9 19 10 17 11 18 14
REMARK SMILES IDX 5 15 3 16 4 17 96 18 95 19 94 20 2 21 1 22 97 23 98 24 99 25
REMARK SMILES IDX 100 26 101 27 11 28 12 29 16 30 13 31 15 32 14 33 24 34
REMARK SMILES IDX 25 35 26 36 27 38 28 39 29 40 93 41 30 42 92 43 31 44 32 45
REMARK SMILES IDX 33 46 86 47 34 48 91 49 85 50 87 51 35 52 90 53 84 54 83 55
REMARK SMILES IDX 36 57 70 58 49 59 69 60 50 61 53 62 68 63 88 64 51 65 52 66
REMARK SMILES IDX 67 68 89 69 54 70 37 71 38 72 47 73 39 74 40 75 46 76 48 77
REMARK SMILES IDX 41 78 42 79 43 80 44 81 45 82 71 83 72 84 81 85 73 86 74 87
REMARK SMILES IDX 80 88 82 89 75 90 76 91 77 92 78 93 79 94 55 95 56 96 65 97
REMARK SMILES IDX 57 98 58 99 64 100 66 101 59 102 60 103 61 104 62 105 63 106
REMARK H PARENT 19 12 21 13 25 37 87 56 53 67
REMARK Flexibility Score: inf
ROOT
ATOM      1  C   UNL A   1      38.350  33.261  33.420  1.00  0.00     0.059 C 
ENDROOT
BRANCH   1   2
ATOM      2  C   UNL A   1      40.128  32.396  34.380  1.00  0.00     0.195 C 
BRANCH   2   3
ATOM      3  N   UNL A   1      41.502  31.840  33.702  1.00  0.00    -0.305 N 
ATOM      4  C   UNL A   1      40.769  29.679  35.705  1.00  0.00     0.030 C 
ATOM      5  C   UNL A   1      41.510  29.473  34.609  1.00  0.00     0.129 C 
ATOM      6  C   UNL A   1      41.890  28.129  34.140  1.00  0.00     0.328 C 
ATOM      7  C   UNL A   1      42.110  30.609  33.864  1.00  0.00     0.236 C 
ATOM      8  O   UNL A   1      41.134  27.171  34.268  1.00  0.00    -0.249 OA
ATOM      9  N   UNL A   1      43.164  28.118  33.600  1.00  0.00    -0.155 N 
ATOM     10  N   UNL A   1      43.317  30.461  33.396  1.00  0.00    -0.209 N 
ATOM     11  C   UNL A   1      43.959  29.261  33.632  1.00  0.00     0.448 C 
ATOM     12  H   UNL A   1      43.758  31.181  32.890  1.00  0.00     0.270 HD
ATOM     13  H   UNL A   1      41.961  32.466  33.096  1.00  0.00     0.256 HD
ATOM     14  O   UNL A   1      45.166  29.228  33.861  1.00  0.00    -0.212 OA
BRANCH   4  15
ATOM     15  C   UNL A   1      40.393  31.063  35.972  1.00  0.00    -0.021 A 
ATOM     16  C   UNL A   1      38.218  32.811  37.382  1.00  0.00     0.161 A 
ATOM     17  C   UNL A   1      38.643  31.551  36.151  1.00  0.00     0.058 A 
ATOM     18  C   UNL A   1      39.537  33.730  38.235  1.00  0.00     0.161 A 
ATOM     19  C   UNL A   1      41.242  33.247  38.028  1.00  0.00     0.051 A 
ATOM     20  C   UNL A   1      41.676  31.969  36.851  1.00  0.00     0.012 A 
BRANCH  16  21
ATOM     21  O   UNL A   1      36.962  32.963  37.904  1.00  0.00    -0.493 OA
ATOM     22  C   UNL A   1      36.687  32.251  39.103  1.00  0.00     0.278 C 
ENDBRANCH  16  21
BRANCH  18  23
ATOM     23  O   UNL A   1      39.189  34.872  38.897  1.00  0.00    -0.484 OA
BRANCH  23  24
ATOM     24  C   UNL A   1      39.342  36.076  38.147  1.00  0.00     0.282 C 
BRANCH  24  25
ATOM     25  C   UNL A   1      40.186  36.263  36.861  1.00  0.00     0.079 C 
ATOM     26  O   UNL A   1      41.378  36.491  36.764  1.00  0.00    -0.546 OA
ATOM     27  O   UNL A   1      39.457  36.170  35.727  1.00  0.00    -0.546 OA
ENDBRANCH  24  25
ENDBRANCH  23  24
ENDBRANCH  18  23
ENDBRANCH   4  15
BRANCH   9  28
ATOM     28  C   UNL A   1      43.734  26.885  33.219  1.00  0.00     0.111 A 
ATOM     29  C   UNL A   1      44.114  25.932  34.168  1.00  0.00     0.044 A 
ATOM     30  C   UNL A   1      43.936  26.641  31.856  1.00  0.00     0.044 A 
ATOM     31  C   UNL A   1      44.691  24.732  33.746  1.00  0.00     0.004 A 
ATOM     32  C   UNL A   1      44.533  25.453  31.442  1.00  0.00     0.004 A 
ATOM     33  C   UNL A   1      44.906  24.497  32.386  1.00  0.00     0.000 A 
ENDBRANCH   9  28
ENDBRANCH   2   3
ENDBRANCH   1   2
BRANCH   1  34
ATOM     34  C   UNL A   1      37.404  32.900  31.976  1.00  0.00     0.119 C 
BRANCH  34  35
ATOM     35  N   UNL A   1      36.718  31.605  31.807  1.00  0.00    -0.352 N 
ATOM     36  C   UNL A   1      37.132  30.380  31.382  1.00  0.00     0.251 C 
ATOM     37  H   UNL A   1      35.765  31.633  32.051  1.00  0.00     0.163 HD
ATOM     38  O   UNL A   1      36.362  29.424  31.422  1.00  0.00    -0.269 OA
BRANCH  36  39
ATOM     39  C   UNL A   1      38.446  30.247  30.767  1.00  0.00     0.039 A 
ATOM     40  C   UNL A   1      39.473  29.764  31.585  1.00  0.00     0.014 A 
ATOM     41  C   UNL A   1      38.628  30.473  29.404  1.00  0.00     0.014 A 
ATOM     42  C   UNL A   1      40.682  29.411  31.014  1.00  0.00     0.010 A 
ATOM     43  C   UNL A   1      39.822  30.089  28.828  1.00  0.00     0.010 A 
ATOM     44  C   UNL A   1      40.843  29.556  29.634  1.00  0.00    -0.014 A 
BRANCH  44  45
ATOM     45  C   UNL A   1      42.146  29.304  29.012  1.00  0.00     0.031 A 
ATOM     46  C   UNL A   1      42.405  27.914  28.530  1.00  0.00     0.074 A 
ATOM     47  C   UNL A   1      43.064  30.283  28.957  1.00  0.00     0.049 A 
ATOM     48  N   UNL A   1      43.517  27.381  28.116  1.00  0.00    -0.248 NA
ATOM     49  C   UNL A   1      41.256  26.989  28.557  1.00  0.00     0.031 C 
ATOM     50  C   UNL A   1      42.864  31.663  29.407  1.00  0.00     0.029 A 
ATOM     51  N   UNL A   1      44.357  30.259  28.516  1.00  0.00    -0.354 N 
ATOM     52  C   UNL A   1      43.206  26.056  27.842  1.00  0.00     0.074 A 
ATOM     53  C   UNL A   1      41.821  25.850  28.192  1.00  0.00     0.031 C 
ATOM     54  C   UNL A   1      44.006  32.352  29.225  1.00  0.00     0.029 A 
ATOM     55  C   UNL A   1      45.017  31.453  28.678  1.00  0.00     0.049 A 
ATOM     56  H   UNL A   1      44.776  29.461  28.120  1.00  0.00     0.167 HD
ATOM     57  C   UNL A   1      44.010  25.108  27.315  1.00  0.00     0.037 A 
ATOM     58  C   UNL A   1      46.303  31.756  28.422  1.00  0.00     0.037 A 
ATOM     59  C   UNL A   1      45.380  25.356  26.968  1.00  0.00     0.049 A 
ATOM     60  C   UNL A   1      47.189  30.668  27.867  1.00  0.00     0.074 A 
ATOM     61  C   UNL A   1      46.310  24.481  26.443  1.00  0.00     0.029 A 
ATOM     62  N   UNL A   1      46.008  26.587  27.104  1.00  0.00    -0.354 N 
ATOM     63  N   UNL A   1      46.889  29.416  27.602  1.00  0.00    -0.248 NA
ATOM     64  C   UNL A   1      48.581  31.027  27.572  1.00  0.00     0.031 C 
ATOM     65  C   UNL A   1      47.510  25.182  26.276  1.00  0.00     0.029 A 
ATOM     66  C   UNL A   1      47.313  26.501  26.661  1.00  0.00     0.049 A 
ATOM     67  H   UNL A   1      45.585  27.401  27.463  1.00  0.00     0.167 HD
ATOM     68  C   UNL A   1      48.039  28.854  27.063  1.00  0.00     0.074 A 
ATOM     69  C   UNL A   1      49.042  29.900  27.046  1.00  0.00     0.031 C 
ATOM     70  C   UNL A   1      48.254  27.592  26.619  1.00  0.00     0.037 A 
BRANCH  57  71
ATOM     71  C   UNL A   1      43.413  23.754  27.082  1.00  0.00     0.058 A 
ATOM     72  C   UNL A   1      42.897  23.392  25.827  1.00  0.00     0.135 A 
ATOM     73  C   UNL A   1      43.337  22.812  28.119  1.00  0.00     0.135 A 
ATOM     74  F   UNL A   1      42.915  24.270  24.810  1.00  0.00    -0.206 F 
ATOM     75  C   UNL A   1      42.306  22.153  25.613  1.00  0.00     0.059 A 
ATOM     76  C   UNL A   1      42.775  21.554  27.920  1.00  0.00     0.059 A 
ATOM     77  F   UNL A   1      43.800  23.113  29.343  1.00  0.00    -0.206 F 
ATOM     78  C   UNL A   1      42.249  21.240  26.666  1.00  0.00     0.060 A 
BRANCH  78  79
ATOM     79  S   UNL A   1      41.490  19.631  26.368  1.00  0.00     0.124 S 
ATOM     80  O   UNL A   1      42.279  19.142  25.241  1.00  0.00    -0.237 OA
ATOM     81  O   UNL A   1      41.706  18.945  27.638  1.00  0.00    -0.237 OA
ATOM     82  O   UNL A   1      40.101  19.960  26.066  1.00  0.00    -0.744 OA
ENDBRANCH  78  79
ENDBRANCH  57  71
BRANCH  58  83
ATOM     83  C   UNL A   1      46.829  33.127  28.660  1.00  0.00     0.058 A 
ATOM     84  C   UNL A   1      46.766  34.102  27.655  1.00  0.00     0.135 A 
ATOM     85  C   UNL A   1      47.433  33.482  29.875  1.00  0.00     0.135 A 
ATOM     86  F   UNL A   1      46.193  33.814  26.476  1.00  0.00    -0.206 F 
ATOM     87  C   UNL A   1      47.322  35.367  27.825  1.00  0.00     0.059 A 
ATOM     88  C   UNL A   1      47.975  34.748  30.080  1.00  0.00     0.059 A 
ATOM     89  F   UNL A   1      47.498  32.596  30.882  1.00  0.00    -0.206 F 
ATOM     90  C   UNL A   1      47.934  35.676  29.040  1.00  0.00     0.060 A 
BRANCH  90  91
ATOM     91  S   UNL A   1      48.663  37.316  29.249  1.00  0.00     0.124 S 
ATOM     92  O   UNL A   1      47.694  37.955  30.133  1.00  0.00    -0.237 OA
ATOM     93  O   UNL A   1      49.960  37.004  29.841  1.00  0.00    -0.237 OA
ATOM     94  O   UNL A   1      48.714  37.835  27.886  1.00  0.00    -0.744 OA
ENDBRANCH  90  91
ENDBRANCH  58  83
BRANCH  70  95
ATOM     95  C   UNL A   1      49.590  27.293  26.005  1.00  0.00     0.058 A 
ATOM     96  C   UNL A   1      50.661  26.817  26.773  1.00  0.00     0.135 A 
ATOM     97  C   UNL A   1      49.752  27.375  24.613  1.00  0.00     0.135 A 
ATOM     98  F   UNL A   1      50.552  26.728  28.107  1.00  0.00    -0.206 F 
ATOM     99  C   UNL A   1      51.855  26.429  26.177  1.00  0.00     0.059 A 
ATOM    100  C   UNL A   1      50.928  26.969  23.996  1.00  0.00     0.059 A 
ATOM    101  F   UNL A   1      48.747  27.816  23.840  1.00  0.00    -0.206 F 
ATOM    102  C   UNL A   1      51.974  26.498  24.787  1.00  0.00     0.060 A 
BRANCH 102 103
ATOM    103  S   UNL A   1      53.497  25.907  24.021  1.00  0.00     0.124 S 
ATOM    104  O   UNL A   1      53.614  24.570  24.594  1.00  0.00    -0.237 OA
ATOM    105  O   UNL A   1      53.172  25.961  22.599  1.00  0.00    -0.237 OA
ATOM    106  O   UNL A   1      54.498  26.872  24.467  1.00  0.00    -0.744 OA
ENDBRANCH 102 103
ENDBRANCH  70  95
ENDBRANCH  44  45
ENDBRANCH  36  39
ENDBRANCH  34  35
ENDBRANCH   1  34
TORSDOF 18
ENDMDL
MODEL 3
REMARK VINA RESULT:     -11.9      8.566     15.879
REMARK SMILES COc1cc(/C=C2/C(=O)N(c3ccccc3)C(=O)[NH+]=C2NCCCNC(=O)c2ccc(-c3c4nc(c(-c5c(F)cc(S(=O)(=O)[O-])cc5F)c5ccc([nH]5)c(-c5c(F)cc(S(=O)(=O)[O-])cc5F)c5nc(c(-c6c(F)cc(S(=O)(=O)[O-])cc6F)c6ccc3[nH]6)C=C5)C=C4)cc2)ccc1OCC(=O)[O-]
REMARK SMILES IDX 23 1 22 2 21 3 6 4 7 5 8 6 20 7 9 8 10 9 19 10 17 11 18 14
REMARK SMILES IDX 5 15 3 16 4 17 96 18 95 19 94 20 2 21 1 22 97 23 98 24 99 25
REMARK SMILES IDX 100 26 101 27 11 28 12 29 16 30 13 31 15 32 14 33 24 34
REMARK SMILES IDX 25 35 26 36 27 38 28 39 29 40 93 41 30 42 92 43 31 44 32 45
REMARK SMILES IDX 33 46 86 47 34 48 91 49 85 50 87 51 35 52 90 53 84 54 83 55
REMARK SMILES IDX 36 57 70 58 49 59 69 60 50 61 53 62 68 63 88 64 51 65 52 66
REMARK SMILES IDX 67 68 89 69 54 70 37 71 38 72 47 73 39 74 40 75 46 76 48 77
REMARK SMILES IDX 41 78 42 79 43 80 44 81 45 82 71 83 72 84 81 85 73 86 74 87
REMARK SMILES IDX 80 88 82 89 75 90 76 91 77 92 78 93 79 94 55 95 56 96 65 97
REMARK SMILES IDX 57 98 58 99 64 100 66 101 59 102 60 103 61 104 62 105 63 106
REMARK H PARENT 19 12 21 13 25 37 87 56 53 67
REMARK Flexibility Score: inf
ROOT
ATOM      1  C   UNL A   1      47.920  26.346  35.552  1.00  0.00     0.059 C 
ENDROOT
BRANCH   1   2
ATOM      2  C   UNL A   1      46.661  24.810  36.493  1.00  0.00     0.195 C 
BRANCH   2   3
ATOM      3  N   UNL A   1      46.805  24.108  37.957  1.00  0.00    -0.305 N 
ATOM      4  C   UNL A   1      45.303  22.039  36.318  1.00  0.00     0.030 C 
ATOM      5  C   UNL A   1      46.056  21.754  37.388  1.00  0.00     0.129 C 
ATOM      6  C   UNL A   1      46.405  20.376  37.778  1.00  0.00     0.328 C 
ATOM      7  C   UNL A   1      46.480  22.817  38.334  1.00  0.00     0.236 C 
ATOM      8  O   UNL A   1      46.604  19.506  36.935  1.00  0.00    -0.249 OA
ATOM      9  N   UNL A   1      46.436  20.227  39.153  1.00  0.00    -0.155 N 
ATOM     10  N   UNL A   1      46.475  22.539  39.607  1.00  0.00    -0.209 N 
ATOM     11  C   UNL A   1      46.067  21.276  39.991  1.00  0.00     0.448 C 
ATOM     12  H   UNL A   1      46.754  23.207  40.274  1.00  0.00     0.270 HD
ATOM     13  H   UNL A   1      47.173  24.679  38.669  1.00  0.00     0.256 HD
ATOM     14  O   UNL A   1      45.410  21.112  41.016  1.00  0.00    -0.212 OA
BRANCH   4  15
ATOM     15  C   UNL A   1      45.138  23.456  36.012  1.00  0.00    -0.021 A 
ATOM     16  C   UNL A   1      44.572  25.431  33.655  1.00  0.00     0.161 A 
ATOM     17  C   UNL A   1      45.607  24.133  34.382  1.00  0.00     0.058 A 
ATOM     18  C   UNL A   1      43.250  26.199  34.642  1.00  0.00     0.161 A 
ATOM     19  C   UNL A   1      42.824  25.533  36.242  1.00  0.00     0.051 A 
ATOM     20  C   UNL A   1      43.806  24.215  36.954  1.00  0.00     0.012 A 
BRANCH  16  21
ATOM     21  O   UNL A   1      44.552  25.720  32.318  1.00  0.00    -0.493 OA
ATOM     22  C   UNL A   1      44.244  24.641  31.445  1.00  0.00     0.278 C 
ENDBRANCH  16  21
BRANCH  18  23
ATOM     23  O   UNL A   1      42.719  27.372  34.189  1.00  0.00    -0.484 OA
BRANCH  23  24
ATOM     24  C   UNL A   1      41.627  27.230  33.282  1.00  0.00     0.282 C 
BRANCH  24  25
ATOM     25  C   UNL A   1      40.242  27.915  33.388  1.00  0.00     0.079 C 
ATOM     26  O   UNL A   1      39.185  27.568  32.893  1.00  0.00    -0.546 OA
ATOM     27  O   UNL A   1      40.263  29.050  34.121  1.00  0.00    -0.546 OA
ENDBRANCH  24  25
ENDBRANCH  23  24
ENDBRANCH  18  23
ENDBRANCH   4  15
BRANCH   9  28
ATOM     28  C   UNL A   1      46.629  18.939  39.696  1.00  0.00     0.111 A 
ATOM     29  C   UNL A   1      45.606  17.986  39.699  1.00  0.00     0.044 A 
ATOM     30  C   UNL A   1      47.873  18.637  40.260  1.00  0.00     0.044 A 
ATOM     31  C   UNL A   1      45.837  16.730  40.263  1.00  0.00     0.004 A 
ATOM     32  C   UNL A   1      48.090  17.391  40.843  1.00  0.00     0.004 A 
ATOM     33  C   UNL A   1      47.074  16.436  40.840  1.00  0.00     0.000 A 
ENDBRANCH   9  28
ENDBRANCH   2   3
ENDBRANCH   1   2
BRANCH   1  34
ATOM     34  C   UNL A   1      49.251  27.374  36.083  1.00  0.00     0.119 C 
BRANCH  34  35
ATOM     35  N   UNL A   1      49.275  27.968  37.433  1.00  0.00    -0.352 N 
ATOM     36  C   UNL A   1      48.375  28.701  38.145  1.00  0.00     0.251 C 
ATOM     37  H   UNL A   1      50.115  27.803  37.918  1.00  0.00     0.163 HD
ATOM     38  O   UNL A   1      48.615  29.003  39.310  1.00  0.00    -0.269 OA
BRANCH  36  39
ATOM     39  C   UNL A   1      47.192  29.223  37.473  1.00  0.00     0.039 A 
ATOM     40  C   UNL A   1      47.363  30.394  36.727  1.00  0.00     0.014 A 
ATOM     41  C   UNL A   1      45.992  28.516  37.479  1.00  0.00     0.014 A 
ATOM     42  C   UNL A   1      46.343  30.819  35.895  1.00  0.00     0.010 A 
ATOM     43  C   UNL A   1      44.987  28.920  36.623  1.00  0.00     0.010 A 
ATOM     44  C   UNL A   1      45.167  30.068  35.832  1.00  0.00    -0.014 A 
BRANCH  44  45
ATOM     45  C   UNL A   1      44.023  30.551  35.054  1.00  0.00     0.031 A 
ATOM     46  C   UNL A   1      42.997  31.348  35.790  1.00  0.00     0.074 A 
ATOM     47  C   UNL A   1      43.903  30.215  33.759  1.00  0.00     0.049 A 
ATOM     48  N   UNL A   1      41.818  31.735  35.396  1.00  0.00    -0.248 NA
ATOM     49  C   UNL A   1      43.334  31.728  37.174  1.00  0.00     0.031 C 
ATOM     50  C   UNL A   1      44.878  29.441  32.986  1.00  0.00     0.029 A 
ATOM     51  N   UNL A   1      42.895  30.465  32.871  1.00  0.00    -0.354 N 
ATOM     52  C   UNL A   1      41.269  32.395  36.486  1.00  0.00     0.074 A 
ATOM     53  C   UNL A   1      42.214  32.306  37.574  1.00  0.00     0.031 C 
ATOM     54  C   UNL A   1      44.411  29.275  31.735  1.00  0.00     0.029 A 
ATOM     55  C   UNL A   1      43.096  29.900  31.635  1.00  0.00     0.049 A 
ATOM     56  H   UNL A   1      42.099  31.000  33.095  1.00  0.00     0.167 HD
ATOM     57  C   UNL A   1      40.086  33.043  36.553  1.00  0.00     0.037 A 
ATOM     58  C   UNL A   1      42.284  29.887  30.562  1.00  0.00     0.037 A 
ATOM     59  C   UNL A   1      39.178  33.120  35.444  1.00  0.00     0.049 A 
ATOM     60  C   UNL A   1      40.952  30.589  30.676  1.00  0.00     0.074 A 
ATOM     61  C   UNL A   1      37.941  33.729  35.381  1.00  0.00     0.029 A 
ATOM     62  N   UNL A   1      39.430  32.574  34.193  1.00  0.00    -0.354 N 
ATOM     63  N   UNL A   1      40.438  31.219  31.708  1.00  0.00    -0.248 NA
ATOM     64  C   UNL A   1      40.092  30.583  29.486  1.00  0.00     0.031 C 
ATOM     65  C   UNL A   1      37.435  33.537  34.091  1.00  0.00     0.029 A 
ATOM     66  C   UNL A   1      38.375  32.842  33.342  1.00  0.00     0.049 A 
ATOM     67  H   UNL A   1      40.240  32.071  33.947  1.00  0.00     0.167 HD
ATOM     68  C   UNL A   1      39.220  31.727  31.276  1.00  0.00     0.074 A 
ATOM     69  C   UNL A   1      39.071  31.325  29.892  1.00  0.00     0.031 C 
ATOM     70  C   UNL A   1      38.303  32.460  31.954  1.00  0.00     0.037 A 
BRANCH  57  71
ATOM     71  C   UNL A   1      39.741  33.710  37.850  1.00  0.00     0.058 A 
ATOM     72  C   UNL A   1      40.314  34.941  38.209  1.00  0.00     0.135 A 
ATOM     73  C   UNL A   1      38.846  33.115  38.751  1.00  0.00     0.135 A 
ATOM     74  F   UNL A   1      41.203  35.536  37.397  1.00  0.00    -0.206 F 
ATOM     75  C   UNL A   1      40.031  35.547  39.427  1.00  0.00     0.059 A 
ATOM     76  C   UNL A   1      38.525  33.718  39.963  1.00  0.00     0.059 A 
ATOM     77  F   UNL A   1      38.283  31.930  38.463  1.00  0.00    -0.206 F 
ATOM     78  C   UNL A   1      39.134  34.928  40.298  1.00  0.00     0.060 A 
BRANCH  78  79
ATOM     79  S   UNL A   1      38.767  35.735  41.869  1.00  0.00     0.124 S 
ATOM     80  O   UNL A   1      38.941  37.142  41.520  1.00  0.00    -0.237 OA
ATOM     81  O   UNL A   1      37.394  35.311  42.124  1.00  0.00    -0.237 OA
ATOM     82  O   UNL A   1      39.768  35.185  42.777  1.00  0.00    -0.744 OA
ENDBRANCH  78  79
ENDBRANCH  57  71
BRANCH  58  83
ATOM     83  C   UNL A   1      42.694  29.221  29.298  1.00  0.00     0.058 A 
ATOM     84  C   UNL A   1      43.232  29.965  28.238  1.00  0.00     0.135 A 
ATOM     85  C   UNL A   1      42.530  27.840  29.107  1.00  0.00     0.135 A 
ATOM     86  F   UNL A   1      43.414  31.288  28.372  1.00  0.00    -0.206 F 
ATOM     87  C   UNL A   1      43.549  29.376  27.017  1.00  0.00     0.059 A 
ATOM     88  C   UNL A   1      42.863  27.223  27.904  1.00  0.00     0.059 A 
ATOM     89  F   UNL A   1      42.045  27.075  30.098  1.00  0.00    -0.206 F 
ATOM     90  C   UNL A   1      43.351  28.004  26.857  1.00  0.00     0.060 A 
BRANCH  90  91
ATOM     91  S   UNL A   1      43.756  27.251  25.267  1.00  0.00     0.124 S 
ATOM     92  O   UNL A   1      45.074  27.816  25.003  1.00  0.00    -0.237 OA
ATOM     93  O   UNL A   1      43.722  25.827  25.583  1.00  0.00    -0.237 OA
ATOM     94  O   UNL A   1      42.682  27.716  24.393  1.00  0.00    -0.744 OA
ENDBRANCH  90  91
ENDBRANCH  58  83
BRANCH  70  95
ATOM     95  C   UNL A   1      37.105  32.944  31.194  1.00  0.00     0.058 A 
ATOM     96  C   UNL A   1      37.182  34.032  30.314  1.00  0.00     0.135 A 
ATOM     97  C   UNL A   1      35.898  32.229  31.265  1.00  0.00     0.135 A 
ATOM     98  F   UNL A   1      38.313  34.748  30.220  1.00  0.00    -0.206 F 
ATOM     99  C   UNL A   1      36.097  34.397  29.526  1.00  0.00     0.059 A 
ATOM    100  C   UNL A   1      34.811  32.561  30.467  1.00  0.00     0.059 A 
ATOM    101  F   UNL A   1      35.785  31.173  32.087  1.00  0.00    -0.206 F 
ATOM    102  C   UNL A   1      34.921  33.647  29.601  1.00  0.00     0.060 A 
BRANCH 102 103
ATOM    103  S   UNL A   1      33.553  34.078  28.506  1.00  0.00     0.124 S 
ATOM    104  O   UNL A   1      34.179  35.059  27.626  1.00  0.00    -0.237 OA
ATOM    105  O   UNL A   1      33.227  32.793  27.894  1.00  0.00    -0.237 OA
ATOM    106  O   UNL A   1      32.542  34.606  29.418  1.00  0.00    -0.744 OA
ENDBRANCH 102 103
ENDBRANCH  70  95
ENDBRANCH  44  45
ENDBRANCH  36  39
ENDBRANCH  34  35
ENDBRANCH   1  34
TORSDOF 18
ENDMDL
