MODEL 1
REMARK VINA RESULT:     -10.7      0.000      0.000
REMARK SMILES CC[NH2+]CCC(=O)NC1(CC(=O)NCCCNC(=O)c2ccc(-c3c4nc(c(-c5c(F)cc(S(=O)(=O)[O-])cc5F)c5ccc([nH]5)c(-c5c(F)cc(S(=O)(=O)[O-])cc5F)c5nc(c(-c6c(F)cc(S(=O)(=O)[O-])cc6F)c6ccc3[nH]6)C=C5)C=C4)cc2)CCC1
REMARK SMILES IDX 11 1 12 2 13 3 10 5 9 6 86 7 88 8 87 9 8 10 6 11 7 12 5 14
REMARK SMILES IDX 4 15 3 16 2 19 1 20 14 21 15 22 16 23 17 24 18 25 19 27
REMARK SMILES IDX 20 28 21 29 85 30 22 31 84 32 23 33 24 34 25 35 78 36 26 37
REMARK SMILES IDX 83 38 77 39 79 40 27 41 82 42 76 43 75 44 28 46 62 47 41 48
REMARK SMILES IDX 61 49 42 50 45 51 60 52 80 53 43 54 44 55 59 57 81 58 46 59
REMARK SMILES IDX 29 60 30 61 39 62 31 63 32 64 38 65 40 66 33 67 34 68 35 69
REMARK SMILES IDX 36 70 37 71 63 72 64 73 73 74 65 75 66 76 72 77 74 78 67 79
REMARK SMILES IDX 68 80 69 81 70 82 71 83 47 84 48 85 57 86 49 87 50 88 56 89
REMARK SMILES IDX 58 90 51 91 52 92 53 93 54 94 55 95
REMARK H PARENT 13 4 8 13 3 17 3 18 17 26 79 45 45 56
REMARK Flexibility Score: inf
ROOT
ATOM      1  C   UNL A   1      33.051  28.976  23.937  1.00  0.00     0.222 C 
ATOM      2  O   UNL A   1      33.665  28.919  22.875  1.00  0.00    -0.275 OA
ATOM      3  N   UNL A   1      33.669  29.569  25.000  1.00  0.00    -0.356 N 
ATOM      4  H   UNL A   1      34.360  30.238  24.788  1.00  0.00     0.163 HD
ENDROOT
BRANCH   1   5
ATOM      5  C   UNL A   1      31.605  28.561  24.087  1.00  0.00     0.128 C 
BRANCH   5   6
ATOM      6  C   UNL A   1      30.777  28.328  22.827  1.00  0.00     0.049 C 
ATOM      7  C   UNL A   1      30.160  29.593  22.110  1.00  0.00     0.029 C 
ATOM      8  C   UNL A   1      29.284  27.982  23.174  1.00  0.00     0.029 C 
ATOM      9  C   UNL A   1      28.954  29.484  23.048  1.00  0.00     0.005 C 
BRANCH   6  10
ATOM     10  N   UNL A   1      31.364  27.412  21.822  1.00  0.00    -0.350 N 
ATOM     11  C   UNL A   1      31.789  26.114  21.842  1.00  0.00     0.226 C 
ATOM     12  O   UNL A   1      32.455  25.735  20.871  1.00  0.00    -0.275 OA
ATOM     13  H   UNL A   1      31.474  27.835  20.940  1.00  0.00     0.164 HD
BRANCH  11  14
ATOM     14  C   UNL A   1      31.471  25.133  22.957  1.00  0.00     0.161 C 
BRANCH  14  15
ATOM     15  C   UNL A   1      32.603  24.832  23.941  1.00  0.00     0.270 C 
BRANCH  15  16
ATOM     16  N   UNL A   1      33.970  24.992  23.441  1.00  0.00    -0.346 N 
ATOM     17  H   UNL A   1      33.941  24.970  22.422  1.00  0.00     0.346 HD
ATOM     18  H   UNL A   1      34.311  25.878  23.815  1.00  0.00     0.346 HD
BRANCH  16  19
ATOM     19  C   UNL A   1      34.911  23.967  23.892  1.00  0.00     0.257 C 
ATOM     20  C   UNL A   1      35.349  24.234  25.332  1.00  0.00     0.071 C 
ENDBRANCH  16  19
ENDBRANCH  15  16
ENDBRANCH  14  15
ENDBRANCH  11  14
ENDBRANCH   6  10
ENDBRANCH   5   6
ENDBRANCH   1   5
BRANCH   3  21
ATOM     21  C   UNL A   1      33.421  29.324  26.409  1.00  0.00     0.117 C 
BRANCH  21  22
ATOM     22  C   UNL A   1      34.088  30.413  27.239  1.00  0.00     0.042 C 
BRANCH  22  23
ATOM     23  C   UNL A   1      35.354  29.908  27.917  1.00  0.00     0.118 C 
BRANCH  23  24
ATOM     24  N   UNL A   1      35.382  30.302  29.317  1.00  0.00    -0.352 N 
ATOM     25  C   UNL A   1      36.347  30.036  30.252  1.00  0.00     0.251 C 
ATOM     26  H   UNL A   1      34.611  30.827  29.632  1.00  0.00     0.163 HD
ATOM     27  O   UNL A   1      36.071  30.095  31.452  1.00  0.00    -0.269 OA
BRANCH  25  28
ATOM     28  C   UNL A   1      37.707  29.673  29.810  1.00  0.00     0.039 A 
ATOM     29  C   UNL A   1      38.084  29.879  28.483  1.00  0.00     0.014 A 
ATOM     30  C   UNL A   1      38.609  29.108  30.718  1.00  0.00     0.014 A 
ATOM     31  C   UNL A   1      39.377  29.547  28.077  1.00  0.00     0.010 A 
ATOM     32  C   UNL A   1      39.925  28.890  30.343  1.00  0.00     0.010 A 
ATOM     33  C   UNL A   1      40.313  29.068  29.009  1.00  0.00    -0.014 A 
BRANCH  33  34
ATOM     34  C   UNL A   1      41.684  28.672  28.605  1.00  0.00     0.031 A 
ATOM     35  C   UNL A   1      42.770  29.716  28.556  1.00  0.00     0.074 A 
ATOM     36  C   UNL A   1      41.934  27.404  28.226  1.00  0.00     0.049 A 
ATOM     37  N   UNL A   1      44.007  29.605  28.146  1.00  0.00    -0.248 NA
ATOM     38  C   UNL A   1      42.404  31.079  28.981  1.00  0.00     0.031 C 
ATOM     39  C   UNL A   1      40.946  26.324  28.175  1.00  0.00     0.029 A 
ATOM     40  N   UNL A   1      43.095  26.810  27.802  1.00  0.00    -0.354 N 
ATOM     41  C   UNL A   1      44.552  30.882  28.241  1.00  0.00     0.074 A 
ATOM     42  C   UNL A   1      43.495  31.764  28.678  1.00  0.00     0.031 C 
ATOM     43  C   UNL A   1      41.550  25.193  27.774  1.00  0.00     0.029 A 
ATOM     44  C   UNL A   1      42.956  25.476  27.505  1.00  0.00     0.049 A 
ATOM     45  H   UNL A   1      43.948  27.295  27.718  1.00  0.00     0.167 HD
ATOM     46  C   UNL A   1      45.827  31.277  28.015  1.00  0.00     0.037 A 
ATOM     47  C   UNL A   1      43.864  24.583  27.066  1.00  0.00     0.037 A 
ATOM     48  C   UNL A   1      46.881  30.379  27.632  1.00  0.00     0.049 A 
ATOM     49  C   UNL A   1      45.284  25.036  26.858  1.00  0.00     0.074 A 
ATOM     50  C   UNL A   1      48.224  30.654  27.448  1.00  0.00     0.029 A 
ATOM     51  N   UNL A   1      46.710  29.024  27.383  1.00  0.00    -0.354 N 
ATOM     52  N   UNL A   1      45.797  26.234  27.013  1.00  0.00    -0.248 NA
ATOM     53  C   UNL A   1      46.250  24.018  26.425  1.00  0.00     0.031 C 
ATOM     54  C   UNL A   1      48.860  29.472  27.053  1.00  0.00     0.029 A 
ATOM     55  C   UNL A   1      47.921  28.451  27.035  1.00  0.00     0.049 A 
ATOM     56  H   UNL A   1      45.854  28.541  27.446  1.00  0.00     0.167 HD
ATOM     57  C   UNL A   1      47.151  26.108  26.721  1.00  0.00     0.074 A 
ATOM     58  C   UNL A   1      47.377  24.715  26.394  1.00  0.00     0.031 C 
ATOM     59  C   UNL A   1      48.120  27.058  26.723  1.00  0.00     0.037 A 
BRANCH  46  60
ATOM     60  C   UNL A   1      46.147  32.736  28.196  1.00  0.00     0.058 A 
ATOM     61  C   UNL A   1      46.030  33.653  27.138  1.00  0.00     0.135 A 
ATOM     62  C   UNL A   1      46.558  33.230  29.444  1.00  0.00     0.135 A 
ATOM     63  F   UNL A   1      45.658  33.234  25.917  1.00  0.00    -0.206 F 
ATOM     64  C   UNL A   1      46.345  34.998  27.301  1.00  0.00     0.059 A 
ATOM     65  C   UNL A   1      46.850  34.578  29.638  1.00  0.00     0.059 A 
ATOM     66  F   UNL A   1      46.689  32.399  30.490  1.00  0.00    -0.206 F 
ATOM     67  C   UNL A   1      46.755  35.451  28.555  1.00  0.00     0.060 A 
BRANCH  67  68
ATOM     68  S   UNL A   1      47.158  37.200  28.750  1.00  0.00     0.124 S 
ATOM     69  O   UNL A   1      46.504  37.781  27.581  1.00  0.00    -0.237 OA
ATOM     70  O   UNL A   1      46.550  37.518  30.039  1.00  0.00    -0.237 OA
ATOM     71  O   UNL A   1      48.617  37.218  28.728  1.00  0.00    -0.744 OA
ENDBRANCH  67  68
ENDBRANCH  46  60
BRANCH  47  72
ATOM     72  C   UNL A   1      43.464  23.171  26.833  1.00  0.00     0.058 A 
ATOM     73  C   UNL A   1      43.379  22.652  25.532  1.00  0.00     0.135 A 
ATOM     74  C   UNL A   1      43.182  22.305  27.901  1.00  0.00     0.135 A 
ATOM     75  F   UNL A   1      43.637  23.440  24.477  1.00  0.00    -0.206 F 
ATOM     76  C   UNL A   1      43.016  21.330  25.296  1.00  0.00     0.059 A 
ATOM     77  C   UNL A   1      42.840  20.972  27.691  1.00  0.00     0.059 A 
ATOM     78  F   UNL A   1      43.269  22.746  29.165  1.00  0.00    -0.206 F 
ATOM     79  C   UNL A   1      42.749  20.496  26.383  1.00  0.00     0.060 A 
BRANCH  79  80
ATOM     80  S   UNL A   1      42.329  18.768  26.068  1.00  0.00     0.124 S 
ATOM     81  O   UNL A   1      40.921  18.869  25.704  1.00  0.00    -0.237 OA
ATOM     82  O   UNL A   1      43.247  18.422  24.987  1.00  0.00    -0.237 OA
ATOM     83  O   UNL A   1      42.608  18.118  27.346  1.00  0.00    -0.744 OA
ENDBRANCH  79  80
ENDBRANCH  47  72
BRANCH  59  84
ATOM     84  C   UNL A   1      49.516  26.616  26.393  1.00  0.00     0.058 A 
ATOM     85  C   UNL A   1      50.334  25.991  27.346  1.00  0.00     0.135 A 
ATOM     86  C   UNL A   1      50.018  26.767  25.091  1.00  0.00     0.135 A 
ATOM     87  F   UNL A   1      49.902  25.828  28.606  1.00  0.00    -0.206 F 
ATOM     88  C   UNL A   1      51.613  25.550  27.025  1.00  0.00     0.059 A 
ATOM     89  C   UNL A   1      51.283  26.310  24.740  1.00  0.00     0.059 A 
ATOM     90  F   UNL A   1      49.268  27.348  24.140  1.00  0.00    -0.206 F 
ATOM     91  C   UNL A   1      52.078  25.713  25.717  1.00  0.00     0.060 A 
BRANCH  91  92
ATOM     92  S   UNL A   1      53.725  25.103  25.304  1.00  0.00     0.124 S 
ATOM     93  O   UNL A   1      53.892  25.609  23.945  1.00  0.00    -0.237 OA
ATOM     94  O   UNL A   1      54.558  25.735  26.322  1.00  0.00    -0.237 OA
ATOM     95  O   UNL A   1      53.591  23.654  25.423  1.00  0.00    -0.744 OA
ENDBRANCH  91  92
ENDBRANCH  59  84
ENDBRANCH  33  34
ENDBRANCH  25  28
ENDBRANCH  23  24
ENDBRANCH  22  23
ENDBRANCH  21  22
ENDBRANCH   3  21
TORSDOF 19
ENDMDL
MODEL 2
REMARK VINA RESULT:     -10.3      2.924      4.056
REMARK SMILES CC[NH2+]CCC(=O)NC1(CC(=O)NCCCNC(=O)c2ccc(-c3c4nc(c(-c5c(F)cc(S(=O)(=O)[O-])cc5F)c5ccc([nH]5)c(-c5c(F)cc(S(=O)(=O)[O-])cc5F)c5nc(c(-c6c(F)cc(S(=O)(=O)[O-])cc6F)c6ccc3[nH]6)C=C5)C=C4)cc2)CCC1
REMARK SMILES IDX 11 1 12 2 13 3 10 5 9 6 86 7 88 8 87 9 8 10 6 11 7 12 5 14
REMARK SMILES IDX 4 15 3 16 2 19 1 20 14 21 15 22 16 23 17 24 18 25 19 27
REMARK SMILES IDX 20 28 21 29 85 30 22 31 84 32 23 33 24 34 25 35 78 36 26 37
REMARK SMILES IDX 83 38 77 39 79 40 27 41 82 42 76 43 75 44 28 46 62 47 41 48
REMARK SMILES IDX 61 49 42 50 45 51 60 52 80 53 43 54 44 55 59 57 81 58 46 59
REMARK SMILES IDX 29 60 30 61 39 62 31 63 32 64 38 65 40 66 33 67 34 68 35 69
REMARK SMILES IDX 36 70 37 71 63 72 64 73 73 74 65 75 66 76 72 77 74 78 67 79
REMARK SMILES IDX 68 80 69 81 70 82 71 83 47 84 48 85 57 86 49 87 50 88 56 89
REMARK SMILES IDX 58 90 51 91 52 92 53 93 54 94 55 95
REMARK H PARENT 13 4 8 13 3 17 3 18 17 26 79 45 45 56
REMARK Flexibility Score: inf
ROOT
ATOM      1  C   UNL A   1      33.515  25.574  23.575  1.00  0.00     0.222 C 
ATOM      2  O   UNL A   1      34.071  25.115  22.581  1.00  0.00    -0.275 OA
ATOM      3  N   UNL A   1      32.934  26.804  23.470  1.00  0.00    -0.356 N 
ATOM      4  H   UNL A   1      32.648  27.078  22.568  1.00  0.00     0.163 HD
ENDROOT
BRANCH   1   5
ATOM      5  C   UNL A   1      33.313  24.791  24.852  1.00  0.00     0.128 C 
BRANCH   5   6
ATOM      6  C   UNL A   1      32.136  23.824  24.939  1.00  0.00     0.049 C 
ATOM      7  C   UNL A   1      30.760  24.285  24.314  1.00  0.00     0.029 C 
ATOM      8  C   UNL A   1      31.383  23.954  26.313  1.00  0.00     0.029 C 
ATOM      9  C   UNL A   1      30.431  24.968  25.645  1.00  0.00     0.005 C 
BRANCH   6  10
ATOM     10  N   UNL A   1      32.418  22.420  24.565  1.00  0.00    -0.350 N 
ATOM     11  C   UNL A   1      33.286  21.465  25.012  1.00  0.00     0.226 C 
ATOM     12  O   UNL A   1      33.418  20.461  24.301  1.00  0.00    -0.275 OA
ATOM     13  H   UNL A   1      31.851  22.102  23.824  1.00  0.00     0.164 HD
BRANCH  11  14
ATOM     14  C   UNL A   1      34.057  21.562  26.316  1.00  0.00     0.161 C 
BRANCH  14  15
ATOM     15  C   UNL A   1      35.537  21.932  26.205  1.00  0.00     0.270 C 
BRANCH  15  16
ATOM     16  N   UNL A   1      36.086  22.058  24.853  1.00  0.00    -0.346 N 
ATOM     17  H   UNL A   1      35.404  21.676  24.197  1.00  0.00     0.346 HD
ATOM     18  H   UNL A   1      36.271  23.051  24.709  1.00  0.00     0.346 HD
BRANCH  16  19
ATOM     19  C   UNL A   1      37.357  21.367  24.641  1.00  0.00     0.257 C 
ATOM     20  C   UNL A   1      38.400  21.836  25.655  1.00  0.00     0.071 C 
ENDBRANCH  16  19
ENDBRANCH  15  16
ENDBRANCH  14  15
ENDBRANCH  11  14
ENDBRANCH   6  10
ENDBRANCH   5   6
ENDBRANCH   1   5
BRANCH   3  21
ATOM     21  C   UNL A   1      32.690  27.755  24.539  1.00  0.00     0.117 C 
BRANCH  21  22
ATOM     22  C   UNL A   1      34.019  28.281  25.064  1.00  0.00     0.042 C 
BRANCH  22  23
ATOM     23  C   UNL A   1      34.035  28.355  26.585  1.00  0.00     0.118 C 
BRANCH  23  24
ATOM     24  N   UNL A   1      33.800  29.718  27.037  1.00  0.00    -0.352 N 
ATOM     25  C   UNL A   1      34.531  30.449  27.936  1.00  0.00     0.251 C 
ATOM     26  H   UNL A   1      33.018  30.171  26.647  1.00  0.00     0.163 HD
ATOM     27  O   UNL A   1      34.018  31.418  28.499  1.00  0.00    -0.269 OA
BRANCH  25  28
ATOM     28  C   UNL A   1      35.925  30.062  28.225  1.00  0.00     0.039 A 
ATOM     29  C   UNL A   1      36.259  29.561  29.483  1.00  0.00     0.014 A 
ATOM     30  C   UNL A   1      36.910  30.215  27.244  1.00  0.00     0.014 A 
ATOM     31  C   UNL A   1      37.578  29.183  29.744  1.00  0.00     0.010 A 
ATOM     32  C   UNL A   1      38.189  29.730  27.465  1.00  0.00     0.010 A 
ATOM     33  C   UNL A   1      38.548  29.248  28.730  1.00  0.00    -0.014 A 
BRANCH  33  34
ATOM     34  C   UNL A   1      39.965  28.889  28.982  1.00  0.00     0.031 A 
ATOM     35  C   UNL A   1      40.894  29.920  29.571  1.00  0.00     0.074 A 
ATOM     36  C   UNL A   1      40.425  27.674  28.627  1.00  0.00     0.049 A 
ATOM     37  N   UNL A   1      42.182  29.846  29.787  1.00  0.00    -0.248 NA
ATOM     38  C   UNL A   1      40.306  31.225  29.922  1.00  0.00     0.031 C 
ATOM     39  C   UNL A   1      39.631  26.619  27.993  1.00  0.00     0.029 A 
ATOM     40  N   UNL A   1      41.676  27.124  28.741  1.00  0.00    -0.354 N 
ATOM     41  C   UNL A   1      42.555  31.096  30.271  1.00  0.00     0.074 A 
ATOM     42  C   UNL A   1      41.376  31.930  30.251  1.00  0.00     0.031 C 
ATOM     43  C   UNL A   1      40.407  25.539  27.802  1.00  0.00     0.029 A 
ATOM     44  C   UNL A   1      41.758  25.837  28.266  1.00  0.00     0.049 A 
ATOM     45  H   UNL A   1      42.443  27.606  29.126  1.00  0.00     0.167 HD
ATOM     46  C   UNL A   1      43.765  31.502  30.723  1.00  0.00     0.037 A 
ATOM     47  C   UNL A   1      42.807  24.995  28.212  1.00  0.00     0.037 A 
ATOM     48  C   UNL A   1      44.918  30.645  30.787  1.00  0.00     0.049 A 
ATOM     49  C   UNL A   1      44.134  25.454  28.755  1.00  0.00     0.074 A 
ATOM     50  C   UNL A   1      46.174  30.926  31.293  1.00  0.00     0.029 A 
ATOM     51  N   UNL A   1      44.950  29.333  30.337  1.00  0.00    -0.354 N 
ATOM     52  N   UNL A   1      44.454  26.619  29.267  1.00  0.00    -0.248 NA
ATOM     53  C   UNL A   1      45.237  24.485  28.720  1.00  0.00     0.031 C 
ATOM     54  C   UNL A   1      46.976  29.794  31.117  1.00  0.00     0.029 A 
ATOM     55  C   UNL A   1      46.208  28.793  30.541  1.00  0.00     0.049 A 
ATOM     56  H   UNL A   1      44.189  28.856  29.932  1.00  0.00     0.167 HD
ATOM     57  C   UNL A   1      45.791  26.515  29.640  1.00  0.00     0.074 A 
ATOM     58  C   UNL A   1      46.211  25.169  29.305  1.00  0.00     0.031 C 
ATOM     59  C   UNL A   1      46.597  27.447  30.207  1.00  0.00     0.037 A 
BRANCH  46  60
ATOM     60  C   UNL A   1      43.891  32.924  31.196  1.00  0.00     0.058 A 
ATOM     61  C   UNL A   1      43.615  33.287  32.525  1.00  0.00     0.135 A 
ATOM     62  C   UNL A   1      44.310  33.937  30.317  1.00  0.00     0.135 A 
ATOM     63  F   UNL A   1      43.194  32.364  33.405  1.00  0.00    -0.206 F 
ATOM     64  C   UNL A   1      43.714  34.605  32.956  1.00  0.00     0.059 A 
ATOM     65  C   UNL A   1      44.444  35.258  30.735  1.00  0.00     0.059 A 
ATOM     66  F   UNL A   1      44.585  33.649  29.035  1.00  0.00    -0.206 F 
ATOM     67  C   UNL A   1      44.128  35.586  32.053  1.00  0.00     0.060 A 
BRANCH  67  68
ATOM     68  S   UNL A   1      44.253  37.291  32.630  1.00  0.00     0.124 S 
ATOM     69  O   UNL A   1      45.650  37.355  33.048  1.00  0.00    -0.237 OA
ATOM     70  O   UNL A   1      43.916  38.052  31.430  1.00  0.00    -0.237 OA
ATOM     71  O   UNL A   1      43.271  37.359  33.707  1.00  0.00    -0.744 OA
ENDBRANCH  67  68
ENDBRANCH  46  60
BRANCH  47  72
ATOM     72  C   UNL A   1      42.633  23.625  27.660  1.00  0.00     0.058 A 
ATOM     73  C   UNL A   1      42.718  23.389  26.281  1.00  0.00     0.135 A 
ATOM     74  C   UNL A   1      42.403  22.523  28.498  1.00  0.00     0.135 A 
ATOM     75  F   UNL A   1      42.934  24.411  25.437  1.00  0.00    -0.206 F 
ATOM     76  C   UNL A   1      42.567  22.113  25.747  1.00  0.00     0.059 A 
ATOM     77  C   UNL A   1      42.272  21.234  27.991  1.00  0.00     0.059 A 
ATOM     78  F   UNL A   1      42.334  22.692  29.828  1.00  0.00    -0.206 F 
ATOM     79  C   UNL A   1      42.346  21.040  26.612  1.00  0.00     0.060 A 
BRANCH  79  80
ATOM     80  S   UNL A   1      42.203  19.380  25.915  1.00  0.00     0.124 S 
ATOM     81  O   UNL A   1      40.765  19.271  25.706  1.00  0.00    -0.237 OA
ATOM     82  O   UNL A   1      43.020  19.483  24.709  1.00  0.00    -0.237 OA
ATOM     83  O   UNL A   1      42.757  18.528  26.965  1.00  0.00    -0.744 OA
ENDBRANCH  79  80
ENDBRANCH  47  72
BRANCH  59  84
ATOM     84  C   UNL A   1      48.003  27.033  30.531  1.00  0.00     0.058 A 
ATOM     85  C   UNL A   1      49.072  27.328  29.673  1.00  0.00     0.135 A 
ATOM     86  C   UNL A   1      48.290  26.387  31.744  1.00  0.00     0.135 A 
ATOM     87  F   UNL A   1      48.849  27.940  28.499  1.00  0.00    -0.206 F 
ATOM     88  C   UNL A   1      50.378  26.976  29.996  1.00  0.00     0.059 A 
ATOM     89  C   UNL A   1      49.591  26.050  32.100  1.00  0.00     0.059 A 
ATOM     90  F   UNL A   1      47.302  26.094  32.605  1.00  0.00    -0.206 F 
ATOM     91  C   UNL A   1      50.628  26.338  31.213  1.00  0.00     0.060 A 
BRANCH  91  92
ATOM     92  S   UNL A   1      52.331  25.920  31.637  1.00  0.00     0.124 S 
ATOM     93  O   UNL A   1      52.652  26.953  32.616  1.00  0.00    -0.237 OA
ATOM     94  O   UNL A   1      52.199  24.565  32.164  1.00  0.00    -0.237 OA
ATOM     95  O   UNL A   1      53.034  26.023  30.360  1.00  0.00    -0.744 OA
ENDBRANCH  91  92
ENDBRANCH  59  84
ENDBRANCH  33  34
ENDBRANCH  25  28
ENDBRANCH  23  24
ENDBRANCH  22  23
ENDBRANCH  21  22
ENDBRANCH   3  21
TORSDOF 19
ENDMDL
MODEL 3
REMARK VINA RESULT:     -10.3      0.798      8.512
REMARK SMILES CC[NH2+]CCC(=O)NC1(CC(=O)NCCCNC(=O)c2ccc(-c3c4nc(c(-c5c(F)cc(S(=O)(=O)[O-])cc5F)c5ccc([nH]5)c(-c5c(F)cc(S(=O)(=O)[O-])cc5F)c5nc(c(-c6c(F)cc(S(=O)(=O)[O-])cc6F)c6ccc3[nH]6)C=C5)C=C4)cc2)CCC1
REMARK SMILES IDX 11 1 12 2 13 3 10 5 9 6 86 7 88 8 87 9 8 10 6 11 7 12 5 14
REMARK SMILES IDX 4 15 3 16 2 19 1 20 14 21 15 22 16 23 17 24 18 25 19 27
REMARK SMILES IDX 20 28 21 29 85 30 22 31 84 32 23 33 24 34 25 35 78 36 26 37
REMARK SMILES IDX 83 38 77 39 79 40 27 41 82 42 76 43 75 44 28 46 62 47 41 48
REMARK SMILES IDX 61 49 42 50 45 51 60 52 80 53 43 54 44 55 59 57 81 58 46 59
REMARK SMILES IDX 29 60 30 61 39 62 31 63 32 64 38 65 40 66 33 67 34 68 35 69
REMARK SMILES IDX 36 70 37 71 63 72 64 73 73 74 65 75 66 76 72 77 74 78 67 79
REMARK SMILES IDX 68 80 69 81 70 82 71 83 47 84 48 85 57 86 49 87 50 88 56 89
REMARK SMILES IDX 58 90 51 91 52 92 53 93 54 94 55 95
REMARK H PARENT 13 4 8 13 3 17 3 18 17 26 79 45 45 56
REMARK Flexibility Score: inf
ROOT
ATOM      1  C   UNL A   1      33.001  29.008  24.024  1.00  0.00     0.222 C 
ATOM      2  O   UNL A   1      33.642  28.805  22.997  1.00  0.00    -0.275 OA
ATOM      3  N   UNL A   1      33.646  29.596  25.073  1.00  0.00    -0.356 N 
ATOM      4  H   UNL A   1      34.420  30.162  24.849  1.00  0.00     0.163 HD
ENDROOT
BRANCH   1   5
ATOM      5  C   UNL A   1      31.511  28.778  24.136  1.00  0.00     0.128 C 
BRANCH   5   6
ATOM      6  C   UNL A   1      30.717  28.502  22.862  1.00  0.00     0.049 C 
ATOM      7  C   UNL A   1      30.251  29.745  22.005  1.00  0.00     0.029 C 
ATOM      8  C   UNL A   1      29.185  28.326  23.165  1.00  0.00     0.029 C 
ATOM      9  C   UNL A   1      29.002  29.834  22.888  1.00  0.00     0.005 C 
BRANCH   6  10
ATOM     10  N   UNL A   1      31.256  27.447  21.973  1.00  0.00    -0.350 N 
ATOM     11  C   UNL A   1      31.601  26.137  22.143  1.00  0.00     0.226 C 
ATOM     12  O   UNL A   1      32.251  25.614  21.229  1.00  0.00    -0.275 OA
ATOM     13  H   UNL A   1      31.398  27.762  21.051  1.00  0.00     0.164 HD
BRANCH  11  14
ATOM     14  C   UNL A   1      31.216  25.307  23.355  1.00  0.00     0.161 C 
BRANCH  14  15
ATOM     15  C   UNL A   1      31.092  23.798  23.134  1.00  0.00     0.270 C 
BRANCH  15  16
ATOM     16  N   UNL A   1      32.188  23.144  22.416  1.00  0.00    -0.346 N 
ATOM     17  H   UNL A   1      31.787  22.437  21.799  1.00  0.00     0.346 HD
ATOM     18  H   UNL A   1      32.683  23.882  21.913  1.00  0.00     0.346 HD
BRANCH  16  19
ATOM     19  C   UNL A   1      33.179  22.493  23.271  1.00  0.00     0.257 C 
ATOM     20  C   UNL A   1      32.566  21.287  23.983  1.00  0.00     0.071 C 
ENDBRANCH  16  19
ENDBRANCH  15  16
ENDBRANCH  14  15
ENDBRANCH  11  14
ENDBRANCH   6  10
ENDBRANCH   5   6
ENDBRANCH   1   5
BRANCH   3  21
ATOM     21  C   UNL A   1      33.319  29.481  26.482  1.00  0.00     0.117 C 
BRANCH  21  22
ATOM     22  C   UNL A   1      34.522  28.937  27.241  1.00  0.00     0.042 C 
BRANCH  22  23
ATOM     23  C   UNL A   1      35.484  30.046  27.642  1.00  0.00     0.118 C 
BRANCH  23  24
ATOM     24  N   UNL A   1      35.420  30.292  29.075  1.00  0.00    -0.352 N 
ATOM     25  C   UNL A   1      36.334  29.944  30.034  1.00  0.00     0.251 C 
ATOM     26  H   UNL A   1      34.620  30.769  29.393  1.00  0.00     0.163 HD
ATOM     27  O   UNL A   1      35.986  29.873  31.214  1.00  0.00    -0.269 OA
BRANCH  25  28
ATOM     28  C   UNL A   1      37.726  29.652  29.641  1.00  0.00     0.039 A 
ATOM     29  C   UNL A   1      38.648  29.244  30.604  1.00  0.00     0.014 A 
ATOM     30  C   UNL A   1      38.120  29.801  28.307  1.00  0.00     0.014 A 
ATOM     31  C   UNL A   1      39.959  28.954  30.222  1.00  0.00     0.010 A 
ATOM     32  C   UNL A   1      39.387  29.401  27.911  1.00  0.00     0.010 A 
ATOM     33  C   UNL A   1      40.332  29.013  28.868  1.00  0.00    -0.014 A 
BRANCH  33  34
ATOM     34  C   UNL A   1      41.724  28.747  28.431  1.00  0.00     0.031 A 
ATOM     35  C   UNL A   1      42.110  27.355  28.001  1.00  0.00     0.074 A 
ATOM     36  C   UNL A   1      42.645  29.730  28.481  1.00  0.00     0.049 A 
ATOM     37  N   UNL A   1      43.286  26.887  27.670  1.00  0.00    -0.248 NA
ATOM     38  C   UNL A   1      41.040  26.342  27.984  1.00  0.00     0.031 C 
ATOM     39  C   UNL A   1      42.398  31.099  28.939  1.00  0.00     0.029 A 
ATOM     40  N   UNL A   1      43.976  29.725  28.152  1.00  0.00    -0.354 N 
ATOM     41  C   UNL A   1      43.098  25.529  27.434  1.00  0.00     0.074 A 
ATOM     42  C   UNL A   1      41.715  25.233  27.726  1.00  0.00     0.031 C 
ATOM     43  C   UNL A   1      43.534  31.810  28.833  1.00  0.00     0.029 A 
ATOM     44  C   UNL A   1      44.594  30.939  28.335  1.00  0.00     0.049 A 
ATOM     45  H   UNL A   1      44.444  28.926  27.817  1.00  0.00     0.167 HD
ATOM     46  C   UNL A   1      43.991  24.617  26.982  1.00  0.00     0.037 A 
ATOM     47  C   UNL A   1      45.872  31.304  28.123  1.00  0.00     0.037 A 
ATOM     48  C   UNL A   1      45.351  24.936  26.644  1.00  0.00     0.049 A 
ATOM     49  C   UNL A   1      46.838  30.284  27.584  1.00  0.00     0.074 A 
ATOM     50  C   UNL A   1      46.323  24.111  26.109  1.00  0.00     0.029 A 
ATOM     51  N   UNL A   1      45.929  26.189  26.801  1.00  0.00    -0.354 N 
ATOM     52  N   UNL A   1      46.629  29.019  27.306  1.00  0.00    -0.248 NA
ATOM     53  C   UNL A   1      48.210  30.740  27.323  1.00  0.00     0.031 C 
ATOM     54  C   UNL A   1      47.500  24.856  25.975  1.00  0.00     0.029 A 
ATOM     55  C   UNL A   1      47.248  26.157  26.385  1.00  0.00     0.049 A 
ATOM     56  H   UNL A   1      45.467  26.983  27.156  1.00  0.00     0.167 HD
ATOM     57  C   UNL A   1      47.835  28.534  26.813  1.00  0.00     0.074 A 
ATOM     58  C   UNL A   1      48.764  29.646  26.819  1.00  0.00     0.031 C 
ATOM     59  C   UNL A   1      48.148  27.282  26.393  1.00  0.00     0.037 A 
BRANCH  46  60
ATOM     60  C   UNL A   1      43.515  23.200  26.813  1.00  0.00     0.058 A 
ATOM     61  C   UNL A   1      43.397  22.326  27.907  1.00  0.00     0.135 A 
ATOM     62  C   UNL A   1      43.156  22.711  25.547  1.00  0.00     0.135 A 
ATOM     63  F   UNL A   1      43.743  22.734  29.139  1.00  0.00    -0.206 F 
ATOM     64  C   UNL A   1      42.975  21.011  27.748  1.00  0.00     0.059 A 
ATOM     65  C   UNL A   1      42.703  21.407  25.368  1.00  0.00     0.059 A 
ATOM     66  F   UNL A   1      43.251  23.501  24.465  1.00  0.00    -0.206 F 
ATOM     67  C   UNL A   1      42.632  20.559  26.472  1.00  0.00     0.060 A 
BRANCH  67  68
ATOM     68  S   UNL A   1      42.084  18.850  26.283  1.00  0.00     0.124 S 
ATOM     69  O   UNL A   1      42.182  18.359  27.654  1.00  0.00    -0.237 OA
ATOM     70  O   UNL A   1      40.729  19.011  25.763  1.00  0.00    -0.237 OA
ATOM     71  O   UNL A   1      43.049  18.285  25.344  1.00  0.00    -0.744 OA
ENDBRANCH  67  68
ENDBRANCH  46  60
BRANCH  47  72
ATOM     72  C   UNL A   1      46.297  32.705  28.384  1.00  0.00     0.058 A 
ATOM     73  C   UNL A   1      46.878  33.065  29.608  1.00  0.00     0.135 A 
ATOM     74  C   UNL A   1      46.154  33.706  27.410  1.00  0.00     0.135 A 
ATOM     75  F   UNL A   1      47.033  32.145  30.573  1.00  0.00    -0.206 F 
ATOM     76  C   UNL A   1      47.290  34.369  29.866  1.00  0.00     0.059 A 
ATOM     77  C   UNL A   1      46.581  35.011  27.635  1.00  0.00     0.059 A 
ATOM     78  F   UNL A   1      45.624  33.409  26.213  1.00  0.00    -0.206 F 
ATOM     79  C   UNL A   1      47.138  35.336  28.872  1.00  0.00     0.060 A 
BRANCH  79  80
ATOM     80  S   UNL A   1      47.724  37.013  29.196  1.00  0.00     0.124 S 
ATOM     81  O   UNL A   1      48.401  36.845  30.476  1.00  0.00    -0.237 OA
ATOM     82  O   UNL A   1      48.586  37.265  28.045  1.00  0.00    -0.237 OA
ATOM     83  O   UNL A   1      46.492  37.797  29.228  1.00  0.00    -0.744 OA
ENDBRANCH  79  80
ENDBRANCH  47  72
BRANCH  59  84
ATOM     84  C   UNL A   1      49.539  27.058  25.875  1.00  0.00     0.058 A 
ATOM     85  C   UNL A   1      50.592  26.698  26.729  1.00  0.00     0.135 A 
ATOM     86  C   UNL A   1      49.806  27.146  24.500  1.00  0.00     0.135 A 
ATOM     87  F   UNL A   1      50.389  26.605  28.053  1.00  0.00    -0.206 F 
ATOM     88  C   UNL A   1      51.871  26.455  26.239  1.00  0.00     0.059 A 
ATOM     89  C   UNL A   1      51.070  26.882  23.985  1.00  0.00     0.059 A 
ATOM     90  F   UNL A   1      48.828  27.475  23.640  1.00  0.00    -0.206 F 
ATOM     91  C   UNL A   1      52.099  26.548  24.864  1.00  0.00     0.060 A 
BRANCH  91  92
ATOM     92  S   UNL A   1      53.753  26.194  24.237  1.00  0.00     0.124 S 
ATOM     93  O   UNL A   1      53.579  26.421  22.806  1.00  0.00    -0.237 OA
ATOM     94  O   UNL A   1      54.572  27.178  24.940  1.00  0.00    -0.237 OA
ATOM     95  O   UNL A   1      53.977  24.806  24.631  1.00  0.00    -0.744 OA
ENDBRANCH  91  92
ENDBRANCH  59  84
ENDBRANCH  33  34
ENDBRANCH  25  28
ENDBRANCH  23  24
ENDBRANCH  22  23
ENDBRANCH  21  22
ENDBRANCH   3  21
TORSDOF 19
ENDMDL
