MODEL 1
REMARK VINA RESULT:     -10.7      0.000      0.000
REMARK SMILES CC(C)([NH2+]C[C@@H]1COc2ccccc21)C(=O)NCCCNC(=O)c1ccc(-c2c3nc(c(-c4c(F)cc(S(=O)(=O)[O-])cc4F)c4ccc([nH]4)c(-c4c(F)cc(S(=O)(=O)[O-])cc4F)c4nc(c(-c5c(F)cc(S(=O)(=O)[O-])cc5F)c5ccc2[nH]5)C=C4)C=C3)cc1
REMARK SMILES IDX 19 1 18 2 17 3 15 4 16 5 2 7 1 8 3 9 4 10 5 13 6 14 7 15
REMARK SMILES IDX 14 16 8 17 9 18 13 19 10 20 12 21 11 22 20 23 21 24 22 25
REMARK SMILES IDX 23 27 24 28 25 29 89 30 26 31 88 32 27 33 28 34 29 35 82 36
REMARK SMILES IDX 30 37 87 38 81 39 83 40 31 41 86 42 80 43 79 44 32 46 66 47
REMARK SMILES IDX 45 48 65 49 46 50 49 51 64 52 84 53 47 54 48 55 63 57 85 58
REMARK SMILES IDX 50 59 33 60 34 61 43 62 35 63 36 64 42 65 44 66 37 67 38 68
REMARK SMILES IDX 39 69 40 70 41 71 67 72 68 73 77 74 69 75 70 76 76 77 78 78
REMARK SMILES IDX 71 79 72 80 73 81 74 82 75 83 51 84 52 85 61 86 53 87 54 88
REMARK SMILES IDX 60 89 62 90 55 91 56 92 57 93 58 94 59 95
REMARK H PARENT 17 6 4 11 4 12 21 26 83 45 49 56
REMARK Flexibility Score: inf
ROOT
ATOM      1  C   UNL A   1      33.632  33.816  28.093  1.00  0.00     0.042 C 
ENDROOT
BRANCH   1   2
ATOM      2  C   UNL A   1      34.404  34.995  28.665  1.00  0.00     0.118 C 
BRANCH   2   3
ATOM      3  N   UNL A   1      33.567  36.041  29.195  1.00  0.00    -0.351 N 
ATOM      4  C   UNL A   1      33.268  36.471  30.441  1.00  0.00     0.280 C 
ATOM      5  O   UNL A   1      32.862  37.648  30.441  1.00  0.00    -0.268 OA
ATOM      6  H   UNL A   1      33.110  36.558  28.492  1.00  0.00     0.163 HD
BRANCH   4   7
ATOM      7  C   UNL A   1      33.440  35.727  31.819  1.00  0.00     0.169 C 
ATOM      8  C   UNL A   1      31.978  35.742  32.392  1.00  0.00     0.090 C 
ATOM      9  C   UNL A   1      34.275  36.527  32.829  1.00  0.00     0.090 C 
BRANCH   7  10
ATOM     10  N   UNL A   1      33.753  34.282  31.817  1.00  0.00    -0.333 N 
ATOM     11  H   UNL A   1      34.401  34.159  31.038  1.00  0.00     0.347 HD
ATOM     12  H   UNL A   1      32.801  33.916  31.839  1.00  0.00     0.347 HD
BRANCH  10  13
ATOM     13  C   UNL A   1      34.320  33.491  32.898  1.00  0.00     0.273 C 
BRANCH  13  14
ATOM     14  C   UNL A   1      35.828  33.303  33.223  1.00  0.00     0.116 C 
ATOM     15  C   UNL A   1      36.552  34.262  34.190  1.00  0.00     0.244 C 
ATOM     16  C   UNL A   1      36.692  33.513  32.013  1.00  0.00     0.006 A 
ATOM     17  O   UNL A   1      37.736  34.834  33.594  1.00  0.00    -0.492 OA
ATOM     18  C   UNL A   1      37.733  34.376  32.310  1.00  0.00     0.123 A 
ATOM     19  C   UNL A   1      36.583  32.977  30.738  1.00  0.00     0.008 A 
ATOM     20  C   UNL A   1      38.691  34.735  31.382  1.00  0.00     0.047 A 
ATOM     21  C   UNL A   1      37.545  33.320  29.782  1.00  0.00     0.001 A 
ATOM     22  C   UNL A   1      38.597  34.192  30.102  1.00  0.00     0.004 A 
ENDBRANCH  13  14
ENDBRANCH  10  13
ENDBRANCH   7  10
ENDBRANCH   4   7
ENDBRANCH   2   3
ENDBRANCH   1   2
BRANCH   1  23
ATOM     23  C   UNL A   1      34.043  32.487  28.695  1.00  0.00     0.118 C 
BRANCH  23  24
ATOM     24  N   UNL A   1      33.816  31.367  27.783  1.00  0.00    -0.352 N 
ATOM     25  C   UNL A   1      34.624  30.312  27.440  1.00  0.00     0.251 C 
ATOM     26  H   UNL A   1      32.936  31.370  27.340  1.00  0.00     0.163 HD
ATOM     27  O   UNL A   1      34.290  29.568  26.519  1.00  0.00    -0.269 OA
BRANCH  25  28
ATOM     28  C   UNL A   1      35.897  30.082  28.153  1.00  0.00     0.039 A 
ATOM     29  C   UNL A   1      35.872  29.509  29.428  1.00  0.00     0.014 A 
ATOM     30  C   UNL A   1      37.116  30.421  27.568  1.00  0.00     0.014 A 
ATOM     31  C   UNL A   1      37.072  29.210  30.075  1.00  0.00     0.010 A 
ATOM     32  C   UNL A   1      38.303  30.004  28.152  1.00  0.00     0.010 A 
ATOM     33  C   UNL A   1      38.299  29.413  29.421  1.00  0.00    -0.014 A 
BRANCH  33  34
ATOM     34  C   UNL A   1      39.593  29.047  30.050  1.00  0.00     0.031 A 
ATOM     35  C   UNL A   1      40.095  29.832  31.235  1.00  0.00     0.074 A 
ATOM     36  C   UNL A   1      40.347  28.070  29.508  1.00  0.00     0.049 A 
ATOM     37  N   UNL A   1      41.238  29.741  31.863  1.00  0.00    -0.248 NA
ATOM     38  C   UNL A   1      39.212  30.890  31.756  1.00  0.00     0.031 C 
ATOM     39  C   UNL A   1      39.994  27.283  28.323  1.00  0.00     0.029 A 
ATOM     40  N   UNL A   1      41.573  27.575  29.878  1.00  0.00    -0.354 N 
ATOM     41  C   UNL A   1      41.219  30.739  32.829  1.00  0.00     0.074 A 
ATOM     42  C   UNL A   1      39.985  31.472  32.659  1.00  0.00     0.031 C 
ATOM     43  C   UNL A   1      40.963  26.385  28.086  1.00  0.00     0.029 A 
ATOM     44  C   UNL A   1      42.026  26.560  29.070  1.00  0.00     0.049 A 
ATOM     45  H   UNL A   1      42.080  27.916  30.650  1.00  0.00     0.167 HD
ATOM     46  C   UNL A   1      42.131  31.002  33.795  1.00  0.00     0.037 A 
ATOM     47  C   UNL A   1      43.173  25.854  29.113  1.00  0.00     0.037 A 
ATOM     48  C   UNL A   1      43.336  30.239  33.979  1.00  0.00     0.049 A 
ATOM     49  C   UNL A   1      44.167  26.154  30.202  1.00  0.00     0.074 A 
ATOM     50  C   UNL A   1      44.297  30.373  34.965  1.00  0.00     0.029 A 
ATOM     51  N   UNL A   1      43.745  29.196  33.159  1.00  0.00    -0.354 N 
ATOM     52  N   UNL A   1      44.101  27.058  31.153  1.00  0.00    -0.248 NA
ATOM     53  C   UNL A   1      45.386  25.337  30.234  1.00  0.00     0.031 C 
ATOM     54  C   UNL A   1      45.311  29.445  34.711  1.00  0.00     0.029 A 
ATOM     55  C   UNL A   1      44.955  28.691  33.603  1.00  0.00     0.049 A 
ATOM     56  H   UNL A   1      43.247  28.864  32.377  1.00  0.00     0.167 HD
ATOM     57  C   UNL A   1      45.256  26.898  31.911  1.00  0.00     0.074 A 
ATOM     58  C   UNL A   1      45.994  25.801  31.316  1.00  0.00     0.031 C 
ATOM     59  C   UNL A   1      45.668  27.593  33.000  1.00  0.00     0.037 A 
BRANCH  46  60
ATOM     60  C   UNL A   1      41.853  32.151  34.727  1.00  0.00     0.058 A 
ATOM     61  C   UNL A   1      42.342  33.444  34.476  1.00  0.00     0.135 A 
ATOM     62  C   UNL A   1      41.066  31.965  35.875  1.00  0.00     0.135 A 
ATOM     63  F   UNL A   1      43.115  33.679  33.403  1.00  0.00    -0.206 F 
ATOM     64  C   UNL A   1      42.093  34.501  35.345  1.00  0.00     0.059 A 
ATOM     65  C   UNL A   1      40.774  33.016  36.742  1.00  0.00     0.059 A 
ATOM     66  F   UNL A   1      40.572  30.752  36.168  1.00  0.00    -0.206 F 
ATOM     67  C   UNL A   1      41.307  34.277  36.475  1.00  0.00     0.060 A 
BRANCH  67  68
ATOM     68  S   UNL A   1      40.986  35.661  37.587  1.00  0.00     0.124 S 
ATOM     69  O   UNL A   1      40.114  36.497  36.767  1.00  0.00    -0.237 OA
ATOM     70  O   UNL A   1      40.347  35.007  38.724  1.00  0.00    -0.237 OA
ATOM     71  O   UNL A   1      42.314  36.206  37.846  1.00  0.00    -0.744 OA
ENDBRANCH  67  68
ENDBRANCH  46  60
BRANCH  47  72
ATOM     72  C   UNL A   1      43.426  24.780  28.114  1.00  0.00     0.058 A 
ATOM     73  C   UNL A   1      44.104  25.054  26.916  1.00  0.00     0.135 A 
ATOM     74  C   UNL A   1      43.017  23.458  28.343  1.00  0.00     0.135 A 
ATOM     75  F   UNL A   1      44.513  26.304  26.648  1.00  0.00    -0.206 F 
ATOM     76  C   UNL A   1      44.352  24.061  25.974  1.00  0.00     0.059 A 
ATOM     77  C   UNL A   1      43.279  22.441  27.429  1.00  0.00     0.059 A 
ATOM     78  F   UNL A   1      42.382  23.136  29.481  1.00  0.00    -0.206 F 
ATOM     79  C   UNL A   1      43.940  22.755  26.242  1.00  0.00     0.060 A 
BRANCH  79  80
ATOM     80  S   UNL A   1      44.313  21.465  25.036  1.00  0.00     0.124 S 
ATOM     81  O   UNL A   1      45.647  21.047  25.453  1.00  0.00    -0.237 OA
ATOM     82  O   UNL A   1      43.240  20.505  25.273  1.00  0.00    -0.237 OA
ATOM     83  O   UNL A   1      44.241  22.168  23.758  1.00  0.00    -0.744 OA
ENDBRANCH  79  80
ENDBRANCH  47  72
BRANCH  59  84
ATOM     84  C   UNL A   1      46.958  27.166  33.646  1.00  0.00     0.058 A 
ATOM     85  C   UNL A   1      48.187  27.742  33.292  1.00  0.00     0.135 A 
ATOM     86  C   UNL A   1      46.950  26.209  34.674  1.00  0.00     0.135 A 
ATOM     87  F   UNL A   1      48.250  28.657  32.312  1.00  0.00    -0.206 F 
ATOM     88  C   UNL A   1      49.371  27.364  33.919  1.00  0.00     0.059 A 
ATOM     89  C   UNL A   1      48.117  25.841  35.336  1.00  0.00     0.059 A 
ATOM     90  F   UNL A   1      45.798  25.637  35.058  1.00  0.00    -0.206 F 
ATOM     91  C   UNL A   1      49.324  26.416  34.942  1.00  0.00     0.060 A 
BRANCH  91  92
ATOM     92  S   UNL A   1      50.862  25.963  35.771  1.00  0.00     0.124 S 
ATOM     93  O   UNL A   1      51.663  27.167  35.580  1.00  0.00    -0.237 OA
ATOM     94  O   UNL A   1      50.415  25.708  37.137  1.00  0.00    -0.237 OA
ATOM     95  O   UNL A   1      51.312  24.786  35.034  1.00  0.00    -0.744 OA
ENDBRANCH  91  92
ENDBRANCH  59  84
ENDBRANCH  33  34
ENDBRANCH  25  28
ENDBRANCH  23  24
ENDBRANCH   1  23
TORSDOF 16
ENDMDL
MODEL 2
REMARK VINA RESULT:     -10.5      4.438     12.344
REMARK SMILES CC(C)([NH2+]C[C@@H]1COc2ccccc21)C(=O)NCCCNC(=O)c1ccc(-c2c3nc(c(-c4c(F)cc(S(=O)(=O)[O-])cc4F)c4ccc([nH]4)c(-c4c(F)cc(S(=O)(=O)[O-])cc4F)c4nc(c(-c5c(F)cc(S(=O)(=O)[O-])cc5F)c5ccc2[nH]5)C=C4)C=C3)cc1
REMARK SMILES IDX 19 1 18 2 17 3 15 4 16 5 2 7 1 8 3 9 4 10 5 13 6 14 7 15
REMARK SMILES IDX 14 16 8 17 9 18 13 19 10 20 12 21 11 22 20 23 21 24 22 25
REMARK SMILES IDX 23 27 24 28 25 29 89 30 26 31 88 32 27 33 28 34 29 35 82 36
REMARK SMILES IDX 30 37 87 38 81 39 83 40 31 41 86 42 80 43 79 44 32 46 66 47
REMARK SMILES IDX 45 48 65 49 46 50 49 51 64 52 84 53 47 54 48 55 63 57 85 58
REMARK SMILES IDX 50 59 33 60 34 61 43 62 35 63 36 64 42 65 44 66 37 67 38 68
REMARK SMILES IDX 39 69 40 70 41 71 67 72 68 73 77 74 69 75 70 76 76 77 78 78
REMARK SMILES IDX 71 79 72 80 73 81 74 82 75 83 51 84 52 85 61 86 53 87 54 88
REMARK SMILES IDX 60 89 62 90 55 91 56 92 57 93 58 94 59 95
REMARK H PARENT 17 6 4 11 4 12 21 26 83 45 49 56
REMARK Flexibility Score: inf
ROOT
ATOM      1  C   UNL A   1      41.104  20.445  26.355  1.00  0.00     0.042 C 
ENDROOT
BRANCH   1   2
ATOM      2  C   UNL A   1      42.452  20.104  26.974  1.00  0.00     0.118 C 
BRANCH   2   3
ATOM      3  N   UNL A   1      43.147  19.033  26.307  1.00  0.00    -0.351 N 
ATOM      4  C   UNL A   1      44.204  18.971  25.467  1.00  0.00     0.280 C 
ATOM      5  O   UNL A   1      44.740  17.847  25.475  1.00  0.00    -0.268 OA
ATOM      6  H   UNL A   1      42.767  18.147  26.508  1.00  0.00     0.163 HD
BRANCH   4   7
ATOM      7  C   UNL A   1      44.847  20.113  24.592  1.00  0.00     0.169 C 
ATOM      8  C   UNL A   1      44.845  19.475  23.157  1.00  0.00     0.090 C 
ATOM      9  C   UNL A   1      46.327  20.356  24.920  1.00  0.00     0.090 C 
BRANCH   7  10
ATOM     10  N   UNL A   1      44.085  21.361  24.372  1.00  0.00    -0.333 N 
ATOM     11  H   UNL A   1      43.638  21.552  25.269  1.00  0.00     0.347 HD
ATOM     12  H   UNL A   1      43.586  21.091  23.524  1.00  0.00     0.347 HD
BRANCH  10  13
ATOM     13  C   UNL A   1      44.594  22.651  23.931  1.00  0.00     0.273 C 
BRANCH  13  14
ATOM     14  C   UNL A   1      45.150  23.789  24.830  1.00  0.00     0.116 C 
ATOM     15  C   UNL A   1      46.653  23.860  25.173  1.00  0.00     0.244 C 
ATOM     16  C   UNL A   1      44.607  23.715  26.227  1.00  0.00     0.006 A 
ATOM     17  O   UNL A   1      46.877  23.930  26.597  1.00  0.00    -0.492 OA
ATOM     18  C   UNL A   1      45.637  23.806  27.149  1.00  0.00     0.123 A 
ATOM     19  C   UNL A   1      43.297  23.590  26.667  1.00  0.00     0.008 A 
ATOM     20  C   UNL A   1      45.420  23.780  28.513  1.00  0.00     0.047 A 
ATOM     21  C   UNL A   1      43.051  23.568  28.044  1.00  0.00     0.001 A 
ATOM     22  C   UNL A   1      44.106  23.665  28.964  1.00  0.00     0.004 A 
ENDBRANCH  13  14
ENDBRANCH  10  13
ENDBRANCH   7  10
ENDBRANCH   4   7
ENDBRANCH   2   3
ENDBRANCH   1   2
BRANCH   1  23
ATOM     23  C   UNL A   1      40.319  21.459  27.163  1.00  0.00     0.118 C 
BRANCH  23  24
ATOM     24  N   UNL A   1      39.134  21.940  26.453  1.00  0.00    -0.352 N 
ATOM     25  C   UNL A   1      38.618  23.205  26.325  1.00  0.00     0.251 C 
ATOM     26  H   UNL A   1      38.620  21.239  25.989  1.00  0.00     0.163 HD
ATOM     27  O   UNL A   1      37.510  23.358  25.814  1.00  0.00    -0.269 OA
BRANCH  25  28
ATOM     28  C   UNL A   1      39.374  24.375  26.818  1.00  0.00     0.039 A 
ATOM     29  C   UNL A   1      40.086  25.161  25.907  1.00  0.00     0.014 A 
ATOM     30  C   UNL A   1      39.378  24.705  28.173  1.00  0.00     0.014 A 
ATOM     31  C   UNL A   1      40.734  26.316  26.349  1.00  0.00     0.010 A 
ATOM     32  C   UNL A   1      39.908  25.918  28.587  1.00  0.00     0.010 A 
ATOM     33  C   UNL A   1      40.611  26.728  27.687  1.00  0.00    -0.014 A 
BRANCH  33  34
ATOM     34  C   UNL A   1      41.231  27.984  28.181  1.00  0.00     0.031 A 
ATOM     35  C   UNL A   1      42.728  28.148  28.128  1.00  0.00     0.074 A 
ATOM     36  C   UNL A   1      40.459  28.934  28.745  1.00  0.00     0.049 A 
ATOM     37  N   UNL A   1      43.471  29.116  28.597  1.00  0.00    -0.248 NA
ATOM     38  C   UNL A   1      43.496  27.056  27.505  1.00  0.00     0.031 C 
ATOM     39  C   UNL A   1      39.004  28.859  28.909  1.00  0.00     0.029 A 
ATOM     40  N   UNL A   1      40.789  30.147  29.295  1.00  0.00    -0.354 N 
ATOM     41  C   UNL A   1      44.785  28.739  28.348  1.00  0.00     0.074 A 
ATOM     42  C   UNL A   1      44.744  27.422  27.753  1.00  0.00     0.031 C 
ATOM     43  C   UNL A   1      38.566  29.990  29.485  1.00  0.00     0.029 A 
ATOM     44  C   UNL A   1      39.709  30.850  29.774  1.00  0.00     0.049 A 
ATOM     45  H   UNL A   1      41.714  30.483  29.342  1.00  0.00     0.167 HD
ATOM     46  C   UNL A   1      45.923  29.440  28.562  1.00  0.00     0.037 A 
ATOM     47  C   UNL A   1      39.648  32.049  30.385  1.00  0.00     0.037 A 
ATOM     48  C   UNL A   1      45.947  30.767  29.117  1.00  0.00     0.049 A 
ATOM     49  C   UNL A   1      40.924  32.817  30.602  1.00  0.00     0.074 A 
ATOM     50  C   UNL A   1      47.036  31.597  29.316  1.00  0.00     0.029 A 
ATOM     51  N   UNL A   1      44.829  31.459  29.561  1.00  0.00    -0.354 N 
ATOM     52  N   UNL A   1      42.154  32.475  30.296  1.00  0.00    -0.248 NA
ATOM     53  C   UNL A   1      40.807  34.135  31.237  1.00  0.00     0.031 C 
ATOM     54  C   UNL A   1      46.582  32.770  29.925  1.00  0.00     0.029 A 
ATOM     55  C   UNL A   1      45.203  32.697  30.053  1.00  0.00     0.049 A 
ATOM     56  H   UNL A   1      43.905  31.119  29.529  1.00  0.00     0.167 HD
ATOM     57  C   UNL A   1      42.954  33.547  30.677  1.00  0.00     0.074 A 
ATOM     58  C   UNL A   1      42.065  34.554  31.221  1.00  0.00     0.031 C 
ATOM     59  C   UNL A   1      44.299  33.688  30.583  1.00  0.00     0.037 A 
BRANCH  46  60
ATOM     60  C   UNL A   1      47.228  28.790  28.185  1.00  0.00     0.058 A 
ATOM     61  C   UNL A   1      47.739  28.858  26.878  1.00  0.00     0.135 A 
ATOM     62  C   UNL A   1      47.991  28.109  29.147  1.00  0.00     0.135 A 
ATOM     63  F   UNL A   1      47.046  29.481  25.911  1.00  0.00    -0.206 F 
ATOM     64  C   UNL A   1      48.939  28.246  26.530  1.00  0.00     0.059 A 
ATOM     65  C   UNL A   1      49.211  27.517  28.830  1.00  0.00     0.059 A 
ATOM     66  F   UNL A   1      47.552  28.009  30.412  1.00  0.00    -0.206 F 
ATOM     67  C   UNL A   1      49.668  27.578  27.515  1.00  0.00     0.060 A 
BRANCH  67  68
ATOM     68  S   UNL A   1      51.227  26.798  27.048  1.00  0.00     0.124 S 
ATOM     69  O   UNL A   1      51.860  26.609  28.351  1.00  0.00    -0.237 OA
ATOM     70  O   UNL A   1      50.778  25.580  26.381  1.00  0.00    -0.237 OA
ATOM     71  O   UNL A   1      51.859  27.788  26.182  1.00  0.00    -0.744 OA
ENDBRANCH  67  68
ENDBRANCH  46  60
BRANCH  47  72
ATOM     72  C   UNL A   1      38.334  32.607  30.805  1.00  0.00     0.058 A 
ATOM     73  C   UNL A   1      37.528  33.316  29.900  1.00  0.00     0.135 A 
ATOM     74  C   UNL A   1      37.845  32.425  32.107  1.00  0.00     0.135 A 
ATOM     75  F   UNL A   1      37.952  33.520  28.643  1.00  0.00    -0.206 F 
ATOM     76  C   UNL A   1      36.296  33.841  30.275  1.00  0.00     0.059 A 
ATOM     77  C   UNL A   1      36.603  32.916  32.499  1.00  0.00     0.059 A 
ATOM     78  F   UNL A   1      38.566  31.737  33.007  1.00  0.00    -0.206 F 
ATOM     79  C   UNL A   1      35.839  33.631  31.578  1.00  0.00     0.060 A 
BRANCH  79  80
ATOM     80  S   UNL A   1      34.215  34.271  32.039  1.00  0.00     0.124 S 
ATOM     81  O   UNL A   1      33.677  33.169  32.828  1.00  0.00    -0.237 OA
ATOM     82  O   UNL A   1      34.563  35.479  32.781  1.00  0.00    -0.237 OA
ATOM     83  O   UNL A   1      33.567  34.502  30.752  1.00  0.00    -0.744 OA
ENDBRANCH  79  80
ENDBRANCH  47  72
BRANCH  59  84
ATOM     84  C   UNL A   1      44.893  34.991  31.044  1.00  0.00     0.058 A 
ATOM     85  C   UNL A   1      45.009  36.095  30.185  1.00  0.00     0.135 A 
ATOM     86  C   UNL A   1      45.294  35.152  32.380  1.00  0.00     0.135 A 
ATOM     87  F   UNL A   1      44.645  35.992  28.897  1.00  0.00    -0.206 F 
ATOM     88  C   UNL A   1      45.528  37.307  30.630  1.00  0.00     0.059 A 
ATOM     89  C   UNL A   1      45.785  36.363  32.853  1.00  0.00     0.059 A 
ATOM     90  F   UNL A   1      45.192  34.130  33.245  1.00  0.00    -0.206 F 
ATOM     91  C   UNL A   1      45.910  37.431  31.967  1.00  0.00     0.060 A 
BRANCH  91  92
ATOM     92  S   UNL A   1      46.547  39.020  32.538  1.00  0.00     0.124 S 
ATOM     93  O   UNL A   1      47.649  38.601  33.398  1.00  0.00    -0.237 OA
ATOM     94  O   UNL A   1      46.930  39.670  31.289  1.00  0.00    -0.237 OA
ATOM     95  O   UNL A   1      45.407  39.618  33.225  1.00  0.00    -0.744 OA
ENDBRANCH  91  92
ENDBRANCH  59  84
ENDBRANCH  33  34
ENDBRANCH  25  28
ENDBRANCH  23  24
ENDBRANCH   1  23
TORSDOF 16
ENDMDL
MODEL 3
REMARK VINA RESULT:     -10.4      2.423      3.175
REMARK SMILES CC(C)([NH2+]C[C@@H]1COc2ccccc21)C(=O)NCCCNC(=O)c1ccc(-c2c3nc(c(-c4c(F)cc(S(=O)(=O)[O-])cc4F)c4ccc([nH]4)c(-c4c(F)cc(S(=O)(=O)[O-])cc4F)c4nc(c(-c5c(F)cc(S(=O)(=O)[O-])cc5F)c5ccc2[nH]5)C=C4)C=C3)cc1
REMARK SMILES IDX 19 1 18 2 17 3 15 4 16 5 2 7 1 8 3 9 4 10 5 13 6 14 7 15
REMARK SMILES IDX 14 16 8 17 9 18 13 19 10 20 12 21 11 22 20 23 21 24 22 25
REMARK SMILES IDX 23 27 24 28 25 29 89 30 26 31 88 32 27 33 28 34 29 35 82 36
REMARK SMILES IDX 30 37 87 38 81 39 83 40 31 41 86 42 80 43 79 44 32 46 66 47
REMARK SMILES IDX 45 48 65 49 46 50 49 51 64 52 84 53 47 54 48 55 63 57 85 58
REMARK SMILES IDX 50 59 33 60 34 61 43 62 35 63 36 64 42 65 44 66 37 67 38 68
REMARK SMILES IDX 39 69 40 70 41 71 67 72 68 73 77 74 69 75 70 76 76 77 78 78
REMARK SMILES IDX 71 79 72 80 73 81 74 82 75 83 51 84 52 85 61 86 53 87 54 88
REMARK SMILES IDX 60 89 62 90 55 91 56 92 57 93 58 94 59 95
REMARK H PARENT 17 6 4 11 4 12 21 26 83 45 49 56
REMARK Flexibility Score: inf
ROOT
ATOM      1  C   UNL A   1      33.586  33.567  28.526  1.00  0.00     0.042 C 
ENDROOT
BRANCH   1   2
ATOM      2  C   UNL A   1      34.263  34.524  29.496  1.00  0.00     0.118 C 
BRANCH   2   3
ATOM      3  N   UNL A   1      33.497  35.712  29.774  1.00  0.00    -0.351 N 
ATOM      4  C   UNL A   1      33.152  36.370  30.903  1.00  0.00     0.280 C 
ATOM      5  O   UNL A   1      32.868  37.562  30.678  1.00  0.00    -0.268 OA
ATOM      6  H   UNL A   1      33.148  36.142  28.960  1.00  0.00     0.163 HD
BRANCH   4   7
ATOM      7  C   UNL A   1      33.147  35.856  32.392  1.00  0.00     0.169 C 
ATOM      8  C   UNL A   1      31.625  35.946  32.771  1.00  0.00     0.090 C 
ATOM      9  C   UNL A   1      33.858  36.815  33.358  1.00  0.00     0.090 C 
BRANCH   7  10
ATOM     10  N   UNL A   1      33.445  34.433  32.659  1.00  0.00    -0.333 N 
ATOM     11  H   UNL A   1      33.315  33.969  31.759  1.00  0.00     0.347 HD
ATOM     12  H   UNL A   1      32.841  34.296  33.470  1.00  0.00     0.347 HD
BRANCH  10  13
ATOM     13  C   UNL A   1      34.671  33.863  33.195  1.00  0.00     0.273 C 
BRANCH  13  14
ATOM     14  C   UNL A   1      35.765  33.095  32.402  1.00  0.00     0.116 C 
ATOM     15  C   UNL A   1      35.825  31.554  32.432  1.00  0.00     0.244 C 
ATOM     16  C   UNL A   1      37.142  33.381  32.927  1.00  0.00     0.006 A 
ATOM     17  O   UNL A   1      37.129  31.074  32.823  1.00  0.00    -0.492 OA
ATOM     18  C   UNL A   1      37.834  32.199  33.129  1.00  0.00     0.123 A 
ATOM     19  C   UNL A   1      37.756  34.595  33.200  1.00  0.00     0.008 A 
ATOM     20  C   UNL A   1      39.134  32.168  33.596  1.00  0.00     0.047 A 
ATOM     21  C   UNL A   1      39.075  34.590  33.667  1.00  0.00     0.001 A 
ATOM     22  C   UNL A   1      39.763  33.384  33.861  1.00  0.00     0.004 A 
ENDBRANCH  13  14
ENDBRANCH  10  13
ENDBRANCH   7  10
ENDBRANCH   4   7
ENDBRANCH   2   3
ENDBRANCH   1   2
BRANCH   1  23
ATOM     23  C   UNL A   1      34.534  32.535  27.949  1.00  0.00     0.118 C 
BRANCH  23  24
ATOM     24  N   UNL A   1      33.919  31.213  27.837  1.00  0.00    -0.352 N 
ATOM     25  C   UNL A   1      34.476  29.959  27.876  1.00  0.00     0.251 C 
ATOM     26  H   UNL A   1      32.942  31.224  27.713  1.00  0.00     0.163 HD
ATOM     27  O   UNL A   1      33.785  28.981  27.594  1.00  0.00    -0.269 OA
BRANCH  25  28
ATOM     28  C   UNL A   1      35.899  29.783  28.231  1.00  0.00     0.039 A 
ATOM     29  C   UNL A   1      36.233  29.334  29.512  1.00  0.00     0.014 A 
ATOM     30  C   UNL A   1      36.905  30.051  27.304  1.00  0.00     0.014 A 
ATOM     31  C   UNL A   1      37.569  29.083  29.830  1.00  0.00     0.010 A 
ATOM     32  C   UNL A   1      38.213  29.677  27.576  1.00  0.00     0.010 A 
ATOM     33  C   UNL A   1      38.566  29.209  28.848  1.00  0.00    -0.014 A 
BRANCH  33  34
ATOM     34  C   UNL A   1      39.989  28.890  29.129  1.00  0.00     0.031 A 
ATOM     35  C   UNL A   1      40.875  29.930  29.763  1.00  0.00     0.074 A 
ATOM     36  C   UNL A   1      40.496  27.703  28.742  1.00  0.00     0.049 A 
ATOM     37  N   UNL A   1      42.161  29.889  29.998  1.00  0.00    -0.248 NA
ATOM     38  C   UNL A   1      40.241  31.204  30.144  1.00  0.00     0.031 C 
ATOM     39  C   UNL A   1      39.750  26.641  28.062  1.00  0.00     0.029 A 
ATOM     40  N   UNL A   1      41.765  27.191  28.857  1.00  0.00    -0.354 N 
ATOM     41  C   UNL A   1      42.488  31.132  30.527  1.00  0.00     0.074 A 
ATOM     42  C   UNL A   1      41.285  31.931  30.512  1.00  0.00     0.031 C 
ATOM     43  C   UNL A   1      40.563  25.594  27.852  1.00  0.00     0.029 A 
ATOM     44  C   UNL A   1      41.899  25.924  28.339  1.00  0.00     0.049 A 
ATOM     45  H   UNL A   1      42.509  27.685  29.271  1.00  0.00     0.167 HD
ATOM     46  C   UNL A   1      43.678  31.559  31.015  1.00  0.00     0.037 A 
ATOM     47  C   UNL A   1      42.978  25.123  28.259  1.00  0.00     0.037 A 
ATOM     48  C   UNL A   1      44.858  30.739  31.062  1.00  0.00     0.049 A 
ATOM     49  C   UNL A   1      44.287  25.612  28.819  1.00  0.00     0.074 A 
ATOM     50  C   UNL A   1      46.097  31.045  31.595  1.00  0.00     0.029 A 
ATOM     51  N   UNL A   1      44.946  29.449  30.556  1.00  0.00    -0.354 N 
ATOM     52  N   UNL A   1      44.563  26.767  29.381  1.00  0.00    -0.248 NA
ATOM     53  C   UNL A   1      45.428  24.692  28.744  1.00  0.00     0.031 C 
ATOM     54  C   UNL A   1      46.948  29.959  31.368  1.00  0.00     0.029 A 
ATOM     55  C   UNL A   1      46.224  28.953  30.746  1.00  0.00     0.049 A 
ATOM     56  H   UNL A   1      44.207  28.959  30.128  1.00  0.00     0.167 HD
ATOM     57  C   UNL A   1      45.902  26.700  29.750  1.00  0.00     0.074 A 
ATOM     58  C   UNL A   1      46.374  25.386  29.362  1.00  0.00     0.031 C 
ATOM     59  C   UNL A   1      46.670  27.638  30.358  1.00  0.00     0.037 A 
BRANCH  46  60
ATOM     60  C   UNL A   1      43.752  32.966  31.544  1.00  0.00     0.058 A 
ATOM     61  C   UNL A   1      43.446  33.272  32.881  1.00  0.00     0.135 A 
ATOM     62  C   UNL A   1      44.158  34.022  30.713  1.00  0.00     0.135 A 
ATOM     63  F   UNL A   1      43.036  32.307  33.720  1.00  0.00    -0.206 F 
ATOM     64  C   UNL A   1      43.505  34.575  33.365  1.00  0.00     0.059 A 
ATOM     65  C   UNL A   1      44.257  35.329  31.183  1.00  0.00     0.059 A 
ATOM     66  F   UNL A   1      44.461  33.791  29.425  1.00  0.00    -0.206 F 
ATOM     67  C   UNL A   1      43.913  35.597  32.507  1.00  0.00     0.060 A 
BRANCH  67  68
ATOM     68  S   UNL A   1      43.992  37.280  33.153  1.00  0.00     0.124 S 
ATOM     69  O   UNL A   1      42.855  37.294  34.069  1.00  0.00    -0.237 OA
ATOM     70  O   UNL A   1      45.309  37.312  33.778  1.00  0.00    -0.237 OA
ATOM     71  O   UNL A   1      43.847  38.110  31.961  1.00  0.00    -0.744 OA
ENDBRANCH  67  68
ENDBRANCH  46  60
BRANCH  47  72
ATOM     72  C   UNL A   1      42.859  23.768  27.654  1.00  0.00     0.058 A 
ATOM     73  C   UNL A   1      43.135  23.559  26.293  1.00  0.00     0.135 A 
ATOM     74  C   UNL A   1      42.490  22.654  28.422  1.00  0.00     0.135 A 
ATOM     75  F   UNL A   1      43.489  24.593  25.515  1.00  0.00    -0.206 F 
ATOM     76  C   UNL A   1      43.031  22.300  25.713  1.00  0.00     0.059 A 
ATOM     77  C   UNL A   1      42.407  21.378  27.870  1.00  0.00     0.059 A 
ATOM     78  F   UNL A   1      42.234  22.794  29.732  1.00  0.00    -0.206 F 
ATOM     79  C   UNL A   1      42.671  21.213  26.512  1.00  0.00     0.060 A 
BRANCH  79  80
ATOM     80  S   UNL A   1      42.591  19.574  25.759  1.00  0.00     0.124 S 
ATOM     81  O   UNL A   1      43.527  19.714  24.648  1.00  0.00    -0.237 OA
ATOM     82  O   UNL A   1      43.024  18.713  26.854  1.00  0.00    -0.237 OA
ATOM     83  O   UNL A   1      41.186  19.443  25.388  1.00  0.00    -0.744 OA
ENDBRANCH  79  80
ENDBRANCH  47  72
BRANCH  59  84
ATOM     84  C   UNL A   1      48.093  27.267  30.676  1.00  0.00     0.058 A 
ATOM     85  C   UNL A   1      48.417  26.452  31.771  1.00  0.00     0.135 A 
ATOM     86  C   UNL A   1      49.137  27.685  29.835  1.00  0.00     0.135 A 
ATOM     87  F   UNL A   1      47.456  26.030  32.609  1.00  0.00    -0.206 F 
ATOM     88  C   UNL A   1      49.733  26.087  32.038  1.00  0.00     0.059 A 
ATOM     89  C   UNL A   1      50.455  27.305  30.065  1.00  0.00     0.059 A 
ATOM     90  F   UNL A   1      48.878  28.456  28.766  1.00  0.00    -0.206 F 
ATOM     91  C   UNL A   1      50.744  26.515  31.176  1.00  0.00     0.060 A 
BRANCH  91  92
ATOM     92  S   UNL A   1      52.441  26.003  31.514  1.00  0.00     0.124 S 
ATOM     93  O   UNL A   1      52.988  25.894  30.165  1.00  0.00    -0.237 OA
ATOM     94  O   UNL A   1      52.947  27.113  32.315  1.00  0.00    -0.237 OA
ATOM     95  O   UNL A   1      52.280  24.742  32.230  1.00  0.00    -0.744 OA
ENDBRANCH  91  92
ENDBRANCH  59  84
ENDBRANCH  33  34
ENDBRANCH  25  28
ENDBRANCH  23  24
ENDBRANCH   1  23
TORSDOF 16
ENDMDL
