MODEL 1
REMARK VINA RESULT:     -15.1      0.000      0.000
REMARK SMILES O=C1C[C@H](c2cn[nH]c2C(=O)NCCCNC(=O)c2ccc(-c3c4nc(c(-c5c(F)cc(S(=O)(=O)[O-])cc5F)c5ccc([nH]5)c(-c5c(F)cc(S(=O)(=O)[O-])cc5F)c5nc(c(-c6c(F)cc(S(=O)(=O)[O-])cc6F)c6ccc3[nH]6)C=C5)C=C4)cc2)c2c(-c3cccs3)n[nH]c2N1
REMARK SMILES IDX 14 1 13 2 12 3 10 4 11 5 9 7 5 8 6 9 7 10 8 11 4 13 1 14
REMARK SMILES IDX 2 15 3 16 95 17 94 18 85 20 93 21 86 22 92 23 87 25 88 26
REMARK SMILES IDX 91 27 89 28 90 29 15 30 16 31 17 32 18 34 19 35 20 36 84 37
REMARK SMILES IDX 21 38 83 39 22 40 23 41 24 42 77 43 25 44 82 45 76 46 78 47
REMARK SMILES IDX 26 48 81 49 75 50 74 51 27 53 61 54 40 55 60 56 41 57 44 58
REMARK SMILES IDX 59 59 79 60 42 61 43 62 58 64 80 65 45 66 28 67 29 68 38 69
REMARK SMILES IDX 30 70 31 71 37 72 39 73 32 74 33 75 34 76 35 77 36 78 62 79
REMARK SMILES IDX 63 80 72 81 64 82 65 83 71 84 73 85 66 86 67 87 68 88 69 89
REMARK SMILES IDX 70 90 46 91 47 92 56 93 48 94 49 95 55 96 57 97 50 98 51 99
REMARK SMILES IDX 52 100 53 101 54 102
REMARK H PARENT 12 6 8 12 95 19 93 24 16 33 78 52 44 63
REMARK Flexibility Score: inf
ROOT
ATOM      1  C   UNL A   1      38.589  21.822  25.730  1.00  0.00     0.042 C 
ENDROOT
BRANCH   1   2
ATOM      2  C   UNL A   1      37.135  22.762  25.859  1.00  0.00     0.118 C 
BRANCH   2   3
ATOM      3  N   UNL A   1      35.065  22.310  25.330  1.00  0.00    -0.351 N 
ATOM      4  C   UNL A   1      33.670  22.527  25.229  1.00  0.00     0.269 C 
ATOM      5  O   UNL A   1      33.042  21.675  24.593  1.00  0.00    -0.268 OA
ATOM      6  H   UNL A   1      35.158  21.424  24.911  1.00  0.00     0.163 HD
BRANCH   4   7
ATOM      7  C   UNL A   1      32.990  23.701  25.727  1.00  0.00     0.126 A 
ATOM      8  C   UNL A   1      33.044  25.031  25.351  1.00  0.00     0.011 A 
ATOM      9  C   UNL A   1      32.079  25.675  26.146  1.00  0.00     0.140 A 
ATOM     10  N   UNL A   1      31.468  24.835  26.981  1.00  0.00    -0.183 NA
ATOM     11  N   UNL A   1      32.049  23.646  26.718  1.00  0.00    -0.273 N 
ATOM     12  H   UNL A   1      31.816  22.817  27.194  1.00  0.00     0.190 HD
BRANCH   8  13
ATOM     13  C   UNL A   1      33.932  25.572  24.294  1.00  0.00     0.069 C 
ATOM     14  O   UNL A   1      33.357  23.309  21.277  1.00  0.00    -0.275 OA
ATOM     15  C   UNL A   1      33.144  24.232  22.071  1.00  0.00     0.226 C 
ATOM     16  C   UNL A   1      34.204  24.544  23.169  1.00  0.00     0.114 C 
ATOM     17  N   UNL A   1      32.042  25.027  21.862  1.00  0.00    -0.311 N 
ATOM     18  C   UNL A   1      32.044  26.261  22.441  1.00  0.00     0.132 A 
ATOM     19  H   UNL A   1      31.282  24.717  21.316  1.00  0.00     0.171 HD
ATOM     20  C   UNL A   1      33.194  26.695  23.711  1.00  0.00     0.031 A 
ATOM     21  N   UNL A   1      30.939  27.718  22.155  1.00  0.00    -0.262 N 
ATOM     22  C   UNL A   1      32.712  28.482  24.360  1.00  0.00     0.108 A 
ATOM     23  N   UNL A   1      31.347  29.069  23.415  1.00  0.00    -0.173 NA
ATOM     24  H   UNL A   1      30.246  27.779  21.459  1.00  0.00     0.192 HD
BRANCH  22  25
ATOM     25  C   UNL A   1      33.208  29.055  25.629  1.00  0.00     0.055 A 
ATOM     26  C   UNL A   1      34.391  28.676  26.215  1.00  0.00     0.022 A 
ATOM     27  S   UNL A   1      32.434  30.324  26.448  1.00  0.00    -0.142 S 
ATOM     28  C   UNL A   1      34.698  29.500  27.337  1.00  0.00     0.012 A 
ATOM     29  C   UNL A   1      33.683  30.390  27.618  1.00  0.00     0.065 A 
ENDBRANCH  22  25
ENDBRANCH   8  13
ENDBRANCH   4   7
ENDBRANCH   2   3
ENDBRANCH   1   2
BRANCH   1  30
ATOM     30  C   UNL A   1      39.618  22.172  26.782  1.00  0.00     0.118 C 
BRANCH  30  31
ATOM     31  N   UNL A   1      40.994  22.131  26.305  1.00  0.00    -0.352 N 
ATOM     32  C   UNL A   1      41.818  23.235  26.182  1.00  0.00     0.251 C 
ATOM     33  H   UNL A   1      41.363  21.254  26.053  1.00  0.00     0.163 HD
ATOM     34  O   UNL A   1      42.745  23.276  25.387  1.00  0.00    -0.269 OA
BRANCH  32  35
ATOM     35  C   UNL A   1      41.580  24.306  27.165  1.00  0.00     0.039 A 
ATOM     36  C   UNL A   1      42.492  24.684  28.141  1.00  0.00     0.014 A 
ATOM     37  C   UNL A   1      40.445  25.071  26.903  1.00  0.00     0.014 A 
ATOM     38  C   UNL A   1      42.194  25.829  28.887  1.00  0.00     0.010 A 
ATOM     39  C   UNL A   1      40.450  26.362  27.343  1.00  0.00     0.010 A 
ATOM     40  C   UNL A   1      41.127  26.674  28.491  1.00  0.00    -0.014 A 
BRANCH  40  41
ATOM     41  C   UNL A   1      40.888  28.023  29.020  1.00  0.00     0.031 A 
ATOM     42  C   UNL A   1      41.852  28.960  28.400  1.00  0.00     0.074 A 
ATOM     43  C   UNL A   1      39.909  28.403  29.893  1.00  0.00     0.049 A 
ATOM     44  N   UNL A   1      43.019  29.193  28.888  1.00  0.00    -0.248 NA
ATOM     45  C   UNL A   1      41.721  29.382  26.995  1.00  0.00     0.031 C 
ATOM     46  C   UNL A   1      38.776  27.653  30.459  1.00  0.00     0.029 A 
ATOM     47  N   UNL A   1      39.764  29.620  30.528  1.00  0.00    -0.354 N 
ATOM     48  C   UNL A   1      43.628  30.081  28.025  1.00  0.00     0.074 A 
ATOM     49  C   UNL A   1      42.904  29.974  26.787  1.00  0.00     0.031 C 
ATOM     50  C   UNL A   1      37.953  28.479  31.164  1.00  0.00     0.029 A 
ATOM     51  C   UNL A   1      38.553  29.802  31.244  1.00  0.00     0.049 A 
ATOM     52  H   UNL A   1      40.457  30.318  30.487  1.00  0.00     0.167 HD
ATOM     53  C   UNL A   1      44.459  31.016  28.559  1.00  0.00     0.037 A 
ATOM     54  C   UNL A   1      38.187  30.874  32.030  1.00  0.00     0.037 A 
ATOM     55  C   UNL A   1      44.820  30.636  29.913  1.00  0.00     0.049 A 
ATOM     56  C   UNL A   1      39.459  31.559  32.401  1.00  0.00     0.074 A 
ATOM     57  C   UNL A   1      45.460  29.545  30.474  1.00  0.00     0.029 A 
ATOM     58  N   UNL A   1      44.054  31.184  30.917  1.00  0.00    -0.354 N 
ATOM     59  N   UNL A   1      40.339  31.007  33.194  1.00  0.00    -0.248 NA
ATOM     60  C   UNL A   1      39.980  32.516  31.433  1.00  0.00     0.031 C 
ATOM     61  C   UNL A   1      44.695  29.219  31.635  1.00  0.00     0.029 A 
ATOM     62  C   UNL A   1      43.723  30.202  31.818  1.00  0.00     0.049 A 
ATOM     63  H   UNL A   1      43.786  32.129  30.978  1.00  0.00     0.167 HD
ATOM     64  C   UNL A   1      41.546  31.170  32.532  1.00  0.00     0.074 A 
ATOM     65  C   UNL A   1      41.254  32.107  31.439  1.00  0.00     0.031 C 
ATOM     66  C   UNL A   1      42.576  30.288  32.699  1.00  0.00     0.037 A 
BRANCH  53  67
ATOM     67  C   UNL A   1      44.542  32.442  28.081  1.00  0.00     0.058 A 
ATOM     68  C   UNL A   1      45.749  32.887  27.505  1.00  0.00     0.135 A 
ATOM     69  C   UNL A   1      43.616  33.453  28.420  1.00  0.00     0.135 A 
ATOM     70  F   UNL A   1      46.706  32.011  27.160  1.00  0.00    -0.206 F 
ATOM     71  C   UNL A   1      46.038  34.238  27.331  1.00  0.00     0.059 A 
ATOM     72  C   UNL A   1      43.867  34.804  28.215  1.00  0.00     0.059 A 
ATOM     73  F   UNL A   1      42.460  33.189  29.041  1.00  0.00    -0.206 F 
ATOM     74  C   UNL A   1      45.089  35.190  27.688  1.00  0.00     0.060 A 
BRANCH  74  75
ATOM     75  S   UNL A   1      45.466  36.932  27.445  1.00  0.00     0.124 S 
ATOM     76  O   UNL A   1      46.493  36.872  26.412  1.00  0.00    -0.237 OA
ATOM     77  O   UNL A   1      44.170  37.457  27.029  1.00  0.00    -0.237 OA
ATOM     78  O   UNL A   1      45.918  37.365  28.764  1.00  0.00    -0.744 OA
ENDBRANCH  74  75
ENDBRANCH  53  67
BRANCH  54  79
ATOM     79  C   UNL A   1      36.893  31.659  32.038  1.00  0.00     0.058 A 
ATOM     80  C   UNL A   1      36.356  32.250  33.213  1.00  0.00     0.135 A 
ATOM     81  C   UNL A   1      36.323  32.109  30.836  1.00  0.00     0.135 A 
ATOM     82  F   UNL A   1      36.818  31.889  34.422  1.00  0.00    -0.206 F 
ATOM     83  C   UNL A   1      35.386  33.275  33.186  1.00  0.00     0.059 A 
ATOM     84  C   UNL A   1      35.365  33.129  30.784  1.00  0.00     0.059 A 
ATOM     85  F   UNL A   1      36.754  31.629  29.661  1.00  0.00    -0.206 F 
ATOM     86  C   UNL A   1      34.922  33.735  31.956  1.00  0.00     0.060 A 
BRANCH  86  87
ATOM     87  S   UNL A   1      33.857  35.206  31.860  1.00  0.00     0.124 S 
ATOM     88  O   UNL A   1      33.765  35.432  30.422  1.00  0.00    -0.237 OA
ATOM     89  O   UNL A   1      32.634  34.751  32.512  1.00  0.00    -0.237 OA
ATOM     90  O   UNL A   1      34.611  36.215  32.600  1.00  0.00    -0.744 OA
ENDBRANCH  86  87
ENDBRANCH  54  79
BRANCH  66  91
ATOM     91  C   UNL A   1      42.482  29.266  33.809  1.00  0.00     0.058 A 
ATOM     92  C   UNL A   1      42.708  29.508  35.179  1.00  0.00     0.135 A 
ATOM     93  C   UNL A   1      41.999  27.997  33.465  1.00  0.00     0.135 A 
ATOM     94  F   UNL A   1      43.074  30.722  35.613  1.00  0.00    -0.206 F 
ATOM     95  C   UNL A   1      42.504  28.517  36.150  1.00  0.00     0.059 A 
ATOM     96  C   UNL A   1      41.762  27.008  34.412  1.00  0.00     0.059 A 
ATOM     97  F   UNL A   1      41.702  27.718  32.186  1.00  0.00    -0.206 F 
ATOM     98  C   UNL A   1      42.037  27.264  35.752  1.00  0.00     0.060 A 
BRANCH  98  99
ATOM     99  S   UNL A   1      41.758  25.974  36.987  1.00  0.00     0.124 S 
ATOM    100  O   UNL A   1      41.911  24.756  36.199  1.00  0.00    -0.237 OA
ATOM    101  O   UNL A   1      42.812  26.234  37.963  1.00  0.00    -0.237 OA
ATOM    102  O   UNL A   1      40.402  26.241  37.460  1.00  0.00    -0.744 OA
ENDBRANCH  98  99
ENDBRANCH  66  91
ENDBRANCH  40  41
ENDBRANCH  32  35
ENDBRANCH  30  31
ENDBRANCH   1  30
TORSDOF 15
ENDMDL
MODEL 2
REMARK VINA RESULT:     -14.8      1.475      1.991
REMARK SMILES O=C1C[C@H](c2cn[nH]c2C(=O)NCCCNC(=O)c2ccc(-c3c4nc(c(-c5c(F)cc(S(=O)(=O)[O-])cc5F)c5ccc([nH]5)c(-c5c(F)cc(S(=O)(=O)[O-])cc5F)c5nc(c(-c6c(F)cc(S(=O)(=O)[O-])cc6F)c6ccc3[nH]6)C=C5)C=C4)cc2)c2c(-c3cccs3)n[nH]c2N1
REMARK SMILES IDX 14 1 13 2 12 3 10 4 11 5 9 7 5 8 6 9 7 10 8 11 4 13 1 14
REMARK SMILES IDX 2 15 3 16 95 17 94 18 85 20 93 21 86 22 92 23 87 25 88 26
REMARK SMILES IDX 91 27 89 28 90 29 15 30 16 31 17 32 18 34 19 35 20 36 84 37
REMARK SMILES IDX 21 38 83 39 22 40 23 41 24 42 77 43 25 44 82 45 76 46 78 47
REMARK SMILES IDX 26 48 81 49 75 50 74 51 27 53 61 54 40 55 60 56 41 57 44 58
REMARK SMILES IDX 59 59 79 60 42 61 43 62 58 64 80 65 45 66 28 67 29 68 38 69
REMARK SMILES IDX 30 70 31 71 37 72 39 73 32 74 33 75 34 76 35 77 36 78 62 79
REMARK SMILES IDX 63 80 72 81 64 82 65 83 71 84 73 85 66 86 67 87 68 88 69 89
REMARK SMILES IDX 70 90 46 91 47 92 56 93 48 94 49 95 55 96 57 97 50 98 51 99
REMARK SMILES IDX 52 100 53 101 54 102
REMARK H PARENT 12 6 8 12 95 19 93 24 16 33 78 52 44 63
REMARK Flexibility Score: inf
ROOT
ATOM      1  C   UNL A   1      39.817  23.571  27.316  1.00  0.00     0.042 C 
ENDROOT
BRANCH   1   2
ATOM      2  C   UNL A   1      38.239  23.800  26.630  1.00  0.00     0.118 C 
BRANCH   2   3
ATOM      3  N   UNL A   1      36.687  22.375  26.059  1.00  0.00    -0.351 N 
ATOM      4  C   UNL A   1      35.373  21.862  25.929  1.00  0.00     0.269 C 
ATOM      5  O   UNL A   1      35.270  20.817  25.280  1.00  0.00    -0.268 OA
ATOM      6  H   UNL A   1      37.219  21.659  25.642  1.00  0.00     0.163 HD
BRANCH   4   7
ATOM      7  C   UNL A   1      34.187  22.531  26.412  1.00  0.00     0.126 A 
ATOM      8  C   UNL A   1      33.352  23.468  25.831  1.00  0.00     0.011 A 
ATOM      9  C   UNL A   1      32.315  23.660  26.761  1.00  0.00     0.140 A 
ATOM     10  N   UNL A   1      32.477  22.923  27.861  1.00  0.00    -0.183 NA
ATOM     11  N   UNL A   1      33.628  22.258  27.630  1.00  0.00    -0.273 N 
ATOM     12  H   UNL A   1      34.028  21.635  28.278  1.00  0.00     0.190 HD
BRANCH   8  13
ATOM     13  C   UNL A   1      33.558  24.065  24.489  1.00  0.00     0.069 C 
ATOM     14  O   UNL A   1      32.349  21.402  22.038  1.00  0.00    -0.275 OA
ATOM     15  C   UNL A   1      32.269  22.343  22.837  1.00  0.00     0.226 C 
ATOM     16  C   UNL A   1      33.578  22.998  23.368  1.00  0.00     0.114 C 
ATOM     17  N   UNL A   1      31.022  22.852  23.116  1.00  0.00    -0.311 N 
ATOM     18  C   UNL A   1      30.965  24.115  23.625  1.00  0.00     0.132 A 
ATOM     19  H   UNL A   1      30.205  22.326  22.955  1.00  0.00     0.171 HD
ATOM     20  C   UNL A   1      32.395  24.928  24.271  1.00  0.00     0.031 A 
ATOM     21  N   UNL A   1      29.523  25.257  23.830  1.00  0.00    -0.262 N 
ATOM     22  C   UNL A   1      31.808  26.632  25.047  1.00  0.00     0.108 A 
ATOM     23  N   UNL A   1      30.076  26.799  24.778  1.00  0.00    -0.173 NA
ATOM     24  H   UNL A   1      28.611  25.088  23.500  1.00  0.00     0.192 HD
BRANCH  22  25
ATOM     25  C   UNL A   1      32.632  27.438  25.972  1.00  0.00     0.055 A 
ATOM     26  C   UNL A   1      33.982  27.630  25.806  1.00  0.00     0.022 A 
ATOM     27  S   UNL A   1      31.989  28.311  27.277  1.00  0.00    -0.142 S 
ATOM     28  C   UNL A   1      34.487  28.576  26.746  1.00  0.00     0.012 A 
ATOM     29  C   UNL A   1      33.524  28.970  27.651  1.00  0.00     0.065 A 
ENDBRANCH  22  25
ENDBRANCH   8  13
ENDBRANCH   4   7
ENDBRANCH   2   3
ENDBRANCH   1   2
BRANCH   1  30
ATOM     30  C   UNL A   1      40.818  23.013  26.328  1.00  0.00     0.118 C 
BRANCH  30  31
ATOM     31  N   UNL A   1      42.036  22.498  26.942  1.00  0.00    -0.352 N 
ATOM     32  C   UNL A   1      43.221  23.203  27.053  1.00  0.00     0.251 C 
ATOM     33  H   UNL A   1      42.012  21.582  27.303  1.00  0.00     0.163 HD
ATOM     34  O   UNL A   1      44.308  22.650  27.127  1.00  0.00    -0.269 OA
BRANCH  32  35
ATOM     35  C   UNL A   1      43.069  24.660  27.206  1.00  0.00     0.039 A 
ATOM     36  C   UNL A   1      42.691  25.516  26.179  1.00  0.00     0.014 A 
ATOM     37  C   UNL A   1      43.122  25.098  28.527  1.00  0.00     0.014 A 
ATOM     38  C   UNL A   1      42.424  26.845  26.520  1.00  0.00     0.010 A 
ATOM     39  C   UNL A   1      42.441  26.241  28.832  1.00  0.00     0.010 A 
ATOM     40  C   UNL A   1      42.324  27.220  27.884  1.00  0.00    -0.014 A 
BRANCH  40  41
ATOM     41  C   UNL A   1      41.788  28.502  28.361  1.00  0.00     0.031 A 
ATOM     42  C   UNL A   1      42.751  29.577  28.034  1.00  0.00     0.074 A 
ATOM     43  C   UNL A   1      40.578  28.716  28.958  1.00  0.00     0.049 A 
ATOM     44  N   UNL A   1      43.716  29.918  28.814  1.00  0.00    -0.248 NA
ATOM     45  C   UNL A   1      42.931  30.056  26.653  1.00  0.00     0.031 C 
ATOM     46  C   UNL A   1      39.443  27.810  29.193  1.00  0.00     0.029 A 
ATOM     47  N   UNL A   1      40.122  29.872  29.560  1.00  0.00    -0.354 N 
ATOM     48  C   UNL A   1      44.406  30.917  28.160  1.00  0.00     0.074 A 
ATOM     49  C   UNL A   1      44.043  30.794  26.774  1.00  0.00     0.031 C 
ATOM     50  C   UNL A   1      38.370  28.494  29.677  1.00  0.00     0.029 A 
ATOM     51  C   UNL A   1      38.755  29.872  29.939  1.00  0.00     0.049 A 
ATOM     52  H   UNL A   1      40.708  30.648  29.715  1.00  0.00     0.167 HD
ATOM     53  C   UNL A   1      44.948  31.913  28.912  1.00  0.00     0.037 A 
ATOM     54  C   UNL A   1      38.068  30.850  30.626  1.00  0.00     0.037 A 
ATOM     55  C   UNL A   1      44.995  31.505  30.305  1.00  0.00     0.049 A 
ATOM     56  C   UNL A   1      39.105  31.658  31.331  1.00  0.00     0.074 A 
ATOM     57  C   UNL A   1      45.604  30.467  30.988  1.00  0.00     0.029 A 
ATOM     58  N   UNL A   1      43.936  31.904  31.086  1.00  0.00    -0.354 N 
ATOM     59  N   UNL A   1      39.816  31.170  32.313  1.00  0.00    -0.248 NA
ATOM     60  C   UNL A   1      39.730  32.720  30.553  1.00  0.00     0.031 C 
ATOM     61  C   UNL A   1      44.616  29.992  31.902  1.00  0.00     0.029 A 
ATOM     62  C   UNL A   1      43.512  30.843  31.848  1.00  0.00     0.049 A 
ATOM     63  H   UNL A   1      43.542  32.807  31.096  1.00  0.00     0.167 HD
ATOM     64  C   UNL A   1      41.120  31.509  31.991  1.00  0.00     0.074 A 
ATOM     65  C   UNL A   1      41.001  32.464  30.881  1.00  0.00     0.031 C 
ATOM     66  C   UNL A   1      42.177  30.747  32.401  1.00  0.00     0.037 A 
BRANCH  53  67
ATOM     67  C   UNL A   1      44.968  33.362  28.503  1.00  0.00     0.058 A 
ATOM     68  C   UNL A   1      46.211  34.023  28.439  1.00  0.00     0.135 A 
ATOM     69  C   UNL A   1      43.828  34.196  28.458  1.00  0.00     0.135 A 
ATOM     70  F   UNL A   1      47.359  33.329  28.490  1.00  0.00    -0.206 F 
ATOM     71  C   UNL A   1      46.315  35.412  28.390  1.00  0.00     0.059 A 
ATOM     72  C   UNL A   1      43.910  35.580  28.366  1.00  0.00     0.059 A 
ATOM     73  F   UNL A   1      42.585  33.718  28.584  1.00  0.00    -0.206 F 
ATOM     74  C   UNL A   1      45.158  36.181  28.353  1.00  0.00     0.060 A 
BRANCH  74  75
ATOM     75  S   UNL A   1      45.304  37.973  28.275  1.00  0.00     0.124 S 
ATOM     76  O   UNL A   1      46.742  38.147  28.110  1.00  0.00    -0.237 OA
ATOM     77  O   UNL A   1      44.483  38.283  27.108  1.00  0.00    -0.237 OA
ATOM     78  O   UNL A   1      44.754  38.411  29.555  1.00  0.00    -0.744 OA
ENDBRANCH  74  75
ENDBRANCH  53  67
BRANCH  54  79
ATOM     79  C   UNL A   1      36.726  31.476  30.314  1.00  0.00     0.058 A 
ATOM     80  C   UNL A   1      35.943  32.150  31.290  1.00  0.00     0.135 A 
ATOM     81  C   UNL A   1      36.332  31.697  28.984  1.00  0.00     0.135 A 
ATOM     82  F   UNL A   1      36.221  32.005  32.596  1.00  0.00    -0.206 F 
ATOM     83  C   UNL A   1      34.903  33.046  30.959  1.00  0.00     0.059 A 
ATOM     84  C   UNL A   1      35.309  32.586  28.631  1.00  0.00     0.059 A 
ATOM     85  F   UNL A   1      37.001  31.120  27.976  1.00  0.00    -0.206 F 
ATOM     86  C   UNL A   1      34.618  33.285  29.616  1.00  0.00     0.060 A 
BRANCH  86  87
ATOM     87  S   UNL A   1      33.456  34.600  29.138  1.00  0.00     0.124 S 
ATOM     88  O   UNL A   1      32.832  34.944  30.411  1.00  0.00    -0.237 OA
ATOM     89  O   UNL A   1      34.343  35.612  28.571  1.00  0.00    -0.237 OA
ATOM     90  O   UNL A   1      32.579  33.939  28.175  1.00  0.00    -0.744 OA
ENDBRANCH  86  87
ENDBRANCH  54  79
BRANCH  66  91
ATOM     91  C   UNL A   1      41.933  29.662  33.426  1.00  0.00     0.058 A 
ATOM     92  C   UNL A   1      41.556  28.332  33.151  1.00  0.00     0.135 A 
ATOM     93  C   UNL A   1      42.237  29.968  34.759  1.00  0.00     0.135 A 
ATOM     94  F   UNL A   1      41.344  27.923  31.893  1.00  0.00    -0.206 F 
ATOM     95  C   UNL A   1      41.444  27.369  34.164  1.00  0.00     0.059 A 
ATOM     96  C   UNL A   1      42.161  29.023  35.776  1.00  0.00     0.059 A 
ATOM     97  F   UNL A   1      42.665  31.198  35.083  1.00  0.00    -0.206 F 
ATOM     98  C   UNL A   1      41.743  27.730  35.478  1.00  0.00     0.060 A 
BRANCH  98  99
ATOM     99  S   UNL A   1      41.615  26.502  36.799  1.00  0.00     0.124 S 
ATOM    100  O   UNL A   1      41.521  25.253  36.049  1.00  0.00    -0.237 OA
ATOM    101  O   UNL A   1      42.853  26.704  37.544  1.00  0.00    -0.237 OA
ATOM    102  O   UNL A   1      40.399  26.891  37.510  1.00  0.00    -0.744 OA
ENDBRANCH  98  99
ENDBRANCH  66  91
ENDBRANCH  40  41
ENDBRANCH  32  35
ENDBRANCH  30  31
ENDBRANCH   1  30
TORSDOF 15
ENDMDL
MODEL 3
REMARK VINA RESULT:     -14.8      3.027      9.693
REMARK SMILES O=C1C[C@H](c2cn[nH]c2C(=O)NCCCNC(=O)c2ccc(-c3c4nc(c(-c5c(F)cc(S(=O)(=O)[O-])cc5F)c5ccc([nH]5)c(-c5c(F)cc(S(=O)(=O)[O-])cc5F)c5nc(c(-c6c(F)cc(S(=O)(=O)[O-])cc6F)c6ccc3[nH]6)C=C5)C=C4)cc2)c2c(-c3cccs3)n[nH]c2N1
REMARK SMILES IDX 14 1 13 2 12 3 10 4 11 5 9 7 5 8 6 9 7 10 8 11 4 13 1 14
REMARK SMILES IDX 2 15 3 16 95 17 94 18 85 20 93 21 86 22 92 23 87 25 88 26
REMARK SMILES IDX 91 27 89 28 90 29 15 30 16 31 17 32 18 34 19 35 20 36 84 37
REMARK SMILES IDX 21 38 83 39 22 40 23 41 24 42 77 43 25 44 82 45 76 46 78 47
REMARK SMILES IDX 26 48 81 49 75 50 74 51 27 53 61 54 40 55 60 56 41 57 44 58
REMARK SMILES IDX 59 59 79 60 42 61 43 62 58 64 80 65 45 66 28 67 29 68 38 69
REMARK SMILES IDX 30 70 31 71 37 72 39 73 32 74 33 75 34 76 35 77 36 78 62 79
REMARK SMILES IDX 63 80 72 81 64 82 65 83 71 84 73 85 66 86 67 87 68 88 69 89
REMARK SMILES IDX 70 90 46 91 47 92 56 93 48 94 49 95 55 96 57 97 50 98 51 99
REMARK SMILES IDX 52 100 53 101 54 102
REMARK H PARENT 12 6 8 12 95 19 93 24 16 33 78 52 44 63
REMARK Flexibility Score: inf
ROOT
ATOM      1  C   UNL A   1      33.289  30.466  27.498  1.00  0.00     0.042 C 
ENDROOT
BRANCH   1   2
ATOM      2  C   UNL A   1      32.778  30.214  25.857  1.00  0.00     0.118 C 
BRANCH   2   3
ATOM      3  N   UNL A   1      33.773  29.265  24.160  1.00  0.00    -0.351 N 
ATOM      4  C   UNL A   1      34.024  28.263  23.192  1.00  0.00     0.269 C 
ATOM      5  O   UNL A   1      34.871  28.547  22.339  1.00  0.00    -0.268 OA
ATOM      6  H   UNL A   1      34.456  29.936  23.932  1.00  0.00     0.163 HD
BRANCH   4   7
ATOM      7  C   UNL A   1      33.295  27.020  23.098  1.00  0.00     0.126 A 
ATOM      8  C   UNL A   1      33.039  26.025  24.025  1.00  0.00     0.011 A 
ATOM      9  C   UNL A   1      32.193  25.118  23.363  1.00  0.00     0.140 A 
ATOM     10  N   UNL A   1      31.940  25.485  22.106  1.00  0.00    -0.183 NA
ATOM     11  N   UNL A   1      32.632  26.634  21.965  1.00  0.00    -0.273 N 
ATOM     12  H   UNL A   1      32.658  27.148  21.126  1.00  0.00     0.190 HD
BRANCH   8  13
ATOM     13  C   UNL A   1      33.555  26.015  25.415  1.00  0.00     0.069 C 
ATOM     14  O   UNL A   1      30.858  27.764  27.471  1.00  0.00    -0.275 OA
ATOM     15  C   UNL A   1      31.423  26.840  26.876  1.00  0.00     0.226 C 
ATOM     16  C   UNL A   1      32.855  27.068  26.310  1.00  0.00     0.114 C 
ATOM     17  N   UNL A   1      30.809  25.609  26.859  1.00  0.00    -0.311 N 
ATOM     18  C   UNL A   1      31.594  24.525  26.602  1.00  0.00     0.132 A 
ATOM     19  H   UNL A   1      29.842  25.515  27.025  1.00  0.00     0.171 HD
ATOM     20  C   UNL A   1      33.223  24.687  25.937  1.00  0.00     0.031 A 
ATOM     21  N   UNL A   1      31.240  22.719  26.798  1.00  0.00    -0.262 N 
ATOM     22  C   UNL A   1      33.896  22.881  25.569  1.00  0.00     0.108 A 
ATOM     23  N   UNL A   1      32.679  21.718  26.086  1.00  0.00    -0.173 NA
ATOM     24  H   UNL A   1      30.429  22.338  27.207  1.00  0.00     0.192 HD
BRANCH  22  25
ATOM     25  C   UNL A   1      35.065  22.601  24.709  1.00  0.00     0.055 A 
ATOM     26  C   UNL A   1      35.299  23.249  23.522  1.00  0.00     0.022 A 
ATOM     27  S   UNL A   1      36.310  21.532  25.144  1.00  0.00    -0.142 S 
ATOM     28  C   UNL A   1      36.573  22.900  22.986  1.00  0.00     0.012 A 
ATOM     29  C   UNL A   1      37.196  21.920  23.731  1.00  0.00     0.065 A 
ENDBRANCH  22  25
ENDBRANCH   8  13
ENDBRANCH   4   7
ENDBRANCH   2   3
ENDBRANCH   1   2
BRANCH   1  30
ATOM     30  C   UNL A   1      34.434  31.447  27.618  1.00  0.00     0.118 C 
BRANCH  30  31
ATOM     31  N   UNL A   1      34.434  32.213  28.858  1.00  0.00    -0.352 N 
ATOM     32  C   UNL A   1      35.258  31.961  29.940  1.00  0.00     0.251 C 
ATOM     33  H   UNL A   1      33.801  32.964  28.930  1.00  0.00     0.163 HD
ATOM     34  O   UNL A   1      34.954  32.270  31.082  1.00  0.00    -0.269 OA
BRANCH  32  35
ATOM     35  C   UNL A   1      36.581  31.410  29.602  1.00  0.00     0.039 A 
ATOM     36  C   UNL A   1      37.784  32.047  29.880  1.00  0.00     0.014 A 
ATOM     37  C   UNL A   1      36.550  30.084  29.174  1.00  0.00     0.014 A 
ATOM     38  C   UNL A   1      38.959  31.322  29.656  1.00  0.00     0.010 A 
ATOM     39  C   UNL A   1      37.664  29.330  29.400  1.00  0.00     0.010 A 
ATOM     40  C   UNL A   1      38.893  29.933  29.382  1.00  0.00    -0.014 A 
BRANCH  40  41
ATOM     41  C   UNL A   1      40.045  29.022  29.397  1.00  0.00     0.031 A 
ATOM     42  C   UNL A   1      40.341  28.645  30.797  1.00  0.00     0.074 A 
ATOM     43  C   UNL A   1      40.718  28.530  28.315  1.00  0.00     0.049 A 
ATOM     44  N   UNL A   1      41.125  29.326  31.557  1.00  0.00    -0.248 NA
ATOM     45  C   UNL A   1      39.475  27.719  31.546  1.00  0.00     0.031 C 
ATOM     46  C   UNL A   1      40.451  28.654  26.873  1.00  0.00     0.029 A 
ATOM     47  N   UNL A   1      41.896  27.809  28.305  1.00  0.00    -0.354 N 
ATOM     48  C   UNL A   1      41.124  28.690  32.781  1.00  0.00     0.074 A 
ATOM     49  C   UNL A   1      39.938  27.878  32.793  1.00  0.00     0.031 C 
ATOM     50  C   UNL A   1      41.295  27.861  26.155  1.00  0.00     0.029 A 
ATOM     51  C   UNL A   1      42.278  27.269  27.050  1.00  0.00     0.049 A 
ATOM     52  H   UNL A   1      42.436  27.678  29.117  1.00  0.00     0.167 HD
ATOM     53  C   UNL A   1      42.281  28.688  33.497  1.00  0.00     0.037 A 
ATOM     54  C   UNL A   1      43.435  26.587  26.739  1.00  0.00     0.037 A 
ATOM     55  C   UNL A   1      43.186  29.694  32.969  1.00  0.00     0.049 A 
ATOM     56  C   UNL A   1      44.420  26.954  27.798  1.00  0.00     0.074 A 
ATOM     57  C   UNL A   1      43.121  31.067  32.814  1.00  0.00     0.029 A 
ATOM     58  N   UNL A   1      44.109  29.251  32.050  1.00  0.00    -0.354 N 
ATOM     59  N   UNL A   1      44.909  28.161  27.904  1.00  0.00    -0.248 NA
ATOM     60  C   UNL A   1      44.358  26.177  29.029  1.00  0.00     0.031 C 
ATOM     61  C   UNL A   1      43.649  31.322  31.512  1.00  0.00     0.029 A 
ATOM     62  C   UNL A   1      44.148  30.128  30.993  1.00  0.00     0.049 A 
ATOM     63  H   UNL A   1      44.654  28.436  32.135  1.00  0.00     0.167 HD
ATOM     64  C   UNL A   1      44.771  28.468  29.248  1.00  0.00     0.074 A 
ATOM     65  C   UNL A   1      44.414  27.197  29.892  1.00  0.00     0.031 C 
ATOM     66  C   UNL A   1      44.616  29.758  29.673  1.00  0.00     0.037 A 
BRANCH  53  67
ATOM     67  C   UNL A   1      42.775  27.512  34.299  1.00  0.00     0.058 A 
ATOM     68  C   UNL A   1      42.894  27.656  35.695  1.00  0.00     0.135 A 
ATOM     69  C   UNL A   1      43.401  26.374  33.744  1.00  0.00     0.135 A 
ATOM     70  F   UNL A   1      42.350  28.711  36.323  1.00  0.00    -0.206 F 
ATOM     71  C   UNL A   1      43.628  26.767  36.476  1.00  0.00     0.059 A 
ATOM     72  C   UNL A   1      44.102  25.451  34.512  1.00  0.00     0.059 A 
ATOM     73  F   UNL A   1      43.436  26.144  32.427  1.00  0.00    -0.206 F 
ATOM     74  C   UNL A   1      44.228  25.666  35.875  1.00  0.00     0.060 A 
BRANCH  74  75
ATOM     75  S   UNL A   1      45.161  24.515  36.895  1.00  0.00     0.124 S 
ATOM     76  O   UNL A   1      44.930  23.252  36.206  1.00  0.00    -0.237 OA
ATOM     77  O   UNL A   1      46.510  25.062  36.794  1.00  0.00    -0.237 OA
ATOM     78  O   UNL A   1      44.535  24.645  38.207  1.00  0.00    -0.744 OA
ENDBRANCH  74  75
ENDBRANCH  53  67
BRANCH  54  79
ATOM     79  C   UNL A   1      43.607  25.287  25.984  1.00  0.00     0.058 A 
ATOM     80  C   UNL A   1      44.782  24.971  25.251  1.00  0.00     0.135 A 
ATOM     81  C   UNL A   1      42.751  24.202  26.226  1.00  0.00     0.135 A 
ATOM     82  F   UNL A   1      45.671  25.933  24.951  1.00  0.00    -0.206 F 
ATOM     83  C   UNL A   1      45.119  23.655  24.865  1.00  0.00     0.059 A 
ATOM     84  C   UNL A   1      43.066  22.887  25.860  1.00  0.00     0.059 A 
ATOM     85  F   UNL A   1      41.615  24.376  26.915  1.00  0.00    -0.206 F 
ATOM     86  C   UNL A   1      44.266  22.609  25.211  1.00  0.00     0.060 A 
BRANCH  86  87
ATOM     87  S   UNL A   1      44.767  20.881  24.948  1.00  0.00     0.124 S 
ATOM     88  O   UNL A   1      46.143  20.878  25.435  1.00  0.00    -0.237 OA
ATOM     89  O   UNL A   1      43.803  20.148  25.762  1.00  0.00    -0.237 OA
ATOM     90  O   UNL A   1      44.618  20.704  23.506  1.00  0.00    -0.744 OA
ENDBRANCH  86  87
ENDBRANCH  54  79
BRANCH  66  91
ATOM     91  C   UNL A   1      44.847  30.879  28.685  1.00  0.00     0.058 A 
ATOM     92  C   UNL A   1      46.101  31.355  28.251  1.00  0.00     0.135 A 
ATOM     93  C   UNL A   1      43.718  31.403  28.043  1.00  0.00     0.135 A 
ATOM     94  F   UNL A   1      47.239  30.839  28.736  1.00  0.00    -0.206 F 
ATOM     95  C   UNL A   1      46.217  32.338  27.258  1.00  0.00     0.059 A 
ATOM     96  C   UNL A   1      43.809  32.357  27.036  1.00  0.00     0.059 A 
ATOM     97  F   UNL A   1      42.496  30.949  28.362  1.00  0.00    -0.206 F 
ATOM     98  C   UNL A   1      45.059  32.838  26.661  1.00  0.00     0.060 A 
BRANCH  98  99
ATOM     99  S   UNL A   1      45.185  34.099  25.372  1.00  0.00     0.124 S 
ATOM    100  O   UNL A   1      44.420  35.202  25.946  1.00  0.00    -0.237 OA
ATOM    101  O   UNL A   1      46.626  34.312  25.274  1.00  0.00    -0.237 OA
ATOM    102  O   UNL A   1      44.577  33.460  24.208  1.00  0.00    -0.744 OA
ENDBRANCH  98  99
ENDBRANCH  66  91
ENDBRANCH  40  41
ENDBRANCH  32  35
ENDBRANCH  30  31
ENDBRANCH   1  30
TORSDOF 15
ENDMDL
