MODEL 1
REMARK VINA RESULT:     -12.7      0.000      0.000
REMARK SMILES Cc1ccc(C(=O)NCCCNC(=O)c2ccc(-c3c4nc(c(-c5c(F)cc(S(=O)(=O)[O-])cc5F)c5ccc([nH]5)c(-c5c(F)cc(S(=O)(=O)[O-])cc5F)c5nc(c(-c6c(F)cc(S(=O)(=O)[O-])cc6F)c6ccc3[nH]6)C=C5)C=C4)cc2)c(Oc2cccc(F)c2C(N)=O)c1
REMARK SMILES IDX 10 1 9 2 8 3 6 4 7 5 5 7 1 8 2 9 3 10 93 11 4 12 81 13 82 14
REMARK SMILES IDX 83 15 84 16 89 17 85 18 87 19 86 20 88 21 90 22 91 23 92 24
REMARK SMILES IDX 11 27 12 28 13 29 14 31 15 32 16 33 80 34 17 35 79 36 18 37
REMARK SMILES IDX 19 38 20 39 73 40 21 41 78 42 72 43 74 44 22 45 77 46 71 47
REMARK SMILES IDX 70 48 23 50 57 51 36 52 56 53 37 54 40 55 55 56 75 57 38 58
REMARK SMILES IDX 39 59 54 61 76 62 41 63 24 64 25 65 34 66 26 67 27 68 33 69
REMARK SMILES IDX 35 70 28 71 29 72 30 73 31 74 32 75 58 76 59 77 68 78 60 79
REMARK SMILES IDX 61 80 67 81 69 82 62 83 63 84 64 85 65 86 66 87 42 88 43 89
REMARK SMILES IDX 52 90 44 91 45 92 51 93 53 94 46 95 47 96 48 97 49 98 50 99
REMARK H PARENT 8 6 91 25 91 26 12 30 74 49 40 60
REMARK Flexibility Score: inf
ROOT
ATOM      1  C   UNL A   1      34.611  30.911  27.298  1.00  0.00     0.042 C 
ENDROOT
BRANCH   1   2
ATOM      2  C   UNL A   1      33.806  29.553  26.986  1.00  0.00     0.118 C 
BRANCH   2   3
ATOM      3  N   UNL A   1      32.565  28.973  27.478  1.00  0.00    -0.352 N 
ATOM      4  C   UNL A   1      31.882  27.863  26.956  1.00  0.00     0.255 C 
ATOM      5  O   UNL A   1      31.004  27.343  27.655  1.00  0.00    -0.269 OA
ATOM      6  H   UNL A   1      32.161  29.407  28.264  1.00  0.00     0.163 HD
BRANCH   4   7
ATOM      7  C   UNL A   1      32.062  27.303  25.542  1.00  0.00     0.082 A 
ATOM      8  C   UNL A   1      32.342  26.252  21.319  1.00  0.00     0.044 C 
ATOM      9  C   UNL A   1      32.185  26.607  22.763  1.00  0.00    -0.047 A 
ATOM     10  C   UNL A   1      31.171  27.437  23.232  1.00  0.00     0.004 A 
ATOM     11  C   UNL A   1      33.067  26.059  23.686  1.00  0.00     0.051 A 
ATOM     12  C   UNL A   1      31.107  27.771  24.597  1.00  0.00     0.018 A 
ATOM     13  C   UNL A   1      33.040  26.417  25.042  1.00  0.00     0.140 A 
BRANCH  13  14
ATOM     14  O   UNL A   1      33.894  25.702  25.838  1.00  0.00    -0.456 OA
BRANCH  14  15
ATOM     15  C   UNL A   1      33.916  24.309  25.846  1.00  0.00     0.143 A 
ATOM     16  C   UNL A   1      35.193  23.846  25.459  1.00  0.00     0.048 A 
ATOM     17  C   UNL A   1      32.871  23.371  25.968  1.00  0.00     0.117 A 
ATOM     18  C   UNL A   1      35.443  22.494  25.227  1.00  0.00     0.007 A 
ATOM     19  C   UNL A   1      33.155  22.009  25.793  1.00  0.00     0.139 A 
ATOM     20  C   UNL A   1      34.426  21.569  25.423  1.00  0.00     0.040 A 
ATOM     21  F   UNL A   1      32.192  21.084  25.931  1.00  0.00    -0.206 F 
BRANCH  17  22
ATOM     22  C   UNL A   1      31.446  23.661  26.208  1.00  0.00     0.255 C 
ATOM     23  N   UNL A   1      30.621  23.714  25.119  1.00  0.00    -0.365 N 
ATOM     24  O   UNL A   1      31.027  23.777  27.354  1.00  0.00    -0.269 OA
ATOM     25  H   UNL A   1      30.994  23.616  24.213  1.00  0.00     0.159 HD
ATOM     26  H   UNL A   1      29.654  23.850  25.240  1.00  0.00     0.159 HD
ENDBRANCH  17  22
ENDBRANCH  14  15
ENDBRANCH  13  14
ENDBRANCH   4   7
ENDBRANCH   2   3
ENDBRANCH   1   2
BRANCH   1  27
ATOM     27  C   UNL A   1      35.799  30.832  28.362  1.00  0.00     0.118 C 
BRANCH  27  28
ATOM     28  N   UNL A   1      36.632  29.583  28.984  1.00  0.00    -0.352 N 
ATOM     29  C   UNL A   1      37.906  28.833  29.045  1.00  0.00     0.251 C 
ATOM     30  H   UNL A   1      36.012  29.116  29.590  1.00  0.00     0.163 HD
ATOM     31  O   UNL A   1      38.160  28.476  30.215  1.00  0.00    -0.269 OA
BRANCH  29  32
ATOM     32  C   UNL A   1      39.087  28.431  28.030  1.00  0.00     0.039 A 
ATOM     33  C   UNL A   1      39.496  27.086  27.778  1.00  0.00     0.014 A 
ATOM     34  C   UNL A   1      39.853  29.315  27.304  1.00  0.00     0.014 A 
ATOM     35  C   UNL A   1      40.897  26.790  27.645  1.00  0.00     0.010 A 
ATOM     36  C   UNL A   1      41.234  29.034  27.136  1.00  0.00     0.010 A 
ATOM     37  C   UNL A   1      41.807  27.840  27.595  1.00  0.00    -0.014 A 
BRANCH  37  38
ATOM     38  C   UNL A   1      43.249  27.770  28.064  1.00  0.00     0.031 A 
ATOM     39  C   UNL A   1      44.012  29.001  28.150  1.00  0.00     0.074 A 
ATOM     40  C   UNL A   1      43.988  26.717  28.539  1.00  0.00     0.049 A 
ATOM     41  N   UNL A   1      45.104  29.222  27.500  1.00  0.00    -0.248 NA
ATOM     42  C   UNL A   1      43.602  30.063  29.051  1.00  0.00     0.031 C 
ATOM     43  C   UNL A   1      45.376  26.600  29.041  1.00  0.00     0.029 A 
ATOM     44  N   UNL A   1      43.602  25.402  28.694  1.00  0.00    -0.354 N 
ATOM     45  C   UNL A   1      45.676  30.312  28.113  1.00  0.00     0.074 A 
ATOM     46  C   UNL A   1      44.624  30.907  28.914  1.00  0.00     0.031 C 
ATOM     47  C   UNL A   1      45.765  25.302  28.989  1.00  0.00     0.029 A 
ATOM     48  C   UNL A   1      44.662  24.541  28.448  1.00  0.00     0.049 A 
ATOM     49  H   UNL A   1      42.695  25.114  28.946  1.00  0.00     0.167 HD
ATOM     50  C   UNL A   1      47.031  30.475  28.128  1.00  0.00     0.037 A 
ATOM     51  C   UNL A   1      44.596  23.730  27.348  1.00  0.00     0.037 A 
ATOM     52  C   UNL A   1      47.713  29.242  27.711  1.00  0.00     0.049 A 
ATOM     53  C   UNL A   1      45.598  24.152  26.325  1.00  0.00     0.074 A 
ATOM     54  C   UNL A   1      48.369  28.265  28.446  1.00  0.00     0.029 A 
ATOM     55  N   UNL A   1      47.497  28.693  26.450  1.00  0.00    -0.354 N 
ATOM     56  N   UNL A   1      46.252  25.270  26.419  1.00  0.00    -0.248 NA
ATOM     57  C   UNL A   1      45.950  23.399  25.131  1.00  0.00     0.031 C 
ATOM     58  C   UNL A   1      48.494  27.107  27.640  1.00  0.00     0.029 A 
ATOM     59  C   UNL A   1      47.932  27.379  26.405  1.00  0.00     0.049 A 
ATOM     60  H   UNL A   1      47.093  29.174  25.692  1.00  0.00     0.167 HD
ATOM     61  C   UNL A   1      47.059  25.433  25.340  1.00  0.00     0.074 A 
ATOM     62  C   UNL A   1      46.865  24.215  24.574  1.00  0.00     0.031 C 
ATOM     63  C   UNL A   1      47.792  26.574  25.194  1.00  0.00     0.037 A 
BRANCH  50  64
ATOM     64  C   UNL A   1      47.716  31.607  28.868  1.00  0.00     0.058 A 
ATOM     65  C   UNL A   1      47.967  31.540  30.253  1.00  0.00     0.135 A 
ATOM     66  C   UNL A   1      48.196  32.779  28.243  1.00  0.00     0.135 A 
ATOM     67  F   UNL A   1      47.700  30.437  30.964  1.00  0.00    -0.206 F 
ATOM     68  C   UNL A   1      48.540  32.590  30.973  1.00  0.00     0.059 A 
ATOM     69  C   UNL A   1      48.707  33.871  28.948  1.00  0.00     0.059 A 
ATOM     70  F   UNL A   1      48.256  32.885  26.907  1.00  0.00    -0.206 F 
ATOM     71  C   UNL A   1      48.881  33.765  30.319  1.00  0.00     0.060 A 
BRANCH  71  72
ATOM     72  S   UNL A   1      49.633  35.101  31.263  1.00  0.00     0.124 S 
ATOM     73  O   UNL A   1      48.675  36.187  31.081  1.00  0.00    -0.237 OA
ATOM     74  O   UNL A   1      49.694  34.526  32.603  1.00  0.00    -0.237 OA
ATOM     75  O   UNL A   1      50.925  35.297  30.610  1.00  0.00    -0.744 OA
ENDBRANCH  71  72
ENDBRANCH  50  64
BRANCH  51  76
ATOM     76  C   UNL A   1      43.210  23.171  27.042  1.00  0.00     0.058 A 
ATOM     77  C   UNL A   1      42.953  23.128  25.668  1.00  0.00     0.135 A 
ATOM     78  C   UNL A   1      42.877  21.980  27.663  1.00  0.00     0.135 A 
ATOM     79  F   UNL A   1      42.664  24.251  25.002  1.00  0.00    -0.206 F 
ATOM     80  C   UNL A   1      43.215  21.968  24.945  1.00  0.00     0.059 A 
ATOM     81  C   UNL A   1      42.907  20.798  26.912  1.00  0.00     0.059 A 
ATOM     82  F   UNL A   1      42.632  21.927  28.983  1.00  0.00    -0.206 F 
ATOM     83  C   UNL A   1      43.426  20.777  25.630  1.00  0.00     0.060 A 
BRANCH  83  84
ATOM     84  S   UNL A   1      44.608  19.433  24.750  1.00  0.00     0.124 S 
ATOM     85  O   UNL A   1      45.886  19.841  25.320  1.00  0.00    -0.237 OA
ATOM     86  O   UNL A   1      44.244  18.110  25.252  1.00  0.00    -0.237 OA
ATOM     87  O   UNL A   1      44.504  19.573  23.320  1.00  0.00    -0.744 OA
ENDBRANCH  83  84
ENDBRANCH  51  76
BRANCH  63  88
ATOM     88  C   UNL A   1      48.532  26.975  23.949  1.00  0.00     0.058 A 
ATOM     89  C   UNL A   1      47.970  27.733  22.908  1.00  0.00     0.135 A 
ATOM     90  C   UNL A   1      49.912  26.686  23.821  1.00  0.00     0.135 A 
ATOM     91  F   UNL A   1      46.715  28.196  22.972  1.00  0.00    -0.206 F 
ATOM     92  C   UNL A   1      48.693  28.082  21.771  1.00  0.00     0.059 A 
ATOM     93  C   UNL A   1      50.669  27.090  22.730  1.00  0.00     0.059 A 
ATOM     94  F   UNL A   1      50.582  26.004  24.761  1.00  0.00    -0.206 F 
ATOM     95  C   UNL A   1      50.041  27.750  21.688  1.00  0.00     0.060 A 
BRANCH  95  96
ATOM     96  S   UNL A   1      50.973  28.208  20.222  1.00  0.00     0.124 S 
ATOM     97  O   UNL A   1      50.215  27.532  19.174  1.00  0.00    -0.237 OA
ATOM     98  O   UNL A   1      50.880  29.665  20.227  1.00  0.00    -0.237 OA
ATOM     99  O   UNL A   1      52.304  27.672  20.485  1.00  0.00    -0.744 OA
ENDBRANCH  95  96
ENDBRANCH  63  88
ENDBRANCH  37  38
ENDBRANCH  29  32
ENDBRANCH  27  28
ENDBRANCH   1  27
TORSDOF 16
ENDMDL
MODEL 2
REMARK VINA RESULT:     -12.6      4.082      8.941
REMARK SMILES Cc1ccc(C(=O)NCCCNC(=O)c2ccc(-c3c4nc(c(-c5c(F)cc(S(=O)(=O)[O-])cc5F)c5ccc([nH]5)c(-c5c(F)cc(S(=O)(=O)[O-])cc5F)c5nc(c(-c6c(F)cc(S(=O)(=O)[O-])cc6F)c6ccc3[nH]6)C=C5)C=C4)cc2)c(Oc2cccc(F)c2C(N)=O)c1
REMARK SMILES IDX 10 1 9 2 8 3 6 4 7 5 5 7 1 8 2 9 3 10 93 11 4 12 81 13 82 14
REMARK SMILES IDX 83 15 84 16 89 17 85 18 87 19 86 20 88 21 90 22 91 23 92 24
REMARK SMILES IDX 11 27 12 28 13 29 14 31 15 32 16 33 80 34 17 35 79 36 18 37
REMARK SMILES IDX 19 38 20 39 73 40 21 41 78 42 72 43 74 44 22 45 77 46 71 47
REMARK SMILES IDX 70 48 23 50 57 51 36 52 56 53 37 54 40 55 55 56 75 57 38 58
REMARK SMILES IDX 39 59 54 61 76 62 41 63 24 64 25 65 34 66 26 67 27 68 33 69
REMARK SMILES IDX 35 70 28 71 29 72 30 73 31 74 32 75 58 76 59 77 68 78 60 79
REMARK SMILES IDX 61 80 67 81 69 82 62 83 63 84 64 85 65 86 66 87 42 88 43 89
REMARK SMILES IDX 52 90 44 91 45 92 51 93 53 94 46 95 47 96 48 97 49 98 50 99
REMARK H PARENT 8 6 91 25 91 26 12 30 74 49 40 60
REMARK Flexibility Score: inf
ROOT
ATOM      1  C   UNL A   1      34.408  23.873  24.512  1.00  0.00     0.042 C 
ENDROOT
BRANCH   1   2
ATOM      2  C   UNL A   1      33.406  24.855  23.722  1.00  0.00     0.118 C 
BRANCH   2   3
ATOM      3  N   UNL A   1      33.547  25.738  22.575  1.00  0.00    -0.352 N 
ATOM      4  C   UNL A   1      33.675  27.136  22.592  1.00  0.00     0.255 C 
ATOM      5  O   UNL A   1      34.059  27.695  21.556  1.00  0.00    -0.269 OA
ATOM      6  H   UNL A   1      33.553  25.308  21.689  1.00  0.00     0.163 HD
BRANCH   4   7
ATOM      7  C   UNL A   1      33.276  28.043  23.759  1.00  0.00     0.082 A 
ATOM      8  C   UNL A   1      32.751  30.681  27.192  1.00  0.00     0.044 C 
ATOM      9  C   UNL A   1      32.947  29.732  26.053  1.00  0.00    -0.047 A 
ATOM     10  C   UNL A   1      34.009  28.834  25.992  1.00  0.00     0.004 A 
ATOM     11  C   UNL A   1      32.013  29.718  25.025  1.00  0.00     0.051 A 
ATOM     12  C   UNL A   1      34.165  28.001  24.869  1.00  0.00     0.018 A 
ATOM     13  C   UNL A   1      32.179  28.922  23.882  1.00  0.00     0.140 A 
BRANCH  13  14
ATOM     14  O   UNL A   1      31.114  28.933  23.020  1.00  0.00    -0.456 OA
BRANCH  14  15
ATOM     15  C   UNL A   1      29.878  28.386  23.355  1.00  0.00     0.143 A 
ATOM     16  C   UNL A   1      30.041  27.041  23.758  1.00  0.00     0.048 A 
ATOM     17  C   UNL A   1      28.570  28.874  23.160  1.00  0.00     0.117 A 
ATOM     18  C   UNL A   1      28.947  26.210  23.992  1.00  0.00     0.007 A 
ATOM     19  C   UNL A   1      27.481  28.042  23.461  1.00  0.00     0.139 A 
ATOM     20  C   UNL A   1      27.662  26.722  23.870  1.00  0.00     0.040 A 
ATOM     21  F   UNL A   1      26.221  28.482  23.317  1.00  0.00    -0.206 F 
BRANCH  17  22
ATOM     22  C   UNL A   1      28.189  30.182  22.599  1.00  0.00     0.255 C 
ATOM     23  N   UNL A   1      27.880  30.233  21.268  1.00  0.00    -0.365 N 
ATOM     24  O   UNL A   1      28.092  31.160  23.332  1.00  0.00    -0.269 OA
ATOM     25  H   UNL A   1      27.970  29.426  20.711  1.00  0.00     0.159 HD
ATOM     26  H   UNL A   1      27.568  31.076  20.866  1.00  0.00     0.159 HD
ENDBRANCH  17  22
ENDBRANCH  14  15
ENDBRANCH  13  14
ENDBRANCH   4   7
ENDBRANCH   2   3
ENDBRANCH   1   2
BRANCH   1  27
ATOM     27  C   UNL A   1      35.934  23.848  24.041  1.00  0.00     0.118 C 
BRANCH  27  28
ATOM     28  N   UNL A   1      37.149  22.807  24.321  1.00  0.00    -0.352 N 
ATOM     29  C   UNL A   1      38.117  22.241  25.286  1.00  0.00     0.251 C 
ATOM     30  H   UNL A   1      37.317  22.348  23.466  1.00  0.00     0.163 HD
ATOM     31  O   UNL A   1      38.235  21.007  25.132  1.00  0.00    -0.269 OA
BRANCH  29  32
ATOM     32  C   UNL A   1      38.990  22.772  26.529  1.00  0.00     0.039 A 
ATOM     33  C   UNL A   1      38.552  23.789  27.431  1.00  0.00     0.014 A 
ATOM     34  C   UNL A   1      40.252  22.336  26.864  1.00  0.00     0.014 A 
ATOM     35  C   UNL A   1      39.493  24.778  27.885  1.00  0.00     0.010 A 
ATOM     36  C   UNL A   1      41.192  23.287  27.339  1.00  0.00     0.010 A 
ATOM     37  C   UNL A   1      40.839  24.623  27.572  1.00  0.00    -0.014 A 
BRANCH  37  38
ATOM     38  C   UNL A   1      41.833  25.757  27.401  1.00  0.00     0.031 A 
ATOM     39  C   UNL A   1      43.251  25.451  27.436  1.00  0.00     0.074 A 
ATOM     40  C   UNL A   1      41.640  27.084  27.111  1.00  0.00     0.049 A 
ATOM     41  N   UNL A   1      44.080  25.958  28.284  1.00  0.00    -0.248 NA
ATOM     42  C   UNL A   1      43.840  24.570  26.444  1.00  0.00     0.031 C 
ATOM     43  C   UNL A   1      42.566  28.218  26.897  1.00  0.00     0.029 A 
ATOM     44  N   UNL A   1      40.448  27.752  26.916  1.00  0.00    -0.354 N 
ATOM     45  C   UNL A   1      45.328  25.699  27.768  1.00  0.00     0.074 A 
ATOM     46  C   UNL A   1      45.131  24.677  26.759  1.00  0.00     0.031 C 
ATOM     47  C   UNL A   1      41.895  29.385  27.060  1.00  0.00     0.029 A 
ATOM     48  C   UNL A   1      40.527  29.054  27.391  1.00  0.00     0.049 A 
ATOM     49  H   UNL A   1      39.650  27.357  26.497  1.00  0.00     0.167 HD
ATOM     50  C   UNL A   1      46.375  26.538  28.018  1.00  0.00     0.037 A 
ATOM     51  C   UNL A   1      39.767  29.395  28.477  1.00  0.00     0.037 A 
ATOM     52  C   UNL A   1      45.907  27.805  28.595  1.00  0.00     0.049 A 
ATOM     53  C   UNL A   1      40.635  29.639  29.667  1.00  0.00     0.074 A 
ATOM     54  C   UNL A   1      45.742  29.062  28.030  1.00  0.00     0.029 A 
ATOM     55  N   UNL A   1      45.214  27.833  29.802  1.00  0.00    -0.354 N 
ATOM     56  N   UNL A   1      41.898  29.335  29.676  1.00  0.00    -0.248 NA
ATOM     57  C   UNL A   1      40.192  30.217  30.927  1.00  0.00     0.031 C 
ATOM     58  C   UNL A   1      44.900  29.825  28.876  1.00  0.00     0.029 A 
ATOM     59  C   UNL A   1      44.562  29.045  29.967  1.00  0.00     0.049 A 
ATOM     60  H   UNL A   1      45.192  27.094  30.451  1.00  0.00     0.167 HD
ATOM     61  C   UNL A   1      42.439  29.614  30.889  1.00  0.00     0.074 A 
ATOM     62  C   UNL A   1      41.339  30.201  31.632  1.00  0.00     0.031 C 
ATOM     63  C   UNL A   1      43.743  29.311  31.147  1.00  0.00     0.037 A 
BRANCH  50  64
ATOM     64  C   UNL A   1      47.747  26.350  27.399  1.00  0.00     0.058 A 
ATOM     65  C   UNL A   1      48.798  25.733  28.105  1.00  0.00     0.135 A 
ATOM     66  C   UNL A   1      48.070  26.722  26.075  1.00  0.00     0.135 A 
ATOM     67  F   UNL A   1      48.613  25.198  29.319  1.00  0.00    -0.206 F 
ATOM     68  C   UNL A   1      50.087  25.601  27.585  1.00  0.00     0.059 A 
ATOM     69  C   UNL A   1      49.365  26.665  25.557  1.00  0.00     0.059 A 
ATOM     70  F   UNL A   1      47.121  27.090  25.201  1.00  0.00    -0.206 F 
ATOM     71  C   UNL A   1      50.371  26.096  26.321  1.00  0.00     0.060 A 
BRANCH  71  72
ATOM     72  S   UNL A   1      52.036  25.901  25.662  1.00  0.00     0.124 S 
ATOM     73  O   UNL A   1      52.272  24.471  25.833  1.00  0.00    -0.237 OA
ATOM     74  O   UNL A   1      51.870  26.358  24.286  1.00  0.00    -0.237 OA
ATOM     75  O   UNL A   1      52.845  26.769  26.513  1.00  0.00    -0.744 OA
ENDBRANCH  71  72
ENDBRANCH  50  64
BRANCH  51  76
ATOM     76  C   UNL A   1      38.380  28.762  28.516  1.00  0.00     0.058 A 
ATOM     77  C   UNL A   1      38.101  28.186  29.760  1.00  0.00     0.135 A 
ATOM     78  C   UNL A   1      37.334  29.550  28.069  1.00  0.00     0.135 A 
ATOM     79  F   UNL A   1      38.658  27.020  30.102  1.00  0.00    -0.206 F 
ATOM     80  C   UNL A   1      37.429  28.921  30.733  1.00  0.00     0.059 A 
ATOM     81  C   UNL A   1      36.481  30.137  29.014  1.00  0.00     0.059 A 
ATOM     82  F   UNL A   1      37.188  29.842  26.767  1.00  0.00    -0.206 F 
ATOM     83  C   UNL A   1      36.769  30.086  30.367  1.00  0.00     0.060 A 
BRANCH  83  84
ATOM     84  S   UNL A   1      36.609  31.504  31.761  1.00  0.00     0.124 S 
ATOM     85  O   UNL A   1      37.517  32.491  31.193  1.00  0.00    -0.237 OA
ATOM     86  O   UNL A   1      35.241  32.017  31.732  1.00  0.00    -0.237 OA
ATOM     87  O   UNL A   1      37.011  30.964  33.034  1.00  0.00    -0.744 OA
ENDBRANCH  83  84
ENDBRANCH  51  76
BRANCH  63  88
ATOM     88  C   UNL A   1      44.390  29.350  32.502  1.00  0.00     0.058 A 
ATOM     89  C   UNL A   1      44.520  28.235  33.347  1.00  0.00     0.135 A 
ATOM     90  C   UNL A   1      45.015  30.537  32.955  1.00  0.00     0.135 A 
ATOM     91  F   UNL A   1      44.101  27.018  32.975  1.00  0.00    -0.206 F 
ATOM     92  C   UNL A   1      45.127  28.317  34.596  1.00  0.00     0.059 A 
ATOM     93  C   UNL A   1      45.690  30.620  34.166  1.00  0.00     0.059 A 
ATOM     94  F   UNL A   1      45.000  31.665  32.230  1.00  0.00    -0.206 F 
ATOM     95  C   UNL A   1      45.702  29.516  35.001  1.00  0.00     0.060 A 
BRANCH  95  96
ATOM     96  S   UNL A   1      46.491  29.618  36.612  1.00  0.00     0.124 S 
ATOM     97  O   UNL A   1      45.544  30.452  37.345  1.00  0.00    -0.237 OA
ATOM     98  O   UNL A   1      46.550  28.219  37.027  1.00  0.00    -0.237 OA
ATOM     99  O   UNL A   1      47.781  30.232  36.321  1.00  0.00    -0.744 OA
ENDBRANCH  95  96
ENDBRANCH  63  88
ENDBRANCH  37  38
ENDBRANCH  29  32
ENDBRANCH  27  28
ENDBRANCH   1  27
TORSDOF 16
ENDMDL
MODEL 3
REMARK VINA RESULT:     -12.6      5.455     11.824
REMARK SMILES Cc1ccc(C(=O)NCCCNC(=O)c2ccc(-c3c4nc(c(-c5c(F)cc(S(=O)(=O)[O-])cc5F)c5ccc([nH]5)c(-c5c(F)cc(S(=O)(=O)[O-])cc5F)c5nc(c(-c6c(F)cc(S(=O)(=O)[O-])cc6F)c6ccc3[nH]6)C=C5)C=C4)cc2)c(Oc2cccc(F)c2C(N)=O)c1
REMARK SMILES IDX 10 1 9 2 8 3 6 4 7 5 5 7 1 8 2 9 3 10 93 11 4 12 81 13 82 14
REMARK SMILES IDX 83 15 84 16 89 17 85 18 87 19 86 20 88 21 90 22 91 23 92 24
REMARK SMILES IDX 11 27 12 28 13 29 14 31 15 32 16 33 80 34 17 35 79 36 18 37
REMARK SMILES IDX 19 38 20 39 73 40 21 41 78 42 72 43 74 44 22 45 77 46 71 47
REMARK SMILES IDX 70 48 23 50 57 51 36 52 56 53 37 54 40 55 55 56 75 57 38 58
REMARK SMILES IDX 39 59 54 61 76 62 41 63 24 64 25 65 34 66 26 67 27 68 33 69
REMARK SMILES IDX 35 70 28 71 29 72 30 73 31 74 32 75 58 76 59 77 68 78 60 79
REMARK SMILES IDX 61 80 67 81 69 82 62 83 63 84 64 85 65 86 66 87 42 88 43 89
REMARK SMILES IDX 52 90 44 91 45 92 51 93 53 94 46 95 47 96 48 97 49 98 50 99
REMARK H PARENT 8 6 91 25 91 26 12 30 74 49 40 60
REMARK Flexibility Score: inf
ROOT
ATOM      1  C   UNL A   1      46.456  27.634  24.843  1.00  0.00     0.042 C 
ENDROOT
BRANCH   1   2
ATOM      2  C   UNL A   1      47.338  26.288  24.904  1.00  0.00     0.118 C 
BRANCH   2   3
ATOM      3  N   UNL A   1      48.416  25.820  25.761  1.00  0.00    -0.352 N 
ATOM      4  C   UNL A   1      48.328  24.873  26.793  1.00  0.00     0.255 C 
ATOM      5  O   UNL A   1      49.382  24.393  27.230  1.00  0.00    -0.269 OA
ATOM      6  H   UNL A   1      49.305  26.210  25.597  1.00  0.00     0.163 HD
BRANCH   4   7
ATOM      7  C   UNL A   1      47.036  24.459  27.502  1.00  0.00     0.082 A 
ATOM      8  C   UNL A   1      43.330  23.868  29.726  1.00  0.00     0.044 C 
ATOM      9  C   UNL A   1      44.631  24.073  29.016  1.00  0.00    -0.047 A 
ATOM     10  C   UNL A   1      45.601  24.966  29.461  1.00  0.00     0.004 A 
ATOM     11  C   UNL A   1      44.902  23.317  27.883  1.00  0.00     0.051 A 
ATOM     12  C   UNL A   1      46.784  25.149  28.720  1.00  0.00     0.018 A 
ATOM     13  C   UNL A   1      46.058  23.519  27.114  1.00  0.00     0.140 A 
BRANCH  13  14
ATOM     14  O   UNL A   1      46.233  22.615  26.100  1.00  0.00    -0.456 OA
BRANCH  14  15
ATOM     15  C   UNL A   1      45.248  21.699  25.739  1.00  0.00     0.143 A 
ATOM     16  C   UNL A   1      43.969  22.239  26.004  1.00  0.00     0.048 A 
ATOM     17  C   UNL A   1      45.340  20.340  25.377  1.00  0.00     0.117 A 
ATOM     18  C   UNL A   1      42.812  21.471  25.886  1.00  0.00     0.007 A 
ATOM     19  C   UNL A   1      44.161  19.600  25.202  1.00  0.00     0.139 A 
ATOM     20  C   UNL A   1      42.907  20.154  25.456  1.00  0.00     0.040 A 
ATOM     21  F   UNL A   1      44.209  18.312  24.828  1.00  0.00    -0.206 F 
BRANCH  17  22
ATOM     22  C   UNL A   1      46.574  19.551  25.210  1.00  0.00     0.255 C 
ATOM     23  N   UNL A   1      46.827  18.573  26.132  1.00  0.00    -0.365 N 
ATOM     24  O   UNL A   1      47.294  19.736  24.236  1.00  0.00    -0.269 OA
ATOM     25  H   UNL A   1      46.225  18.455  26.902  1.00  0.00     0.159 HD
ATOM     26  H   UNL A   1      47.611  17.988  26.026  1.00  0.00     0.159 HD
ENDBRANCH  17  22
ENDBRANCH  14  15
ENDBRANCH  13  14
ENDBRANCH   4   7
ENDBRANCH   2   3
ENDBRANCH   1   2
BRANCH   1  27
ATOM     27  C   UNL A   1      45.125  27.680  25.723  1.00  0.00     0.118 C 
BRANCH  27  28
ATOM     28  N   UNL A   1      44.109  26.519  26.235  1.00  0.00    -0.352 N 
ATOM     29  C   UNL A   1      42.712  26.068  26.415  1.00  0.00     0.251 C 
ATOM     30  H   UNL A   1      44.677  25.792  26.579  1.00  0.00     0.163 HD
ATOM     31  O   UNL A   1      42.593  24.856  26.137  1.00  0.00    -0.269 OA
BRANCH  29  32
ATOM     32  C   UNL A   1      41.296  26.735  26.788  1.00  0.00     0.039 A 
ATOM     33  C   UNL A   1      40.780  27.909  26.160  1.00  0.00     0.014 A 
ATOM     34  C   UNL A   1      40.428  26.280  27.754  1.00  0.00     0.014 A 
ATOM     35  C   UNL A   1      40.107  28.897  26.960  1.00  0.00     0.010 A 
ATOM     36  C   UNL A   1      39.731  27.233  28.542  1.00  0.00     0.010 A 
ATOM     37  C   UNL A   1      39.826  28.609  28.292  1.00  0.00    -0.014 A 
BRANCH  37  38
ATOM     38  C   UNL A   1      39.715  29.636  29.403  1.00  0.00     0.031 A 
ATOM     39  C   UNL A   1      38.607  30.573  29.377  1.00  0.00     0.074 A 
ATOM     40  C   UNL A   1      40.453  29.803  30.548  1.00  0.00     0.049 A 
ATOM     41  N   UNL A   1      38.743  31.854  29.334  1.00  0.00    -0.248 NA
ATOM     42  C   UNL A   1      37.238  30.098  29.460  1.00  0.00     0.031 C 
ATOM     43  C   UNL A   1      40.366  30.757  31.676  1.00  0.00     0.029 A 
ATOM     44  N   UNL A   1      41.536  29.068  30.983  1.00  0.00    -0.354 N 
ATOM     45  C   UNL A   1      37.512  32.361  29.674  1.00  0.00     0.074 A 
ATOM     46  C   UNL A   1      36.583  31.256  29.539  1.00  0.00     0.031 C 
ATOM     47  C   UNL A   1      41.553  30.788  32.332  1.00  0.00     0.029 A 
ATOM     48  C   UNL A   1      42.445  29.873  31.654  1.00  0.00     0.049 A 
ATOM     49  H   UNL A   1      41.648  28.101  30.835  1.00  0.00     0.167 HD
ATOM     50  C   UNL A   1      37.401  33.568  30.300  1.00  0.00     0.037 A 
ATOM     51  C   UNL A   1      43.670  30.085  31.082  1.00  0.00     0.037 A 
ATOM     52  C   UNL A   1      38.708  34.026  30.794  1.00  0.00     0.049 A 
ATOM     53  C   UNL A   1      43.796  31.502  30.627  1.00  0.00     0.074 A 
ATOM     54  C   UNL A   1      39.255  34.027  32.070  1.00  0.00     0.029 A 
ATOM     55  N   UNL A   1      39.769  34.245  29.921  1.00  0.00    -0.354 N 
ATOM     56  N   UNL A   1      42.781  32.311  30.595  1.00  0.00    -0.248 NA
ATOM     57  C   UNL A   1      45.026  32.130  30.168  1.00  0.00     0.031 C 
ATOM     58  C   UNL A   1      40.657  34.190  31.954  1.00  0.00     0.029 A 
ATOM     59  C   UNL A   1      40.969  34.306  30.611  1.00  0.00     0.049 A 
ATOM     60  H   UNL A   1      39.680  34.344  28.946  1.00  0.00     0.167 HD
ATOM     61  C   UNL A   1      43.159  33.517  30.100  1.00  0.00     0.074 A 
ATOM     62  C   UNL A   1      44.587  33.369  29.879  1.00  0.00     0.031 C 
ATOM     63  C   UNL A   1      42.237  34.504  29.913  1.00  0.00     0.037 A 
BRANCH  50  64
ATOM     64  C   UNL A   1      36.076  34.129  30.780  1.00  0.00     0.058 A 
ATOM     65  C   UNL A   1      35.108  34.612  29.878  1.00  0.00     0.135 A 
ATOM     66  C   UNL A   1      35.684  34.170  32.137  1.00  0.00     0.135 A 
ATOM     67  F   UNL A   1      35.269  34.512  28.552  1.00  0.00    -0.206 F 
ATOM     68  C   UNL A   1      33.906  35.189  30.292  1.00  0.00     0.059 A 
ATOM     69  C   UNL A   1      34.522  34.805  32.580  1.00  0.00     0.059 A 
ATOM     70  F   UNL A   1      36.382  33.529  33.086  1.00  0.00    -0.206 F 
ATOM     71  C   UNL A   1      33.632  35.309  31.646  1.00  0.00     0.060 A 
BRANCH  71  72
ATOM     72  S   UNL A   1      32.069  36.042  32.158  1.00  0.00     0.124 S 
ATOM     73  O   UNL A   1      31.385  34.913  32.779  1.00  0.00    -0.237 OA
ATOM     74  O   UNL A   1      32.513  37.094  33.067  1.00  0.00    -0.237 OA
ATOM     75  O   UNL A   1      31.483  36.509  30.904  1.00  0.00    -0.744 OA
ENDBRANCH  71  72
ENDBRANCH  50  64
BRANCH  51  76
ATOM     76  C   UNL A   1      44.264  28.876  30.367  1.00  0.00     0.058 A 
ATOM     77  C   UNL A   1      44.547  29.147  29.024  1.00  0.00     0.135 A 
ATOM     78  C   UNL A   1      45.324  28.249  30.998  1.00  0.00     0.135 A 
ATOM     79  F   UNL A   1      43.558  29.210  28.127  1.00  0.00    -0.206 F 
ATOM     80  C   UNL A   1      45.819  29.573  28.652  1.00  0.00     0.059 A 
ATOM     81  C   UNL A   1      46.621  28.470  30.516  1.00  0.00     0.059 A 
ATOM     82  F   UNL A   1      45.141  27.527  32.115  1.00  0.00    -0.206 F 
ATOM     83  C   UNL A   1      46.871  29.426  29.547  1.00  0.00     0.060 A 
BRANCH  83  84
ATOM     84  S   UNL A   1      48.357  30.750  29.411  1.00  0.00     0.124 S 
ATOM     85  O   UNL A   1      49.370  29.898  28.800  1.00  0.00    -0.237 OA
ATOM     86  O   UNL A   1      47.954  31.790  28.468  1.00  0.00    -0.237 OA
ATOM     87  O   UNL A   1      48.681  31.237  30.727  1.00  0.00    -0.744 OA
ENDBRANCH  83  84
ENDBRANCH  51  76
BRANCH  63  88
ATOM     88  C   UNL A   1      42.477  35.783  29.163  1.00  0.00     0.058 A 
ATOM     89  C   UNL A   1      41.858  36.112  27.946  1.00  0.00     0.135 A 
ATOM     90  C   UNL A   1      43.286  36.796  29.731  1.00  0.00     0.135 A 
ATOM     91  F   UNL A   1      40.957  35.303  27.373  1.00  0.00    -0.206 F 
ATOM     92  C   UNL A   1      42.110  37.310  27.284  1.00  0.00     0.059 A 
ATOM     93  C   UNL A   1      43.492  38.028  29.124  1.00  0.00     0.059 A 
ATOM     94  F   UNL A   1      43.905  36.629  30.909  1.00  0.00    -0.206 F 
ATOM     95  C   UNL A   1      42.935  38.259  27.878  1.00  0.00     0.060 A 
BRANCH  95  96
ATOM     96  S   UNL A   1      43.254  39.808  27.025  1.00  0.00     0.124 S 
ATOM     97  O   UNL A   1      42.070  39.921  26.179  1.00  0.00    -0.237 OA
ATOM     98  O   UNL A   1      43.336  40.766  28.125  1.00  0.00    -0.237 OA
ATOM     99  O   UNL A   1      44.509  39.559  26.326  1.00  0.00    -0.744 OA
ENDBRANCH  95  96
ENDBRANCH  63  88
ENDBRANCH  37  38
ENDBRANCH  29  32
ENDBRANCH  27  28
ENDBRANCH   1  27
TORSDOF 16
ENDMDL
