MODEL 1
REMARK VINA RESULT:     -12.7      0.000      0.000
REMARK SMILES O=C(NCCCNC(=O)c1cccnc1Nc1cccc(C(F)(F)F)c1)c1ccc(-c2c3nc(c(-c4c(F)cc(S(=O)(=O)[O-])cc4F)c4ccc([nH]4)c(-c4c(F)cc(S(=O)(=O)[O-])cc4F)c4nc(c(-c5c(F)cc(S(=O)(=O)[O-])cc5F)c5ccc2[nH]5)C=C4)C=C3)cc1
REMARK SMILES IDX 5 1 4 2 3 3 1 4 2 5 27 7 28 8 92 9 29 10 91 11 30 12 31 13
REMARK SMILES IDX 32 14 85 15 33 16 90 17 84 18 86 19 34 20 89 21 83 22 82 23
REMARK SMILES IDX 35 25 69 26 48 27 68 28 49 29 52 30 67 31 87 32 50 33 51 34
REMARK SMILES IDX 66 36 88 37 53 38 36 39 37 40 46 41 38 42 39 43 45 44 47 45
REMARK SMILES IDX 40 46 41 47 42 48 43 49 44 50 70 51 71 52 80 53 72 54 73 55
REMARK SMILES IDX 79 56 81 57 74 58 75 59 76 60 77 61 78 62 54 63 55 64 64 65
REMARK SMILES IDX 56 66 57 67 63 68 65 69 58 70 59 71 60 72 61 73 62 74 6 75
REMARK SMILES IDX 7 76 8 77 9 79 10 80 11 81 15 82 12 83 14 84 13 85 16 86
REMARK SMILES IDX 17 88 18 89 26 90 19 91 21 92 20 93 22 94 23 95 24 96 25 97
REMARK H PARENT 3 6 86 24 52 35 7 78 16 87
REMARK Flexibility Score: inf
ROOT
ATOM      1  C   UNL A   1      34.258  30.726  27.664  1.00  0.00     0.042 C 
ENDROOT
BRANCH   1   2
ATOM      2  C   UNL A   1      35.549  31.179  28.332  1.00  0.00     0.118 C 
BRANCH   2   3
ATOM      3  N   UNL A   1      35.551  30.964  29.774  1.00  0.00    -0.352 N 
ATOM      4  O   UNL A   1      36.166  30.108  31.759  1.00  0.00    -0.269 OA
ATOM      5  C   UNL A   1      36.458  30.321  30.583  1.00  0.00     0.251 C 
ATOM      6  H   UNL A   1      34.775  31.342  30.247  1.00  0.00     0.163 HD
BRANCH   5   7
ATOM      7  C   UNL A   1      37.761  29.863  30.051  1.00  0.00     0.039 A 
ATOM      8  C   UNL A   1      38.730  29.315  30.892  1.00  0.00     0.014 A 
ATOM      9  C   UNL A   1      38.013  29.962  28.678  1.00  0.00     0.014 A 
ATOM     10  C   UNL A   1      40.002  29.050  30.402  1.00  0.00     0.010 A 
ATOM     11  C   UNL A   1      39.262  29.591  28.167  1.00  0.00     0.010 A 
ATOM     12  C   UNL A   1      40.286  29.176  29.032  1.00  0.00    -0.014 A 
BRANCH  12  13
ATOM     13  C   UNL A   1      41.647  28.831  28.541  1.00  0.00     0.031 A 
ATOM     14  C   UNL A   1      42.762  29.842  28.556  1.00  0.00     0.074 A 
ATOM     15  C   UNL A   1      41.888  27.568  28.132  1.00  0.00     0.049 A 
ATOM     16  N   UNL A   1      44.020  29.683  28.228  1.00  0.00    -0.248 NA
ATOM     17  C   UNL A   1      42.425  31.209  28.981  1.00  0.00     0.031 C 
ATOM     18  C   UNL A   1      40.884  26.503  28.056  1.00  0.00     0.029 A 
ATOM     19  N   UNL A   1      43.048  26.956  27.735  1.00  0.00    -0.354 N 
ATOM     20  C   UNL A   1      44.617  30.930  28.379  1.00  0.00     0.074 A 
ATOM     21  C   UNL A   1      43.578  31.842  28.807  1.00  0.00     0.031 C 
ATOM     22  C   UNL A   1      41.483  25.356  27.708  1.00  0.00     0.029 A 
ATOM     23  C   UNL A   1      42.899  25.614  27.474  1.00  0.00     0.049 A 
ATOM     24  H   UNL A   1      43.906  27.431  27.646  1.00  0.00     0.167 HD
ATOM     25  C   UNL A   1      45.912  31.281  28.184  1.00  0.00     0.037 A 
ATOM     26  C   UNL A   1      43.799  24.691  27.087  1.00  0.00     0.037 A 
ATOM     27  C   UNL A   1      46.949  30.362  27.788  1.00  0.00     0.049 A 
ATOM     28  C   UNL A   1      45.229  25.103  26.888  1.00  0.00     0.074 A 
ATOM     29  C   UNL A   1      48.300  30.610  27.613  1.00  0.00     0.029 A 
ATOM     30  N   UNL A   1      46.751  29.018  27.502  1.00  0.00    -0.354 N 
ATOM     31  N   UNL A   1      45.778  26.281  27.069  1.00  0.00    -0.248 NA
ATOM     32  C   UNL A   1      46.158  24.065  26.427  1.00  0.00     0.031 C 
ATOM     33  C   UNL A   1      48.912  29.427  27.184  1.00  0.00     0.029 A 
ATOM     34  C   UNL A   1      47.951  28.430  27.133  1.00  0.00     0.049 A 
ATOM     35  H   UNL A   1      45.887  28.551  27.554  1.00  0.00     0.167 HD
ATOM     36  C   UNL A   1      47.122  26.121  26.759  1.00  0.00     0.074 A 
ATOM     37  C   UNL A   1      47.305  24.730  26.396  1.00  0.00     0.031 C 
ATOM     38  C   UNL A   1      48.116  27.044  26.773  1.00  0.00     0.037 A 
BRANCH  25  39
ATOM     39  C   UNL A   1      46.281  32.727  28.377  1.00  0.00     0.058 A 
ATOM     40  C   UNL A   1      46.672  33.234  29.626  1.00  0.00     0.135 A 
ATOM     41  C   UNL A   1      46.273  33.613  27.286  1.00  0.00     0.135 A 
ATOM     42  F   UNL A   1      46.685  32.437  30.705  1.00  0.00    -0.206 F 
ATOM     43  C   UNL A   1      47.012  34.574  29.794  1.00  0.00     0.059 A 
ATOM     44  C   UNL A   1      46.632  34.950  27.426  1.00  0.00     0.059 A 
ATOM     45  F   UNL A   1      45.910  33.180  26.068  1.00  0.00    -0.206 F 
ATOM     46  C   UNL A   1      46.984  35.426  28.688  1.00  0.00     0.060 A 
BRANCH  46  47
ATOM     47  S   UNL A   1      47.413  37.164  28.922  1.00  0.00     0.124 S 
ATOM     48  O   UNL A   1      47.296  37.299  30.370  1.00  0.00    -0.237 OA
ATOM     49  O   UNL A   1      48.770  37.227  28.387  1.00  0.00    -0.237 OA
ATOM     50  O   UNL A   1      46.403  37.871  28.142  1.00  0.00    -0.744 OA
ENDBRANCH  46  47
ENDBRANCH  25  39
BRANCH  26  51
ATOM     51  C   UNL A   1      43.369  23.284  26.881  1.00  0.00     0.058 A 
ATOM     52  C   UNL A   1      43.193  22.765  25.590  1.00  0.00     0.135 A 
ATOM     53  C   UNL A   1      43.160  22.421  27.969  1.00  0.00     0.135 A 
ATOM     54  F   UNL A   1      43.378  23.552  24.520  1.00  0.00    -0.206 F 
ATOM     55  C   UNL A   1      42.816  21.442  25.383  1.00  0.00     0.059 A 
ATOM     56  C   UNL A   1      42.808  21.089  27.787  1.00  0.00     0.059 A 
ATOM     57  F   UNL A   1      43.334  22.867  29.224  1.00  0.00    -0.206 F 
ATOM     58  C   UNL A   1      42.629  20.611  26.489  1.00  0.00     0.060 A 
BRANCH  58  59
ATOM     59  S   UNL A   1      42.200  18.879  26.212  1.00  0.00     0.124 S 
ATOM     60  O   UNL A   1      43.189  18.488  25.216  1.00  0.00    -0.237 OA
ATOM     61  O   UNL A   1      42.371  18.302  27.542  1.00  0.00    -0.237 OA
ATOM     62  O   UNL A   1      40.820  18.948  25.741  1.00  0.00    -0.744 OA
ENDBRANCH  58  59
ENDBRANCH  26  51
BRANCH  38  63
ATOM     63  C   UNL A   1      49.494  26.567  26.411  1.00  0.00     0.058 A 
ATOM     64  C   UNL A   1      50.341  25.974  27.360  1.00  0.00     0.135 A 
ATOM     65  C   UNL A   1      49.964  26.686  25.094  1.00  0.00     0.135 A 
ATOM     66  F   UNL A   1      49.942  25.845  28.635  1.00  0.00    -0.206 F 
ATOM     67  C   UNL A   1      51.619  25.543  27.023  1.00  0.00     0.059 A 
ATOM     68  C   UNL A   1      51.228  26.239  24.728  1.00  0.00     0.059 A 
ATOM     69  F   UNL A   1      49.188  27.237  24.146  1.00  0.00    -0.206 F 
ATOM     70  C   UNL A   1      52.056  25.683  25.703  1.00  0.00     0.060 A 
BRANCH  70  71
ATOM     71  S   UNL A   1      53.712  25.109  25.270  1.00  0.00     0.124 S 
ATOM     72  O   UNL A   1      53.531  23.662  25.275  1.00  0.00    -0.237 OA
ATOM     73  O   UNL A   1      53.923  25.717  23.959  1.00  0.00    -0.237 OA
ATOM     74  O   UNL A   1      54.546  25.644  26.342  1.00  0.00    -0.744 OA
ENDBRANCH  70  71
ENDBRANCH  38  63
ENDBRANCH  12  13
ENDBRANCH   5   7
ENDBRANCH   2   3
ENDBRANCH   1   2
BRANCH   1  75
ATOM     75  C   UNL A   1      34.250  29.256  27.260  1.00  0.00     0.118 C 
BRANCH  75  76
ATOM     76  N   UNL A   1      33.001  28.597  27.619  1.00  0.00    -0.352 N 
ATOM     77  C   UNL A   1      32.259  27.675  26.925  1.00  0.00     0.255 C 
ATOM     78  H   UNL A   1      32.633  28.851  28.496  1.00  0.00     0.163 HD
ATOM     79  O   UNL A   1      31.091  27.471  27.256  1.00  0.00    -0.269 OA
BRANCH  77  80
ATOM     80  C   UNL A   1      32.832  26.921  25.793  1.00  0.00     0.082 A 
ATOM     81  C   UNL A   1      33.481  25.700  26.023  1.00  0.00     0.019 A 
ATOM     82  C   UNL A   1      32.639  27.356  24.474  1.00  0.00     0.143 A 
ATOM     83  C   UNL A   1      34.028  25.001  24.955  1.00  0.00     0.021 A 
ATOM     84  N   UNL A   1      33.176  26.659  23.435  1.00  0.00    -0.238 NA
ATOM     85  C   UNL A   1      33.862  25.526  23.691  1.00  0.00     0.113 A 
BRANCH  82  86
ATOM     86  N   UNL A   1      31.964  28.560  24.189  1.00  0.00    -0.340 N 
ATOM     87  H   UNL A   1      32.503  29.383  24.238  1.00  0.00     0.168 HD
BRANCH  86  88
ATOM     88  C   UNL A   1      30.610  28.720  23.846  1.00  0.00     0.040 A 
ATOM     89  C   UNL A   1      29.802  27.593  23.675  1.00  0.00     0.026 A 
ATOM     90  C   UNL A   1      30.062  29.983  23.594  1.00  0.00     0.039 A 
ATOM     91  C   UNL A   1      28.457  27.727  23.320  1.00  0.00     0.003 A 
ATOM     92  C   UNL A   1      28.721  30.135  23.210  1.00  0.00     0.058 A 
ATOM     93  C   UNL A   1      27.918  28.992  23.091  1.00  0.00     0.013 A 
BRANCH  92  94
ATOM     94  C   UNL A   1      28.148  31.501  22.937  1.00  0.00     0.416 C 
ATOM     95  F   UNL A   1      27.129  31.817  23.789  1.00  0.00    -0.166 F 
ATOM     96  F   UNL A   1      29.066  32.498  23.080  1.00  0.00    -0.166 F 
ATOM     97  F   UNL A   1      27.632  31.648  21.684  1.00  0.00    -0.166 F 
ENDBRANCH  92  94
ENDBRANCH  86  88
ENDBRANCH  82  86
ENDBRANCH  77  80
ENDBRANCH  75  76
ENDBRANCH   1  75
TORSDOF 16
ENDMDL
MODEL 2
REMARK VINA RESULT:     -12.7      7.145     12.719
REMARK SMILES O=C(NCCCNC(=O)c1cccnc1Nc1cccc(C(F)(F)F)c1)c1ccc(-c2c3nc(c(-c4c(F)cc(S(=O)(=O)[O-])cc4F)c4ccc([nH]4)c(-c4c(F)cc(S(=O)(=O)[O-])cc4F)c4nc(c(-c5c(F)cc(S(=O)(=O)[O-])cc5F)c5ccc2[nH]5)C=C4)C=C3)cc1
REMARK SMILES IDX 5 1 4 2 3 3 1 4 2 5 27 7 28 8 92 9 29 10 91 11 30 12 31 13
REMARK SMILES IDX 32 14 85 15 33 16 90 17 84 18 86 19 34 20 89 21 83 22 82 23
REMARK SMILES IDX 35 25 69 26 48 27 68 28 49 29 52 30 67 31 87 32 50 33 51 34
REMARK SMILES IDX 66 36 88 37 53 38 36 39 37 40 46 41 38 42 39 43 45 44 47 45
REMARK SMILES IDX 40 46 41 47 42 48 43 49 44 50 70 51 71 52 80 53 72 54 73 55
REMARK SMILES IDX 79 56 81 57 74 58 75 59 76 60 77 61 78 62 54 63 55 64 64 65
REMARK SMILES IDX 56 66 57 67 63 68 65 69 58 70 59 71 60 72 61 73 62 74 6 75
REMARK SMILES IDX 7 76 8 77 9 79 10 80 11 81 15 82 12 83 14 84 13 85 16 86
REMARK SMILES IDX 17 88 18 89 26 90 19 91 21 92 20 93 22 94 23 95 24 96 25 97
REMARK H PARENT 3 6 86 24 52 35 7 78 16 87
REMARK Flexibility Score: inf
ROOT
ATOM      1  C   UNL A   1      38.973  22.630  26.262  1.00  0.00     0.042 C 
ENDROOT
BRANCH   1   2
ATOM      2  C   UNL A   1      40.110  23.361  26.963  1.00  0.00     0.118 C 
BRANCH   2   3
ATOM      3  N   UNL A   1      40.986  24.072  26.039  1.00  0.00    -0.352 N 
ATOM      4  O   UNL A   1      42.011  25.809  25.048  1.00  0.00    -0.269 OA
ATOM      5  C   UNL A   1      41.408  25.381  26.030  1.00  0.00     0.251 C 
ATOM      6  H   UNL A   1      41.334  23.524  25.300  1.00  0.00     0.163 HD
BRANCH   5   7
ATOM      7  C   UNL A   1      41.121  26.280  27.171  1.00  0.00     0.039 A 
ATOM      8  C   UNL A   1      41.818  27.476  27.337  1.00  0.00     0.014 A 
ATOM      9  C   UNL A   1      40.120  25.930  28.084  1.00  0.00     0.014 A 
ATOM     10  C   UNL A   1      41.654  28.218  28.499  1.00  0.00     0.010 A 
ATOM     11  C   UNL A   1      39.879  26.738  29.202  1.00  0.00     0.010 A 
ATOM     12  C   UNL A   1      40.677  27.865  29.445  1.00  0.00    -0.014 A 
BRANCH  12  13
ATOM     13  C   UNL A   1      40.498  28.717  30.651  1.00  0.00     0.031 A 
ATOM     14  C   UNL A   1      41.414  28.592  31.839  1.00  0.00     0.074 A 
ATOM     15  C   UNL A   1      39.529  29.655  30.644  1.00  0.00     0.049 A 
ATOM     16  N   UNL A   1      41.437  29.303  32.939  1.00  0.00    -0.248 NA
ATOM     17  C   UNL A   1      42.427  27.527  31.798  1.00  0.00     0.031 C 
ATOM     18  C   UNL A   1      38.567  29.862  29.557  1.00  0.00     0.029 A 
ATOM     19  N   UNL A   1      39.209  30.627  31.556  1.00  0.00    -0.354 N 
ATOM     20  C   UNL A   1      42.442  28.757  33.729  1.00  0.00     0.074 A 
ATOM     21  C   UNL A   1      42.993  27.639  32.993  1.00  0.00     0.031 C 
ATOM     22  C   UNL A   1      37.815  30.937  29.833  1.00  0.00     0.029 A 
ATOM     23  C   UNL A   1      38.195  31.458  31.141  1.00  0.00     0.049 A 
ATOM     24  H   UNL A   1      39.663  30.722  32.425  1.00  0.00     0.167 HD
ATOM     25  C   UNL A   1      42.871  29.154  34.952  1.00  0.00     0.037 A 
ATOM     26  C   UNL A   1      37.629  32.520  31.744  1.00  0.00     0.037 A 
ATOM     27  C   UNL A   1      42.339  30.287  35.668  1.00  0.00     0.049 A 
ATOM     28  C   UNL A   1      38.128  32.945  33.095  1.00  0.00     0.074 A 
ATOM     29  C   UNL A   1      42.740  30.800  36.890  1.00  0.00     0.029 A 
ATOM     30  N   UNL A   1      41.291  31.083  35.227  1.00  0.00    -0.354 N 
ATOM     31  N   UNL A   1      39.103  32.435  33.808  1.00  0.00    -0.248 NA
ATOM     32  C   UNL A   1      37.448  34.084  33.722  1.00  0.00     0.031 C 
ATOM     33  C   UNL A   1      41.909  31.880  37.208  1.00  0.00     0.029 A 
ATOM     34  C   UNL A   1      41.018  32.069  36.163  1.00  0.00     0.049 A 
ATOM     35  H   UNL A   1      40.812  30.965  34.376  1.00  0.00     0.167 HD
ATOM     36  C   UNL A   1      39.163  33.202  34.965  1.00  0.00     0.074 A 
ATOM     37  C   UNL A   1      38.139  34.220  34.845  1.00  0.00     0.031 C 
ATOM     38  C   UNL A   1      39.994  33.074  36.030  1.00  0.00     0.037 A 
BRANCH  25  39
ATOM     39  C   UNL A   1      43.957  28.346  35.610  1.00  0.00     0.058 A 
ATOM     40  C   UNL A   1      45.317  28.598  35.373  1.00  0.00     0.135 A 
ATOM     41  C   UNL A   1      43.630  27.323  36.515  1.00  0.00     0.135 A 
ATOM     42  F   UNL A   1      45.687  29.555  34.507  1.00  0.00    -0.206 F 
ATOM     43  C   UNL A   1      46.315  27.844  35.986  1.00  0.00     0.059 A 
ATOM     44  C   UNL A   1      44.611  26.573  37.157  1.00  0.00     0.059 A 
ATOM     45  F   UNL A   1      42.345  27.041  36.780  1.00  0.00    -0.206 F 
ATOM     46  C   UNL A   1      45.951  26.830  36.873  1.00  0.00     0.060 A 
BRANCH  46  47
ATOM     47  S   UNL A   1      47.254  25.850  37.650  1.00  0.00     0.124 S 
ATOM     48  O   UNL A   1      47.911  25.266  36.486  1.00  0.00    -0.237 OA
ATOM     49  O   UNL A   1      48.022  26.863  38.369  1.00  0.00    -0.237 OA
ATOM     50  O   UNL A   1      46.518  24.913  38.492  1.00  0.00    -0.744 OA
ENDBRANCH  46  47
ENDBRANCH  25  39
BRANCH  26  51
ATOM     51  C   UNL A   1      36.537  33.260  31.060  1.00  0.00     0.058 A 
ATOM     52  C   UNL A   1      36.808  34.102  29.972  1.00  0.00     0.135 A 
ATOM     53  C   UNL A   1      35.199  33.113  31.459  1.00  0.00     0.135 A 
ATOM     54  F   UNL A   1      38.071  34.276  29.557  1.00  0.00    -0.206 F 
ATOM     55  C   UNL A   1      35.792  34.781  29.307  1.00  0.00     0.059 A 
ATOM     56  C   UNL A   1      34.164  33.761  30.795  1.00  0.00     0.059 A 
ATOM     57  F   UNL A   1      34.887  32.305  32.485  1.00  0.00    -0.206 F 
ATOM     58  C   UNL A   1      34.472  34.600  29.724  1.00  0.00     0.060 A 
BRANCH  58  59
ATOM     59  S   UNL A   1      33.152  35.435  28.818  1.00  0.00     0.124 S 
ATOM     60  O   UNL A   1      33.907  36.379  28.004  1.00  0.00    -0.237 OA
ATOM     61  O   UNL A   1      32.525  34.330  28.098  1.00  0.00    -0.237 OA
ATOM     62  O   UNL A   1      32.339  36.023  29.878  1.00  0.00    -0.744 OA
ENDBRANCH  58  59
ENDBRANCH  26  51
BRANCH  38  63
ATOM     63  C   UNL A   1      39.842  34.079  37.136  1.00  0.00     0.058 A 
ATOM     64  C   UNL A   1      40.397  35.366  37.043  1.00  0.00     0.135 A 
ATOM     65  C   UNL A   1      39.114  33.759  38.293  1.00  0.00     0.135 A 
ATOM     66  F   UNL A   1      41.109  35.718  35.961  1.00  0.00    -0.206 F 
ATOM     67  C   UNL A   1      40.262  36.290  38.074  1.00  0.00     0.059 A 
ATOM     68  C   UNL A   1      38.945  34.675  39.325  1.00  0.00     0.059 A 
ATOM     69  F   UNL A   1      38.555  32.545  38.425  1.00  0.00    -0.206 F 
ATOM     70  C   UNL A   1      39.537  35.933  39.214  1.00  0.00     0.060 A 
BRANCH  70  71
ATOM     71  S   UNL A   1      39.355  37.143  40.542  1.00  0.00     0.124 S 
ATOM     72  O   UNL A   1      40.742  37.341  40.949  1.00  0.00    -0.237 OA
ATOM     73  O   UNL A   1      38.728  38.270  39.858  1.00  0.00    -0.237 OA
ATOM     74  O   UNL A   1      38.506  36.456  41.510  1.00  0.00    -0.744 OA
ENDBRANCH  70  71
ENDBRANCH  38  63
ENDBRANCH  12  13
ENDBRANCH   5   7
ENDBRANCH   2   3
ENDBRANCH   1   2
BRANCH   1  75
ATOM     75  C   UNL A   1      37.749  23.497  25.994  1.00  0.00     0.118 C 
BRANCH  75  76
ATOM     76  N   UNL A   1      37.340  23.451  24.596  1.00  0.00    -0.352 N 
ATOM     77  C   UNL A   1      36.085  23.420  24.044  1.00  0.00     0.255 C 
ATOM     78  H   UNL A   1      38.080  23.440  23.947  1.00  0.00     0.163 HD
ATOM     79  O   UNL A   1      35.952  23.076  22.870  1.00  0.00    -0.269 OA
BRANCH  77  80
ATOM     80  C   UNL A   1      34.891  23.797  24.827  1.00  0.00     0.082 A 
ATOM     81  C   UNL A   1      34.496  25.139  24.900  1.00  0.00     0.019 A 
ATOM     82  C   UNL A   1      34.081  22.812  25.411  1.00  0.00     0.143 A 
ATOM     83  C   UNL A   1      33.379  25.487  25.647  1.00  0.00     0.021 A 
ATOM     84  N   UNL A   1      32.985  23.166  26.137  1.00  0.00    -0.238 NA
ATOM     85  C   UNL A   1      32.670  24.473  26.253  1.00  0.00     0.113 A 
BRANCH  82  86
ATOM     86  N   UNL A   1      34.417  21.445  25.338  1.00  0.00    -0.340 N 
ATOM     87  H   UNL A   1      35.166  21.150  25.905  1.00  0.00     0.168 HD
BRANCH  86  88
ATOM     88  C   UNL A   1      33.807  20.456  24.546  1.00  0.00     0.040 A 
ATOM     89  C   UNL A   1      32.752  20.803  23.697  1.00  0.00     0.026 A 
ATOM     90  C   UNL A   1      34.178  19.109  24.640  1.00  0.00     0.039 A 
ATOM     91  C   UNL A   1      32.122  19.835  22.912  1.00  0.00     0.003 A 
ATOM     92  C   UNL A   1      33.538  18.120  23.880  1.00  0.00     0.058 A 
ATOM     93  C   UNL A   1      32.514  18.499  23.000  1.00  0.00     0.013 A 
BRANCH  92  94
ATOM     94  C   UNL A   1      33.945  16.675  23.997  1.00  0.00     0.416 C 
ATOM     95  F   UNL A   1      32.923  15.880  24.429  1.00  0.00    -0.166 F 
ATOM     96  F   UNL A   1      34.346  16.141  22.809  1.00  0.00    -0.166 F 
ATOM     97  F   UNL A   1      34.970  16.454  24.868  1.00  0.00    -0.166 F 
ENDBRANCH  92  94
ENDBRANCH  86  88
ENDBRANCH  82  86
ENDBRANCH  77  80
ENDBRANCH  75  76
ENDBRANCH   1  75
TORSDOF 16
ENDMDL
MODEL 3
REMARK VINA RESULT:     -12.5      4.360      9.915
REMARK SMILES O=C(NCCCNC(=O)c1cccnc1Nc1cccc(C(F)(F)F)c1)c1ccc(-c2c3nc(c(-c4c(F)cc(S(=O)(=O)[O-])cc4F)c4ccc([nH]4)c(-c4c(F)cc(S(=O)(=O)[O-])cc4F)c4nc(c(-c5c(F)cc(S(=O)(=O)[O-])cc5F)c5ccc2[nH]5)C=C4)C=C3)cc1
REMARK SMILES IDX 5 1 4 2 3 3 1 4 2 5 27 7 28 8 92 9 29 10 91 11 30 12 31 13
REMARK SMILES IDX 32 14 85 15 33 16 90 17 84 18 86 19 34 20 89 21 83 22 82 23
REMARK SMILES IDX 35 25 69 26 48 27 68 28 49 29 52 30 67 31 87 32 50 33 51 34
REMARK SMILES IDX 66 36 88 37 53 38 36 39 37 40 46 41 38 42 39 43 45 44 47 45
REMARK SMILES IDX 40 46 41 47 42 48 43 49 44 50 70 51 71 52 80 53 72 54 73 55
REMARK SMILES IDX 79 56 81 57 74 58 75 59 76 60 77 61 78 62 54 63 55 64 64 65
REMARK SMILES IDX 56 66 57 67 63 68 65 69 58 70 59 71 60 72 61 73 62 74 6 75
REMARK SMILES IDX 7 76 8 77 9 79 10 80 11 81 15 82 12 83 14 84 13 85 16 86
REMARK SMILES IDX 17 88 18 89 26 90 19 91 21 92 20 93 22 94 23 95 24 96 25 97
REMARK H PARENT 3 6 86 24 52 35 7 78 16 87
REMARK Flexibility Score: inf
ROOT
ATOM      1  C   UNL A   1      33.687  27.148  25.042  1.00  0.00     0.042 C 
ENDROOT
BRANCH   1   2
ATOM      2  C   UNL A   1      33.986  27.521  26.487  1.00  0.00     0.118 C 
BRANCH   2   3
ATOM      3  N   UNL A   1      33.562  28.874  26.826  1.00  0.00    -0.352 N 
ATOM      4  O   UNL A   1      33.584  30.879  27.840  1.00  0.00    -0.269 OA
ATOM      5  C   UNL A   1      34.208  29.869  27.521  1.00  0.00     0.251 C 
ATOM      6  H   UNL A   1      32.664  29.115  26.504  1.00  0.00     0.163 HD
BRANCH   5   7
ATOM      7  C   UNL A   1      35.629  29.725  27.910  1.00  0.00     0.039 A 
ATOM      8  C   UNL A   1      36.654  29.992  27.002  1.00  0.00     0.014 A 
ATOM      9  C   UNL A   1      35.946  29.335  29.216  1.00  0.00     0.014 A 
ATOM     10  C   UNL A   1      37.968  29.688  27.333  1.00  0.00     0.010 A 
ATOM     11  C   UNL A   1      37.282  29.135  29.582  1.00  0.00     0.010 A 
ATOM     12  C   UNL A   1      38.304  29.263  28.629  1.00  0.00    -0.014 A 
BRANCH  12  13
ATOM     13  C   UNL A   1      39.730  29.000  28.957  1.00  0.00     0.031 A 
ATOM     14  C   UNL A   1      40.389  27.698  28.588  1.00  0.00     0.074 A 
ATOM     15  C   UNL A   1      40.452  29.977  29.544  1.00  0.00     0.049 A 
ATOM     16  N   UNL A   1      41.639  27.336  28.740  1.00  0.00    -0.248 NA
ATOM     17  C   UNL A   1      39.539  26.662  27.982  1.00  0.00     0.031 C 
ATOM     18  C   UNL A   1      39.921  31.277  29.965  1.00  0.00     0.029 A 
ATOM     19  N   UNL A   1      41.784  30.048  29.860  1.00  0.00    -0.354 N 
ATOM     20  C   UNL A   1      41.720  26.028  28.276  1.00  0.00     0.074 A 
ATOM     21  C   UNL A   1      40.387  25.649  27.858  1.00  0.00     0.031 C 
ATOM     22  C   UNL A   1      40.927  32.039  30.416  1.00  0.00     0.029 A 
ATOM     23  C   UNL A   1      42.161  31.264  30.377  1.00  0.00     0.049 A 
ATOM     24  H   UNL A   1      42.410  29.299  29.728  1.00  0.00     0.167 HD
ATOM     25  C   UNL A   1      42.805  25.219  28.201  1.00  0.00     0.037 A 
ATOM     26  C   UNL A   1      43.366  31.710  30.780  1.00  0.00     0.037 A 
ATOM     27  C   UNL A   1      44.136  25.612  28.591  1.00  0.00     0.049 A 
ATOM     28  C   UNL A   1      44.554  30.798  30.678  1.00  0.00     0.074 A 
ATOM     29  C   UNL A   1      45.310  24.882  28.507  1.00  0.00     0.029 A 
ATOM     30  N   UNL A   1      44.471  26.842  29.141  1.00  0.00    -0.354 N 
ATOM     31  N   UNL A   1      44.614  29.576  30.205  1.00  0.00    -0.248 NA
ATOM     32  C   UNL A   1      45.834  31.322  31.168  1.00  0.00     0.031 C 
ATOM     33  C   UNL A   1      46.347  25.654  29.041  1.00  0.00     0.029 A 
ATOM     34  C   UNL A   1      45.828  26.882  29.419  1.00  0.00     0.049 A 
ATOM     35  H   UNL A   1      43.838  27.576  29.308  1.00  0.00     0.167 HD
ATOM     36  C   UNL A   1      45.942  29.190  30.326  1.00  0.00     0.074 A 
ATOM     37  C   UNL A   1      46.653  30.314  30.901  1.00  0.00     0.031 C 
ATOM     38  C   UNL A   1      46.521  28.009  29.992  1.00  0.00     0.037 A 
BRANCH  25  39
ATOM     39  C   UNL A   1      42.599  23.816  27.696  1.00  0.00     0.058 A 
ATOM     40  C   UNL A   1      42.433  22.730  28.569  1.00  0.00     0.135 A 
ATOM     41  C   UNL A   1      42.536  23.561  26.316  1.00  0.00     0.135 A 
ATOM     42  F   UNL A   1      42.498  22.913  29.897  1.00  0.00    -0.206 F 
ATOM     43  C   UNL A   1      42.244  21.435  28.092  1.00  0.00     0.059 A 
ATOM     44  C   UNL A   1      42.323  22.279  25.818  1.00  0.00     0.059 A 
ATOM     45  F   UNL A   1      42.685  24.564  25.437  1.00  0.00    -0.206 F 
ATOM     46  C   UNL A   1      42.195  21.220  26.714  1.00  0.00     0.060 A 
BRANCH  46  47
ATOM     47  S   UNL A   1      41.963  19.534  26.108  1.00  0.00     0.124 S 
ATOM     48  O   UNL A   1      42.431  18.750  27.246  1.00  0.00    -0.237 OA
ATOM     49  O   UNL A   1      40.527  19.487  25.854  1.00  0.00    -0.237 OA
ATOM     50  O   UNL A   1      42.808  19.481  24.919  1.00  0.00    -0.744 OA
ENDBRANCH  46  47
ENDBRANCH  25  39
BRANCH  26  51
ATOM     51  C   UNL A   1      43.503  33.095  31.300  1.00  0.00     0.058 A 
ATOM     52  C   UNL A   1      43.447  33.358  32.676  1.00  0.00     0.135 A 
ATOM     53  C   UNL A   1      43.728  34.177  30.434  1.00  0.00     0.135 A 
ATOM     54  F   UNL A   1      43.231  32.356  33.542  1.00  0.00    -0.206 F 
ATOM     55  C   UNL A   1      43.600  34.646  33.177  1.00  0.00     0.059 A 
ATOM     56  C   UNL A   1      43.909  35.469  30.912  1.00  0.00     0.059 A 
ATOM     57  F   UNL A   1      43.808  33.973  29.109  1.00  0.00    -0.206 F 
ATOM     58  C   UNL A   1      43.834  35.696  32.287  1.00  0.00     0.060 A 
BRANCH  58  59
ATOM     59  S   UNL A   1      44.093  37.356  32.948  1.00  0.00     0.124 S 
ATOM     60  O   UNL A   1      45.385  37.211  33.605  1.00  0.00    -0.237 OA
ATOM     61  O   UNL A   1      44.079  38.175  31.739  1.00  0.00    -0.237 OA
ATOM     62  O   UNL A   1      42.949  37.544  33.835  1.00  0.00    -0.744 OA
ENDBRANCH  58  59
ENDBRANCH  26  51
BRANCH  38  63
ATOM     63  C   UNL A   1      48.002  27.889  30.216  1.00  0.00     0.058 A 
ATOM     64  C   UNL A   1      48.528  27.449  31.441  1.00  0.00     0.135 A 
ATOM     65  C   UNL A   1      48.904  28.198  29.187  1.00  0.00     0.135 A 
ATOM     66  F   UNL A   1      47.707  27.150  32.461  1.00  0.00    -0.206 F 
ATOM     67  C   UNL A   1      49.899  27.350  31.648  1.00  0.00     0.059 A 
ATOM     68  C   UNL A   1      50.278  28.082  29.362  1.00  0.00     0.059 A 
ATOM     69  F   UNL A   1      48.451  28.614  27.993  1.00  0.00    -0.206 F 
ATOM     70  C   UNL A   1      50.768  27.672  30.602  1.00  0.00     0.060 A 
BRANCH  70  71
ATOM     71  S   UNL A   1      52.547  27.527  30.874  1.00  0.00     0.124 S 
ATOM     72  O   UNL A   1      52.709  26.082  30.991  1.00  0.00    -0.237 OA
ATOM     73  O   UNL A   1      53.100  28.130  29.665  1.00  0.00    -0.237 OA
ATOM     74  O   UNL A   1      52.763  28.288  32.101  1.00  0.00    -0.744 OA
ENDBRANCH  70  71
ENDBRANCH  38  63
ENDBRANCH  12  13
ENDBRANCH   5   7
ENDBRANCH   2   3
ENDBRANCH   1   2
BRANCH   1  75
ATOM     75  C   UNL A   1      33.617  25.646  24.789  1.00  0.00     0.118 C 
BRANCH  75  76
ATOM     76  N   UNL A   1      33.257  24.905  25.991  1.00  0.00    -0.352 N 
ATOM     77  C   UNL A   1      33.791  23.753  26.510  1.00  0.00     0.255 C 
ATOM     78  H   UNL A   1      32.516  25.292  26.512  1.00  0.00     0.163 HD
ATOM     79  O   UNL A   1      33.156  23.124  27.356  1.00  0.00    -0.269 OA
BRANCH  77  80
ATOM     80  C   UNL A   1      35.112  23.255  26.079  1.00  0.00     0.082 A 
ATOM     81  C   UNL A   1      36.194  24.140  25.975  1.00  0.00     0.019 A 
ATOM     82  C   UNL A   1      35.327  21.885  25.876  1.00  0.00     0.143 A 
ATOM     83  C   UNL A   1      37.431  23.667  25.558  1.00  0.00     0.021 A 
ATOM     84  N   UNL A   1      36.546  21.432  25.473  1.00  0.00    -0.238 NA
ATOM     85  C   UNL A   1      37.551  22.317  25.308  1.00  0.00     0.113 A 
BRANCH  82  86
ATOM     86  N   UNL A   1      34.279  20.950  26.001  1.00  0.00    -0.340 N 
ATOM     87  H   UNL A   1      33.875  20.865  26.895  1.00  0.00     0.168 HD
BRANCH  86  88
ATOM     88  C   UNL A   1      33.745  20.126  24.994  1.00  0.00     0.040 A 
ATOM     89  C   UNL A   1      32.751  20.623  24.147  1.00  0.00     0.026 A 
ATOM     90  C   UNL A   1      34.130  18.786  24.864  1.00  0.00     0.039 A 
ATOM     91  C   UNL A   1      32.196  19.817  23.150  1.00  0.00     0.003 A 
ATOM     92  C   UNL A   1      33.564  17.954  23.886  1.00  0.00     0.058 A 
ATOM     93  C   UNL A   1      32.602  18.489  23.018  1.00  0.00     0.013 A 
BRANCH  92  94
ATOM     94  C   UNL A   1      33.986  16.514  23.762  1.00  0.00     0.416 C 
ATOM     95  F   UNL A   1      35.039  16.208  24.575  1.00  0.00    -0.166 F 
ATOM     96  F   UNL A   1      32.995  15.642  24.104  1.00  0.00    -0.166 F 
ATOM     97  F   UNL A   1      34.380  16.155  22.507  1.00  0.00    -0.166 F 
ENDBRANCH  92  94
ENDBRANCH  86  88
ENDBRANCH  82  86
ENDBRANCH  77  80
ENDBRANCH  75  76
ENDBRANCH   1  75
TORSDOF 16
ENDMDL
