MODEL 1
REMARK VINA RESULT:     -13.1      0.000      0.000
REMARK SMILES Cc1cc(=O)n2cc(-c3ccccc3)nc2n1[C@H](C)C(=O)NCCCNC(=O)c1ccc(-c2c3nc(c(-c4c(F)cc(S(=O)(=O)[O-])cc4F)c4ccc([nH]4)c(-c4c(F)cc(S(=O)(=O)[O-])cc4F)c4nc(c(-c5c(F)cc(S(=O)(=O)[O-])cc5F)c5ccc2[nH]5)C=C4)C=C3)cc1
REMARK SMILES IDX 24 1 23 2 22 3 20 4 21 5 18 7 19 8 17 9 1 10 2 11 3 12 4 13
REMARK SMILES IDX 16 14 5 15 6 16 15 17 7 18 8 19 9 20 10 21 14 22 11 23 13 24
REMARK SMILES IDX 12 25 25 26 26 27 27 28 28 30 29 31 30 32 94 33 31 34 93 35
REMARK SMILES IDX 32 36 33 37 34 38 87 39 35 40 92 41 86 42 88 43 36 44 91 45
REMARK SMILES IDX 85 46 84 47 37 49 71 50 50 51 70 52 51 53 54 54 69 55 89 56
REMARK SMILES IDX 52 57 53 58 68 60 90 61 55 62 38 63 39 64 48 65 40 66 41 67
REMARK SMILES IDX 47 68 49 69 42 70 43 71 44 72 45 73 46 74 72 75 73 76 82 77
REMARK SMILES IDX 74 78 75 79 81 80 83 81 76 82 77 83 78 84 79 85 80 86 56 87
REMARK SMILES IDX 57 88 66 89 58 90 59 91 65 92 67 93 60 94 61 95 62 96 63 97
REMARK SMILES IDX 64 98
REMARK H PARENT 22 6 26 29 88 48 54 59
REMARK Flexibility Score: inf
ROOT
ATOM      1  C   UNL A   1      37.346  22.578  25.022  1.00  0.00     0.042 C 
ENDROOT
BRANCH   1   2
ATOM      2  C   UNL A   1      35.972  22.287  25.575  1.00  0.00     0.117 C 
BRANCH   2   3
ATOM      3  N   UNL A   1      35.434  23.009  26.696  1.00  0.00    -0.354 N 
ATOM      4  C   UNL A   1      34.126  22.820  27.094  1.00  0.00     0.242 C 
ATOM      5  O   UNL A   1      33.865  22.919  28.299  1.00  0.00    -0.273 OA
ATOM      6  H   UNL A   1      36.006  23.644  27.185  1.00  0.00     0.163 HD
BRANCH   4   7
ATOM      7  C   UNL A   1      32.989  22.595  26.054  1.00  0.00     0.176 C 
ATOM      8  C   UNL A   1      31.574  22.465  26.621  1.00  0.00     0.042 C 
BRANCH   7   9
ATOM      9  N   UNL A   1      33.071  23.371  24.752  1.00  0.00    -0.303 N 
ATOM     10  C   UNL A   1      33.124  21.201  23.428  1.00  0.00     0.065 C 
ATOM     11  C   UNL A   1      33.170  22.709  23.502  1.00  0.00     0.024 A 
ATOM     12  C   UNL A   1      33.297  23.377  22.340  1.00  0.00     0.093 A 
ATOM     13  C   UNL A   1      33.369  24.850  22.311  1.00  0.00     0.259 A 
ATOM     14  C   UNL A   1      33.047  24.756  24.746  1.00  0.00     0.218 A 
ATOM     15  O   UNL A   1      33.503  25.515  21.308  1.00  0.00    -0.269 OA
ATOM     16  N   UNL A   1      33.248  25.443  23.559  1.00  0.00    -0.251 N 
ATOM     17  N   UNL A   1      32.839  25.633  25.699  1.00  0.00    -0.212 NA
ATOM     18  C   UNL A   1      33.323  26.791  23.848  1.00  0.00     0.127 A 
ATOM     19  C   UNL A   1      33.086  26.877  25.191  1.00  0.00     0.091 A 
BRANCH  19  20
ATOM     20  C   UNL A   1      33.206  28.072  25.994  1.00  0.00     0.002 A 
ATOM     21  C   UNL A   1      34.424  28.440  26.579  1.00  0.00     0.010 A 
ATOM     22  C   UNL A   1      32.088  28.905  26.138  1.00  0.00     0.010 A 
ATOM     23  C   UNL A   1      34.510  29.610  27.341  1.00  0.00     0.001 A 
ATOM     24  C   UNL A   1      32.174  30.061  26.909  1.00  0.00     0.001 A 
ATOM     25  C   UNL A   1      33.379  30.401  27.526  1.00  0.00     0.000 A 
ENDBRANCH  19  20
ENDBRANCH   7   9
ENDBRANCH   4   7
ENDBRANCH   2   3
ENDBRANCH   1   2
BRANCH   1  26
ATOM     26  C   UNL A   1      38.372  22.681  26.113  1.00  0.00     0.118 C 
BRANCH  26  27
ATOM     27  N   UNL A   1      39.681  22.062  25.810  1.00  0.00    -0.352 N 
ATOM     28  C   UNL A   1      40.939  22.585  26.089  1.00  0.00     0.251 C 
ATOM     29  H   UNL A   1      39.660  21.185  25.363  1.00  0.00     0.163 HD
ATOM     30  O   UNL A   1      41.997  22.201  25.616  1.00  0.00    -0.269 OA
BRANCH  28  31
ATOM     31  C   UNL A   1      41.016  23.657  27.053  1.00  0.00     0.039 A 
ATOM     32  C   UNL A   1      41.986  23.707  28.055  1.00  0.00     0.014 A 
ATOM     33  C   UNL A   1      40.153  24.699  26.812  1.00  0.00     0.014 A 
ATOM     34  C   UNL A   1      42.033  24.862  28.807  1.00  0.00     0.010 A 
ATOM     35  C   UNL A   1      40.689  25.890  27.103  1.00  0.00     0.010 A 
ATOM     36  C   UNL A   1      41.316  25.952  28.316  1.00  0.00    -0.014 A 
BRANCH  36  37
ATOM     37  C   UNL A   1      41.294  27.259  28.903  1.00  0.00     0.031 A 
ATOM     38  C   UNL A   1      42.436  28.056  28.447  1.00  0.00     0.074 A 
ATOM     39  C   UNL A   1      40.211  27.712  29.566  1.00  0.00     0.049 A 
ATOM     40  N   UNL A   1      43.594  28.086  29.012  1.00  0.00    -0.248 NA
ATOM     41  C   UNL A   1      42.435  28.558  27.062  1.00  0.00     0.031 C 
ATOM     42  C   UNL A   1      38.886  27.106  29.757  1.00  0.00     0.029 A 
ATOM     43  N   UNL A   1      40.080  28.912  30.178  1.00  0.00    -0.354 N 
ATOM     44  C   UNL A   1      44.346  28.921  28.209  1.00  0.00     0.074 A 
ATOM     45  C   UNL A   1      43.726  28.869  26.914  1.00  0.00     0.031 C 
ATOM     46  C   UNL A   1      38.027  28.037  30.235  1.00  0.00     0.029 A 
ATOM     47  C   UNL A   1      38.772  29.243  30.529  1.00  0.00     0.049 A 
ATOM     48  H   UNL A   1      40.846  29.503  30.361  1.00  0.00     0.167 HD
ATOM     49  C   UNL A   1      45.155  29.854  28.779  1.00  0.00     0.037 A 
ATOM     50  C   UNL A   1      38.402  30.481  30.947  1.00  0.00     0.037 A 
ATOM     51  C   UNL A   1      45.282  29.610  30.204  1.00  0.00     0.049 A 
ATOM     52  C   UNL A   1      39.666  31.124  31.457  1.00  0.00     0.074 A 
ATOM     53  C   UNL A   1      45.684  28.518  30.953  1.00  0.00     0.029 A 
ATOM     54  N   UNL A   1      44.508  30.379  31.050  1.00  0.00    -0.354 N 
ATOM     55  N   UNL A   1      40.343  30.654  32.480  1.00  0.00    -0.248 NA
ATOM     56  C   UNL A   1      40.461  31.886  30.498  1.00  0.00     0.031 C 
ATOM     57  C   UNL A   1      44.742  28.435  32.021  1.00  0.00     0.029 A 
ATOM     58  C   UNL A   1      43.889  29.539  31.946  1.00  0.00     0.049 A 
ATOM     59  H   UNL A   1      44.415  31.359  31.017  1.00  0.00     0.167 HD
ATOM     60  C   UNL A   1      41.681  30.699  32.093  1.00  0.00     0.074 A 
ATOM     61  C   UNL A   1      41.690  31.511  30.875  1.00  0.00     0.031 C 
ATOM     62  C   UNL A   1      42.613  29.821  32.585  1.00  0.00     0.037 A 
BRANCH  49  63
ATOM     63  C   UNL A   1      45.481  31.185  28.154  1.00  0.00     0.058 A 
ATOM     64  C   UNL A   1      44.417  32.040  27.817  1.00  0.00     0.135 A 
ATOM     65  C   UNL A   1      46.749  31.560  27.655  1.00  0.00     0.135 A 
ATOM     66  F   UNL A   1      43.169  31.780  28.240  1.00  0.00    -0.206 F 
ATOM     67  C   UNL A   1      44.585  33.143  26.982  1.00  0.00     0.059 A 
ATOM     68  C   UNL A   1      46.949  32.685  26.870  1.00  0.00     0.059 A 
ATOM     69  F   UNL A   1      47.848  30.816  27.813  1.00  0.00    -0.206 F 
ATOM     70  C   UNL A   1      45.856  33.449  26.505  1.00  0.00     0.060 A 
BRANCH  70  71
ATOM     71  S   UNL A   1      46.063  34.816  25.358  1.00  0.00     0.124 S 
ATOM     72  O   UNL A   1      45.158  34.430  24.282  1.00  0.00    -0.237 OA
ATOM     73  O   UNL A   1      45.645  35.952  26.173  1.00  0.00    -0.237 OA
ATOM     74  O   UNL A   1      47.486  34.772  25.035  1.00  0.00    -0.744 OA
ENDBRANCH  70  71
ENDBRANCH  49  63
BRANCH  50  75
ATOM     75  C   UNL A   1      37.197  31.231  30.487  1.00  0.00     0.058 A 
ATOM     76  C   UNL A   1      36.264  31.756  31.399  1.00  0.00     0.135 A 
ATOM     77  C   UNL A   1      37.057  31.669  29.150  1.00  0.00     0.135 A 
ATOM     78  F   UNL A   1      36.325  31.413  32.694  1.00  0.00    -0.206 F 
ATOM     79  C   UNL A   1      35.287  32.690  31.020  1.00  0.00     0.059 A 
ATOM     80  C   UNL A   1      36.089  32.588  28.749  1.00  0.00     0.059 A 
ATOM     81  F   UNL A   1      37.918  31.286  28.196  1.00  0.00    -0.206 F 
ATOM     82  C   UNL A   1      35.222  33.116  29.694  1.00  0.00     0.060 A 
BRANCH  82  83
ATOM     83  S   UNL A   1      34.079  34.439  29.224  1.00  0.00     0.124 S 
ATOM     84  O   UNL A   1      33.474  34.787  30.505  1.00  0.00    -0.237 OA
ATOM     85  O   UNL A   1      34.981  35.433  28.652  1.00  0.00    -0.237 OA
ATOM     86  O   UNL A   1      33.184  33.792  28.269  1.00  0.00    -0.744 OA
ENDBRANCH  82  83
ENDBRANCH  50  75
BRANCH  62  87
ATOM     87  C   UNL A   1      42.244  28.917  33.746  1.00  0.00     0.058 A 
ATOM     88  C   UNL A   1      41.456  27.754  33.644  1.00  0.00     0.135 A 
ATOM     89  C   UNL A   1      42.897  29.123  34.971  1.00  0.00     0.135 A 
ATOM     90  F   UNL A   1      40.877  27.417  32.486  1.00  0.00    -0.206 F 
ATOM     91  C   UNL A   1      41.303  26.860  34.712  1.00  0.00     0.059 A 
ATOM     92  C   UNL A   1      42.785  28.233  36.037  1.00  0.00     0.059 A 
ATOM     93  F   UNL A   1      43.718  30.175  35.123  1.00  0.00    -0.206 F 
ATOM     94  C   UNL A   1      41.977  27.108  35.905  1.00  0.00     0.060 A 
BRANCH  94  95
ATOM     95  S   UNL A   1      41.830  25.927  37.267  1.00  0.00     0.124 S 
ATOM     96  O   UNL A   1      42.823  26.423  38.214  1.00  0.00    -0.237 OA
ATOM     97  O   UNL A   1      40.435  26.081  37.671  1.00  0.00    -0.237 OA
ATOM     98  O   UNL A   1      42.152  24.644  36.643  1.00  0.00    -0.744 OA
ENDBRANCH  94  95
ENDBRANCH  62  87
ENDBRANCH  36  37
ENDBRANCH  28  31
ENDBRANCH  26  27
ENDBRANCH   1  26
TORSDOF 15
ENDMDL
MODEL 2
REMARK VINA RESULT:     -13.1      1.105      2.054
REMARK SMILES Cc1cc(=O)n2cc(-c3ccccc3)nc2n1[C@H](C)C(=O)NCCCNC(=O)c1ccc(-c2c3nc(c(-c4c(F)cc(S(=O)(=O)[O-])cc4F)c4ccc([nH]4)c(-c4c(F)cc(S(=O)(=O)[O-])cc4F)c4nc(c(-c5c(F)cc(S(=O)(=O)[O-])cc5F)c5ccc2[nH]5)C=C4)C=C3)cc1
REMARK SMILES IDX 24 1 23 2 22 3 20 4 21 5 18 7 19 8 17 9 1 10 2 11 3 12 4 13
REMARK SMILES IDX 16 14 5 15 6 16 15 17 7 18 8 19 9 20 10 21 14 22 11 23 13 24
REMARK SMILES IDX 12 25 25 26 26 27 27 28 28 30 29 31 30 32 94 33 31 34 93 35
REMARK SMILES IDX 32 36 33 37 34 38 87 39 35 40 92 41 86 42 88 43 36 44 91 45
REMARK SMILES IDX 85 46 84 47 37 49 71 50 50 51 70 52 51 53 54 54 69 55 89 56
REMARK SMILES IDX 52 57 53 58 68 60 90 61 55 62 38 63 39 64 48 65 40 66 41 67
REMARK SMILES IDX 47 68 49 69 42 70 43 71 44 72 45 73 46 74 72 75 73 76 82 77
REMARK SMILES IDX 74 78 75 79 81 80 83 81 76 82 77 83 78 84 79 85 80 86 56 87
REMARK SMILES IDX 57 88 66 89 58 90 59 91 65 92 67 93 60 94 61 95 62 96 63 97
REMARK SMILES IDX 64 98
REMARK H PARENT 22 6 26 29 88 48 54 59
REMARK Flexibility Score: inf
ROOT
ATOM      1  C   UNL A   1      36.660  22.541  24.895  1.00  0.00     0.042 C 
ENDROOT
BRANCH   1   2
ATOM      2  C   UNL A   1      35.380  22.146  25.590  1.00  0.00     0.117 C 
BRANCH   2   3
ATOM      3  N   UNL A   1      34.845  22.902  26.689  1.00  0.00    -0.354 N 
ATOM      4  C   UNL A   1      33.505  22.829  27.010  1.00  0.00     0.242 C 
ATOM      5  O   UNL A   1      33.185  22.939  28.199  1.00  0.00    -0.273 OA
ATOM      6  H   UNL A   1      35.443  23.479  27.219  1.00  0.00     0.163 HD
BRANCH   4   7
ATOM      7  C   UNL A   1      32.413  22.717  25.905  1.00  0.00     0.176 C 
ATOM      8  C   UNL A   1      30.962  22.725  26.389  1.00  0.00     0.042 C 
BRANCH   7   9
ATOM      9  N   UNL A   1      32.646  23.484  24.615  1.00  0.00    -0.303 N 
ATOM     10  C   UNL A   1      32.630  21.315  23.289  1.00  0.00     0.065 C 
ATOM     11  C   UNL A   1      32.784  22.815  23.373  1.00  0.00     0.024 A 
ATOM     12  C   UNL A   1      33.043  23.470  22.226  1.00  0.00     0.093 A 
ATOM     13  C   UNL A   1      33.227  24.934  22.208  1.00  0.00     0.259 A 
ATOM     14  C   UNL A   1      32.726  24.866  24.614  1.00  0.00     0.218 A 
ATOM     15  O   UNL A   1      33.482  25.585  21.220  1.00  0.00    -0.269 OA
ATOM     16  N   UNL A   1      33.063  25.536  23.447  1.00  0.00    -0.251 N 
ATOM     17  N   UNL A   1      32.518  25.758  25.553  1.00  0.00    -0.212 NA
ATOM     18  C   UNL A   1      33.217  26.874  23.746  1.00  0.00     0.127 A 
ATOM     19  C   UNL A   1      32.892  26.978  25.070  1.00  0.00     0.091 A 
BRANCH  19  20
ATOM     20  C   UNL A   1      33.044  28.162  25.884  1.00  0.00     0.002 A 
ATOM     21  C   UNL A   1      34.256  28.460  26.521  1.00  0.00     0.010 A 
ATOM     22  C   UNL A   1      31.969  29.054  25.988  1.00  0.00     0.010 A 
ATOM     23  C   UNL A   1      34.374  29.621  27.293  1.00  0.00     0.001 A 
ATOM     24  C   UNL A   1      32.086  30.201  26.769  1.00  0.00     0.001 A 
ATOM     25  C   UNL A   1      33.281  30.472  27.437  1.00  0.00     0.000 A 
ENDBRANCH  19  20
ENDBRANCH   7   9
ENDBRANCH   4   7
ENDBRANCH   2   3
ENDBRANCH   1   2
BRANCH   1  26
ATOM     26  C   UNL A   1      37.598  23.254  25.826  1.00  0.00     0.118 C 
BRANCH  26  27
ATOM     27  N   UNL A   1      38.589  22.392  26.508  1.00  0.00    -0.352 N 
ATOM     28  C   UNL A   1      39.780  22.795  27.100  1.00  0.00     0.251 C 
ATOM     29  H   UNL A   1      38.383  21.430  26.545  1.00  0.00     0.163 HD
ATOM     30  O   UNL A   1      40.702  22.064  27.427  1.00  0.00    -0.269 OA
BRANCH  28  31
ATOM     31  C   UNL A   1      39.937  24.200  27.395  1.00  0.00     0.039 A 
ATOM     32  C   UNL A   1      38.883  25.112  27.324  1.00  0.00     0.014 A 
ATOM     33  C   UNL A   1      41.171  24.539  27.895  1.00  0.00     0.014 A 
ATOM     34  C   UNL A   1      39.143  26.387  27.778  1.00  0.00     0.010 A 
ATOM     35  C   UNL A   1      41.103  25.488  28.836  1.00  0.00     0.010 A 
ATOM     36  C   UNL A   1      40.317  26.558  28.510  1.00  0.00    -0.014 A 
BRANCH  36  37
ATOM     37  C   UNL A   1      40.732  27.781  29.131  1.00  0.00     0.031 A 
ATOM     38  C   UNL A   1      41.844  28.390  28.396  1.00  0.00     0.074 A 
ATOM     39  C   UNL A   1      39.994  28.362  30.098  1.00  0.00     0.049 A 
ATOM     40  N   UNL A   1      43.093  28.145  28.600  1.00  0.00    -0.248 NA
ATOM     41  C   UNL A   1      41.565  29.017  27.092  1.00  0.00     0.031 C 
ATOM     42  C   UNL A   1      38.678  28.001  30.642  1.00  0.00     0.029 A 
ATOM     43  N   UNL A   1      40.291  29.498  30.771  1.00  0.00    -0.354 N 
ATOM     44  C   UNL A   1      43.750  28.899  27.649  1.00  0.00     0.074 A 
ATOM     45  C   UNL A   1      42.801  29.093  26.588  1.00  0.00     0.031 C 
ATOM     46  C   UNL A   1      38.198  29.025  31.386  1.00  0.00     0.029 A 
ATOM     47  C   UNL A   1      39.230  30.034  31.499  1.00  0.00     0.049 A 
ATOM     48  H   UNL A   1      41.183  29.914  30.746  1.00  0.00     0.167 HD
ATOM     49  C   UNL A   1      44.862  29.602  27.996  1.00  0.00     0.037 A 
ATOM     50  C   UNL A   1      39.258  31.272  32.057  1.00  0.00     0.037 A 
ATOM     51  C   UNL A   1      45.324  29.198  29.311  1.00  0.00     0.049 A 
ATOM     52  C   UNL A   1      40.718  31.611  32.203  1.00  0.00     0.074 A 
ATOM     53  C   UNL A   1      45.680  27.981  29.866  1.00  0.00     0.029 A 
ATOM     54  N   UNL A   1      44.992  30.012  30.377  1.00  0.00    -0.354 N 
ATOM     55  N   UNL A   1      41.538  30.923  32.966  1.00  0.00    -0.248 NA
ATOM     56  C   UNL A   1      41.359  32.301  31.087  1.00  0.00     0.031 C 
ATOM     57  C   UNL A   1      45.075  27.972  31.157  1.00  0.00     0.029 A 
ATOM     58  C   UNL A   1      44.484  29.218  31.378  1.00  0.00     0.049 A 
ATOM     59  H   UNL A   1      45.101  30.990  30.412  1.00  0.00     0.167 HD
ATOM     60  C   UNL A   1      42.696  30.754  32.208  1.00  0.00     0.074 A 
ATOM     61  C   UNL A   1      42.537  31.666  31.074  1.00  0.00     0.031 C 
ATOM     62  C   UNL A   1      43.523  29.671  32.372  1.00  0.00     0.037 A 
BRANCH  49  63
ATOM     63  C   UNL A   1      45.273  30.902  27.358  1.00  0.00     0.058 A 
ATOM     64  C   UNL A   1      46.587  31.019  26.871  1.00  0.00     0.135 A 
ATOM     65  C   UNL A   1      44.533  32.105  27.415  1.00  0.00     0.135 A 
ATOM     66  F   UNL A   1      47.379  29.938  26.773  1.00  0.00    -0.206 F 
ATOM     67  C   UNL A   1      47.150  32.249  26.538  1.00  0.00     0.059 A 
ATOM     68  C   UNL A   1      45.054  33.332  27.034  1.00  0.00     0.059 A 
ATOM     69  F   UNL A   1      43.301  32.184  27.929  1.00  0.00    -0.206 F 
ATOM     70  C   UNL A   1      46.376  33.401  26.635  1.00  0.00     0.060 A 
BRANCH  70  71
ATOM     71  S   UNL A   1      47.123  34.999  26.291  1.00  0.00     0.124 S 
ATOM     72  O   UNL A   1      47.885  34.707  25.082  1.00  0.00    -0.237 OA
ATOM     73  O   UNL A   1      45.947  35.846  26.121  1.00  0.00    -0.237 OA
ATOM     74  O   UNL A   1      47.914  35.264  27.488  1.00  0.00    -0.744 OA
ENDBRANCH  70  71
ENDBRANCH  49  63
BRANCH  50  75
ATOM     75  C   UNL A   1      38.157  32.278  31.999  1.00  0.00     0.058 A 
ATOM     76  C   UNL A   1      37.525  32.607  30.787  1.00  0.00     0.135 A 
ATOM     77  C   UNL A   1      37.527  32.761  33.168  1.00  0.00     0.135 A 
ATOM     78  F   UNL A   1      38.038  32.180  29.623  1.00  0.00    -0.206 F 
ATOM     79  C   UNL A   1      36.321  33.328  30.739  1.00  0.00     0.059 A 
ATOM     80  C   UNL A   1      36.337  33.487  33.145  1.00  0.00     0.059 A 
ATOM     81  F   UNL A   1      38.000  32.469  34.388  1.00  0.00    -0.206 F 
ATOM     82  C   UNL A   1      35.724  33.746  31.928  1.00  0.00     0.060 A 
BRANCH  82  83
ATOM     83  S   UNL A   1      34.093  34.529  31.893  1.00  0.00     0.124 S 
ATOM     84  O   UNL A   1      34.410  35.908  32.250  1.00  0.00    -0.237 OA
ATOM     85  O   UNL A   1      33.676  34.306  30.513  1.00  0.00    -0.237 OA
ATOM     86  O   UNL A   1      33.336  33.785  32.897  1.00  0.00    -0.744 OA
ENDBRANCH  82  83
ENDBRANCH  50  75
BRANCH  62  87
ATOM     87  C   UNL A   1      43.308  28.742  33.552  1.00  0.00     0.058 A 
ATOM     88  C   UNL A   1      43.741  28.998  34.868  1.00  0.00     0.135 A 
ATOM     89  C   UNL A   1      42.439  27.653  33.381  1.00  0.00     0.135 A 
ATOM     90  F   UNL A   1      44.488  30.072  35.149  1.00  0.00    -0.206 F 
ATOM     91  C   UNL A   1      43.355  28.196  35.950  1.00  0.00     0.059 A 
ATOM     92  C   UNL A   1      42.017  26.860  34.445  1.00  0.00     0.059 A 
ATOM     93  F   UNL A   1      41.932  27.387  32.166  1.00  0.00    -0.206 F 
ATOM     94  C   UNL A   1      42.486  27.129  35.727  1.00  0.00     0.060 A 
BRANCH  94  95
ATOM     95  S   UNL A   1      41.938  26.127  37.128  1.00  0.00     0.124 S 
ATOM     96  O   UNL A   1      40.673  26.761  37.485  1.00  0.00    -0.237 OA
ATOM     97  O   UNL A   1      41.836  24.793  36.543  1.00  0.00    -0.237 OA
ATOM     98  O   UNL A   1      43.013  26.289  38.106  1.00  0.00    -0.744 OA
ENDBRANCH  94  95
ENDBRANCH  62  87
ENDBRANCH  36  37
ENDBRANCH  28  31
ENDBRANCH  26  27
ENDBRANCH   1  26
TORSDOF 15
ENDMDL
MODEL 3
REMARK VINA RESULT:     -13.1      1.433      2.010
REMARK SMILES Cc1cc(=O)n2cc(-c3ccccc3)nc2n1[C@H](C)C(=O)NCCCNC(=O)c1ccc(-c2c3nc(c(-c4c(F)cc(S(=O)(=O)[O-])cc4F)c4ccc([nH]4)c(-c4c(F)cc(S(=O)(=O)[O-])cc4F)c4nc(c(-c5c(F)cc(S(=O)(=O)[O-])cc5F)c5ccc2[nH]5)C=C4)C=C3)cc1
REMARK SMILES IDX 24 1 23 2 22 3 20 4 21 5 18 7 19 8 17 9 1 10 2 11 3 12 4 13
REMARK SMILES IDX 16 14 5 15 6 16 15 17 7 18 8 19 9 20 10 21 14 22 11 23 13 24
REMARK SMILES IDX 12 25 25 26 26 27 27 28 28 30 29 31 30 32 94 33 31 34 93 35
REMARK SMILES IDX 32 36 33 37 34 38 87 39 35 40 92 41 86 42 88 43 36 44 91 45
REMARK SMILES IDX 85 46 84 47 37 49 71 50 50 51 70 52 51 53 54 54 69 55 89 56
REMARK SMILES IDX 52 57 53 58 68 60 90 61 55 62 38 63 39 64 48 65 40 66 41 67
REMARK SMILES IDX 47 68 49 69 42 70 43 71 44 72 45 73 46 74 72 75 73 76 82 77
REMARK SMILES IDX 74 78 75 79 81 80 83 81 76 82 77 83 78 84 79 85 80 86 56 87
REMARK SMILES IDX 57 88 66 89 58 90 59 91 65 92 67 93 60 94 61 95 62 96 63 97
REMARK SMILES IDX 64 98
REMARK H PARENT 22 6 26 29 88 48 54 59
REMARK Flexibility Score: inf
ROOT
ATOM      1  C   UNL A   1      38.346  23.622  26.043  1.00  0.00     0.042 C 
ENDROOT
BRANCH   1   2
ATOM      2  C   UNL A   1      37.336  22.541  25.748  1.00  0.00     0.117 C 
BRANCH   2   3
ATOM      3  N   UNL A   1      36.110  22.422  26.489  1.00  0.00    -0.354 N 
ATOM      4  C   UNL A   1      34.889  22.491  25.849  1.00  0.00     0.242 C 
ATOM      5  O   UNL A   1      33.956  21.820  26.305  1.00  0.00    -0.273 OA
ATOM      6  H   UNL A   1      36.142  22.290  27.465  1.00  0.00     0.163 HD
BRANCH   4   7
ATOM      7  C   UNL A   1      34.656  23.461  24.653  1.00  0.00     0.176 C 
ATOM      8  C   UNL A   1      35.385  23.114  23.354  1.00  0.00     0.042 C 
BRANCH   7   9
ATOM      9  N   UNL A   1      33.251  24.001  24.457  1.00  0.00    -0.303 N 
ATOM     10  C   UNL A   1      32.592  21.903  23.180  1.00  0.00     0.065 C 
ATOM     11  C   UNL A   1      32.276  23.275  23.726  1.00  0.00     0.024 A 
ATOM     12  C   UNL A   1      31.041  23.758  23.495  1.00  0.00     0.093 A 
ATOM     13  C   UNL A   1      30.643  25.096  23.973  1.00  0.00     0.259 A 
ATOM     14  C   UNL A   1      32.876  25.221  24.993  1.00  0.00     0.218 A 
ATOM     15  O   UNL A   1      29.559  25.601  23.785  1.00  0.00    -0.269 OA
ATOM     16  N   UNL A   1      31.629  25.750  24.697  1.00  0.00    -0.251 N 
ATOM     17  N   UNL A   1      33.491  26.049  25.804  1.00  0.00    -0.212 NA
ATOM     18  C   UNL A   1      31.563  27.022  25.226  1.00  0.00     0.127 A 
ATOM     19  C   UNL A   1      32.745  27.189  25.892  1.00  0.00     0.091 A 
BRANCH  19  20
ATOM     20  C   UNL A   1      33.210  28.420  26.489  1.00  0.00     0.002 A 
ATOM     21  C   UNL A   1      34.550  28.591  26.861  1.00  0.00     0.010 A 
ATOM     22  C   UNL A   1      32.307  29.480  26.642  1.00  0.00     0.010 A 
ATOM     23  C   UNL A   1      34.971  29.799  27.425  1.00  0.00     0.001 A 
ATOM     24  C   UNL A   1      32.727  30.677  27.218  1.00  0.00     0.001 A 
ATOM     25  C   UNL A   1      34.053  30.827  27.627  1.00  0.00     0.000 A 
ENDBRANCH  19  20
ENDBRANCH   7   9
ENDBRANCH   4   7
ENDBRANCH   2   3
ENDBRANCH   1   2
BRANCH   1  26
ATOM     26  C   UNL A   1      39.239  23.248  27.191  1.00  0.00     0.118 C 
BRANCH  26  27
ATOM     27  N   UNL A   1      40.570  22.725  26.814  1.00  0.00    -0.352 N 
ATOM     28  C   UNL A   1      41.689  23.467  26.455  1.00  0.00     0.251 C 
ATOM     29  H   UNL A   1      40.675  21.746  26.817  1.00  0.00     0.163 HD
ATOM     30  O   UNL A   1      42.691  23.037  25.905  1.00  0.00    -0.269 OA
BRANCH  28  31
ATOM     31  C   UNL A   1      41.694  24.872  26.792  1.00  0.00     0.039 A 
ATOM     32  C   UNL A   1      41.158  25.854  25.959  1.00  0.00     0.014 A 
ATOM     33  C   UNL A   1      42.133  25.146  28.065  1.00  0.00     0.014 A 
ATOM     34  C   UNL A   1      41.095  27.130  26.475  1.00  0.00     0.010 A 
ATOM     35  C   UNL A   1      41.458  26.151  28.638  1.00  0.00     0.010 A 
ATOM     36  C   UNL A   1      41.302  27.256  27.848  1.00  0.00    -0.014 A 
BRANCH  36  37
ATOM     37  C   UNL A   1      41.206  28.478  28.590  1.00  0.00     0.031 A 
ATOM     38  C   UNL A   1      42.316  29.377  28.262  1.00  0.00     0.074 A 
ATOM     39  C   UNL A   1      40.090  28.796  29.276  1.00  0.00     0.049 A 
ATOM     40  N   UNL A   1      43.461  29.391  28.854  1.00  0.00    -0.248 NA
ATOM     41  C   UNL A   1      42.316  30.045  26.949  1.00  0.00     0.031 C 
ATOM     42  C   UNL A   1      38.794  28.110  29.360  1.00  0.00     0.029 A 
ATOM     43  N   UNL A   1      39.889  29.904  30.027  1.00  0.00    -0.354 N 
ATOM     44  C   UNL A   1      44.185  30.352  28.178  1.00  0.00     0.074 A 
ATOM     45  C   UNL A   1      43.593  30.431  26.871  1.00  0.00     0.031 C 
ATOM     46  C   UNL A   1      37.881  28.934  29.926  1.00  0.00     0.029 A 
ATOM     47  C   UNL A   1      38.560  30.128  30.383  1.00  0.00     0.049 A 
ATOM     48  H   UNL A   1      40.622  30.502  30.298  1.00  0.00     0.167 HD
ATOM     49  C   UNL A   1      44.938  31.245  28.877  1.00  0.00     0.037 A 
ATOM     50  C   UNL A   1      38.123  31.287  30.940  1.00  0.00     0.037 A 
ATOM     51  C   UNL A   1      45.050  30.833  30.264  1.00  0.00     0.049 A 
ATOM     52  C   UNL A   1      39.344  31.920  31.555  1.00  0.00     0.074 A 
ATOM     53  C   UNL A   1      45.491  29.677  30.884  1.00  0.00     0.029 A 
ATOM     54  N   UNL A   1      44.223  31.456  31.179  1.00  0.00    -0.354 N 
ATOM     55  N   UNL A   1      40.025  31.360  32.530  1.00  0.00    -0.248 NA
ATOM     56  C   UNL A   1      40.119  32.830  30.717  1.00  0.00     0.031 C 
ATOM     57  C   UNL A   1      44.535  29.420  31.910  1.00  0.00     0.029 A 
ATOM     58  C   UNL A   1      43.630  30.484  31.950  1.00  0.00     0.049 A 
ATOM     59  H   UNL A   1      44.083  32.427  31.263  1.00  0.00     0.167 HD
ATOM     60  C   UNL A   1      41.366  31.514  32.184  1.00  0.00     0.074 A 
ATOM     61  C   UNL A   1      41.357  32.469  31.074  1.00  0.00     0.031 C 
ATOM     62  C   UNL A   1      42.330  30.626  32.587  1.00  0.00     0.037 A 
BRANCH  49  63
ATOM     63  C   UNL A   1      45.209  32.656  28.427  1.00  0.00     0.058 A 
ATOM     64  C   UNL A   1      46.548  33.076  28.326  1.00  0.00     0.135 A 
ATOM     65  C   UNL A   1      44.238  33.678  28.324  1.00  0.00     0.135 A 
ATOM     66  F   UNL A   1      47.552  32.188  28.408  1.00  0.00    -0.206 F 
ATOM     67  C   UNL A   1      46.898  34.419  28.208  1.00  0.00     0.059 A 
ATOM     68  C   UNL A   1      44.563  35.014  28.148  1.00  0.00     0.059 A 
ATOM     69  F   UNL A   1      42.928  33.462  28.481  1.00  0.00    -0.206 F 
ATOM     70  C   UNL A   1      45.895  35.381  28.131  1.00  0.00     0.060 A 
BRANCH  70  71
ATOM     71  S   UNL A   1      46.343  37.120  28.068  1.00  0.00     0.124 S 
ATOM     72  O   UNL A   1      47.759  37.042  27.729  1.00  0.00    -0.237 OA
ATOM     73  O   UNL A   1      45.458  37.616  27.019  1.00  0.00    -0.237 OA
ATOM     74  O   UNL A   1      46.040  37.594  29.414  1.00  0.00    -0.744 OA
ENDBRANCH  70  71
ENDBRANCH  49  63
BRANCH  50  75
ATOM     75  C   UNL A   1      36.892  32.032  30.546  1.00  0.00     0.058 A 
ATOM     76  C   UNL A   1      35.874  32.316  31.474  1.00  0.00     0.135 A 
ATOM     77  C   UNL A   1      36.792  32.703  29.306  1.00  0.00     0.135 A 
ATOM     78  F   UNL A   1      35.891  31.740  32.686  1.00  0.00    -0.206 F 
ATOM     79  C   UNL A   1      34.852  33.240  31.209  1.00  0.00     0.059 A 
ATOM     80  C   UNL A   1      35.780  33.617  29.016  1.00  0.00     0.059 A 
ATOM     81  F   UNL A   1      37.728  32.561  28.358  1.00  0.00    -0.206 F 
ATOM     82  C   UNL A   1      34.826  33.902  29.982  1.00  0.00     0.060 A 
BRANCH  82  83
ATOM     83  S   UNL A   1      33.614  35.213  29.687  1.00  0.00     0.124 S 
ATOM     84  O   UNL A   1      33.398  35.736  31.032  1.00  0.00    -0.237 OA
ATOM     85  O   UNL A   1      34.331  36.091  28.768  1.00  0.00    -0.237 OA
ATOM     86  O   UNL A   1      32.478  34.503  29.106  1.00  0.00    -0.744 OA
ENDBRANCH  82  83
ENDBRANCH  50  75
BRANCH  62  87
ATOM     87  C   UNL A   1      41.984  29.570  33.620  1.00  0.00     0.058 A 
ATOM     88  C   UNL A   1      41.630  28.239  33.325  1.00  0.00     0.135 A 
ATOM     89  C   UNL A   1      42.235  29.865  34.969  1.00  0.00     0.135 A 
ATOM     90  F   UNL A   1      41.471  27.835  32.060  1.00  0.00    -0.206 F 
ATOM     91  C   UNL A   1      41.503  27.262  34.321  1.00  0.00     0.059 A 
ATOM     92  C   UNL A   1      42.144  28.904  35.974  1.00  0.00     0.059 A 
ATOM     93  F   UNL A   1      42.642  31.096  35.320  1.00  0.00    -0.206 F 
ATOM     94  C   UNL A   1      41.767  27.606  35.646  1.00  0.00     0.060 A 
BRANCH  94  95
ATOM     95  S   UNL A   1      41.662  26.335  36.928  1.00  0.00     0.124 S 
ATOM     96  O   UNL A   1      41.660  25.105  36.143  1.00  0.00    -0.237 OA
ATOM     97  O   UNL A   1      42.864  26.582  37.718  1.00  0.00    -0.237 OA
ATOM     98  O   UNL A   1      40.404  26.640  37.609  1.00  0.00    -0.744 OA
ENDBRANCH  94  95
ENDBRANCH  62  87
ENDBRANCH  36  37
ENDBRANCH  28  31
ENDBRANCH  26  27
ENDBRANCH   1  26
TORSDOF 15
ENDMDL
