MODEL 1
REMARK VINA RESULT:     -12.7      0.000      0.000
REMARK SMILES O=C(CCC(=O)N1CCCn2nc(-c3ccccc3)cc21)NCCCNC(=O)c1ccc(-c2c3nc(c(-c4c(F)cc(S(=O)(=O)[O-])cc4F)c4ccc([nH]4)c(-c4c(F)cc(S(=O)(=O)[O-])cc4F)c4nc(c(-c5c(F)cc(S(=O)(=O)[O-])cc5F)c5ccc2[nH]5)C=C4)C=C3)cc1
REMARK SMILES IDX 23 1 22 2 1 3 2 4 3 6 4 7 5 8 6 9 7 10 8 11 21 12 9 13 11 14
REMARK SMILES IDX 20 15 10 16 12 17 13 18 14 19 15 20 19 21 16 22 18 23 17 24
REMARK SMILES IDX 24 25 25 26 26 27 27 28 28 30 29 31 30 32 94 33 31 34 93 35
REMARK SMILES IDX 32 36 33 37 34 38 87 39 35 40 92 41 86 42 88 43 36 44 91 45
REMARK SMILES IDX 85 46 84 47 37 49 71 50 50 51 70 52 51 53 54 54 69 55 89 56
REMARK SMILES IDX 52 57 53 58 68 60 90 61 55 62 38 63 39 64 48 65 40 66 41 67
REMARK SMILES IDX 47 68 49 69 42 70 43 71 44 72 45 73 46 74 72 75 73 76 82 77
REMARK SMILES IDX 74 78 75 79 81 80 83 81 76 82 77 83 78 84 79 85 80 86 56 87
REMARK SMILES IDX 57 88 66 89 58 90 59 91 65 92 67 93 60 94 61 95 62 96 63 97
REMARK SMILES IDX 64 98
REMARK H PARENT 22 5 26 29 88 48 54 59
REMARK Flexibility Score: inf
ROOT
ATOM      1  C   UNL A   1      39.603  21.904  26.244  1.00  0.00     0.117 C 
ENDROOT
BRANCH   1   2
ATOM      2  N   UNL A   1      38.531  22.853  25.972  1.00  0.00    -0.356 N 
ATOM      3  O   UNL A   1      37.165  21.278  25.014  1.00  0.00    -0.275 OA
ATOM      4  C   UNL A   1      37.328  22.419  25.441  1.00  0.00     0.220 C 
ATOM      5  H   UNL A   1      38.662  23.809  26.166  1.00  0.00     0.163 HD
BRANCH   4   6
ATOM      6  C   UNL A   1      36.154  23.372  25.632  1.00  0.00     0.110 C 
BRANCH   6   7
ATOM      7  C   UNL A   1      35.867  24.193  24.355  1.00  0.00     0.110 C 
BRANCH   7   8
ATOM      8  C   UNL A   1      34.489  24.009  23.712  1.00  0.00     0.228 C 
ATOM      9  O   UNL A   1      34.294  24.274  22.523  1.00  0.00    -0.274 OA
BRANCH   8  10
ATOM     10  N   UNL A   1      33.397  23.463  24.499  1.00  0.00    -0.297 N 
ATOM     11  C   UNL A   1      32.531  24.362  25.287  1.00  0.00     0.129 C 
ATOM     12  C   UNL A   1      33.078  22.093  24.584  1.00  0.00     0.134 A 
ATOM     13  C   UNL A   1      31.092  23.893  25.247  1.00  0.00     0.046 C 
ATOM     14  N   UNL A   1      31.955  21.665  25.243  1.00  0.00    -0.249 N 
ATOM     15  C   UNL A   1      33.679  20.932  24.139  1.00  0.00     0.077 A 
ATOM     16  C   UNL A   1      30.979  22.528  25.863  1.00  0.00     0.148 C 
ATOM     17  N   UNL A   1      31.795  20.359  25.305  1.00  0.00    -0.171 NA
ATOM     18  C   UNL A   1      32.831  19.875  24.612  1.00  0.00     0.095 A 
BRANCH  18  19
ATOM     19  C   UNL A   1      32.908  18.427  24.537  1.00  0.00     0.002 A 
ATOM     20  C   UNL A   1      32.534  17.672  25.659  1.00  0.00     0.010 A 
ATOM     21  C   UNL A   1      33.649  17.825  23.515  1.00  0.00     0.010 A 
ATOM     22  C   UNL A   1      32.921  16.337  25.771  1.00  0.00     0.001 A 
ATOM     23  C   UNL A   1      34.039  16.490  23.633  1.00  0.00     0.001 A 
ATOM     24  C   UNL A   1      33.684  15.751  24.763  1.00  0.00     0.000 A 
ENDBRANCH  18  19
ENDBRANCH   8  10
ENDBRANCH   7   8
ENDBRANCH   6   7
ENDBRANCH   4   6
ENDBRANCH   1   2
BRANCH   1  25
ATOM     25  C   UNL A   1      40.716  22.378  27.184  1.00  0.00     0.042 C 
BRANCH  25  26
ATOM     26  C   UNL A   1      41.945  23.056  26.578  1.00  0.00     0.118 C 
BRANCH  26  27
ATOM     27  N   UNL A   1      41.657  24.184  25.711  1.00  0.00    -0.352 N 
ATOM     28  C   UNL A   1      41.654  25.540  25.965  1.00  0.00     0.251 C 
ATOM     29  H   UNL A   1      41.424  23.941  24.786  1.00  0.00     0.163 HD
ATOM     30  O   UNL A   1      41.566  26.309  25.011  1.00  0.00    -0.269 OA
BRANCH  28  31
ATOM     31  C   UNL A   1      41.600  26.056  27.355  1.00  0.00     0.039 A 
ATOM     32  C   UNL A   1      42.727  26.747  27.823  1.00  0.00     0.014 A 
ATOM     33  C   UNL A   1      40.451  25.995  28.141  1.00  0.00     0.014 A 
ATOM     34  C   UNL A   1      42.649  27.498  28.996  1.00  0.00     0.010 A 
ATOM     35  C   UNL A   1      40.349  26.799  29.275  1.00  0.00     0.010 A 
ATOM     36  C   UNL A   1      41.431  27.593  29.684  1.00  0.00    -0.014 A 
BRANCH  36  37
ATOM     37  C   UNL A   1      41.235  28.592  30.764  1.00  0.00     0.031 A 
ATOM     38  C   UNL A   1      42.062  28.529  32.014  1.00  0.00     0.074 A 
ATOM     39  C   UNL A   1      40.229  29.483  30.647  1.00  0.00     0.049 A 
ATOM     40  N   UNL A   1      41.958  29.236  33.107  1.00  0.00    -0.248 NA
ATOM     41  C   UNL A   1      43.123  27.511  32.051  1.00  0.00     0.031 C 
ATOM     42  C   UNL A   1      39.318  29.583  29.500  1.00  0.00     0.029 A 
ATOM     43  N   UNL A   1      39.784  30.460  31.500  1.00  0.00    -0.354 N 
ATOM     44  C   UNL A   1      42.925  28.739  33.973  1.00  0.00     0.074 A 
ATOM     45  C   UNL A   1      43.575  27.639  33.290  1.00  0.00     0.031 C 
ATOM     46  C   UNL A   1      38.439  30.574  29.716  1.00  0.00     0.029 A 
ATOM     47  C   UNL A   1      38.700  31.161  31.024  1.00  0.00     0.049 A 
ATOM     48  H   UNL A   1      40.202  30.643  32.372  1.00  0.00     0.167 HD
ATOM     49  C   UNL A   1      43.249  29.173  35.214  1.00  0.00     0.037 A 
ATOM     50  C   UNL A   1      37.993  32.163  31.583  1.00  0.00     0.037 A 
ATOM     51  C   UNL A   1      42.607  30.285  35.863  1.00  0.00     0.049 A 
ATOM     52  C   UNL A   1      38.409  32.664  32.937  1.00  0.00     0.074 A 
ATOM     53  C   UNL A   1      42.884  30.845  37.098  1.00  0.00     0.029 A 
ATOM     54  N   UNL A   1      41.557  31.016  35.321  1.00  0.00    -0.354 N 
ATOM     55  N   UNL A   1      39.361  32.213  33.721  1.00  0.00    -0.248 NA
ATOM     56  C   UNL A   1      37.668  33.809  33.480  1.00  0.00     0.031 C 
ATOM     57  C   UNL A   1      41.987  31.899  37.311  1.00  0.00     0.029 A 
ATOM     58  C   UNL A   1      41.173  32.018  36.195  1.00  0.00     0.049 A 
ATOM     59  H   UNL A   1      41.146  30.845  34.443  1.00  0.00     0.167 HD
ATOM     60  C   UNL A   1      39.349  33.034  34.841  1.00  0.00     0.074 A 
ATOM     61  C   UNL A   1      38.303  34.015  34.626  1.00  0.00     0.031 C 
ATOM     62  C   UNL A   1      40.130  32.981  35.948  1.00  0.00     0.037 A 
BRANCH  49  63
ATOM     63  C   UNL A   1      44.346  28.442  35.939  1.00  0.00     0.058 A 
ATOM     64  C   UNL A   1      44.078  27.311  36.729  1.00  0.00     0.135 A 
ATOM     65  C   UNL A   1      45.679  28.870  35.845  1.00  0.00     0.135 A 
ATOM     66  F   UNL A   1      42.818  26.869  36.869  1.00  0.00    -0.206 F 
ATOM     67  C   UNL A   1      45.085  26.658  37.433  1.00  0.00     0.059 A 
ATOM     68  C   UNL A   1      46.708  28.215  36.519  1.00  0.00     0.059 A 
ATOM     69  F   UNL A   1      45.994  29.945  35.106  1.00  0.00    -0.206 F 
ATOM     70  C   UNL A   1      46.396  27.123  37.327  1.00  0.00     0.060 A 
BRANCH  70  71
ATOM     71  S   UNL A   1      47.688  26.283  38.268  1.00  0.00     0.124 S 
ATOM     72  O   UNL A   1      46.894  25.417  39.136  1.00  0.00    -0.237 OA
ATOM     73  O   UNL A   1      48.448  25.606  37.223  1.00  0.00    -0.237 OA
ATOM     74  O   UNL A   1      48.384  27.376  38.939  1.00  0.00    -0.744 OA
ENDBRANCH  70  71
ENDBRANCH  49  63
BRANCH  50  75
ATOM     75  C   UNL A   1      36.861  32.779  30.841  1.00  0.00     0.058 A 
ATOM     76  C   UNL A   1      35.535  32.438  31.142  1.00  0.00     0.135 A 
ATOM     77  C   UNL A   1      37.077  33.748  29.848  1.00  0.00     0.135 A 
ATOM     78  F   UNL A   1      35.278  31.518  32.083  1.00  0.00    -0.206 F 
ATOM     79  C   UNL A   1      34.461  33.029  30.483  1.00  0.00     0.059 A 
ATOM     80  C   UNL A   1      36.019  34.367  29.188  1.00  0.00     0.059 A 
ATOM     81  F   UNL A   1      38.327  34.126  29.538  1.00  0.00    -0.206 F 
ATOM     82  C   UNL A   1      34.714  33.996  29.508  1.00  0.00     0.060 A 
BRANCH  82  83
ATOM     83  S   UNL A   1      33.313  34.811  28.709  1.00  0.00     0.124 S 
ATOM     84  O   UNL A   1      32.812  33.751  27.843  1.00  0.00    -0.237 OA
ATOM     85  O   UNL A   1      32.471  35.161  29.848  1.00  0.00    -0.237 OA
ATOM     86  O   UNL A   1      33.933  35.945  28.029  1.00  0.00    -0.744 OA
ENDBRANCH  82  83
ENDBRANCH  50  75
BRANCH  62  87
ATOM     87  C   UNL A   1      39.893  34.030  36.995  1.00  0.00     0.058 A 
ATOM     88  C   UNL A   1      39.059  33.790  38.097  1.00  0.00     0.135 A 
ATOM     89  C   UNL A   1      40.541  35.273  36.913  1.00  0.00     0.135 A 
ATOM     90  F   UNL A   1      38.413  32.618  38.213  1.00  0.00    -0.206 F 
ATOM     91  C   UNL A   1      38.856  34.757  39.075  1.00  0.00     0.059 A 
ATOM     92  C   UNL A   1      40.371  36.245  37.891  1.00  0.00     0.059 A 
ATOM     93  F   UNL A   1      41.355  35.543  35.880  1.00  0.00    -0.206 F 
ATOM     94  C   UNL A   1      39.518  35.982  38.962  1.00  0.00     0.060 A 
BRANCH  94  95
ATOM     95  S   UNL A   1      39.272  37.220  40.252  1.00  0.00     0.124 S 
ATOM     96  O   UNL A   1      38.629  38.295  39.506  1.00  0.00    -0.237 OA
ATOM     97  O   UNL A   1      38.423  36.513  41.207  1.00  0.00    -0.237 OA
ATOM     98  O   UNL A   1      40.628  37.497  40.715  1.00  0.00    -0.744 OA
ENDBRANCH  94  95
ENDBRANCH  62  87
ENDBRANCH  36  37
ENDBRANCH  28  31
ENDBRANCH  26  27
ENDBRANCH  25  26
ENDBRANCH   1  25
TORSDOF 17
ENDMDL
MODEL 2
REMARK VINA RESULT:     -12.6      1.684      3.476
REMARK SMILES O=C(CCC(=O)N1CCCn2nc(-c3ccccc3)cc21)NCCCNC(=O)c1ccc(-c2c3nc(c(-c4c(F)cc(S(=O)(=O)[O-])cc4F)c4ccc([nH]4)c(-c4c(F)cc(S(=O)(=O)[O-])cc4F)c4nc(c(-c5c(F)cc(S(=O)(=O)[O-])cc5F)c5ccc2[nH]5)C=C4)C=C3)cc1
REMARK SMILES IDX 23 1 22 2 1 3 2 4 3 6 4 7 5 8 6 9 7 10 8 11 21 12 9 13 11 14
REMARK SMILES IDX 20 15 10 16 12 17 13 18 14 19 15 20 19 21 16 22 18 23 17 24
REMARK SMILES IDX 24 25 25 26 26 27 27 28 28 30 29 31 30 32 94 33 31 34 93 35
REMARK SMILES IDX 32 36 33 37 34 38 87 39 35 40 92 41 86 42 88 43 36 44 91 45
REMARK SMILES IDX 85 46 84 47 37 49 71 50 50 51 70 52 51 53 54 54 69 55 89 56
REMARK SMILES IDX 52 57 53 58 68 60 90 61 55 62 38 63 39 64 48 65 40 66 41 67
REMARK SMILES IDX 47 68 49 69 42 70 43 71 44 72 45 73 46 74 72 75 73 76 82 77
REMARK SMILES IDX 74 78 75 79 81 80 83 81 76 82 77 83 78 84 79 85 80 86 56 87
REMARK SMILES IDX 57 88 66 89 58 90 59 91 65 92 67 93 60 94 61 95 62 96 63 97
REMARK SMILES IDX 64 98
REMARK H PARENT 22 5 26 29 88 48 54 59
REMARK Flexibility Score: inf
ROOT
ATOM      1  C   UNL A   1      40.049  21.550  26.620  1.00  0.00     0.117 C 
ENDROOT
BRANCH   1   2
ATOM      2  N   UNL A   1      38.852  22.347  26.386  1.00  0.00    -0.356 N 
ATOM      3  O   UNL A   1      37.947  20.843  24.909  1.00  0.00    -0.275 OA
ATOM      4  C   UNL A   1      37.831  21.860  25.588  1.00  0.00     0.220 C 
ATOM      5  H   UNL A   1      38.768  23.238  26.797  1.00  0.00     0.163 HD
BRANCH   4   6
ATOM      6  C   UNL A   1      36.477  22.535  25.785  1.00  0.00     0.110 C 
BRANCH   6   7
ATOM      7  C   UNL A   1      35.443  22.063  24.739  1.00  0.00     0.110 C 
BRANCH   7   8
ATOM      8  C   UNL A   1      35.108  23.042  23.610  1.00  0.00     0.228 C 
ATOM      9  O   UNL A   1      35.932  23.320  22.735  1.00  0.00    -0.274 OA
BRANCH   8  10
ATOM     10  N   UNL A   1      33.778  23.620  23.533  1.00  0.00    -0.297 N 
ATOM     11  C   UNL A   1      32.760  23.019  22.648  1.00  0.00     0.129 C 
ATOM     12  C   UNL A   1      33.354  24.752  24.256  1.00  0.00     0.134 A 
ATOM     13  C   UNL A   1      31.392  23.063  23.296  1.00  0.00     0.046 C 
ATOM     14  N   UNL A   1      32.045  25.162  24.231  1.00  0.00    -0.249 N 
ATOM     15  C   UNL A   1      33.987  25.675  25.065  1.00  0.00     0.077 A 
ATOM     16  C   UNL A   1      30.980  24.488  23.530  1.00  0.00     0.148 C 
ATOM     17  N   UNL A   1      31.783  26.267  24.899  1.00  0.00    -0.171 NA
ATOM     18  C   UNL A   1      32.957  26.598  25.446  1.00  0.00     0.095 A 
BRANCH  18  19
ATOM     19  C   UNL A   1      32.953  27.815  26.238  1.00  0.00     0.002 A 
ATOM     20  C   UNL A   1      31.849  28.677  26.146  1.00  0.00     0.010 A 
ATOM     21  C   UNL A   1      34.146  28.278  26.802  1.00  0.00     0.010 A 
ATOM     22  C   UNL A   1      31.947  29.996  26.588  1.00  0.00     0.001 A 
ATOM     23  C   UNL A   1      34.241  29.602  27.238  1.00  0.00     0.001 A 
ATOM     24  C   UNL A   1      33.147  30.461  27.121  1.00  0.00     0.000 A 
ENDBRANCH  18  19
ENDBRANCH   8  10
ENDBRANCH   7   8
ENDBRANCH   6   7
ENDBRANCH   4   6
ENDBRANCH   1   2
BRANCH   1  25
ATOM     25  C   UNL A   1      41.160  22.207  27.446  1.00  0.00     0.042 C 
BRANCH  25  26
ATOM     26  C   UNL A   1      42.234  23.014  26.716  1.00  0.00     0.118 C 
BRANCH  26  27
ATOM     27  N   UNL A   1      41.729  24.065  25.851  1.00  0.00    -0.352 N 
ATOM     28  C   UNL A   1      41.539  25.411  26.083  1.00  0.00     0.251 C 
ATOM     29  H   UNL A   1      41.479  23.766  24.947  1.00  0.00     0.163 HD
ATOM     30  O   UNL A   1      41.280  26.135  25.125  1.00  0.00    -0.269 OA
BRANCH  28  31
ATOM     31  C   UNL A   1      41.494  25.949  27.466  1.00  0.00     0.039 A 
ATOM     32  C   UNL A   1      42.636  26.616  27.929  1.00  0.00     0.014 A 
ATOM     33  C   UNL A   1      40.340  25.928  28.248  1.00  0.00     0.014 A 
ATOM     34  C   UNL A   1      42.573  27.387  29.091  1.00  0.00     0.010 A 
ATOM     35  C   UNL A   1      40.256  26.751  29.370  1.00  0.00     0.010 A 
ATOM     36  C   UNL A   1      41.356  27.523  29.772  1.00  0.00    -0.014 A 
BRANCH  36  37
ATOM     37  C   UNL A   1      41.182  28.542  30.837  1.00  0.00     0.031 A 
ATOM     38  C   UNL A   1      42.009  28.481  32.086  1.00  0.00     0.074 A 
ATOM     39  C   UNL A   1      40.194  29.452  30.706  1.00  0.00     0.049 A 
ATOM     40  N   UNL A   1      41.921  29.206  33.169  1.00  0.00    -0.248 NA
ATOM     41  C   UNL A   1      43.048  27.441  32.139  1.00  0.00     0.031 C 
ATOM     42  C   UNL A   1      39.284  29.553  29.559  1.00  0.00     0.029 A 
ATOM     43  N   UNL A   1      39.771  30.450  31.545  1.00  0.00    -0.354 N 
ATOM     44  C   UNL A   1      42.878  28.702  34.041  1.00  0.00     0.074 A 
ATOM     45  C   UNL A   1      43.504  27.579  33.376  1.00  0.00     0.031 C 
ATOM     46  C   UNL A   1      38.427  30.566  29.760  1.00  0.00     0.029 A 
ATOM     47  C   UNL A   1      38.701  31.167  31.059  1.00  0.00     0.049 A 
ATOM     48  H   UNL A   1      40.194  30.638  32.414  1.00  0.00     0.167 HD
ATOM     49  C   UNL A   1      43.212  29.148  35.276  1.00  0.00     0.037 A 
ATOM     50  C   UNL A   1      38.016  32.192  31.603  1.00  0.00     0.037 A 
ATOM     51  C   UNL A   1      42.594  30.284  35.908  1.00  0.00     0.049 A 
ATOM     52  C   UNL A   1      38.443  32.704  32.949  1.00  0.00     0.074 A 
ATOM     53  C   UNL A   1      42.884  30.857  37.134  1.00  0.00     0.029 A 
ATOM     54  N   UNL A   1      41.559  31.028  35.356  1.00  0.00    -0.354 N 
ATOM     55  N   UNL A   1      39.387  32.246  33.739  1.00  0.00    -0.248 NA
ATOM     56  C   UNL A   1      37.727  33.873  33.475  1.00  0.00     0.031 C 
ATOM     57  C   UNL A   1      42.010  31.932  37.332  1.00  0.00     0.029 A 
ATOM     58  C   UNL A   1      41.197  32.051  36.215  1.00  0.00     0.049 A 
ATOM     59  H   UNL A   1      41.143  30.852  34.480  1.00  0.00     0.167 HD
ATOM     60  C   UNL A   1      39.393  33.083  34.847  1.00  0.00     0.074 A 
ATOM     61  C   UNL A   1      38.368  34.083  34.618  1.00  0.00     0.031 C 
ATOM     62  C   UNL A   1      40.174  33.032  35.954  1.00  0.00     0.037 A 
BRANCH  49  63
ATOM     63  C   UNL A   1      44.294  28.406  36.011  1.00  0.00     0.058 A 
ATOM     64  C   UNL A   1      43.996  27.337  36.874  1.00  0.00     0.135 A 
ATOM     65  C   UNL A   1      45.643  28.760  35.854  1.00  0.00     0.135 A 
ATOM     66  F   UNL A   1      42.721  26.968  37.076  1.00  0.00    -0.206 F 
ATOM     67  C   UNL A   1      44.991  26.676  37.586  1.00  0.00     0.059 A 
ATOM     68  C   UNL A   1      46.659  28.093  36.535  1.00  0.00     0.059 A 
ATOM     69  F   UNL A   1      45.987  29.773  35.044  1.00  0.00    -0.206 F 
ATOM     70  C   UNL A   1      46.320  27.066  37.415  1.00  0.00     0.060 A 
BRANCH  70  71
ATOM     71  S   UNL A   1      47.598  26.218  38.367  1.00  0.00     0.124 S 
ATOM     72  O   UNL A   1      48.748  27.088  38.144  1.00  0.00    -0.237 OA
ATOM     73  O   UNL A   1      47.046  26.232  39.717  1.00  0.00    -0.237 OA
ATOM     74  O   UNL A   1      47.673  24.903  37.736  1.00  0.00    -0.744 OA
ENDBRANCH  70  71
ENDBRANCH  49  63
BRANCH  50  75
ATOM     75  C   UNL A   1      36.897  32.820  30.852  1.00  0.00     0.058 A 
ATOM     76  C   UNL A   1      35.564  32.504  31.153  1.00  0.00     0.135 A 
ATOM     77  C   UNL A   1      37.131  33.776  29.851  1.00  0.00     0.135 A 
ATOM     78  F   UNL A   1      35.289  31.597  32.102  1.00  0.00    -0.206 F 
ATOM     79  C   UNL A   1      34.501  33.106  30.486  1.00  0.00     0.059 A 
ATOM     80  C   UNL A   1      36.085  34.407  29.183  1.00  0.00     0.059 A 
ATOM     81  F   UNL A   1      38.388  34.131  29.541  1.00  0.00    -0.206 F 
ATOM     82  C   UNL A   1      34.773  34.061  29.503  1.00  0.00     0.060 A 
BRANCH  82  83
ATOM     83  S   UNL A   1      33.388  34.892  28.693  1.00  0.00     0.124 S 
ATOM     84  O   UNL A   1      34.020  36.116  28.216  1.00  0.00    -0.237 OA
ATOM     85  O   UNL A   1      33.008  33.925  27.667  1.00  0.00    -0.237 OA
ATOM     86  O   UNL A   1      32.421  35.056  29.774  1.00  0.00    -0.744 OA
ENDBRANCH  82  83
ENDBRANCH  50  75
BRANCH  62  87
ATOM     87  C   UNL A   1      39.960  34.101  36.985  1.00  0.00     0.058 A 
ATOM     88  C   UNL A   1      39.045  33.933  38.035  1.00  0.00     0.135 A 
ATOM     89  C   UNL A   1      40.709  35.287  36.942  1.00  0.00     0.135 A 
ATOM     90  F   UNL A   1      38.301  32.818  38.112  1.00  0.00    -0.206 F 
ATOM     91  C   UNL A   1      38.863  34.918  38.999  1.00  0.00     0.059 A 
ATOM     92  C   UNL A   1      40.560  36.275  37.908  1.00  0.00     0.059 A 
ATOM     93  F   UNL A   1      41.602  35.487  35.959  1.00  0.00    -0.206 F 
ATOM     94  C   UNL A   1      39.626  36.086  38.926  1.00  0.00     0.060 A 
BRANCH  94  95
ATOM     95  S   UNL A   1      39.404  37.345  40.200  1.00  0.00     0.124 S 
ATOM     96  O   UNL A   1      38.521  38.290  39.525  1.00  0.00    -0.237 OA
ATOM     97  O   UNL A   1      38.804  36.585  41.291  1.00  0.00    -0.237 OA
ATOM     98  O   UNL A   1      40.763  37.818  40.446  1.00  0.00    -0.744 OA
ENDBRANCH  94  95
ENDBRANCH  62  87
ENDBRANCH  36  37
ENDBRANCH  28  31
ENDBRANCH  26  27
ENDBRANCH  25  26
ENDBRANCH   1  25
TORSDOF 17
ENDMDL
MODEL 3
REMARK VINA RESULT:     -12.5      6.514     11.886
REMARK SMILES O=C(CCC(=O)N1CCCn2nc(-c3ccccc3)cc21)NCCCNC(=O)c1ccc(-c2c3nc(c(-c4c(F)cc(S(=O)(=O)[O-])cc4F)c4ccc([nH]4)c(-c4c(F)cc(S(=O)(=O)[O-])cc4F)c4nc(c(-c5c(F)cc(S(=O)(=O)[O-])cc5F)c5ccc2[nH]5)C=C4)C=C3)cc1
REMARK SMILES IDX 23 1 22 2 1 3 2 4 3 6 4 7 5 8 6 9 7 10 8 11 21 12 9 13 11 14
REMARK SMILES IDX 20 15 10 16 12 17 13 18 14 19 15 20 19 21 16 22 18 23 17 24
REMARK SMILES IDX 24 25 25 26 26 27 27 28 28 30 29 31 30 32 94 33 31 34 93 35
REMARK SMILES IDX 32 36 33 37 34 38 87 39 35 40 92 41 86 42 88 43 36 44 91 45
REMARK SMILES IDX 85 46 84 47 37 49 71 50 50 51 70 52 51 53 54 54 69 55 89 56
REMARK SMILES IDX 52 57 53 58 68 60 90 61 55 62 38 63 39 64 48 65 40 66 41 67
REMARK SMILES IDX 47 68 49 69 42 70 43 71 44 72 45 73 46 74 72 75 73 76 82 77
REMARK SMILES IDX 74 78 75 79 81 80 83 81 76 82 77 83 78 84 79 85 80 86 56 87
REMARK SMILES IDX 57 88 66 89 58 90 59 91 65 92 67 93 60 94 61 95 62 96 63 97
REMARK SMILES IDX 64 98
REMARK H PARENT 22 5 26 29 88 48 54 59
REMARK Flexibility Score: inf
ROOT
ATOM      1  C   UNL A   1      33.907  31.714  27.670  1.00  0.00     0.117 C 
ENDROOT
BRANCH   1   2
ATOM      2  N   UNL A   1      33.663  30.277  27.644  1.00  0.00    -0.356 N 
ATOM      3  O   UNL A   1      31.728  30.467  26.427  1.00  0.00    -0.275 OA
ATOM      4  C   UNL A   1      32.602  29.759  26.922  1.00  0.00     0.220 C 
ATOM      5  H   UNL A   1      34.256  29.671  28.143  1.00  0.00     0.163 HD
BRANCH   4   6
ATOM      6  C   UNL A   1      32.712  28.277  26.582  1.00  0.00     0.110 C 
BRANCH   6   7
ATOM      7  C   UNL A   1      31.382  27.531  26.828  1.00  0.00     0.110 C 
BRANCH   7   8
ATOM      8  C   UNL A   1      31.063  26.361  25.892  1.00  0.00     0.228 C 
ATOM      9  O   UNL A   1      30.202  25.525  26.177  1.00  0.00    -0.274 OA
BRANCH   8  10
ATOM     10  N   UNL A   1      31.749  26.256  24.616  1.00  0.00    -0.297 N 
ATOM     11  C   UNL A   1      31.396  27.168  23.510  1.00  0.00     0.129 C 
ATOM     12  C   UNL A   1      32.764  25.323  24.326  1.00  0.00     0.134 A 
ATOM     13  C   UNL A   1      32.632  27.574  22.734  1.00  0.00     0.046 C 
ATOM     14  N   UNL A   1      33.455  25.369  23.143  1.00  0.00    -0.249 N 
ATOM     15  C   UNL A   1      33.295  24.235  24.992  1.00  0.00     0.077 A 
ATOM     16  C   UNL A   1      33.271  26.364  22.115  1.00  0.00     0.148 C 
ATOM     17  N   UNL A   1      34.338  24.408  22.963  1.00  0.00    -0.171 NA
ATOM     18  C   UNL A   1      34.281  23.702  24.097  1.00  0.00     0.095 A 
BRANCH  18  19
ATOM     19  C   UNL A   1      35.161  22.549  24.156  1.00  0.00     0.002 A 
ATOM     20  C   UNL A   1      34.644  21.328  24.618  1.00  0.00     0.010 A 
ATOM     21  C   UNL A   1      36.546  22.730  24.085  1.00  0.00     0.010 A 
ATOM     22  C   UNL A   1      35.504  20.310  25.030  1.00  0.00     0.001 A 
ATOM     23  C   UNL A   1      37.403  21.710  24.504  1.00  0.00     0.001 A 
ATOM     24  C   UNL A   1      36.882  20.508  24.985  1.00  0.00     0.000 A 
ENDBRANCH  18  19
ENDBRANCH   8  10
ENDBRANCH   7   8
ENDBRANCH   6   7
ENDBRANCH   4   6
ENDBRANCH   1   2
BRANCH   1  25
ATOM     25  C   UNL A   1      35.334  32.162  28.001  1.00  0.00     0.042 C 
BRANCH  25  26
ATOM     26  C   UNL A   1      35.739  32.286  29.471  1.00  0.00     0.118 C 
BRANCH  26  27
ATOM     27  N   UNL A   1      35.684  31.049  30.228  1.00  0.00    -0.352 N 
ATOM     28  C   UNL A   1      36.691  30.221  30.678  1.00  0.00     0.251 C 
ATOM     29  H   UNL A   1      34.775  30.750  30.459  1.00  0.00     0.163 HD
ATOM     30  O   UNL A   1      36.398  29.328  31.471  1.00  0.00    -0.269 OA
BRANCH  28  31
ATOM     31  C   UNL A   1      38.059  30.302  30.108  1.00  0.00     0.039 A 
ATOM     32  C   UNL A   1      39.115  30.504  31.008  1.00  0.00     0.014 A 
ATOM     33  C   UNL A   1      38.333  30.059  28.763  1.00  0.00     0.014 A 
ATOM     34  C   UNL A   1      40.433  30.308  30.593  1.00  0.00     0.010 A 
ATOM     35  C   UNL A   1      39.642  29.797  28.365  1.00  0.00     0.010 A 
ATOM     36  C   UNL A   1      40.697  29.873  29.287  1.00  0.00    -0.014 A 
BRANCH  36  37
ATOM     37  C   UNL A   1      42.045  29.391  28.897  1.00  0.00     0.031 A 
ATOM     38  C   UNL A   1      43.197  30.347  28.816  1.00  0.00     0.074 A 
ATOM     39  C   UNL A   1      42.185  28.106  28.510  1.00  0.00     0.049 A 
ATOM     40  N   UNL A   1      44.412  30.138  28.384  1.00  0.00    -0.248 NA
ATOM     41  C   UNL A   1      42.937  31.730  29.243  1.00  0.00     0.031 C 
ATOM     42  C   UNL A   1      41.108  27.108  28.483  1.00  0.00     0.029 A 
ATOM     43  N   UNL A   1      43.277  27.418  28.047  1.00  0.00    -0.354 N 
ATOM     44  C   UNL A   1      45.060  31.365  28.469  1.00  0.00     0.074 A 
ATOM     45  C   UNL A   1      44.086  32.323  28.951  1.00  0.00     0.031 C 
ATOM     46  C   UNL A   1      41.599  25.938  28.046  1.00  0.00     0.029 A 
ATOM     47  C   UNL A   1      43.011  26.104  27.731  1.00  0.00     0.049 A 
ATOM     48  H   UNL A   1      44.168  27.824  27.950  1.00  0.00     0.167 HD
ATOM     49  C   UNL A   1      46.351  31.658  28.185  1.00  0.00     0.037 A 
ATOM     50  C   UNL A   1      43.818  25.143  27.240  1.00  0.00     0.037 A 
ATOM     51  C   UNL A   1      47.309  30.684  27.732  1.00  0.00     0.049 A 
ATOM     52  C   UNL A   1      45.260  25.479  26.987  1.00  0.00     0.074 A 
ATOM     53  C   UNL A   1      48.656  30.855  27.461  1.00  0.00     0.029 A 
ATOM     54  N   UNL A   1      47.020  29.347  27.489  1.00  0.00    -0.354 N 
ATOM     55  N   UNL A   1      45.869  26.635  27.122  1.00  0.00    -0.248 NA
ATOM     56  C   UNL A   1      46.129  24.387  26.529  1.00  0.00     0.031 C 
ATOM     57  C   UNL A   1      49.174  29.627  27.033  1.00  0.00     0.029 A 
ATOM     58  C   UNL A   1      48.160  28.683  27.070  1.00  0.00     0.049 A 
ATOM     59  H   UNL A   1      46.134  28.933  27.599  1.00  0.00     0.167 HD
ATOM     60  C   UNL A   1      47.197  26.406  26.785  1.00  0.00     0.074 A 
ATOM     61  C   UNL A   1      47.304  24.999  26.454  1.00  0.00     0.031 C 
ATOM     62  C   UNL A   1      48.233  27.279  26.752  1.00  0.00     0.037 A 
BRANCH  49  63
ATOM     63  C   UNL A   1      46.793  33.085  28.363  1.00  0.00     0.058 A 
ATOM     64  C   UNL A   1      46.710  34.016  27.313  1.00  0.00     0.135 A 
ATOM     65  C   UNL A   1      47.302  33.532  29.592  1.00  0.00     0.135 A 
ATOM     66  F   UNL A   1      46.249  33.637  26.111  1.00  0.00    -0.206 F 
ATOM     67  C   UNL A   1      47.156  35.325  27.464  1.00  0.00     0.059 A 
ATOM     68  C   UNL A   1      47.728  34.846  29.774  1.00  0.00     0.059 A 
ATOM     69  F   UNL A   1      47.405  32.687  30.629  1.00  0.00    -0.206 F 
ATOM     70  C   UNL A   1      47.670  35.728  28.696  1.00  0.00     0.060 A 
BRANCH  70  71
ATOM     71  S   UNL A   1      48.270  37.422  28.868  1.00  0.00     0.124 S 
ATOM     72  O   UNL A   1      49.537  37.209  29.562  1.00  0.00    -0.237 OA
ATOM     73  O   UNL A   1      48.374  37.861  27.481  1.00  0.00    -0.237 OA
ATOM     74  O   UNL A   1      47.226  38.074  29.654  1.00  0.00    -0.744 OA
ENDBRANCH  70  71
ENDBRANCH  49  63
BRANCH  50  75
ATOM     75  C   UNL A   1      43.287  23.774  27.005  1.00  0.00     0.058 A 
ATOM     76  C   UNL A   1      43.083  23.298  25.702  1.00  0.00     0.135 A 
ATOM     77  C   UNL A   1      43.013  22.902  28.070  1.00  0.00     0.135 A 
ATOM     78  F   UNL A   1      43.330  24.094  24.651  1.00  0.00    -0.206 F 
ATOM     79  C   UNL A   1      42.619  22.008  25.460  1.00  0.00     0.059 A 
ATOM     80  C   UNL A   1      42.567  21.601  27.853  1.00  0.00     0.059 A 
ATOM     81  F   UNL A   1      43.214  23.301  29.335  1.00  0.00    -0.206 F 
ATOM     82  C   UNL A   1      42.367  21.165  26.544  1.00  0.00     0.060 A 
BRANCH  82  83
ATOM     83  S   UNL A   1      41.835  19.468  26.220  1.00  0.00     0.124 S 
ATOM     84  O   UNL A   1      40.394  19.634  26.082  1.00  0.00    -0.237 OA
ATOM     85  O   UNL A   1      42.564  19.146  24.997  1.00  0.00    -0.237 OA
ATOM     86  O   UNL A   1      42.280  18.749  27.410  1.00  0.00    -0.744 OA
ENDBRANCH  82  83
ENDBRANCH  50  75
BRANCH  62  87
ATOM     87  C   UNL A   1      49.573  26.725  26.365  1.00  0.00     0.058 A 
ATOM     88  C   UNL A   1      50.052  26.817  25.050  1.00  0.00     0.135 A 
ATOM     89  C   UNL A   1      50.401  26.133  27.332  1.00  0.00     0.135 A 
ATOM     90  F   UNL A   1      49.291  27.368  24.090  1.00  0.00    -0.206 F 
ATOM     91  C   UNL A   1      51.302  26.320  24.699  1.00  0.00     0.059 A 
ATOM     92  C   UNL A   1      51.663  25.651  27.008  1.00  0.00     0.059 A 
ATOM     93  F   UNL A   1      49.988  26.032  28.605  1.00  0.00    -0.206 F 
ATOM     94  C   UNL A   1      52.100  25.737  25.687  1.00  0.00     0.060 A 
BRANCH  94  95
ATOM     95  S   UNL A   1      53.733  25.122  25.228  1.00  0.00     0.124 S 
ATOM     96  O   UNL A   1      53.558  23.683  25.388  1.00  0.00    -0.237 OA
ATOM     97  O   UNL A   1      53.872  25.595  23.854  1.00  0.00    -0.237 OA
ATOM     98  O   UNL A   1      54.618  25.762  26.196  1.00  0.00    -0.744 OA
ENDBRANCH  94  95
ENDBRANCH  62  87
ENDBRANCH  36  37
ENDBRANCH  28  31
ENDBRANCH  26  27
ENDBRANCH  25  26
ENDBRANCH   1  25
TORSDOF 17
ENDMDL
