MODEL 1
REMARK VINA RESULT:     -10.5      0.000      0.000
REMARK SMILES CS(=O)(=O)c1ccc(C2=NN(c3ccc(C(=O)NCCCNC(=O)c4ccc(-c5c6nc(c(-c7c(F)cc(S(=O)(=O)[O-])cc7F)c7ccc([nH]7)c(-c7c(F)cc(S(=O)(=O)[O-])cc7F)c7nc(c(-c8c(F)cc(S(=O)(=O)[O-])cc8F)c8ccc5[nH]8)C=C7)C=C6)cc4)cc3)[C@H](c3ccccc3)C2)cc1
REMARK SMILES IDX 20 1 19 2 18 3 16 4 17 5 15 7 12 8 13 9 92 10 14 11 91 12
REMARK SMILES IDX 11 13 9 14 10 15 100 16 93 17 8 18 5 19 6 20 102 21 7 22
REMARK SMILES IDX 101 23 2 24 1 25 3 26 4 27 94 28 95 29 99 30 96 31 98 32
REMARK SMILES IDX 97 33 21 34 22 35 23 36 24 38 25 39 26 40 90 41 27 42 89 43
REMARK SMILES IDX 28 44 29 45 30 46 83 47 31 48 88 49 82 50 84 51 32 52 87 53
REMARK SMILES IDX 81 54 80 55 33 57 67 58 46 59 66 60 47 61 50 62 65 63 85 64
REMARK SMILES IDX 48 65 49 66 64 68 86 69 51 70 34 71 35 72 44 73 36 74 37 75
REMARK SMILES IDX 43 76 45 77 38 78 39 79 40 80 41 81 42 82 68 83 69 84 78 85
REMARK SMILES IDX 70 86 71 87 77 88 79 89 72 90 73 91 74 92 75 93 76 94 52 95
REMARK SMILES IDX 53 96 62 97 54 98 55 99 61 100 63 101 56 102 57 103 58 104
REMARK SMILES IDX 59 105 60 106
REMARK H PARENT 18 6 22 37 84 56 50 67
REMARK Flexibility Score: inf
ROOT
ATOM      1  C   UNL A   1      41.550  21.094  25.837  1.00  0.00     0.042 C 
ENDROOT
BRANCH   1   2
ATOM      2  C   UNL A   1      42.812  20.800  26.644  1.00  0.00     0.118 C 
BRANCH   2   3
ATOM      3  N   UNL A   1      42.692  21.245  28.023  1.00  0.00    -0.352 N 
ATOM      4  C   UNL A   1      43.035  22.433  28.620  1.00  0.00     0.251 C 
ATOM      5  O   UNL A   1      42.680  22.629  29.782  1.00  0.00    -0.269 OA
ATOM      6  H   UNL A   1      42.298  20.580  28.633  1.00  0.00     0.163 HD
BRANCH   4   7
ATOM      7  C   UNL A   1      43.766  23.503  27.895  1.00  0.00     0.039 A 
ATOM      8  C   UNL A   1      45.237  25.546  26.625  1.00  0.00     0.060 A 
ATOM      9  C   UNL A   1      45.772  24.866  27.723  1.00  0.00     0.029 A 
ATOM     10  C   UNL A   1      43.990  25.152  26.135  1.00  0.00     0.029 A 
ATOM     11  C   UNL A   1      45.043  23.852  28.356  1.00  0.00     0.016 A 
ATOM     12  C   UNL A   1      43.269  24.127  26.751  1.00  0.00     0.016 A 
BRANCH   8  13
ATOM     13  N   UNL A   1      45.902  26.601  26.014  1.00  0.00    -0.257 N 
ATOM     14  C   UNL A   1      47.458  27.288  24.740  1.00  0.00     0.071 C 
ATOM     15  N   UNL A   1      46.555  26.367  24.850  1.00  0.00    -0.176 NA
ATOM     16  C   UNL A   1      47.584  28.233  25.901  1.00  0.00     0.091 C 
ATOM     17  C   UNL A   1      46.448  27.714  26.799  1.00  0.00     0.144 C 
BRANCH  14  18
ATOM     18  C   UNL A   1      48.292  27.418  23.537  1.00  0.00    -0.002 A 
ATOM     19  C   UNL A   1      49.953  27.641  21.321  1.00  0.00     0.067 A 
ATOM     20  C   UNL A   1      50.506  27.330  22.565  1.00  0.00     0.021 A 
ATOM     21  C   UNL A   1      48.573  27.849  21.182  1.00  0.00     0.021 A 
ATOM     22  C   UNL A   1      49.672  27.237  23.678  1.00  0.00     0.011 A 
ATOM     23  C   UNL A   1      47.736  27.725  22.294  1.00  0.00     0.011 A 
BRANCH  19  24
ATOM     24  S   UNL A   1      50.995  27.778  19.886  1.00  0.00     0.175 S 
ATOM     25  C   UNL A   1      52.387  26.723  20.189  1.00  0.00     0.163 C 
ATOM     26  O   UNL A   1      51.492  29.140  19.848  1.00  0.00    -0.224 OA
ATOM     27  O   UNL A   1      50.237  27.230  18.776  1.00  0.00    -0.224 OA
ENDBRANCH  19  24
ENDBRANCH  14  18
BRANCH  17  28
ATOM     28  C   UNL A   1      45.342  28.690  27.185  1.00  0.00    -0.023 A 
ATOM     29  C   UNL A   1      45.520  29.760  28.073  1.00  0.00     0.006 A 
ATOM     30  C   UNL A   1      44.085  28.561  26.558  1.00  0.00     0.006 A 
ATOM     31  C   UNL A   1      44.475  30.652  28.341  1.00  0.00     0.000 A 
ATOM     32  C   UNL A   1      43.051  29.465  26.808  1.00  0.00     0.000 A 
ATOM     33  C   UNL A   1      43.244  30.508  27.706  1.00  0.00     0.000 A 
ENDBRANCH  17  28
ENDBRANCH   8  13
ENDBRANCH   4   7
ENDBRANCH   2   3
ENDBRANCH   1   2
BRANCH   1  34
ATOM     34  C   UNL A   1      40.389  21.616  26.676  1.00  0.00     0.118 C 
BRANCH  34  35
ATOM     35  N   UNL A   1      39.282  22.083  25.855  1.00  0.00    -0.352 N 
ATOM     36  C   UNL A   1      38.611  23.281  25.888  1.00  0.00     0.251 C 
ATOM     37  H   UNL A   1      38.968  21.445  25.175  1.00  0.00     0.163 HD
ATOM     38  O   UNL A   1      37.571  23.405  25.245  1.00  0.00    -0.269 OA
BRANCH  36  39
ATOM     39  C   UNL A   1      39.118  24.410  26.701  1.00  0.00     0.039 A 
ATOM     40  C   UNL A   1      39.949  25.359  26.096  1.00  0.00     0.014 A 
ATOM     41  C   UNL A   1      38.811  24.521  28.061  1.00  0.00     0.014 A 
ATOM     42  C   UNL A   1      40.423  26.445  26.837  1.00  0.00     0.010 A 
ATOM     43  C   UNL A   1      39.229  25.638  28.781  1.00  0.00     0.010 A 
ATOM     44  C   UNL A   1      40.042  26.610  28.179  1.00  0.00    -0.014 A 
BRANCH  44  45
ATOM     45  C   UNL A   1      40.484  27.785  28.973  1.00  0.00     0.031 A 
ATOM     46  C   UNL A   1      41.812  27.762  29.680  1.00  0.00     0.074 A 
ATOM     47  C   UNL A   1      39.660  28.841  29.119  1.00  0.00     0.049 A 
ATOM     48  N   UNL A   1      42.325  28.635  30.507  1.00  0.00    -0.248 NA
ATOM     49  C   UNL A   1      42.664  26.584  29.446  1.00  0.00     0.031 C 
ATOM     50  C   UNL A   1      38.332  28.968  28.514  1.00  0.00     0.029 A 
ATOM     51  N   UNL A   1      39.810  30.002  29.836  1.00  0.00    -0.354 N 
ATOM     52  C   UNL A   1      43.547  28.107  30.908  1.00  0.00     0.074 A 
ATOM     53  C   UNL A   1      43.679  26.817  30.265  1.00  0.00     0.031 C 
ATOM     54  C   UNL A   1      37.795  30.146  28.875  1.00  0.00     0.029 A 
ATOM     55  C   UNL A   1      38.721  30.839  29.764  1.00  0.00     0.049 A 
ATOM     56  H   UNL A   1      40.620  30.216  30.352  1.00  0.00     0.167 HD
ATOM     57  C   UNL A   1      44.481  28.655  31.721  1.00  0.00     0.037 A 
ATOM     58  C   UNL A   1      38.488  32.026  30.359  1.00  0.00     0.037 A 
ATOM     59  C   UNL A   1      44.357  29.951  32.335  1.00  0.00     0.049 A 
ATOM     60  C   UNL A   1      39.543  32.617  31.254  1.00  0.00     0.074 A 
ATOM     61  C   UNL A   1      45.267  30.617  33.137  1.00  0.00     0.029 A 
ATOM     62  N   UNL A   1      43.251  30.782  32.213  1.00  0.00    -0.354 N 
ATOM     63  N   UNL A   1      40.711  32.123  31.588  1.00  0.00    -0.248 NA
ATOM     64  C   UNL A   1      39.250  33.929  31.849  1.00  0.00     0.031 C 
ATOM     65  C   UNL A   1      44.701  31.836  33.525  1.00  0.00     0.029 A 
ATOM     66  C   UNL A   1      43.453  31.948  32.934  1.00  0.00     0.049 A 
ATOM     67  H   UNL A   1      42.443  30.573  31.691  1.00  0.00     0.167 HD
ATOM     68  C   UNL A   1      41.304  33.075  32.410  1.00  0.00     0.074 A 
ATOM     69  C   UNL A   1      40.369  34.176  32.518  1.00  0.00     0.031 C 
ATOM     70  C   UNL A   1      42.515  33.039  33.020  1.00  0.00     0.037 A 
BRANCH  57  71
ATOM     71  C   UNL A   1      45.723  27.851  31.992  1.00  0.00     0.058 A 
ATOM     72  C   UNL A   1      45.753  26.853  32.979  1.00  0.00     0.135 A 
ATOM     73  C   UNL A   1      46.893  28.067  31.244  1.00  0.00     0.135 A 
ATOM     74  F   UNL A   1      44.668  26.616  33.733  1.00  0.00    -0.206 F 
ATOM     75  C   UNL A   1      46.906  26.121  33.239  1.00  0.00     0.059 A 
ATOM     76  C   UNL A   1      48.050  27.326  31.468  1.00  0.00     0.059 A 
ATOM     77  F   UNL A   1      46.920  29.007  30.287  1.00  0.00    -0.206 F 
ATOM     78  C   UNL A   1      48.053  26.368  32.481  1.00  0.00     0.060 A 
BRANCH  78  79
ATOM     79  S   UNL A   1      49.545  25.415  32.835  1.00  0.00     0.124 S 
ATOM     80  O   UNL A   1      49.990  25.064  31.491  1.00  0.00    -0.237 OA
ATOM     81  O   UNL A   1      50.375  26.384  33.544  1.00  0.00    -0.237 OA
ATOM     82  O   UNL A   1      49.054  24.305  33.644  1.00  0.00    -0.744 OA
ENDBRANCH  78  79
ENDBRANCH  57  71
BRANCH  58  83
ATOM     83  C   UNL A   1      37.213  32.744  30.104  1.00  0.00     0.058 A 
ATOM     84  C   UNL A   1      36.071  32.475  30.872  1.00  0.00     0.135 A 
ATOM     85  C   UNL A   1      37.113  33.726  29.106  1.00  0.00     0.135 A 
ATOM     86  F   UNL A   1      36.116  31.540  31.833  1.00  0.00    -0.206 F 
ATOM     87  C   UNL A   1      34.872  33.144  30.656  1.00  0.00     0.059 A 
ATOM     88  C   UNL A   1      35.932  34.426  28.885  1.00  0.00     0.059 A 
ATOM     89  F   UNL A   1      38.183  34.031  28.355  1.00  0.00    -0.206 F 
ATOM     90  C   UNL A   1      34.813  34.122  29.661  1.00  0.00     0.060 A 
BRANCH  90  91
ATOM     91  S   UNL A   1      33.268  35.029  29.427  1.00  0.00     0.124 S 
ATOM     92  O   UNL A   1      32.587  34.198  28.440  1.00  0.00    -0.237 OA
ATOM     93  O   UNL A   1      32.699  35.020  30.771  1.00  0.00    -0.237 OA
ATOM     94  O   UNL A   1      33.715  36.335  28.953  1.00  0.00    -0.744 OA
ENDBRANCH  90  91
ENDBRANCH  58  83
BRANCH  70  95
ATOM     95  C   UNL A   1      42.917  34.242  33.827  1.00  0.00     0.058 A 
ATOM     96  C   UNL A   1      42.665  34.324  35.204  1.00  0.00     0.135 A 
ATOM     97  C   UNL A   1      43.612  35.301  33.220  1.00  0.00     0.135 A 
ATOM     98  F   UNL A   1      41.998  33.340  35.828  1.00  0.00    -0.206 F 
ATOM     99  C   UNL A   1      43.072  35.424  35.952  1.00  0.00     0.059 A 
ATOM    100  C   UNL A   1      44.048  36.401  33.953  1.00  0.00     0.059 A 
ATOM    101  F   UNL A   1      43.885  35.267  31.907  1.00  0.00    -0.206 F 
ATOM    102  C   UNL A   1      43.764  36.458  35.317  1.00  0.00     0.060 A 
BRANCH 102 103
ATOM    103  S   UNL A   1      44.321  37.864  36.303  1.00  0.00     0.124 S 
ATOM    104  O   UNL A   1      43.460  37.759  37.477  1.00  0.00    -0.237 OA
ATOM    105  O   UNL A   1      45.731  37.555  36.522  1.00  0.00    -0.237 OA
ATOM    106  O   UNL A   1      44.065  39.009  35.436  1.00  0.00    -0.744 OA
ENDBRANCH 102 103
ENDBRANCH  70  95
ENDBRANCH  44  45
ENDBRANCH  36  39
ENDBRANCH  34  35
ENDBRANCH   1  34
TORSDOF 17
ENDMDL
MODEL 2
REMARK VINA RESULT:     -10.4      3.955     11.288
REMARK SMILES CS(=O)(=O)c1ccc(C2=NN(c3ccc(C(=O)NCCCNC(=O)c4ccc(-c5c6nc(c(-c7c(F)cc(S(=O)(=O)[O-])cc7F)c7ccc([nH]7)c(-c7c(F)cc(S(=O)(=O)[O-])cc7F)c7nc(c(-c8c(F)cc(S(=O)(=O)[O-])cc8F)c8ccc5[nH]8)C=C7)C=C6)cc4)cc3)[C@H](c3ccccc3)C2)cc1
REMARK SMILES IDX 20 1 19 2 18 3 16 4 17 5 15 7 12 8 13 9 92 10 14 11 91 12
REMARK SMILES IDX 11 13 9 14 10 15 100 16 93 17 8 18 5 19 6 20 102 21 7 22
REMARK SMILES IDX 101 23 2 24 1 25 3 26 4 27 94 28 95 29 99 30 96 31 98 32
REMARK SMILES IDX 97 33 21 34 22 35 23 36 24 38 25 39 26 40 90 41 27 42 89 43
REMARK SMILES IDX 28 44 29 45 30 46 83 47 31 48 88 49 82 50 84 51 32 52 87 53
REMARK SMILES IDX 81 54 80 55 33 57 67 58 46 59 66 60 47 61 50 62 65 63 85 64
REMARK SMILES IDX 48 65 49 66 64 68 86 69 51 70 34 71 35 72 44 73 36 74 37 75
REMARK SMILES IDX 43 76 45 77 38 78 39 79 40 80 41 81 42 82 68 83 69 84 78 85
REMARK SMILES IDX 70 86 71 87 77 88 79 89 72 90 73 91 74 92 75 93 76 94 52 95
REMARK SMILES IDX 53 96 62 97 54 98 55 99 61 100 63 101 56 102 57 103 58 104
REMARK SMILES IDX 59 105 60 106
REMARK H PARENT 18 6 22 37 84 56 50 67
REMARK Flexibility Score: inf
ROOT
ATOM      1  C   UNL A   1      34.790  32.689  29.906  1.00  0.00     0.042 C 
ENDROOT
BRANCH   1   2
ATOM      2  C   UNL A   1      35.740  33.850  30.188  1.00  0.00     0.118 C 
BRANCH   2   3
ATOM      3  N   UNL A   1      35.295  34.658  31.313  1.00  0.00    -0.352 N 
ATOM      4  C   UNL A   1      35.852  34.865  32.550  1.00  0.00     0.251 C 
ATOM      5  O   UNL A   1      35.364  35.731  33.275  1.00  0.00    -0.269 OA
ATOM      6  H   UNL A   1      34.450  35.138  31.160  1.00  0.00     0.163 HD
BRANCH   4   7
ATOM      7  C   UNL A   1      37.051  34.121  33.015  1.00  0.00     0.039 A 
ATOM      8  C   UNL A   1      39.252  32.659  33.998  1.00  0.00     0.060 A 
ATOM      9  C   UNL A   1      37.951  32.329  34.389  1.00  0.00     0.029 A 
ATOM     10  C   UNL A   1      39.433  33.685  33.068  1.00  0.00     0.029 A 
ATOM     11  C   UNL A   1      36.857  33.055  33.903  1.00  0.00     0.016 A 
ATOM     12  C   UNL A   1      38.343  34.397  32.565  1.00  0.00     0.016 A 
BRANCH   8  13
ATOM     13  N   UNL A   1      40.365  32.006  34.511  1.00  0.00    -0.257 N 
ATOM     14  C   UNL A   1      41.453  30.204  34.803  1.00  0.00     0.071 C 
ATOM     15  N   UNL A   1      40.772  30.857  33.917  1.00  0.00    -0.176 NA
ATOM     16  C   UNL A   1      41.514  30.814  36.174  1.00  0.00     0.091 C 
ATOM     17  C   UNL A   1      40.725  32.112  35.929  1.00  0.00     0.144 C 
BRANCH  14  18
ATOM     18  C   UNL A   1      42.149  28.951  34.477  1.00  0.00    -0.002 A 
ATOM     19  C   UNL A   1      43.401  26.532  33.928  1.00  0.00     0.067 A 
ATOM     20  C   UNL A   1      42.347  26.567  34.844  1.00  0.00     0.021 A 
ATOM     21  C   UNL A   1      43.838  27.703  33.292  1.00  0.00     0.021 A 
ATOM     22  C   UNL A   1      41.733  27.785  35.130  1.00  0.00     0.011 A 
ATOM     23  C   UNL A   1      43.199  28.918  33.559  1.00  0.00     0.011 A 
BRANCH  19  24
ATOM     24  S   UNL A   1      44.211  24.994  33.552  1.00  0.00     0.175 S 
ATOM     25  C   UNL A   1      45.730  25.004  34.467  1.00  0.00     0.163 C 
ATOM     26  O   UNL A   1      44.560  25.028  32.145  1.00  0.00    -0.224 OA
ATOM     27  O   UNL A   1      43.361  23.944  34.085  1.00  0.00    -0.224 OA
ENDBRANCH  19  24
ENDBRANCH  14  18
BRANCH  17  28
ATOM     28  C   UNL A   1      41.428  33.436  36.206  1.00  0.00    -0.023 A 
ATOM     29  C   UNL A   1      40.756  34.655  36.377  1.00  0.00     0.006 A 
ATOM     30  C   UNL A   1      42.828  33.429  36.377  1.00  0.00     0.006 A 
ATOM     31  C   UNL A   1      41.460  35.826  36.683  1.00  0.00     0.000 A 
ATOM     32  C   UNL A   1      43.526  34.592  36.706  1.00  0.00     0.000 A 
ATOM     33  C   UNL A   1      42.842  35.793  36.853  1.00  0.00     0.000 A 
ENDBRANCH  17  28
ENDBRANCH   8  13
ENDBRANCH   4   7
ENDBRANCH   2   3
ENDBRANCH   1   2
BRANCH   1  34
ATOM     34  C   UNL A   1      34.527  32.455  28.423  1.00  0.00     0.118 C 
BRANCH  34  35
ATOM     35  N   UNL A   1      33.879  31.176  28.174  1.00  0.00    -0.352 N 
ATOM     36  C   UNL A   1      34.434  29.931  28.002  1.00  0.00     0.251 C 
ATOM     37  H   UNL A   1      32.897  31.208  28.121  1.00  0.00     0.163 HD
ATOM     38  O   UNL A   1      33.728  29.009  27.600  1.00  0.00    -0.269 OA
BRANCH  36  39
ATOM     39  C   UNL A   1      35.870  29.699  28.277  1.00  0.00     0.039 A 
ATOM     40  C   UNL A   1      36.257  29.315  29.565  1.00  0.00     0.014 A 
ATOM     41  C   UNL A   1      36.839  29.891  27.287  1.00  0.00     0.014 A 
ATOM     42  C   UNL A   1      37.605  29.068  29.844  1.00  0.00     0.010 A 
ATOM     43  C   UNL A   1      38.173  29.581  27.548  1.00  0.00     0.010 A 
ATOM     44  C   UNL A   1      38.571  29.170  28.829  1.00  0.00    -0.014 A 
BRANCH  44  45
ATOM     45  C   UNL A   1      40.000  28.859  29.084  1.00  0.00     0.031 A 
ATOM     46  C   UNL A   1      40.913  29.912  29.651  1.00  0.00     0.074 A 
ATOM     47  C   UNL A   1      40.494  27.654  28.736  1.00  0.00     0.049 A 
ATOM     48  N   UNL A   1      42.207  29.873  29.840  1.00  0.00    -0.248 NA
ATOM     49  C   UNL A   1      40.290  31.191  30.030  1.00  0.00     0.031 C 
ATOM     50  C   UNL A   1      39.719  26.561  28.144  1.00  0.00     0.029 A 
ATOM     51  N   UNL A   1      41.770  27.152  28.814  1.00  0.00    -0.354 N 
ATOM     52  C   UNL A   1      42.556  31.122  30.339  1.00  0.00     0.074 A 
ATOM     53  C   UNL A   1      41.344  31.911  30.385  1.00  0.00     0.031 C 
ATOM     54  C   UNL A   1      40.532  25.515  27.924  1.00  0.00     0.029 A 
ATOM     55  C   UNL A   1      41.889  25.873  28.323  1.00  0.00     0.049 A 
ATOM     56  H   UNL A   1      42.526  27.659  29.185  1.00  0.00     0.167 HD
ATOM     57  C   UNL A   1      43.772  31.564  30.740  1.00  0.00     0.037 A 
ATOM     58  C   UNL A   1      42.973  25.082  28.197  1.00  0.00     0.037 A 
ATOM     59  C   UNL A   1      44.969  30.765  30.719  1.00  0.00     0.049 A 
ATOM     60  C   UNL A   1      44.312  25.593  28.655  1.00  0.00     0.074 A 
ATOM     61  C   UNL A   1      46.240  31.104  31.149  1.00  0.00     0.029 A 
ATOM     62  N   UNL A   1      45.043  29.463  30.243  1.00  0.00    -0.354 N 
ATOM     63  N   UNL A   1      44.616  26.763  29.164  1.00  0.00    -0.248 NA
ATOM     64  C   UNL A   1      45.453  24.676  28.524  1.00  0.00     0.031 C 
ATOM     65  C   UNL A   1      47.089  30.019  30.905  1.00  0.00     0.029 A 
ATOM     66  C   UNL A   1      46.340  28.990  30.359  1.00  0.00     0.049 A 
ATOM     67  H   UNL A   1      44.285  28.952  29.878  1.00  0.00     0.167 HD
ATOM     68  C   UNL A   1      45.978  26.712  29.441  1.00  0.00     0.074 A 
ATOM     69  C   UNL A   1      46.437  25.396  29.047  1.00  0.00     0.031 C 
ATOM     70  C   UNL A   1      46.776  27.671  29.973  1.00  0.00     0.037 A 
BRANCH  57  71
ATOM     71  C   UNL A   1      43.865  32.980  31.239  1.00  0.00     0.058 A 
ATOM     72  C   UNL A   1      44.069  34.058  30.363  1.00  0.00     0.135 A 
ATOM     73  C   UNL A   1      43.731  33.267  32.608  1.00  0.00     0.135 A 
ATOM     74  F   UNL A   1      44.219  33.839  29.046  1.00  0.00    -0.206 F 
ATOM     75  C   UNL A   1      44.170  35.365  30.827  1.00  0.00     0.059 A 
ATOM     76  C   UNL A   1      43.801  34.571  33.092  1.00  0.00     0.059 A 
ATOM     77  F   UNL A   1      43.533  32.275  33.491  1.00  0.00    -0.206 F 
ATOM     78  C   UNL A   1      44.039  35.612  32.195  1.00  0.00     0.060 A 
BRANCH  78  79
ATOM     79  S   UNL A   1      44.181  37.313  32.784  1.00  0.00     0.124 S 
ATOM     80  O   UNL A   1      45.510  37.299  33.388  1.00  0.00    -0.237 OA
ATOM     81  O   UNL A   1      44.054  38.084  31.551  1.00  0.00    -0.237 OA
ATOM     82  O   UNL A   1      43.068  37.442  33.718  1.00  0.00    -0.744 OA
ENDBRANCH  78  79
ENDBRANCH  57  71
BRANCH  58  83
ATOM     83  C   UNL A   1      42.829  23.714  27.635  1.00  0.00     0.058 A 
ATOM     84  C   UNL A   1      43.071  23.466  26.277  1.00  0.00     0.135 A 
ATOM     85  C   UNL A   1      42.469  22.625  28.445  1.00  0.00     0.135 A 
ATOM     86  F   UNL A   1      43.412  24.477  25.462  1.00  0.00    -0.206 F 
ATOM     87  C   UNL A   1      42.953  22.191  25.735  1.00  0.00     0.059 A 
ATOM     88  C   UNL A   1      42.366  21.337  27.932  1.00  0.00     0.059 A 
ATOM     89  F   UNL A   1      42.242  22.808  29.755  1.00  0.00    -0.206 F 
ATOM     90  C   UNL A   1      42.602  21.130  26.573  1.00  0.00     0.060 A 
BRANCH  90  91
ATOM     91  S   UNL A   1      42.509  19.467  25.873  1.00  0.00     0.124 S 
ATOM     92  O   UNL A   1      43.325  19.608  24.673  1.00  0.00    -0.237 OA
ATOM     93  O   UNL A   1      43.079  18.652  26.941  1.00  0.00    -0.237 OA
ATOM     94  O   UNL A   1      41.079  19.279  25.648  1.00  0.00    -0.744 OA
ENDBRANCH  90  91
ENDBRANCH  58  83
BRANCH  70  95
ATOM     95  C   UNL A   1      48.220  27.320  30.200  1.00  0.00     0.058 A 
ATOM     96  C   UNL A   1      49.212  27.636  29.260  1.00  0.00     0.135 A 
ATOM     97  C   UNL A   1      48.620  26.708  31.399  1.00  0.00     0.135 A 
ATOM     98  F   UNL A   1      48.879  28.215  28.095  1.00  0.00    -0.206 F 
ATOM     99  C   UNL A   1      50.551  27.340  29.493  1.00  0.00     0.059 A 
ATOM    100  C   UNL A   1      49.956  26.424  31.662  1.00  0.00     0.059 A 
ATOM    101  F   UNL A   1      47.710  26.393  32.335  1.00  0.00    -0.206 F 
ATOM    102  C   UNL A   1      50.914  26.735  30.698  1.00  0.00     0.060 A 
BRANCH 102 103
ATOM    103  S   UNL A   1      52.659  26.390  31.005  1.00  0.00     0.124 S 
ATOM    104  O   UNL A   1      52.583  25.156  31.779  1.00  0.00    -0.237 OA
ATOM    105  O   UNL A   1      53.196  26.258  29.654  1.00  0.00    -0.237 OA
ATOM    106  O   UNL A   1      53.113  27.566  31.740  1.00  0.00    -0.744 OA
ENDBRANCH 102 103
ENDBRANCH  70  95
ENDBRANCH  44  45
ENDBRANCH  36  39
ENDBRANCH  34  35
ENDBRANCH   1  34
TORSDOF 17
ENDMDL
MODEL 3
REMARK VINA RESULT:     -10.3      4.075     12.615
REMARK SMILES CS(=O)(=O)c1ccc(C2=NN(c3ccc(C(=O)NCCCNC(=O)c4ccc(-c5c6nc(c(-c7c(F)cc(S(=O)(=O)[O-])cc7F)c7ccc([nH]7)c(-c7c(F)cc(S(=O)(=O)[O-])cc7F)c7nc(c(-c8c(F)cc(S(=O)(=O)[O-])cc8F)c8ccc5[nH]8)C=C7)C=C6)cc4)cc3)[C@H](c3ccccc3)C2)cc1
REMARK SMILES IDX 20 1 19 2 18 3 16 4 17 5 15 7 12 8 13 9 92 10 14 11 91 12
REMARK SMILES IDX 11 13 9 14 10 15 100 16 93 17 8 18 5 19 6 20 102 21 7 22
REMARK SMILES IDX 101 23 2 24 1 25 3 26 4 27 94 28 95 29 99 30 96 31 98 32
REMARK SMILES IDX 97 33 21 34 22 35 23 36 24 38 25 39 26 40 90 41 27 42 89 43
REMARK SMILES IDX 28 44 29 45 30 46 83 47 31 48 88 49 82 50 84 51 32 52 87 53
REMARK SMILES IDX 81 54 80 55 33 57 67 58 46 59 66 60 47 61 50 62 65 63 85 64
REMARK SMILES IDX 48 65 49 66 64 68 86 69 51 70 34 71 35 72 44 73 36 74 37 75
REMARK SMILES IDX 43 76 45 77 38 78 39 79 40 80 41 81 42 82 68 83 69 84 78 85
REMARK SMILES IDX 70 86 71 87 77 88 79 89 72 90 73 91 74 92 75 93 76 94 52 95
REMARK SMILES IDX 53 96 62 97 54 98 55 99 61 100 63 101 56 102 57 103 58 104
REMARK SMILES IDX 59 105 60 106
REMARK H PARENT 18 6 22 37 84 56 50 67
REMARK Flexibility Score: inf
ROOT
ATOM      1  C   UNL A   1      34.330  33.178  29.372  1.00  0.00     0.042 C 
ENDROOT
BRANCH   1   2
ATOM      2  C   UNL A   1      34.970  34.560  29.484  1.00  0.00     0.118 C 
BRANCH   2   3
ATOM      3  N   UNL A   1      36.257  34.621  28.811  1.00  0.00    -0.352 N 
ATOM      4  C   UNL A   1      37.501  34.188  29.202  1.00  0.00     0.251 C 
ATOM      5  O   UNL A   1      38.414  34.207  28.377  1.00  0.00    -0.269 OA
ATOM      6  H   UNL A   1      36.233  35.043  27.922  1.00  0.00     0.163 HD
BRANCH   4   7
ATOM      7  C   UNL A   1      37.762  33.652  30.562  1.00  0.00     0.039 A 
ATOM      8  C   UNL A   1      38.367  32.712  33.151  1.00  0.00     0.060 A 
ATOM      9  C   UNL A   1      38.943  33.894  32.673  1.00  0.00     0.029 A 
ATOM     10  C   UNL A   1      37.445  32.042  32.344  1.00  0.00     0.029 A 
ATOM     11  C   UNL A   1      38.645  34.361  31.388  1.00  0.00     0.016 A 
ATOM     12  C   UNL A   1      37.129  32.517  31.070  1.00  0.00     0.016 A 
BRANCH   8  13
ATOM     13  N   UNL A   1      38.691  32.182  34.393  1.00  0.00    -0.257 N 
ATOM     14  C   UNL A   1      38.721  32.373  36.509  1.00  0.00     0.071 C 
ATOM     15  N   UNL A   1      37.975  32.580  35.472  1.00  0.00    -0.176 NA
ATOM     16  C   UNL A   1      40.113  31.877  36.234  1.00  0.00     0.091 C 
ATOM     17  C   UNL A   1      40.057  31.746  34.703  1.00  0.00     0.144 C 
BRANCH  14  18
ATOM     18  C   UNL A   1      38.227  32.586  37.876  1.00  0.00    -0.002 A 
ATOM     19  C   UNL A   1      37.235  32.902  40.452  1.00  0.00     0.067 A 
ATOM     20  C   UNL A   1      36.801  31.824  39.677  1.00  0.00     0.021 A 
ATOM     21  C   UNL A   1      38.156  33.828  39.941  1.00  0.00     0.021 A 
ATOM     22  C   UNL A   1      37.288  31.679  38.379  1.00  0.00     0.011 A 
ATOM     23  C   UNL A   1      38.665  33.662  38.650  1.00  0.00     0.011 A 
BRANCH  19  24
ATOM     24  S   UNL A   1      36.622  33.119  42.108  1.00  0.00     0.175 S 
ATOM     25  C   UNL A   1      35.789  31.609  42.523  1.00  0.00     0.163 C 
ATOM     26  O   UNL A   1      35.614  34.161  42.057  1.00  0.00    -0.224 OA
ATOM     27  O   UNL A   1      37.788  33.250  42.962  1.00  0.00    -0.224 OA
ENDBRANCH  19  24
ENDBRANCH  14  18
BRANCH  17  28
ATOM     28  C   UNL A   1      40.333  30.376  34.094  1.00  0.00    -0.023 A 
ATOM     29  C   UNL A   1      39.356  29.588  33.469  1.00  0.00     0.006 A 
ATOM     30  C   UNL A   1      41.661  29.901  34.087  1.00  0.00     0.006 A 
ATOM     31  C   UNL A   1      39.690  28.362  32.882  1.00  0.00     0.000 A 
ATOM     32  C   UNL A   1      41.997  28.690  33.480  1.00  0.00     0.000 A 
ATOM     33  C   UNL A   1      41.009  27.916  32.882  1.00  0.00     0.000 A 
ENDBRANCH  17  28
ENDBRANCH   8  13
ENDBRANCH   4   7
ENDBRANCH   2   3
ENDBRANCH   1   2
BRANCH   1  34
ATOM     34  C   UNL A   1      34.608  32.476  28.048  1.00  0.00     0.118 C 
BRANCH  34  35
ATOM     35  N   UNL A   1      33.916  31.200  27.945  1.00  0.00    -0.352 N 
ATOM     36  C   UNL A   1      34.429  29.926  27.921  1.00  0.00     0.251 C 
ATOM     37  H   UNL A   1      32.936  31.259  27.885  1.00  0.00     0.163 HD
ATOM     38  O   UNL A   1      33.692  28.988  27.625  1.00  0.00    -0.269 OA
BRANCH  36  39
ATOM     39  C   UNL A   1      35.856  29.678  28.227  1.00  0.00     0.039 A 
ATOM     40  C   UNL A   1      36.215  29.327  29.533  1.00  0.00     0.014 A 
ATOM     41  C   UNL A   1      36.845  29.824  27.249  1.00  0.00     0.014 A 
ATOM     42  C   UNL A   1      37.554  29.067  29.842  1.00  0.00     0.010 A 
ATOM     43  C   UNL A   1      38.168  29.501  27.542  1.00  0.00     0.010 A 
ATOM     44  C   UNL A   1      38.538  29.123  28.842  1.00  0.00    -0.014 A 
BRANCH  44  45
ATOM     45  C   UNL A   1      39.958  28.796  29.130  1.00  0.00     0.031 A 
ATOM     46  C   UNL A   1      40.860  29.830  29.748  1.00  0.00     0.074 A 
ATOM     47  C   UNL A   1      40.454  27.597  28.768  1.00  0.00     0.049 A 
ATOM     48  N   UNL A   1      42.147  29.777  29.973  1.00  0.00    -0.248 NA
ATOM     49  C   UNL A   1      40.234  31.103  30.140  1.00  0.00     0.031 C 
ATOM     50  C   UNL A   1      39.690  26.523  28.128  1.00  0.00     0.029 A 
ATOM     51  N   UNL A   1      41.724  27.084  28.871  1.00  0.00    -0.354 N 
ATOM     52  C   UNL A   1      42.490  31.012  30.512  1.00  0.00     0.074 A 
ATOM     53  C   UNL A   1      41.281  31.808  30.541  1.00  0.00     0.031 C 
ATOM     54  C   UNL A   1      40.503  25.477  27.907  1.00  0.00     0.029 A 
ATOM     55  C   UNL A   1      41.850  25.816  28.353  1.00  0.00     0.049 A 
ATOM     56  H   UNL A   1      42.472  27.577  29.276  1.00  0.00     0.167 HD
ATOM     57  C   UNL A   1      43.696  31.436  30.958  1.00  0.00     0.037 A 
ATOM     58  C   UNL A   1      42.932  25.021  28.240  1.00  0.00     0.037 A 
ATOM     59  C   UNL A   1      44.888  30.630  30.953  1.00  0.00     0.049 A 
ATOM     60  C   UNL A   1      44.260  25.512  28.748  1.00  0.00     0.074 A 
ATOM     61  C   UNL A   1      46.148  30.950  31.427  1.00  0.00     0.029 A 
ATOM     62  N   UNL A   1      44.968  29.339  30.449  1.00  0.00    -0.354 N 
ATOM     63  N   UNL A   1      44.557  26.668  29.294  1.00  0.00    -0.248 NA
ATOM     64  C   UNL A   1      45.400  24.591  28.629  1.00  0.00     0.031 C 
ATOM     65  C   UNL A   1      46.997  29.866  31.182  1.00  0.00     0.029 A 
ATOM     66  C   UNL A   1      46.258  28.854  30.591  1.00  0.00     0.049 A 
ATOM     67  H   UNL A   1      44.218  28.842  30.050  1.00  0.00     0.167 HD
ATOM     68  C   UNL A   1      45.910  26.602  29.609  1.00  0.00     0.074 A 
ATOM     69  C   UNL A   1      46.372  25.292  29.198  1.00  0.00     0.031 C 
ATOM     70  C   UNL A   1      46.697  27.542  30.187  1.00  0.00     0.037 A 
BRANCH  57  71
ATOM     71  C   UNL A   1      43.783  32.840  31.494  1.00  0.00     0.058 A 
ATOM     72  C   UNL A   1      43.945  33.944  30.641  1.00  0.00     0.135 A 
ATOM     73  C   UNL A   1      43.685  33.087  32.873  1.00  0.00     0.135 A 
ATOM     74  F   UNL A   1      44.060  33.762  29.316  1.00  0.00    -0.206 F 
ATOM     75  C   UNL A   1      44.041  35.239  31.138  1.00  0.00     0.059 A 
ATOM     76  C   UNL A   1      43.750  34.378  33.390  1.00  0.00     0.059 A 
ATOM     77  F   UNL A   1      43.527  32.069  33.734  1.00  0.00    -0.206 F 
ATOM     78  C   UNL A   1      43.947  35.446  32.516  1.00  0.00     0.060 A 
BRANCH  78  79
ATOM     79  S   UNL A   1      44.081  37.133  33.147  1.00  0.00     0.124 S 
ATOM     80  O   UNL A   1      44.045  37.908  31.911  1.00  0.00    -0.237 OA
ATOM     81  O   UNL A   1      42.902  37.244  33.999  1.00  0.00    -0.237 OA
ATOM     82  O   UNL A   1      45.360  37.130  33.849  1.00  0.00    -0.744 OA
ENDBRANCH  78  79
ENDBRANCH  57  71
BRANCH  58  83
ATOM     83  C   UNL A   1      42.796  23.668  27.642  1.00  0.00     0.058 A 
ATOM     84  C   UNL A   1      43.011  23.463  26.272  1.00  0.00     0.135 A 
ATOM     85  C   UNL A   1      42.472  22.550  28.428  1.00  0.00     0.135 A 
ATOM     86  F   UNL A   1      43.316  24.502  25.479  1.00  0.00    -0.206 F 
ATOM     87  C   UNL A   1      42.899  22.202  25.696  1.00  0.00     0.059 A 
ATOM     88  C   UNL A   1      42.378  21.275  27.880  1.00  0.00     0.059 A 
ATOM     89  F   UNL A   1      42.274  22.692  29.747  1.00  0.00    -0.206 F 
ATOM     90  C   UNL A   1      42.585  21.112  26.510  1.00  0.00     0.060 A 
BRANCH  90  91
ATOM     91  S   UNL A   1      42.501  19.469  25.765  1.00  0.00     0.124 S 
ATOM     92  O   UNL A   1      41.083  19.367  25.439  1.00  0.00    -0.237 OA
ATOM     93  O   UNL A   1      43.410  19.599  24.630  1.00  0.00    -0.237 OA
ATOM     94  O   UNL A   1      42.969  18.592  26.834  1.00  0.00    -0.744 OA
ENDBRANCH  90  91
ENDBRANCH  58  83
BRANCH  70  95
ATOM     95  C   UNL A   1      48.132  27.176  30.446  1.00  0.00     0.058 A 
ATOM     96  C   UNL A   1      49.158  27.536  29.559  1.00  0.00     0.135 A 
ATOM     97  C   UNL A   1      48.488  26.504  31.627  1.00  0.00     0.135 A 
ATOM     98  F   UNL A   1      48.866  28.174  28.414  1.00  0.00    -0.206 F 
ATOM     99  C   UNL A   1      50.487  27.226  29.824  1.00  0.00     0.059 A 
ATOM    100  C   UNL A   1      49.815  26.204  31.923  1.00  0.00     0.059 A 
ATOM    101  F   UNL A   1      47.546  26.145  32.513  1.00  0.00    -0.206 F 
ATOM    102  C   UNL A   1      50.806  26.560  31.009  1.00  0.00     0.060 A 
BRANCH 102 103
ATOM    103  S   UNL A   1      52.539  26.195  31.361  1.00  0.00     0.124 S 
ATOM    104  O   UNL A   1      53.113  26.172  30.019  1.00  0.00    -0.237 OA
ATOM    105  O   UNL A   1      52.933  27.324  32.199  1.00  0.00    -0.237 OA
ATOM    106  O   UNL A   1      52.483  24.906  32.043  1.00  0.00    -0.744 OA
ENDBRANCH 102 103
ENDBRANCH  70  95
ENDBRANCH  44  45
ENDBRANCH  36  39
ENDBRANCH  34  35
ENDBRANCH   1  34
TORSDOF 17
ENDMDL
