MODEL 1
REMARK VINA RESULT:     -13.8      0.000      0.000
REMARK SMILES O=C(NCCCNC(=O)c1[nH]ncc1C[N@H+]1CCC[C@H](C(=O)c2ccc3ccccc3c2)C1)c1ccc(-c2c3nc(c(-c4c(F)cc(S(=O)(=O)[O-])cc4F)c4ccc([nH]4)c(-c4c(F)cc(S(=O)(=O)[O-])cc4F)c4nc(c(-c5c(F)cc(S(=O)(=O)[O-])cc5F)c5ccc2[nH]5)C=C4)C=C3)cc1
REMARK SMILES IDX 5 1 4 2 3 3 1 4 2 5 34 7 35 8 99 9 36 10 98 11 37 12 38 13
REMARK SMILES IDX 39 14 92 15 40 16 97 17 91 18 93 19 41 20 96 21 90 22 89 23
REMARK SMILES IDX 42 25 76 26 55 27 75 28 56 29 59 30 74 31 94 32 57 33 58 34
REMARK SMILES IDX 73 36 95 37 60 38 43 39 44 40 53 41 45 42 46 43 52 44 54 45
REMARK SMILES IDX 47 46 48 47 49 48 50 49 51 50 77 51 78 52 87 53 79 54 80 55
REMARK SMILES IDX 86 56 88 57 81 58 82 59 83 60 84 61 85 62 61 63 62 64 71 65
REMARK SMILES IDX 63 66 64 67 70 68 72 69 65 70 66 71 67 72 68 73 69 74 6 75
REMARK SMILES IDX 7 76 8 77 9 79 10 80 11 81 14 82 12 83 13 85 15 86 16 87
REMARK SMILES IDX 17 88 33 89 18 91 20 92 19 93 21 94 22 95 23 96 24 97 32 98
REMARK SMILES IDX 25 99 31 100 26 101 30 102 27 103 29 104 28 105
REMARK H PARENT 3 6 93 24 59 35 7 78 11 84 16 90
REMARK Flexibility Score: inf
ROOT
ATOM      1  C   UNL A   1      33.705  28.754  27.131  1.00  0.00     0.042 C 
ENDROOT
BRANCH   1   2
ATOM      2  C   UNL A   1      35.064  29.383  27.400  1.00  0.00     0.118 C 
BRANCH   2   3
ATOM      3  N   UNL A   1      35.144  29.999  28.719  1.00  0.00    -0.352 N 
ATOM      4  O   UNL A   1      35.967  30.446  30.761  1.00  0.00    -0.269 OA
ATOM      5  C   UNL A   1      36.187  30.070  29.612  1.00  0.00     0.251 C 
ATOM      6  H   UNL A   1      34.314  30.435  29.019  1.00  0.00     0.163 HD
BRANCH   5   7
ATOM      7  C   UNL A   1      37.556  29.683  29.208  1.00  0.00     0.039 A 
ATOM      8  C   UNL A   1      38.444  29.124  30.128  1.00  0.00     0.014 A 
ATOM      9  C   UNL A   1      37.950  29.843  27.875  1.00  0.00     0.014 A 
ATOM     10  C   UNL A   1      39.764  28.893  29.766  1.00  0.00     0.010 A 
ATOM     11  C   UNL A   1      39.251  29.506  27.484  1.00  0.00     0.010 A 
ATOM     12  C   UNL A   1      40.181  29.061  28.436  1.00  0.00    -0.014 A 
BRANCH  12  13
ATOM     13  C   UNL A   1      41.576  28.707  28.071  1.00  0.00     0.031 A 
ATOM     14  C   UNL A   1      42.690  29.712  28.169  1.00  0.00     0.074 A 
ATOM     15  C   UNL A   1      41.842  27.438  27.700  1.00  0.00     0.049 A 
ATOM     16  N   UNL A   1      43.967  29.547  27.940  1.00  0.00    -0.248 NA
ATOM     17  C   UNL A   1      42.324  31.081  28.567  1.00  0.00     0.031 C 
ATOM     18  C   UNL A   1      40.839  26.378  27.554  1.00  0.00     0.029 A 
ATOM     19  N   UNL A   1      43.027  26.811  27.417  1.00  0.00    -0.354 N 
ATOM     20  C   UNL A   1      44.554  30.792  28.130  1.00  0.00     0.074 A 
ATOM     21  C   UNL A   1      43.490  31.708  28.485  1.00  0.00     0.031 C 
ATOM     22  C   UNL A   1      41.459  25.220  27.286  1.00  0.00     0.029 A 
ATOM     23  C   UNL A   1      42.892  25.466  27.177  1.00  0.00     0.049 A 
ATOM     24  H   UNL A   1      43.892  27.281  27.389  1.00  0.00     0.167 HD
ATOM     25  C   UNL A   1      45.860  31.137  28.023  1.00  0.00     0.037 A 
ATOM     26  C   UNL A   1      43.815  24.528  26.898  1.00  0.00     0.037 A 
ATOM     27  C   UNL A   1      46.919  30.215  27.701  1.00  0.00     0.049 A 
ATOM     28  C   UNL A   1      45.256  24.930  26.808  1.00  0.00     0.074 A 
ATOM     29  C   UNL A   1      48.277  30.462  27.599  1.00  0.00     0.029 A 
ATOM     30  N   UNL A   1      46.738  28.866  27.433  1.00  0.00    -0.354 N 
ATOM     31  N   UNL A   1      45.791  26.111  26.998  1.00  0.00    -0.248 NA
ATOM     32  C   UNL A   1      46.216  23.877  26.453  1.00  0.00     0.031 C 
ATOM     33  C   UNL A   1      48.914  29.266  27.244  1.00  0.00     0.029 A 
ATOM     34  C   UNL A   1      47.957  28.269  27.152  1.00  0.00     0.049 A 
ATOM     35  H   UNL A   1      45.870  28.400  27.440  1.00  0.00     0.167 HD
ATOM     36  C   UNL A   1      47.153  25.948  26.783  1.00  0.00     0.074 A 
ATOM     37  C   UNL A   1      47.361  24.547  26.470  1.00  0.00     0.031 C 
ATOM     38  C   UNL A   1      48.141  26.876  26.833  1.00  0.00     0.037 A 
BRANCH  25  39
ATOM     39  C   UNL A   1      46.210  32.583  28.233  1.00  0.00     0.058 A 
ATOM     40  C   UNL A   1      46.162  33.515  27.185  1.00  0.00     0.135 A 
ATOM     41  C   UNL A   1      46.595  33.044  29.503  1.00  0.00     0.135 A 
ATOM     42  F   UNL A   1      45.814  33.124  25.948  1.00  0.00    -0.206 F 
ATOM     43  C   UNL A   1      46.516  34.847  27.380  1.00  0.00     0.059 A 
ATOM     44  C   UNL A   1      46.936  34.375  29.725  1.00  0.00     0.059 A 
ATOM     45  F   UNL A   1      46.657  32.193  30.540  1.00  0.00    -0.206 F 
ATOM     46  C   UNL A   1      46.912  35.265  28.652  1.00  0.00     0.060 A 
BRANCH  46  47
ATOM     47  S   UNL A   1      47.400  36.987  28.891  1.00  0.00     0.124 S 
ATOM     48  O   UNL A   1      46.381  37.686  28.113  1.00  0.00    -0.237 OA
ATOM     49  O   UNL A   1      47.308  37.146  30.339  1.00  0.00    -0.237 OA
ATOM     50  O   UNL A   1      48.752  37.034  28.344  1.00  0.00    -0.744 OA
ENDBRANCH  46  47
ENDBRANCH  25  39
BRANCH  26  51
ATOM     51  C   UNL A   1      43.386  23.121  26.701  1.00  0.00     0.058 A 
ATOM     52  C   UNL A   1      43.389  22.542  25.425  1.00  0.00     0.135 A 
ATOM     53  C   UNL A   1      43.044  22.308  27.793  1.00  0.00     0.135 A 
ATOM     54  F   UNL A   1      43.708  23.282  24.353  1.00  0.00    -0.206 F 
ATOM     55  C   UNL A   1      43.078  21.199  25.237  1.00  0.00     0.059 A 
ATOM     56  C   UNL A   1      42.748  20.959  27.632  1.00  0.00     0.059 A 
ATOM     57  F   UNL A   1      43.046  22.816  29.035  1.00  0.00    -0.206 F 
ATOM     58  C   UNL A   1      42.767  20.414  26.348  1.00  0.00     0.060 A 
BRANCH  58  59
ATOM     59  S   UNL A   1      42.466  18.649  26.113  1.00  0.00     0.124 S 
ATOM     60  O   UNL A   1      42.804  18.116  27.428  1.00  0.00    -0.237 OA
ATOM     61  O   UNL A   1      41.050  18.619  25.757  1.00  0.00    -0.237 OA
ATOM     62  O   UNL A   1      43.381  18.297  25.031  1.00  0.00    -0.744 OA
ENDBRANCH  58  59
ENDBRANCH  26  51
BRANCH  38  63
ATOM     63  C   UNL A   1      49.532  26.398  26.541  1.00  0.00     0.058 A 
ATOM     64  C   UNL A   1      50.055  26.435  25.239  1.00  0.00     0.135 A 
ATOM     65  C   UNL A   1      50.356  25.926  27.573  1.00  0.00     0.135 A 
ATOM     66  F   UNL A   1      49.300  26.871  24.219  1.00  0.00    -0.206 F 
ATOM     67  C   UNL A   1      51.347  25.997  24.966  1.00  0.00     0.059 A 
ATOM     68  C   UNL A   1      51.656  25.498  27.325  1.00  0.00     0.059 A 
ATOM     69  F   UNL A   1      49.899  25.878  28.834  1.00  0.00    -0.206 F 
ATOM     70  C   UNL A   1      52.138  25.527  26.016  1.00  0.00     0.060 A 
BRANCH  70  71
ATOM     71  S   UNL A   1      53.822  24.979  25.660  1.00  0.00     0.124 S 
ATOM     72  O   UNL A   1      53.614  23.563  25.373  1.00  0.00    -0.237 OA
ATOM     73  O   UNL A   1      54.191  25.810  24.519  1.00  0.00    -0.237 OA
ATOM     74  O   UNL A   1      54.538  25.272  26.897  1.00  0.00    -0.744 OA
ENDBRANCH  70  71
ENDBRANCH  38  63
ENDBRANCH  12  13
ENDBRANCH   5   7
ENDBRANCH   2   3
ENDBRANCH   1   2
BRANCH   1  75
ATOM     75  C   UNL A   1      32.924  29.458  26.033  1.00  0.00     0.118 C 
BRANCH  75  76
ATOM     76  N   UNL A   1      33.556  29.313  24.730  1.00  0.00    -0.351 N 
ATOM     77  C   UNL A   1      33.000  28.954  23.529  1.00  0.00     0.269 C 
ATOM     78  H   UNL A   1      34.523  29.500  24.707  1.00  0.00     0.163 HD
ATOM     79  O   UNL A   1      33.744  28.601  22.619  1.00  0.00    -0.268 OA
BRANCH  77  80
ATOM     80  C   UNL A   1      31.573  28.972  23.389  1.00  0.00     0.131 A 
ATOM     81  N   UNL A   1      30.825  30.050  23.768  1.00  0.00    -0.272 N 
ATOM     82  C   UNL A   1      30.660  28.004  22.986  1.00  0.00     0.057 A 
ATOM     83  N   UNL A   1      29.514  29.917  23.509  1.00  0.00    -0.183 NA
ATOM     84  H   UNL A   1      31.209  30.851  24.192  1.00  0.00     0.190 HD
ATOM     85  C   UNL A   1      29.417  28.678  23.024  1.00  0.00     0.145 A 
BRANCH  82  86
ATOM     86  C   UNL A   1      30.943  26.588  22.594  1.00  0.00     0.303 C 
BRANCH  86  87
ATOM     87  N   UNL A   1      31.068  25.653  23.714  1.00  0.00    -0.330 N 
ATOM     88  C   UNL A   1      30.245  25.992  24.874  1.00  0.00     0.262 C 
ATOM     89  C   UNL A   1      30.942  24.252  23.322  1.00  0.00     0.274 C 
ATOM     90  H   UNL A   1      32.032  25.769  24.028  1.00  0.00     0.348 HD
ATOM     91  C   UNL A   1      30.662  25.170  26.088  1.00  0.00     0.062 C 
ATOM     92  C   UNL A   1      31.379  23.315  24.453  1.00  0.00     0.116 C 
ATOM     93  C   UNL A   1      30.732  23.672  25.795  1.00  0.00     0.023 C 
BRANCH  92  94
ATOM     94  C   UNL A   1      32.896  23.098  24.436  1.00  0.00     0.171 C 
ATOM     95  O   UNL A   1      33.677  24.049  24.514  1.00  0.00    -0.294 OA
BRANCH  94  96
ATOM     96  C   UNL A   1      33.484  21.740  24.440  1.00  0.00     0.019 A 
ATOM     97  C   UNL A   1      34.733  21.502  25.010  1.00  0.00     0.012 A 
ATOM     98  C   UNL A   1      32.716  20.672  23.961  1.00  0.00     0.020 A 
ATOM     99  C   UNL A   1      35.262  20.211  25.011  1.00  0.00     0.009 A 
ATOM    100  C   UNL A   1      33.225  19.361  23.985  1.00  0.00    -0.018 A 
ATOM    101  C   UNL A   1      34.525  19.133  24.497  1.00  0.00    -0.018 A 
ATOM    102  C   UNL A   1      32.474  18.270  23.518  1.00  0.00     0.009 A 
ATOM    103  C   UNL A   1      35.045  17.829  24.498  1.00  0.00     0.009 A 
ATOM    104  C   UNL A   1      33.003  16.977  23.537  1.00  0.00     0.001 A 
ATOM    105  C   UNL A   1      34.289  16.759  24.020  1.00  0.00     0.001 A 
ENDBRANCH  94  96
ENDBRANCH  92  94
ENDBRANCH  86  87
ENDBRANCH  82  86
ENDBRANCH  77  80
ENDBRANCH  75  76
ENDBRANCH   1  75
TORSDOF 17
ENDMDL
MODEL 2
REMARK VINA RESULT:     -13.7      1.489      8.188
REMARK SMILES O=C(NCCCNC(=O)c1[nH]ncc1C[N@H+]1CCC[C@H](C(=O)c2ccc3ccccc3c2)C1)c1ccc(-c2c3nc(c(-c4c(F)cc(S(=O)(=O)[O-])cc4F)c4ccc([nH]4)c(-c4c(F)cc(S(=O)(=O)[O-])cc4F)c4nc(c(-c5c(F)cc(S(=O)(=O)[O-])cc5F)c5ccc2[nH]5)C=C4)C=C3)cc1
REMARK SMILES IDX 5 1 4 2 3 3 1 4 2 5 34 7 35 8 99 9 36 10 98 11 37 12 38 13
REMARK SMILES IDX 39 14 92 15 40 16 97 17 91 18 93 19 41 20 96 21 90 22 89 23
REMARK SMILES IDX 42 25 76 26 55 27 75 28 56 29 59 30 74 31 94 32 57 33 58 34
REMARK SMILES IDX 73 36 95 37 60 38 43 39 44 40 53 41 45 42 46 43 52 44 54 45
REMARK SMILES IDX 47 46 48 47 49 48 50 49 51 50 77 51 78 52 87 53 79 54 80 55
REMARK SMILES IDX 86 56 88 57 81 58 82 59 83 60 84 61 85 62 61 63 62 64 71 65
REMARK SMILES IDX 63 66 64 67 70 68 72 69 65 70 66 71 67 72 68 73 69 74 6 75
REMARK SMILES IDX 7 76 8 77 9 79 10 80 11 81 14 82 12 83 13 85 15 86 16 87
REMARK SMILES IDX 17 88 33 89 18 91 20 92 19 93 21 94 22 95 23 96 24 97 32 98
REMARK SMILES IDX 25 99 31 100 26 101 30 102 27 103 29 104 28 105
REMARK H PARENT 3 6 93 24 59 35 7 78 11 84 16 90
REMARK Flexibility Score: inf
ROOT
ATOM      1  C   UNL A   1      33.813  28.653  26.673  1.00  0.00     0.042 C 
ENDROOT
BRANCH   1   2
ATOM      2  C   UNL A   1      35.182  29.024  27.223  1.00  0.00     0.118 C 
BRANCH   2   3
ATOM      3  N   UNL A   1      35.098  29.833  28.432  1.00  0.00    -0.352 N 
ATOM      4  O   UNL A   1      35.703  30.650  30.436  1.00  0.00    -0.269 OA
ATOM      5  C   UNL A   1      36.051  30.131  29.378  1.00  0.00     0.251 C 
ATOM      6  H   UNL A   1      34.213  30.230  28.601  1.00  0.00     0.163 HD
BRANCH   5   7
ATOM      7  C   UNL A   1      37.477  29.816  29.140  1.00  0.00     0.039 A 
ATOM      8  C   UNL A   1      38.059  30.030  27.890  1.00  0.00     0.014 A 
ATOM      9  C   UNL A   1      38.259  29.338  30.196  1.00  0.00     0.014 A 
ATOM     10  C   UNL A   1      39.358  29.604  27.649  1.00  0.00     0.010 A 
ATOM     11  C   UNL A   1      39.603  29.012  29.979  1.00  0.00     0.010 A 
ATOM     12  C   UNL A   1      40.154  29.108  28.693  1.00  0.00    -0.014 A 
BRANCH  12  13
ATOM     13  C   UNL A   1      41.570  28.758  28.412  1.00  0.00     0.031 A 
ATOM     14  C   UNL A   1      41.962  27.373  27.978  1.00  0.00     0.074 A 
ATOM     15  C   UNL A   1      42.502  29.729  28.498  1.00  0.00     0.049 A 
ATOM     16  N   UNL A   1      43.143  26.921  27.644  1.00  0.00    -0.248 NA
ATOM     17  C   UNL A   1      40.895  26.362  27.920  1.00  0.00     0.031 C 
ATOM     18  C   UNL A   1      42.242  31.108  28.923  1.00  0.00     0.029 A 
ATOM     19  N   UNL A   1      43.839  29.723  28.199  1.00  0.00    -0.354 N 
ATOM     20  C   UNL A   1      42.973  25.570  27.369  1.00  0.00     0.074 A 
ATOM     21  C   UNL A   1      41.573  25.272  27.586  1.00  0.00     0.031 C 
ATOM     22  C   UNL A   1      43.362  31.830  28.784  1.00  0.00     0.029 A 
ATOM     23  C   UNL A   1      44.434  30.955  28.323  1.00  0.00     0.049 A 
ATOM     24  H   UNL A   1      44.326  28.913  27.922  1.00  0.00     0.167 HD
ATOM     25  C   UNL A   1      43.898  24.665  26.969  1.00  0.00     0.037 A 
ATOM     26  C   UNL A   1      45.701  31.345  28.092  1.00  0.00     0.037 A 
ATOM     27  C   UNL A   1      45.283  24.975  26.724  1.00  0.00     0.049 A 
ATOM     28  C   UNL A   1      46.701  30.329  27.628  1.00  0.00     0.074 A 
ATOM     29  C   UNL A   1      46.292  24.133  26.287  1.00  0.00     0.029 A 
ATOM     30  N   UNL A   1      45.855  26.227  26.892  1.00  0.00    -0.354 N 
ATOM     31  N   UNL A   1      46.517  29.057  27.368  1.00  0.00    -0.248 NA
ATOM     32  C   UNL A   1      48.079  30.796  27.439  1.00  0.00     0.031 C 
ATOM     33  C   UNL A   1      47.479  24.873  26.215  1.00  0.00     0.029 A 
ATOM     34  C   UNL A   1      47.204  26.181  26.580  1.00  0.00     0.049 A 
ATOM     35  H   UNL A   1      45.372  27.033  27.190  1.00  0.00     0.167 HD
ATOM     36  C   UNL A   1      47.759  28.567  26.987  1.00  0.00     0.074 A 
ATOM     37  C   UNL A   1      48.680  29.687  27.028  1.00  0.00     0.031 C 
ATOM     38  C   UNL A   1      48.106  27.303  26.639  1.00  0.00     0.037 A 
BRANCH  25  39
ATOM     39  C   UNL A   1      43.441  23.244  26.796  1.00  0.00     0.058 A 
ATOM     40  C   UNL A   1      43.152  22.421  27.895  1.00  0.00     0.135 A 
ATOM     41  C   UNL A   1      43.287  22.699  25.510  1.00  0.00     0.135 A 
ATOM     42  F   UNL A   1      43.297  22.888  29.146  1.00  0.00    -0.206 F 
ATOM     43  C   UNL A   1      42.758  21.097  27.729  1.00  0.00     0.059 A 
ATOM     44  C   UNL A   1      42.877  21.383  25.319  1.00  0.00     0.059 A 
ATOM     45  F   UNL A   1      43.550  23.443  24.425  1.00  0.00    -0.206 F 
ATOM     46  C   UNL A   1      42.633  20.583  26.436  1.00  0.00     0.060 A 
BRANCH  46  47
ATOM     47  S   UNL A   1      42.152  18.856  26.227  1.00  0.00     0.124 S 
ATOM     48  O   UNL A   1      42.336  18.340  27.580  1.00  0.00    -0.237 OA
ATOM     49  O   UNL A   1      40.768  18.964  25.774  1.00  0.00    -0.237 OA
ATOM     50  O   UNL A   1      43.096  18.360  25.231  1.00  0.00    -0.744 OA
ENDBRANCH  46  47
ENDBRANCH  25  39
BRANCH  26  51
ATOM     51  C   UNL A   1      46.072  32.767  28.290  1.00  0.00     0.058 A 
ATOM     52  C   UNL A   1      46.604  33.207  29.510  1.00  0.00     0.135 A 
ATOM     53  C   UNL A   1      45.976  33.694  27.241  1.00  0.00     0.135 A 
ATOM     54  F   UNL A   1      46.712  32.356  30.541  1.00  0.00    -0.206 F 
ATOM     55  C   UNL A   1      47.042  34.517  29.681  1.00  0.00     0.059 A 
ATOM     56  C   UNL A   1      46.425  35.003  27.382  1.00  0.00     0.059 A 
ATOM     57  F   UNL A   1      45.490  33.312  26.050  1.00  0.00    -0.206 F 
ATOM     58  C   UNL A   1      46.956  35.404  28.607  1.00  0.00     0.060 A 
BRANCH  58  59
ATOM     59  S   UNL A   1      47.620  37.073  28.799  1.00  0.00     0.124 S 
ATOM     60  O   UNL A   1      46.984  37.771  27.688  1.00  0.00    -0.237 OA
ATOM     61  O   UNL A   1      47.156  37.442  30.134  1.00  0.00    -0.237 OA
ATOM     62  O   UNL A   1      49.061  36.872  28.682  1.00  0.00    -0.744 OA
ENDBRANCH  58  59
ENDBRANCH  26  51
BRANCH  38  63
ATOM     63  C   UNL A   1      49.543  27.071  26.280  1.00  0.00     0.058 A 
ATOM     64  C   UNL A   1      49.998  27.230  24.962  1.00  0.00     0.135 A 
ATOM     65  C   UNL A   1      50.476  26.714  27.264  1.00  0.00     0.135 A 
ATOM     66  F   UNL A   1      49.139  27.562  23.986  1.00  0.00    -0.206 F 
ATOM     67  C   UNL A   1      51.331  27.020  24.627  1.00  0.00     0.059 A 
ATOM     68  C   UNL A   1      51.817  26.515  26.954  1.00  0.00     0.059 A 
ATOM     69  F   UNL A   1      50.088  26.557  28.539  1.00  0.00    -0.206 F 
ATOM     70  C   UNL A   1      52.233  26.659  25.629  1.00  0.00     0.060 A 
BRANCH  70  71
ATOM     71  S   UNL A   1      53.967  26.409  25.193  1.00  0.00     0.124 S 
ATOM     72  O   UNL A   1      54.605  26.433  26.506  1.00  0.00    -0.237 OA
ATOM     73  O   UNL A   1      53.943  25.112  24.525  1.00  0.00    -0.237 OA
ATOM     74  O   UNL A   1      54.264  27.546  24.328  1.00  0.00    -0.744 OA
ENDBRANCH  70  71
ENDBRANCH  38  63
ENDBRANCH  12  13
ENDBRANCH   5   7
ENDBRANCH   2   3
ENDBRANCH   1   2
BRANCH   1  75
ATOM     75  C   UNL A   1      33.399  29.489  25.473  1.00  0.00     0.118 C 
BRANCH  75  76
ATOM     76  N   UNL A   1      33.986  28.998  24.234  1.00  0.00    -0.351 N 
ATOM     77  C   UNL A   1      33.365  28.532  23.103  1.00  0.00     0.269 C 
ATOM     78  H   UNL A   1      34.970  29.002  24.202  1.00  0.00     0.163 HD
ATOM     79  O   UNL A   1      34.027  27.892  22.291  1.00  0.00    -0.268 OA
BRANCH  77  80
ATOM     80  C   UNL A   1      31.964  28.779  22.925  1.00  0.00     0.131 A 
ATOM     81  N   UNL A   1      31.500  29.663  21.992  1.00  0.00    -0.272 N 
ATOM     82  C   UNL A   1      30.841  28.339  23.617  1.00  0.00     0.057 A 
ATOM     83  N   UNL A   1      30.161  29.723  21.923  1.00  0.00    -0.183 NA
ATOM     84  H   UNL A   1      32.092  30.205  21.422  1.00  0.00     0.190 HD
ATOM     85  C   UNL A   1      29.762  28.910  22.902  1.00  0.00     0.145 A 
BRANCH  82  86
ATOM     86  C   UNL A   1      30.798  27.456  24.823  1.00  0.00     0.303 C 
BRANCH  86  87
ATOM     87  N   UNL A   1      31.147  26.056  24.573  1.00  0.00    -0.330 N 
ATOM     88  C   UNL A   1      30.646  25.123  25.583  1.00  0.00     0.262 C 
ATOM     89  C   UNL A   1      30.863  25.617  23.210  1.00  0.00     0.274 C 
ATOM     90  H   UNL A   1      32.162  26.031  24.669  1.00  0.00     0.348 HD
ATOM     91  C   UNL A   1      31.305  23.758  25.427  1.00  0.00     0.062 C 
ATOM     92  C   UNL A   1      31.515  24.264  22.912  1.00  0.00     0.116 C 
ATOM     93  C   UNL A   1      31.231  23.222  23.999  1.00  0.00     0.023 C 
BRANCH  92  94
ATOM     94  C   UNL A   1      32.972  24.438  22.466  1.00  0.00     0.171 C 
ATOM     95  O   UNL A   1      33.248  24.818  21.327  1.00  0.00    -0.294 OA
BRANCH  94  96
ATOM     96  C   UNL A   1      34.097  24.267  23.412  1.00  0.00     0.019 A 
ATOM     97  C   UNL A   1      34.274  25.144  24.479  1.00  0.00     0.012 A 
ATOM     98  C   UNL A   1      34.920  23.142  23.283  1.00  0.00     0.020 A 
ATOM     99  C   UNL A   1      35.338  24.955  25.364  1.00  0.00     0.009 A 
ATOM    100  C   UNL A   1      35.976  22.924  24.186  1.00  0.00    -0.018 A 
ATOM    101  C   UNL A   1      36.199  23.857  25.227  1.00  0.00    -0.018 A 
ATOM    102  C   UNL A   1      36.813  21.800  24.086  1.00  0.00     0.009 A 
ATOM    103  C   UNL A   1      37.268  23.655  26.114  1.00  0.00     0.009 A 
ATOM    104  C   UNL A   1      37.864  21.609  24.985  1.00  0.00     0.001 A 
ATOM    105  C   UNL A   1      38.096  22.539  25.993  1.00  0.00     0.001 A 
ENDBRANCH  94  96
ENDBRANCH  92  94
ENDBRANCH  86  87
ENDBRANCH  82  86
ENDBRANCH  77  80
ENDBRANCH  75  76
ENDBRANCH   1  75
TORSDOF 17
ENDMDL
MODEL 3
REMARK VINA RESULT:     -13.6      1.355      2.117
REMARK SMILES O=C(NCCCNC(=O)c1[nH]ncc1C[N@H+]1CCC[C@H](C(=O)c2ccc3ccccc3c2)C1)c1ccc(-c2c3nc(c(-c4c(F)cc(S(=O)(=O)[O-])cc4F)c4ccc([nH]4)c(-c4c(F)cc(S(=O)(=O)[O-])cc4F)c4nc(c(-c5c(F)cc(S(=O)(=O)[O-])cc5F)c5ccc2[nH]5)C=C4)C=C3)cc1
REMARK SMILES IDX 5 1 4 2 3 3 1 4 2 5 34 7 35 8 99 9 36 10 98 11 37 12 38 13
REMARK SMILES IDX 39 14 92 15 40 16 97 17 91 18 93 19 41 20 96 21 90 22 89 23
REMARK SMILES IDX 42 25 76 26 55 27 75 28 56 29 59 30 74 31 94 32 57 33 58 34
REMARK SMILES IDX 73 36 95 37 60 38 43 39 44 40 53 41 45 42 46 43 52 44 54 45
REMARK SMILES IDX 47 46 48 47 49 48 50 49 51 50 77 51 78 52 87 53 79 54 80 55
REMARK SMILES IDX 86 56 88 57 81 58 82 59 83 60 84 61 85 62 61 63 62 64 71 65
REMARK SMILES IDX 63 66 64 67 70 68 72 69 65 70 66 71 67 72 68 73 69 74 6 75
REMARK SMILES IDX 7 76 8 77 9 79 10 80 11 81 14 82 12 83 13 85 15 86 16 87
REMARK SMILES IDX 17 88 33 89 18 91 20 92 19 93 21 94 22 95 23 96 24 97 32 98
REMARK SMILES IDX 25 99 31 100 26 101 30 102 27 103 29 104 28 105
REMARK H PARENT 3 6 93 24 59 35 7 78 11 84 16 90
REMARK Flexibility Score: inf
ROOT
ATOM      1  C   UNL A   1      34.097  28.779  27.200  1.00  0.00     0.042 C 
ENDROOT
BRANCH   1   2
ATOM      2  C   UNL A   1      35.141  29.837  27.523  1.00  0.00     0.118 C 
BRANCH   2   3
ATOM      3  N   UNL A   1      35.199  30.149  28.945  1.00  0.00    -0.352 N 
ATOM      4  O   UNL A   1      35.962  30.096  31.058  1.00  0.00    -0.269 OA
ATOM      5  C   UNL A   1      36.208  29.965  29.861  1.00  0.00     0.251 C 
ATOM      6  H   UNL A   1      34.381  30.557  29.310  1.00  0.00     0.163 HD
BRANCH   5   7
ATOM      7  C   UNL A   1      37.571  29.595  29.422  1.00  0.00     0.039 A 
ATOM      8  C   UNL A   1      38.482  29.028  30.312  1.00  0.00     0.014 A 
ATOM      9  C   UNL A   1      37.934  29.780  28.083  1.00  0.00     0.014 A 
ATOM     10  C   UNL A   1      39.796  28.813  29.918  1.00  0.00     0.010 A 
ATOM     11  C   UNL A   1      39.229  29.459  27.659  1.00  0.00     0.010 A 
ATOM     12  C   UNL A   1      40.182  29.006  28.582  1.00  0.00    -0.014 A 
BRANCH  12  13
ATOM     13  C   UNL A   1      41.572  28.669  28.181  1.00  0.00     0.031 A 
ATOM     14  C   UNL A   1      42.678  29.683  28.264  1.00  0.00     0.074 A 
ATOM     15  C   UNL A   1      41.840  27.406  27.791  1.00  0.00     0.049 A 
ATOM     16  N   UNL A   1      43.951  29.533  28.004  1.00  0.00    -0.248 NA
ATOM     17  C   UNL A   1      42.310  31.044  28.685  1.00  0.00     0.031 C 
ATOM     18  C   UNL A   1      40.844  26.338  27.657  1.00  0.00     0.029 A 
ATOM     19  N   UNL A   1      43.025  26.794  27.474  1.00  0.00    -0.354 N 
ATOM     20  C   UNL A   1      44.532  30.781  28.194  1.00  0.00     0.074 A 
ATOM     21  C   UNL A   1      43.468  31.683  28.583  1.00  0.00     0.031 C 
ATOM     22  C   UNL A   1      41.468  25.189  27.362  1.00  0.00     0.029 A 
ATOM     23  C   UNL A   1      42.896  25.449  27.222  1.00  0.00     0.049 A 
ATOM     24  H   UNL A   1      43.884  27.272  27.431  1.00  0.00     0.167 HD
ATOM     25  C   UNL A   1      45.831  31.139  28.060  1.00  0.00     0.037 A 
ATOM     26  C   UNL A   1      43.821  24.523  26.912  1.00  0.00     0.037 A 
ATOM     27  C   UNL A   1      46.891  30.230  27.704  1.00  0.00     0.049 A 
ATOM     28  C   UNL A   1      45.256  24.939  26.793  1.00  0.00     0.074 A 
ATOM     29  C   UNL A   1      48.244  30.491  27.573  1.00  0.00     0.029 A 
ATOM     30  N   UNL A   1      46.716  28.882  27.425  1.00  0.00    -0.354 N 
ATOM     31  N   UNL A   1      45.784  26.123  26.983  1.00  0.00    -0.248 NA
ATOM     32  C   UNL A   1      46.216  23.899  26.404  1.00  0.00     0.031 C 
ATOM     33  C   UNL A   1      48.883  29.304  27.190  1.00  0.00     0.029 A 
ATOM     34  C   UNL A   1      47.933  28.299  27.110  1.00  0.00     0.049 A 
ATOM     35  H   UNL A   1      45.852  28.408  27.448  1.00  0.00     0.167 HD
ATOM     36  C   UNL A   1      47.142  25.975  26.735  1.00  0.00     0.074 A 
ATOM     37  C   UNL A   1      47.356  24.579  26.403  1.00  0.00     0.031 C 
ATOM     38  C   UNL A   1      48.122  26.912  26.772  1.00  0.00     0.037 A 
BRANCH  25  39
ATOM     39  C   UNL A   1      46.173  32.586  28.278  1.00  0.00     0.058 A 
ATOM     40  C   UNL A   1      46.111  33.525  27.236  1.00  0.00     0.135 A 
ATOM     41  C   UNL A   1      46.565  33.040  29.548  1.00  0.00     0.135 A 
ATOM     42  F   UNL A   1      45.758  33.139  25.999  1.00  0.00    -0.206 F 
ATOM     43  C   UNL A   1      46.458  34.857  27.437  1.00  0.00     0.059 A 
ATOM     44  C   UNL A   1      46.898  34.372  29.776  1.00  0.00     0.059 A 
ATOM     45  F   UNL A   1      46.640  32.183  30.578  1.00  0.00    -0.206 F 
ATOM     46  C   UNL A   1      46.860  35.269  28.710  1.00  0.00     0.060 A 
BRANCH  46  47
ATOM     47  S   UNL A   1      47.338  36.993  28.957  1.00  0.00     0.124 S 
ATOM     48  O   UNL A   1      48.388  37.148  27.954  1.00  0.00    -0.237 OA
ATOM     49  O   UNL A   1      46.095  37.709  28.687  1.00  0.00    -0.237 OA
ATOM     50  O   UNL A   1      47.786  37.024  30.345  1.00  0.00    -0.744 OA
ENDBRANCH  46  47
ENDBRANCH  25  39
BRANCH  26  51
ATOM     51  C   UNL A   1      43.400  23.114  26.711  1.00  0.00     0.058 A 
ATOM     52  C   UNL A   1      43.389  22.545  25.429  1.00  0.00     0.135 A 
ATOM     53  C   UNL A   1      43.080  22.291  27.800  1.00  0.00     0.135 A 
ATOM     54  F   UNL A   1      43.686  23.297  24.359  1.00  0.00    -0.206 F 
ATOM     55  C   UNL A   1      43.085  21.202  25.235  1.00  0.00     0.059 A 
ATOM     56  C   UNL A   1      42.792  20.940  27.633  1.00  0.00     0.059 A 
ATOM     57  F   UNL A   1      43.096  22.788  29.047  1.00  0.00    -0.206 F 
ATOM     58  C   UNL A   1      42.797  20.406  26.345  1.00  0.00     0.060 A 
BRANCH  58  59
ATOM     59  S   UNL A   1      42.506  18.640  26.100  1.00  0.00     0.124 S 
ATOM     60  O   UNL A   1      41.091  18.621  25.752  1.00  0.00    -0.237 OA
ATOM     61  O   UNL A   1      43.434  18.318  25.019  1.00  0.00    -0.237 OA
ATOM     62  O   UNL A   1      42.849  18.064  27.397  1.00  0.00    -0.744 OA
ENDBRANCH  58  59
ENDBRANCH  26  51
BRANCH  38  63
ATOM     63  C   UNL A   1      49.511  26.450  26.442  1.00  0.00     0.058 A 
ATOM     64  C   UNL A   1      50.328  25.853  27.414  1.00  0.00     0.135 A 
ATOM     65  C   UNL A   1      50.017  26.582  25.142  1.00  0.00     0.135 A 
ATOM     66  F   UNL A   1      49.888  25.714  28.675  1.00  0.00    -0.206 F 
ATOM     67  C   UNL A   1      51.614  25.420  27.112  1.00  0.00     0.059 A 
ATOM     68  C   UNL A   1      51.294  26.141  24.812  1.00  0.00     0.059 A 
ATOM     69  F   UNL A   1      49.269  27.142  24.178  1.00  0.00    -0.206 F 
ATOM     70  C   UNL A   1      52.090  25.571  25.808  1.00  0.00     0.060 A 
BRANCH  70  71
ATOM     71  S   UNL A   1      53.752  24.988  25.414  1.00  0.00     0.124 S 
ATOM     72  O   UNL A   1      54.514  25.482  26.557  1.00  0.00    -0.237 OA
ATOM     73  O   UNL A   1      53.574  23.541  25.349  1.00  0.00    -0.237 OA
ATOM     74  O   UNL A   1      54.042  25.634  24.138  1.00  0.00    -0.744 OA
ENDBRANCH  70  71
ENDBRANCH  38  63
ENDBRANCH  12  13
ENDBRANCH   5   7
ENDBRANCH   2   3
ENDBRANCH   1   2
BRANCH   1  75
ATOM     75  C   UNL A   1      33.122  29.208  26.114  1.00  0.00     0.118 C 
BRANCH  75  76
ATOM     76  N   UNL A   1      33.739  29.222  24.796  1.00  0.00    -0.351 N 
ATOM     77  C   UNL A   1      33.174  28.991  23.569  1.00  0.00     0.269 C 
ATOM     78  H   UNL A   1      34.702  29.429  24.783  1.00  0.00     0.163 HD
ATOM     79  O   UNL A   1      33.912  28.757  22.616  1.00  0.00    -0.268 OA
BRANCH  77  80
ATOM     80  C   UNL A   1      31.745  28.999  23.447  1.00  0.00     0.131 A 
ATOM     81  N   UNL A   1      30.983  30.008  23.964  1.00  0.00    -0.272 N 
ATOM     82  C   UNL A   1      30.844  28.070  22.939  1.00  0.00     0.057 A 
ATOM     83  N   UNL A   1      29.671  29.883  23.705  1.00  0.00    -0.183 NA
ATOM     84  H   UNL A   1      31.359  30.758  24.479  1.00  0.00     0.190 HD
ATOM     85  C   UNL A   1      29.590  28.711  23.072  1.00  0.00     0.145 A 
BRANCH  82  86
ATOM     86  C   UNL A   1      31.146  26.719  22.372  1.00  0.00     0.303 C 
BRANCH  86  87
ATOM     87  N   UNL A   1      31.729  25.770  23.322  1.00  0.00    -0.330 N 
ATOM     88  C   UNL A   1      31.408  26.049  24.722  1.00  0.00     0.262 C 
ATOM     89  C   UNL A   1      31.510  24.372  22.961  1.00  0.00     0.274 C 
ATOM     90  H   UNL A   1      32.734  25.924  23.244  1.00  0.00     0.348 HD
ATOM     91  C   UNL A   1      32.292  25.224  25.650  1.00  0.00     0.062 C 
ATOM     92  C   UNL A   1      32.383  23.436  23.801  1.00  0.00     0.116 C 
ATOM     93  C   UNL A   1      32.295  23.737  25.301  1.00  0.00     0.023 C 
BRANCH  92  94
ATOM     94  C   UNL A   1      33.783  23.289  23.192  1.00  0.00     0.171 C 
ATOM     95  O   UNL A   1      33.942  23.212  21.973  1.00  0.00    -0.294 OA
BRANCH  94  96
ATOM     96  C   UNL A   1      35.002  23.346  24.029  1.00  0.00     0.019 A 
ATOM     97  C   UNL A   1      35.249  24.437  24.860  1.00  0.00     0.012 A 
ATOM     98  C   UNL A   1      35.851  22.234  24.059  1.00  0.00     0.020 A 
ATOM     99  C   UNL A   1      36.400  24.462  25.648  1.00  0.00     0.009 A 
ATOM    100  C   UNL A   1      36.998  22.235  24.872  1.00  0.00    -0.018 A 
ATOM    101  C   UNL A   1      37.287  23.375  25.661  1.00  0.00    -0.018 A 
ATOM    102  C   UNL A   1      37.865  21.131  24.927  1.00  0.00     0.009 A 
ATOM    103  C   UNL A   1      38.445  23.389  26.453  1.00  0.00     0.009 A 
ATOM    104  C   UNL A   1      39.007  21.157  25.731  1.00  0.00     0.001 A 
ATOM    105  C   UNL A   1      39.300  22.287  26.488  1.00  0.00     0.001 A 
ENDBRANCH  94  96
ENDBRANCH  92  94
ENDBRANCH  86  87
ENDBRANCH  82  86
ENDBRANCH  77  80
ENDBRANCH  75  76
ENDBRANCH   1  75
TORSDOF 17
ENDMDL
