MODEL 1
REMARK VINA RESULT:     -13.8      0.000      0.000
REMARK SMILES Cc1ccnc(C(=O)c2[nH]c3cc(Cl)c(F)cc3c2CC(=O)NCCCNC(=O)c2ccc(-c3c4nc(c(-c5c(F)cc(S(=O)(=O)[O-])cc5F)c5ccc([nH]5)c(-c5c(F)cc(S(=O)(=O)[O-])cc5F)c5nc(c(-c6c(F)cc(S(=O)(=O)[O-])cc6F)c6ccc3[nH]6)C=C5)C=C4)cc2)c1
REMARK SMILES IDX 25 1 24 2 23 3 21 4 22 5 20 7 19 8 9 9 10 10 11 11 18 13
REMARK SMILES IDX 12 14 17 15 13 16 15 17 14 18 16 19 7 20 8 21 6 22 1 23 2 24
REMARK SMILES IDX 3 25 96 26 4 27 5 28 26 29 27 30 28 31 29 33 30 34 31 35
REMARK SMILES IDX 95 36 32 37 94 38 33 39 34 40 35 41 88 42 36 43 93 44 87 45
REMARK SMILES IDX 89 46 37 47 92 48 86 49 85 50 38 52 72 53 51 54 71 55 52 56
REMARK SMILES IDX 55 57 70 58 90 59 53 60 54 61 69 63 91 64 56 65 39 66 40 67
REMARK SMILES IDX 49 68 41 69 42 70 48 71 50 72 43 73 44 74 45 75 46 76 47 77
REMARK SMILES IDX 73 78 74 79 83 80 75 81 76 82 82 83 84 84 77 85 78 86 79 87
REMARK SMILES IDX 80 88 81 89 57 90 58 91 67 92 59 93 60 94 66 95 68 96 61 97
REMARK SMILES IDX 62 98 63 99 64 100 65 101
REMARK H PARENT 23 6 10 12 27 32 89 51 55 62
REMARK Flexibility Score: inf
ROOT
ATOM      1  C   UNL A   1      32.301  28.285  27.313  1.00  0.00     0.042 C 
ENDROOT
BRANCH   1   2
ATOM      2  C   UNL A   1      31.903  27.289  26.226  1.00  0.00     0.117 C 
BRANCH   2   3
ATOM      3  N   UNL A   1      31.341  26.034  26.694  1.00  0.00    -0.356 N 
ATOM      4  C   UNL A   1      31.783  24.748  26.611  1.00  0.00     0.224 C 
ATOM      5  O   UNL A   1      31.172  23.910  27.283  1.00  0.00    -0.275 OA
ATOM      6  H   UNL A   1      30.478  26.131  27.159  1.00  0.00     0.163 HD
BRANCH   4   7
ATOM      7  C   UNL A   1      32.988  24.331  25.795  1.00  0.00     0.138 C 
BRANCH   7   8
ATOM      8  C   UNL A   1      32.721  23.582  24.522  1.00  0.00    -0.002 A 
ATOM      9  C   UNL A   1      32.432  24.062  23.240  1.00  0.00     0.093 A 
ATOM     10  N   UNL A   1      32.129  22.955  22.467  1.00  0.00    -0.351 N 
ATOM     11  C   UNL A   1      32.313  21.788  23.158  1.00  0.00     0.048 A 
ATOM     12  H   UNL A   1      31.819  23.002  21.533  1.00  0.00     0.167 HD
ATOM     13  C   UNL A   1      32.608  22.142  24.469  1.00  0.00     0.007 A 
ATOM     14  C   UNL A   1      32.219  20.456  22.729  1.00  0.00     0.050 A 
ATOM     15  C   UNL A   1      32.758  21.109  25.419  1.00  0.00     0.051 A 
ATOM     16  C   UNL A   1      32.442  19.453  23.677  1.00  0.00     0.078 A 
ATOM     17  C   UNL A   1      32.693  19.777  25.004  1.00  0.00     0.142 A 
ATOM     18  Cl  UNL A   1      32.402  17.814  23.162  1.00  0.00    -0.081 Cl
ATOM     19  F   UNL A   1      32.903  18.824  25.924  1.00  0.00    -0.205 F 
BRANCH   9  20
ATOM     20  C   UNL A   1      32.283  25.389  22.641  1.00  0.00     0.227 C 
ATOM     21  O   UNL A   1      33.214  25.863  21.988  1.00  0.00    -0.285 OA
BRANCH  20  22
ATOM     22  C   UNL A   1      31.088  26.267  22.911  1.00  0.00     0.113 A 
ATOM     23  C   UNL A   1      29.720  29.750  22.219  1.00  0.00     0.044 C 
ATOM     24  C   UNL A   1      29.851  28.326  22.665  1.00  0.00    -0.047 A 
ATOM     25  C   UNL A   1      28.821  27.747  23.398  1.00  0.00     0.023 A 
ATOM     26  C   UNL A   1      30.977  27.543  22.374  1.00  0.00     0.036 A 
ATOM     27  C   UNL A   1      28.978  26.447  23.844  1.00  0.00     0.112 A 
ATOM     28  N   UNL A   1      30.083  25.700  23.628  1.00  0.00    -0.253 NA
ENDBRANCH  20  22
ENDBRANCH   9  20
ENDBRANCH   7   8
ENDBRANCH   4   7
ENDBRANCH   2   3
ENDBRANCH   1   2
BRANCH   1  29
ATOM     29  C   UNL A   1      33.710  28.858  27.267  1.00  0.00     0.118 C 
BRANCH  29  30
ATOM     30  N   UNL A   1      33.838  30.292  27.403  1.00  0.00    -0.352 N 
ATOM     31  C   UNL A   1      34.861  31.134  27.744  1.00  0.00     0.251 C 
ATOM     32  H   UNL A   1      33.001  30.771  27.206  1.00  0.00     0.163 HD
ATOM     33  O   UNL A   1      34.676  32.340  27.577  1.00  0.00    -0.269 OA
BRANCH  31  34
ATOM     34  C   UNL A   1      36.087  30.672  28.425  1.00  0.00     0.039 A 
ATOM     35  C   UNL A   1      36.936  31.492  29.163  1.00  0.00     0.014 A 
ATOM     36  C   UNL A   1      36.432  29.330  28.219  1.00  0.00     0.014 A 
ATOM     37  C   UNL A   1      38.230  31.079  29.425  1.00  0.00     0.010 A 
ATOM     38  C   UNL A   1      37.688  28.877  28.582  1.00  0.00     0.010 A 
ATOM     39  C   UNL A   1      38.624  29.790  29.068  1.00  0.00    -0.014 A 
BRANCH  39  40
ATOM     40  C   UNL A   1      40.028  29.431  29.254  1.00  0.00     0.031 A 
ATOM     41  C   UNL A   1      40.469  29.271  30.676  1.00  0.00     0.074 A 
ATOM     42  C   UNL A   1      40.820  29.146  28.199  1.00  0.00     0.049 A 
ATOM     43  N   UNL A   1      41.451  29.842  31.299  1.00  0.00    -0.248 NA
ATOM     44  C   UNL A   1      39.618  28.440  31.547  1.00  0.00     0.031 C 
ATOM     45  C   UNL A   1      40.441  29.003  26.787  1.00  0.00     0.029 A 
ATOM     46  N   UNL A   1      42.128  28.784  28.188  1.00  0.00    -0.354 N 
ATOM     47  C   UNL A   1      41.456  29.303  32.588  1.00  0.00     0.074 A 
ATOM     48  C   UNL A   1      40.235  28.553  32.722  1.00  0.00     0.031 C 
ATOM     49  C   UNL A   1      41.400  28.310  26.138  1.00  0.00     0.029 A 
ATOM     50  C   UNL A   1      42.514  28.098  27.044  1.00  0.00     0.049 A 
ATOM     51  H   UNL A   1      42.749  28.988  28.925  1.00  0.00     0.167 HD
ATOM     52  C   UNL A   1      42.538  29.353  33.414  1.00  0.00     0.037 A 
ATOM     53  C   UNL A   1      43.611  27.313  26.913  1.00  0.00     0.037 A 
ATOM     54  C   UNL A   1      43.488  30.348  33.011  1.00  0.00     0.049 A 
ATOM     55  C   UNL A   1      44.548  27.684  28.008  1.00  0.00     0.074 A 
ATOM     56  C   UNL A   1      43.464  31.726  32.910  1.00  0.00     0.029 A 
ATOM     57  N   UNL A   1      44.593  29.947  32.302  1.00  0.00    -0.354 N 
ATOM     58  N   UNL A   1      45.132  28.848  28.108  1.00  0.00    -0.248 NA
ATOM     59  C   UNL A   1      44.471  26.920  29.245  1.00  0.00     0.031 C 
ATOM     60  C   UNL A   1      44.235  32.024  31.750  1.00  0.00     0.029 A 
ATOM     61  C   UNL A   1      44.717  30.815  31.245  1.00  0.00     0.049 A 
ATOM     62  H   UNL A   1      45.182  29.186  32.510  1.00  0.00     0.167 HD
ATOM     63  C   UNL A   1      45.135  29.136  29.465  1.00  0.00     0.074 A 
ATOM     64  C   UNL A   1      44.776  27.880  30.121  1.00  0.00     0.031 C 
ATOM     65  C   UNL A   1      45.157  30.422  29.927  1.00  0.00     0.037 A 
BRANCH  52  66
ATOM     66  C   UNL A   1      42.859  28.286  34.428  1.00  0.00     0.058 A 
ATOM     67  C   UNL A   1      42.947  28.600  35.798  1.00  0.00     0.135 A 
ATOM     68  C   UNL A   1      43.344  27.012  34.058  1.00  0.00     0.135 A 
ATOM     69  F   UNL A   1      42.533  29.794  36.252  1.00  0.00    -0.206 F 
ATOM     70  C   UNL A   1      43.517  27.726  36.726  1.00  0.00     0.059 A 
ATOM     71  C   UNL A   1      43.867  26.105  34.972  1.00  0.00     0.059 A 
ATOM     72  F   UNL A   1      43.416  26.631  32.775  1.00  0.00    -0.206 F 
ATOM     73  C   UNL A   1      43.987  26.486  36.298  1.00  0.00     0.060 A 
BRANCH  73  74
ATOM     74  S   UNL A   1      44.830  25.406  37.470  1.00  0.00     0.124 S 
ATOM     75  O   UNL A   1      44.205  25.795  38.727  1.00  0.00    -0.237 OA
ATOM     76  O   UNL A   1      44.482  24.081  36.966  1.00  0.00    -0.237 OA
ATOM     77  O   UNL A   1      46.234  25.777  37.320  1.00  0.00    -0.744 OA
ENDBRANCH  73  74
ENDBRANCH  52  66
BRANCH  53  78
ATOM     78  C   UNL A   1      43.670  26.002  26.210  1.00  0.00     0.058 A 
ATOM     79  C   UNL A   1      44.690  25.714  25.288  1.00  0.00     0.135 A 
ATOM     80  C   UNL A   1      42.883  24.905  26.626  1.00  0.00     0.135 A 
ATOM     81  F   UNL A   1      45.506  26.690  24.863  1.00  0.00    -0.206 F 
ATOM     82  C   UNL A   1      44.939  24.413  24.833  1.00  0.00     0.059 A 
ATOM     83  C   UNL A   1      43.102  23.605  26.177  1.00  0.00     0.059 A 
ATOM     84  F   UNL A   1      41.929  25.049  27.558  1.00  0.00    -0.206 F 
ATOM     85  C   UNL A   1      44.149  23.361  25.299  1.00  0.00     0.060 A 
BRANCH  85  86
ATOM     86  S   UNL A   1      44.568  21.662  24.844  1.00  0.00     0.124 S 
ATOM     87  O   UNL A   1      43.460  20.913  25.424  1.00  0.00    -0.237 OA
ATOM     88  O   UNL A   1      44.598  21.735  23.388  1.00  0.00    -0.237 OA
ATOM     89  O   UNL A   1      45.866  21.449  25.482  1.00  0.00    -0.744 OA
ENDBRANCH  85  86
ENDBRANCH  53  78
BRANCH  65  90
ATOM     90  C   UNL A   1      45.416  31.532  28.940  1.00  0.00     0.058 A 
ATOM     91  C   UNL A   1      46.698  31.971  28.563  1.00  0.00     0.135 A 
ATOM     92  C   UNL A   1      44.328  32.062  28.231  1.00  0.00     0.135 A 
ATOM     93  F   UNL A   1      47.796  31.428  29.107  1.00  0.00    -0.206 F 
ATOM     94  C   UNL A   1      46.887  32.931  27.567  1.00  0.00     0.059 A 
ATOM     95  C   UNL A   1      44.493  33.000  27.214  1.00  0.00     0.059 A 
ATOM     96  F   UNL A   1      43.082  31.632  28.491  1.00  0.00    -0.206 F 
ATOM     97  C   UNL A   1      45.776  33.444  26.900  1.00  0.00     0.060 A 
BRANCH  97  98
ATOM     98  S   UNL A   1      46.013  34.665  25.589  1.00  0.00     0.124 S 
ATOM     99  O   UNL A   1      45.045  34.225  24.586  1.00  0.00    -0.237 OA
ATOM    100  O   UNL A   1      45.690  35.921  26.265  1.00  0.00    -0.237 OA
ATOM    101  O   UNL A   1      47.410  34.507  25.219  1.00  0.00    -0.744 OA
ENDBRANCH  97  98
ENDBRANCH  65  90
ENDBRANCH  39  40
ENDBRANCH  31  34
ENDBRANCH  29  30
ENDBRANCH   1  29
TORSDOF 16
ENDMDL
MODEL 2
REMARK VINA RESULT:     -13.6      3.091      9.201
REMARK SMILES Cc1ccnc(C(=O)c2[nH]c3cc(Cl)c(F)cc3c2CC(=O)NCCCNC(=O)c2ccc(-c3c4nc(c(-c5c(F)cc(S(=O)(=O)[O-])cc5F)c5ccc([nH]5)c(-c5c(F)cc(S(=O)(=O)[O-])cc5F)c5nc(c(-c6c(F)cc(S(=O)(=O)[O-])cc6F)c6ccc3[nH]6)C=C5)C=C4)cc2)c1
REMARK SMILES IDX 25 1 24 2 23 3 21 4 22 5 20 7 19 8 9 9 10 10 11 11 18 13
REMARK SMILES IDX 12 14 17 15 13 16 15 17 14 18 16 19 7 20 8 21 6 22 1 23 2 24
REMARK SMILES IDX 3 25 96 26 4 27 5 28 26 29 27 30 28 31 29 33 30 34 31 35
REMARK SMILES IDX 95 36 32 37 94 38 33 39 34 40 35 41 88 42 36 43 93 44 87 45
REMARK SMILES IDX 89 46 37 47 92 48 86 49 85 50 38 52 72 53 51 54 71 55 52 56
REMARK SMILES IDX 55 57 70 58 90 59 53 60 54 61 69 63 91 64 56 65 39 66 40 67
REMARK SMILES IDX 49 68 41 69 42 70 48 71 50 72 43 73 44 74 45 75 46 76 47 77
REMARK SMILES IDX 73 78 74 79 83 80 75 81 76 82 82 83 84 84 77 85 78 86 79 87
REMARK SMILES IDX 80 88 81 89 57 90 58 91 67 92 59 93 60 94 66 95 68 96 61 97
REMARK SMILES IDX 62 98 63 99 64 100 65 101
REMARK H PARENT 23 6 10 12 27 32 89 51 55 62
REMARK Flexibility Score: inf
ROOT
ATOM      1  C   UNL A   1      38.942  22.693  26.207  1.00  0.00     0.042 C 
ENDROOT
BRANCH   1   2
ATOM      2  C   UNL A   1      37.870  21.747  25.669  1.00  0.00     0.117 C 
BRANCH   2   3
ATOM      3  N   UNL A   1      37.410  22.017  24.318  1.00  0.00    -0.356 N 
ATOM      4  C   UNL A   1      36.603  22.987  23.805  1.00  0.00     0.224 C 
ATOM      5  O   UNL A   1      36.552  23.069  22.573  1.00  0.00    -0.275 OA
ATOM      6  H   UNL A   1      37.743  21.379  23.647  1.00  0.00     0.163 HD
BRANCH   4   7
ATOM      7  C   UNL A   1      35.833  23.971  24.661  1.00  0.00     0.138 C 
BRANCH   7   8
ATOM      8  C   UNL A   1      34.339  23.827  24.684  1.00  0.00    -0.002 A 
ATOM      9  C   UNL A   1      33.546  22.714  24.983  1.00  0.00     0.093 A 
ATOM     10  N   UNL A   1      32.239  23.080  24.714  1.00  0.00    -0.351 N 
ATOM     11  C   UNL A   1      32.145  24.399  24.362  1.00  0.00     0.048 A 
ATOM     12  H   UNL A   1      31.471  22.466  24.771  1.00  0.00     0.167 HD
ATOM     13  C   UNL A   1      33.444  24.879  24.257  1.00  0.00     0.007 A 
ATOM     14  C   UNL A   1      31.015  25.190  24.109  1.00  0.00     0.050 A 
ATOM     15  C   UNL A   1      33.628  26.208  23.815  1.00  0.00     0.051 A 
ATOM     16  C   UNL A   1      31.226  26.523  23.741  1.00  0.00     0.078 A 
ATOM     17  C   UNL A   1      32.514  27.016  23.583  1.00  0.00     0.142 A 
ATOM     18  Cl  UNL A   1      29.858  27.532  23.493  1.00  0.00    -0.081 Cl
ATOM     19  F   UNL A   1      32.730  28.291  23.224  1.00  0.00    -0.205 F 
BRANCH   9  20
ATOM     20  C   UNL A   1      33.813  21.329  25.374  1.00  0.00     0.227 C 
ATOM     21  O   UNL A   1      34.462  21.106  26.398  1.00  0.00    -0.285 OA
BRANCH  20  22
ATOM     22  C   UNL A   1      33.452  20.158  24.496  1.00  0.00     0.113 A 
ATOM     23  C   UNL A   1      34.340  16.513  23.859  1.00  0.00     0.044 C 
ATOM     24  C   UNL A   1      33.672  17.853  23.813  1.00  0.00    -0.047 A 
ATOM     25  C   UNL A   1      32.652  18.072  22.893  1.00  0.00     0.023 A 
ATOM     26  C   UNL A   1      34.032  18.908  24.663  1.00  0.00     0.036 A 
ATOM     27  C   UNL A   1      32.078  19.329  22.830  1.00  0.00     0.112 A 
ATOM     28  N   UNL A   1      32.456  20.374  23.598  1.00  0.00    -0.253 NA
ENDBRANCH  20  22
ENDBRANCH   9  20
ENDBRANCH   7   8
ENDBRANCH   4   7
ENDBRANCH   2   3
ENDBRANCH   1   2
BRANCH   1  29
ATOM     29  C   UNL A   1      40.276  22.088  26.621  1.00  0.00     0.118 C 
BRANCH  29  30
ATOM     30  N   UNL A   1      41.323  22.066  25.623  1.00  0.00    -0.352 N 
ATOM     31  C   UNL A   1      42.443  22.816  25.394  1.00  0.00     0.251 C 
ATOM     32  H   UNL A   1      41.203  21.348  24.960  1.00  0.00     0.163 HD
ATOM     33  O   UNL A   1      43.234  22.401  24.545  1.00  0.00    -0.269 OA
BRANCH  31  34
ATOM     34  C   UNL A   1      42.656  24.145  26.001  1.00  0.00     0.039 A 
ATOM     35  C   UNL A   1      43.560  24.407  27.027  1.00  0.00     0.014 A 
ATOM     36  C   UNL A   1      41.811  25.166  25.550  1.00  0.00     0.014 A 
ATOM     37  C   UNL A   1      43.419  25.553  27.789  1.00  0.00     0.010 A 
ATOM     38  C   UNL A   1      41.744  26.363  26.242  1.00  0.00     0.010 A 
ATOM     39  C   UNL A   1      42.458  26.499  27.432  1.00  0.00    -0.014 A 
BRANCH  39  40
ATOM     40  C   UNL A   1      42.259  27.638  28.325  1.00  0.00     0.031 A 
ATOM     41  C   UNL A   1      43.334  28.679  28.292  1.00  0.00     0.074 A 
ATOM     42  C   UNL A   1      41.117  27.779  29.030  1.00  0.00     0.049 A 
ATOM     43  N   UNL A   1      44.033  29.169  29.266  1.00  0.00    -0.248 NA
ATOM     44  C   UNL A   1      43.760  29.152  26.961  1.00  0.00     0.031 C 
ATOM     45  C   UNL A   1      39.888  26.979  28.944  1.00  0.00     0.029 A 
ATOM     46  N   UNL A   1      40.760  28.770  29.886  1.00  0.00    -0.354 N 
ATOM     47  C   UNL A   1      44.857  30.144  28.699  1.00  0.00     0.074 A 
ATOM     48  C   UNL A   1      44.742  29.997  27.272  1.00  0.00     0.031 C 
ATOM     49  C   UNL A   1      38.863  27.681  29.472  1.00  0.00     0.029 A 
ATOM     50  C   UNL A   1      39.389  28.899  30.060  1.00  0.00     0.049 A 
ATOM     51  H   UNL A   1      41.415  29.347  30.343  1.00  0.00     0.167 HD
ATOM     52  C   UNL A   1      45.452  31.133  29.423  1.00  0.00     0.037 A 
ATOM     53  C   UNL A   1      38.741  29.990  30.539  1.00  0.00     0.037 A 
ATOM     54  C   UNL A   1      45.496  30.833  30.825  1.00  0.00     0.049 A 
ATOM     55  C   UNL A   1      39.746  30.811  31.266  1.00  0.00     0.074 A 
ATOM     56  C   UNL A   1      46.113  29.861  31.589  1.00  0.00     0.029 A 
ATOM     57  N   UNL A   1      44.550  31.398  31.644  1.00  0.00    -0.354 N 
ATOM     58  N   UNL A   1      40.350  30.428  32.359  1.00  0.00    -0.248 NA
ATOM     59  C   UNL A   1      40.422  31.863  30.520  1.00  0.00     0.031 C 
ATOM     60  C   UNL A   1      45.179  29.555  32.621  1.00  0.00     0.029 A 
ATOM     61  C   UNL A   1      44.075  30.390  32.448  1.00  0.00     0.049 A 
ATOM     62  H   UNL A   1      44.267  32.341  31.654  1.00  0.00     0.167 HD
ATOM     63  C   UNL A   1      41.653  30.889  32.233  1.00  0.00     0.074 A 
ATOM     64  C   UNL A   1      41.618  31.825  31.111  1.00  0.00     0.031 C 
ATOM     65  C   UNL A   1      42.697  30.273  32.865  1.00  0.00     0.037 A 
BRANCH  52  66
ATOM     66  C   UNL A   1      45.733  32.509  28.878  1.00  0.00     0.058 A 
ATOM     67  C   UNL A   1      47.037  33.039  28.906  1.00  0.00     0.135 A 
ATOM     68  C   UNL A   1      44.704  33.425  28.568  1.00  0.00     0.135 A 
ATOM     69  F   UNL A   1      48.085  32.258  29.210  1.00  0.00    -0.206 F 
ATOM     70  C   UNL A   1      47.293  34.394  28.685  1.00  0.00     0.059 A 
ATOM     71  C   UNL A   1      44.941  34.767  28.294  1.00  0.00     0.059 A 
ATOM     72  F   UNL A   1      43.411  33.074  28.613  1.00  0.00    -0.206 F 
ATOM     73  C   UNL A   1      46.234  35.251  28.394  1.00  0.00     0.060 A 
BRANCH  73  74
ATOM     74  S   UNL A   1      46.546  37.019  28.226  1.00  0.00     0.124 S 
ATOM     75  O   UNL A   1      45.865  37.317  26.971  1.00  0.00    -0.237 OA
ATOM     76  O   UNL A   1      45.923  37.553  29.433  1.00  0.00    -0.237 OA
ATOM     77  O   UNL A   1      48.003  37.102  28.189  1.00  0.00    -0.744 OA
ENDBRANCH  73  74
ENDBRANCH  52  66
BRANCH  53  78
ATOM     78  C   UNL A   1      37.468  30.553  30.010  1.00  0.00     0.058 A 
ATOM     79  C   UNL A   1      36.519  31.137  30.865  1.00  0.00     0.135 A 
ATOM     80  C   UNL A   1      37.276  30.773  28.628  1.00  0.00     0.135 A 
ATOM     81  F   UNL A   1      36.641  31.005  32.194  1.00  0.00    -0.206 F 
ATOM     82  C   UNL A   1      35.463  31.920  30.383  1.00  0.00     0.059 A 
ATOM     83  C   UNL A   1      36.226  31.537  28.125  1.00  0.00     0.059 A 
ATOM     84  F   UNL A   1      38.160  30.326  27.724  1.00  0.00    -0.206 F 
ATOM     85  C   UNL A   1      35.336  32.130  29.010  1.00  0.00     0.060 A 
BRANCH  85  86
ATOM     86  S   UNL A   1      34.076  33.271  28.394  1.00  0.00     0.124 S 
ATOM     87  O   UNL A   1      33.601  33.889  29.626  1.00  0.00    -0.237 OA
ATOM     88  O   UNL A   1      34.851  34.129  27.506  1.00  0.00    -0.237 OA
ATOM     89  O   UNL A   1      33.117  32.391  27.728  1.00  0.00    -0.744 OA
ENDBRANCH  85  86
ENDBRANCH  53  78
BRANCH  65  90
ATOM     90  C   UNL A   1      42.388  29.217  33.896  1.00  0.00     0.058 A 
ATOM     91  C   UNL A   1      42.183  27.858  33.597  1.00  0.00     0.135 A 
ATOM     92  C   UNL A   1      42.460  29.568  35.252  1.00  0.00     0.135 A 
ATOM     93  F   UNL A   1      42.219  27.421  32.331  1.00  0.00    -0.206 F 
ATOM     94  C   UNL A   1      42.003  26.902  34.598  1.00  0.00     0.059 A 
ATOM     95  C   UNL A   1      42.312  28.627  36.268  1.00  0.00     0.059 A 
ATOM     96  F   UNL A   1      42.725  30.837  35.605  1.00  0.00    -0.206 F 
ATOM     97  C   UNL A   1      42.064  27.297  35.933  1.00  0.00     0.060 A 
BRANCH  97  98
ATOM     98  S   UNL A   1      41.862  26.061  37.235  1.00  0.00     0.124 S 
ATOM     99  O   UNL A   1      42.156  24.818  36.523  1.00  0.00    -0.237 OA
ATOM    100  O   UNL A   1      42.863  26.472  38.219  1.00  0.00    -0.237 OA
ATOM    101  O   UNL A   1      40.481  26.227  37.657  1.00  0.00    -0.744 OA
ENDBRANCH  97  98
ENDBRANCH  65  90
ENDBRANCH  39  40
ENDBRANCH  31  34
ENDBRANCH  29  30
ENDBRANCH   1  29
TORSDOF 16
ENDMDL
MODEL 3
REMARK VINA RESULT:     -13.6      2.675      8.654
REMARK SMILES Cc1ccnc(C(=O)c2[nH]c3cc(Cl)c(F)cc3c2CC(=O)NCCCNC(=O)c2ccc(-c3c4nc(c(-c5c(F)cc(S(=O)(=O)[O-])cc5F)c5ccc([nH]5)c(-c5c(F)cc(S(=O)(=O)[O-])cc5F)c5nc(c(-c6c(F)cc(S(=O)(=O)[O-])cc6F)c6ccc3[nH]6)C=C5)C=C4)cc2)c1
REMARK SMILES IDX 25 1 24 2 23 3 21 4 22 5 20 7 19 8 9 9 10 10 11 11 18 13
REMARK SMILES IDX 12 14 17 15 13 16 15 17 14 18 16 19 7 20 8 21 6 22 1 23 2 24
REMARK SMILES IDX 3 25 96 26 4 27 5 28 26 29 27 30 28 31 29 33 30 34 31 35
REMARK SMILES IDX 95 36 32 37 94 38 33 39 34 40 35 41 88 42 36 43 93 44 87 45
REMARK SMILES IDX 89 46 37 47 92 48 86 49 85 50 38 52 72 53 51 54 71 55 52 56
REMARK SMILES IDX 55 57 70 58 90 59 53 60 54 61 69 63 91 64 56 65 39 66 40 67
REMARK SMILES IDX 49 68 41 69 42 70 48 71 50 72 43 73 44 74 45 75 46 76 47 77
REMARK SMILES IDX 73 78 74 79 83 80 75 81 76 82 82 83 84 84 77 85 78 86 79 87
REMARK SMILES IDX 80 88 81 89 57 90 58 91 67 92 59 93 60 94 66 95 68 96 61 97
REMARK SMILES IDX 62 98 63 99 64 100 65 101
REMARK H PARENT 23 6 10 12 27 32 89 51 55 62
REMARK Flexibility Score: inf
ROOT
ATOM      1  C   UNL A   1      39.049  22.154  26.162  1.00  0.00     0.042 C 
ENDROOT
BRANCH   1   2
ATOM      2  C   UNL A   1      38.316  23.495  26.155  1.00  0.00     0.117 C 
BRANCH   2   3
ATOM      3  N   UNL A   1      37.378  23.695  25.065  1.00  0.00    -0.356 N 
ATOM      4  C   UNL A   1      36.017  23.690  25.018  1.00  0.00     0.224 C 
ATOM      5  O   UNL A   1      35.498  24.091  23.970  1.00  0.00    -0.275 OA
ATOM      6  H   UNL A   1      37.807  23.867  24.195  1.00  0.00     0.163 HD
BRANCH   4   7
ATOM      7  C   UNL A   1      35.144  23.278  26.185  1.00  0.00     0.138 C 
BRANCH   7   8
ATOM      8  C   UNL A   1      33.936  22.445  25.869  1.00  0.00    -0.002 A 
ATOM      9  C   UNL A   1      32.576  22.741  26.010  1.00  0.00     0.093 A 
ATOM     10  N   UNL A   1      31.888  21.579  25.711  1.00  0.00    -0.351 N 
ATOM     11  C   UNL A   1      32.730  20.588  25.284  1.00  0.00     0.048 A 
ATOM     12  H   UNL A   1      30.912  21.478  25.795  1.00  0.00     0.167 HD
ATOM     13  C   UNL A   1      34.024  21.066  25.442  1.00  0.00     0.007 A 
ATOM     14  C   UNL A   1      32.444  19.305  24.794  1.00  0.00     0.050 A 
ATOM     15  C   UNL A   1      35.097  20.194  25.153  1.00  0.00     0.051 A 
ATOM     16  C   UNL A   1      33.525  18.488  24.448  1.00  0.00     0.078 A 
ATOM     17  C   UNL A   1      34.830  18.923  24.640  1.00  0.00     0.142 A 
ATOM     18  Cl  UNL A   1      33.201  16.939  23.780  1.00  0.00    -0.081 Cl
ATOM     19  F   UNL A   1      35.875  18.146  24.318  1.00  0.00    -0.205 F 
BRANCH   9  20
ATOM     20  C   UNL A   1      31.813  23.897  26.484  1.00  0.00     0.227 C 
ATOM     21  O   UNL A   1      30.939  23.734  27.336  1.00  0.00    -0.285 OA
BRANCH  20  22
ATOM     22  C   UNL A   1      31.953  25.265  25.866  1.00  0.00     0.113 A 
ATOM     23  C   UNL A   1      31.841  28.967  26.741  1.00  0.00     0.044 C 
ATOM     24  C   UNL A   1      32.015  27.674  26.004  1.00  0.00    -0.047 A 
ATOM     25  C   UNL A   1      32.310  27.703  24.645  1.00  0.00     0.023 A 
ATOM     26  C   UNL A   1      31.891  26.425  26.627  1.00  0.00     0.036 A 
ATOM     27  C   UNL A   1      32.419  26.502  23.967  1.00  0.00     0.112 A 
ATOM     28  N   UNL A   1      32.240  25.291  24.538  1.00  0.00    -0.253 NA
ENDBRANCH  20  22
ENDBRANCH   9  20
ENDBRANCH   7   8
ENDBRANCH   4   7
ENDBRANCH   2   3
ENDBRANCH   1   2
BRANCH   1  29
ATOM     29  C   UNL A   1      40.501  22.143  26.618  1.00  0.00     0.118 C 
BRANCH  29  30
ATOM     30  N   UNL A   1      41.513  22.177  25.585  1.00  0.00    -0.352 N 
ATOM     31  C   UNL A   1      42.596  22.971  25.332  1.00  0.00     0.251 C 
ATOM     32  H   UNL A   1      41.395  21.467  24.912  1.00  0.00     0.163 HD
ATOM     33  O   UNL A   1      43.371  22.600  24.449  1.00  0.00    -0.269 OA
BRANCH  31  34
ATOM     34  C   UNL A   1      42.783  24.295  25.958  1.00  0.00     0.039 A 
ATOM     35  C   UNL A   1      43.681  24.561  26.988  1.00  0.00     0.014 A 
ATOM     36  C   UNL A   1      41.918  25.306  25.520  1.00  0.00     0.014 A 
ATOM     37  C   UNL A   1      43.517  25.694  27.765  1.00  0.00     0.010 A 
ATOM     38  C   UNL A   1      41.828  26.492  26.227  1.00  0.00     0.010 A 
ATOM     39  C   UNL A   1      42.538  26.626  27.420  1.00  0.00    -0.014 A 
BRANCH  39  40
ATOM     40  C   UNL A   1      42.317  27.748  28.328  1.00  0.00     0.031 A 
ATOM     41  C   UNL A   1      43.379  28.803  28.321  1.00  0.00     0.074 A 
ATOM     42  C   UNL A   1      41.167  27.865  29.024  1.00  0.00     0.049 A 
ATOM     43  N   UNL A   1      44.062  29.287  29.309  1.00  0.00    -0.248 NA
ATOM     44  C   UNL A   1      43.811  29.301  27.002  1.00  0.00     0.031 C 
ATOM     45  C   UNL A   1      39.949  27.050  28.915  1.00  0.00     0.029 A 
ATOM     46  N   UNL A   1      40.789  28.838  29.892  1.00  0.00    -0.354 N 
ATOM     47  C   UNL A   1      44.879  30.281  28.764  1.00  0.00     0.074 A 
ATOM     48  C   UNL A   1      44.779  30.154  27.334  1.00  0.00     0.031 C 
ATOM     49  C   UNL A   1      38.910  27.731  29.444  1.00  0.00     0.029 A 
ATOM     50  C   UNL A   1      39.415  28.946  30.055  1.00  0.00     0.049 A 
ATOM     51  H   UNL A   1      41.432  29.416  30.364  1.00  0.00     0.167 HD
ATOM     52  C   UNL A   1      45.454  31.266  29.509  1.00  0.00     0.037 A 
ATOM     53  C   UNL A   1      38.749  30.022  30.544  1.00  0.00     0.037 A 
ATOM     54  C   UNL A   1      45.489  30.945  30.906  1.00  0.00     0.049 A 
ATOM     55  C   UNL A   1      39.736  30.844  31.293  1.00  0.00     0.074 A 
ATOM     56  C   UNL A   1      46.112  29.970  31.661  1.00  0.00     0.029 A 
ATOM     57  N   UNL A   1      44.529  31.486  31.725  1.00  0.00    -0.354 N 
ATOM     58  N   UNL A   1      40.335  30.452  32.386  1.00  0.00    -0.248 NA
ATOM     59  C   UNL A   1      40.406  31.916  30.569  1.00  0.00     0.031 C 
ATOM     60  C   UNL A   1      45.173  29.636  32.679  1.00  0.00     0.029 A 
ATOM     61  C   UNL A   1      44.060  30.460  32.509  1.00  0.00     0.049 A 
ATOM     62  H   UNL A   1      44.234  32.425  31.746  1.00  0.00     0.167 HD
ATOM     63  C   UNL A   1      41.633  30.931  32.279  1.00  0.00     0.074 A 
ATOM     64  C   UNL A   1      41.597  31.884  31.171  1.00  0.00     0.031 C 
ATOM     65  C   UNL A   1      42.679  30.320  32.911  1.00  0.00     0.037 A 
BRANCH  52  66
ATOM     66  C   UNL A   1      45.723  32.653  28.987  1.00  0.00     0.058 A 
ATOM     67  C   UNL A   1      47.010  33.217  29.078  1.00  0.00     0.135 A 
ATOM     68  C   UNL A   1      44.685  33.545  28.638  1.00  0.00     0.135 A 
ATOM     69  F   UNL A   1      48.064  32.461  29.423  1.00  0.00    -0.206 F 
ATOM     70  C   UNL A   1      47.240  34.580  28.879  1.00  0.00     0.059 A 
ATOM     71  C   UNL A   1      44.898  34.895  28.384  1.00  0.00     0.059 A 
ATOM     72  F   UNL A   1      43.401  33.160  28.622  1.00  0.00    -0.206 F 
ATOM     73  C   UNL A   1      46.172  35.413  28.546  1.00  0.00     0.060 A 
BRANCH  73  74
ATOM     74  S   UNL A   1      46.444  37.189  28.405  1.00  0.00     0.124 S 
ATOM     75  O   UNL A   1      47.432  37.249  27.336  1.00  0.00    -0.237 OA
ATOM     76  O   UNL A   1      45.109  37.675  28.071  1.00  0.00    -0.237 OA
ATOM     77  O   UNL A   1      46.925  37.562  29.732  1.00  0.00    -0.744 OA
ENDBRANCH  73  74
ENDBRANCH  52  66
BRANCH  53  78
ATOM     78  C   UNL A   1      37.474  30.577  30.011  1.00  0.00     0.058 A 
ATOM     79  C   UNL A   1      36.513  31.143  30.866  1.00  0.00     0.135 A 
ATOM     80  C   UNL A   1      37.288  30.808  28.631  1.00  0.00     0.135 A 
ATOM     81  F   UNL A   1      36.628  31.000  32.195  1.00  0.00    -0.206 F 
ATOM     82  C   UNL A   1      35.452  31.920  30.384  1.00  0.00     0.059 A 
ATOM     83  C   UNL A   1      36.234  31.565  28.127  1.00  0.00     0.059 A 
ATOM     84  F   UNL A   1      38.183  30.378  27.728  1.00  0.00    -0.206 F 
ATOM     85  C   UNL A   1      35.332  32.141  29.012  1.00  0.00     0.060 A 
BRANCH  85  86
ATOM     86  S   UNL A   1      34.065  33.275  28.398  1.00  0.00     0.124 S 
ATOM     87  O   UNL A   1      33.567  33.868  29.633  1.00  0.00    -0.237 OA
ATOM     88  O   UNL A   1      34.839  34.157  27.532  1.00  0.00    -0.237 OA
ATOM     89  O   UNL A   1      33.126  32.393  27.707  1.00  0.00    -0.744 OA
ENDBRANCH  85  86
ENDBRANCH  53  78
BRANCH  65  90
ATOM     90  C   UNL A   1      42.374  29.245  33.923  1.00  0.00     0.058 A 
ATOM     91  C   UNL A   1      42.215  27.883  33.606  1.00  0.00     0.135 A 
ATOM     92  C   UNL A   1      42.402  29.582  35.284  1.00  0.00     0.135 A 
ATOM     93  F   UNL A   1      42.295  27.461  32.336  1.00  0.00    -0.206 F 
ATOM     94  C   UNL A   1      42.037  26.911  34.592  1.00  0.00     0.059 A 
ATOM     95  C   UNL A   1      42.255  28.626  36.286  1.00  0.00     0.059 A 
ATOM     96  F   UNL A   1      42.623  30.854  35.657  1.00  0.00    -0.206 F 
ATOM     97  C   UNL A   1      42.053  27.294  35.932  1.00  0.00     0.060 A 
BRANCH  97  98
ATOM     98  S   UNL A   1      41.853  26.038  37.216  1.00  0.00     0.124 S 
ATOM     99  O   UNL A   1      42.870  26.435  38.189  1.00  0.00    -0.237 OA
ATOM    100  O   UNL A   1      40.467  26.237  37.639  1.00  0.00    -0.237 OA
ATOM    101  O   UNL A   1      42.110  24.789  36.519  1.00  0.00    -0.744 OA
ENDBRANCH  97  98
ENDBRANCH  65  90
ENDBRANCH  39  40
ENDBRANCH  31  34
ENDBRANCH  29  30
ENDBRANCH   1  29
TORSDOF 16
ENDMDL
