MODEL 1
REMARK VINA RESULT:     -11.3      0.000      0.000
REMARK SMILES COc1ccc(NCc2ccc(C(=O)NCCCNC(=O)c3ccc(-c4c5nc(c(-c6c(F)cc(S(=O)(=O)[O-])cc6F)c6ccc([nH]6)c(-c6c(F)cc(S(=O)(=O)[O-])cc6F)c6nc(c(-c7c(F)cc(S(=O)(=O)[O-])cc7F)c7ccc4[nH]7)C=C6)C=C5)cc3)o2)cc1
REMARK SMILES IDX 16 1 15 2 13 3 14 4 12 6 9 7 10 8 88 9 11 10 8 11 7 12 6 14
REMARK SMILES IDX 3 15 4 16 90 17 5 18 89 19 2 20 1 21 17 22 18 23 19 24 20 25
REMARK SMILES IDX 21 27 22 28 23 29 87 30 24 31 86 32 25 33 26 34 27 35 80 36
REMARK SMILES IDX 28 37 85 38 79 39 81 40 29 41 84 42 78 43 77 44 30 46 64 47
REMARK SMILES IDX 43 48 63 49 44 50 47 51 62 52 82 53 45 54 46 55 61 57 83 58
REMARK SMILES IDX 48 59 31 60 32 61 41 62 33 63 34 64 40 65 42 66 35 67 36 68
REMARK SMILES IDX 37 69 38 70 39 71 65 72 66 73 75 74 67 75 68 76 74 77 76 78
REMARK SMILES IDX 69 79 70 80 71 81 72 82 73 83 49 84 50 85 59 86 51 87 52 88
REMARK SMILES IDX 58 89 60 90 53 91 54 92 55 93 56 94 57 95
REMARK H PARENT 15 5 7 13 19 26 81 45 47 56
REMARK Flexibility Score: inf
ROOT
ATOM      1  C   UNL A   1      39.693  22.380  26.794  1.00  0.00     0.118 C 
ENDROOT
BRANCH   1   2
ATOM      2  N   UNL A   1      39.157  21.300  25.991  1.00  0.00    -0.349 N 
ATOM      3  C   UNL A   1      37.959  21.176  25.325  1.00  0.00     0.286 C 
ATOM      4  O   UNL A   1      37.856  20.184  24.598  1.00  0.00    -0.266 OA
ATOM      5  H   UNL A   1      39.751  20.519  25.909  1.00  0.00     0.163 HD
BRANCH   3   6
ATOM      6  C   UNL A   1      36.906  22.165  25.458  1.00  0.00     0.191 A 
ATOM      7  C   UNL A   1      34.893  22.798  26.141  1.00  0.00     0.124 A 
ATOM      8  C   UNL A   1      35.465  23.904  25.557  1.00  0.00     0.048 A 
ATOM      9  O   UNL A   1      35.756  21.746  26.082  1.00  0.00    -0.454 OA
ATOM     10  C   UNL A   1      36.761  23.505  25.138  1.00  0.00     0.056 A 
BRANCH   7  11
ATOM     11  C   UNL A   1      33.597  22.545  26.825  1.00  0.00     0.188 C 
BRANCH  11  12
ATOM     12  N   UNL A   1      32.531  22.121  25.931  1.00  0.00    -0.378 N 
ATOM     13  H   UNL A   1      31.737  22.700  25.870  1.00  0.00     0.161 HD
BRANCH  12  14
ATOM     14  C   UNL A   1      32.537  20.975  25.161  1.00  0.00     0.035 A 
ATOM     15  C   UNL A   1      32.717  18.568  23.678  1.00  0.00     0.119 A 
ATOM     16  C   UNL A   1      32.442  19.773  23.040  1.00  0.00     0.048 A 
ATOM     17  C   UNL A   1      32.933  18.559  25.051  1.00  0.00     0.048 A 
ATOM     18  C   UNL A   1      32.350  20.963  23.776  1.00  0.00     0.029 A 
ATOM     19  C   UNL A   1      32.848  19.754  25.778  1.00  0.00     0.029 A 
BRANCH  15  20
ATOM     20  O   UNL A   1      32.815  17.470  22.869  1.00  0.00    -0.497 OA
ATOM     21  C   UNL A   1      34.016  16.722  23.035  1.00  0.00     0.278 C 
ENDBRANCH  15  20
ENDBRANCH  12  14
ENDBRANCH  11  12
ENDBRANCH   7  11
ENDBRANCH   3   6
ENDBRANCH   1   2
BRANCH   1  22
ATOM     22  C   UNL A   1      40.958  21.964  27.540  1.00  0.00     0.042 C 
BRANCH  22  23
ATOM     23  C   UNL A   1      41.989  23.086  27.668  1.00  0.00     0.118 C 
BRANCH  23  24
ATOM     24  N   UNL A   1      42.069  23.899  26.462  1.00  0.00    -0.352 N 
ATOM     25  C   UNL A   1      41.803  25.231  26.263  1.00  0.00     0.251 C 
ATOM     26  H   UNL A   1      42.363  23.413  25.656  1.00  0.00     0.163 HD
ATOM     27  O   UNL A   1      41.724  25.656  25.113  1.00  0.00    -0.269 OA
BRANCH  25  28
ATOM     28  C   UNL A   1      41.607  26.152  27.406  1.00  0.00     0.039 A 
ATOM     29  C   UNL A   1      42.546  27.167  27.617  1.00  0.00     0.014 A 
ATOM     30  C   UNL A   1      40.549  25.986  28.303  1.00  0.00     0.014 A 
ATOM     31  C   UNL A   1      42.395  28.045  28.695  1.00  0.00     0.010 A 
ATOM     32  C   UNL A   1      40.364  26.901  29.339  1.00  0.00     0.010 A 
ATOM     33  C   UNL A   1      41.288  27.935  29.550  1.00  0.00    -0.014 A 
BRANCH  33  34
ATOM     34  C   UNL A   1      41.079  28.891  30.669  1.00  0.00     0.031 A 
ATOM     35  C   UNL A   1      41.906  28.784  31.923  1.00  0.00     0.074 A 
ATOM     36  C   UNL A   1      40.098  29.810  30.584  1.00  0.00     0.049 A 
ATOM     37  N   UNL A   1      41.812  29.465  33.035  1.00  0.00    -0.248 NA
ATOM     38  C   UNL A   1      42.960  27.755  31.938  1.00  0.00     0.031 C 
ATOM     39  C   UNL A   1      39.198  29.983  29.441  1.00  0.00     0.029 A 
ATOM     40  N   UNL A   1      39.682  30.764  31.479  1.00  0.00    -0.354 N 
ATOM     41  C   UNL A   1      42.775  28.936  33.889  1.00  0.00     0.074 A 
ATOM     42  C   UNL A   1      43.415  27.850  33.179  1.00  0.00     0.031 C 
ATOM     43  C   UNL A   1      38.345  30.986  29.700  1.00  0.00     0.029 A 
ATOM     44  C   UNL A   1      38.611  31.507  31.038  1.00  0.00     0.049 A 
ATOM     45  H   UNL A   1      40.109  30.903  32.355  1.00  0.00     0.167 HD
ATOM     46  C   UNL A   1      43.106  29.333  35.141  1.00  0.00     0.037 A 
ATOM     47  C   UNL A   1      37.916  32.488  31.645  1.00  0.00     0.037 A 
ATOM     48  C   UNL A   1      42.488  30.437  35.828  1.00  0.00     0.049 A 
ATOM     49  C   UNL A   1      38.320  32.927  33.025  1.00  0.00     0.074 A 
ATOM     50  C   UNL A   1      42.798  30.960  37.072  1.00  0.00     0.029 A 
ATOM     51  N   UNL A   1      41.437  31.193  35.329  1.00  0.00    -0.354 N 
ATOM     52  N   UNL A   1      39.273  32.455  33.793  1.00  0.00    -0.248 NA
ATOM     53  C   UNL A   1      37.562  34.036  33.620  1.00  0.00     0.031 C 
ATOM     54  C   UNL A   1      41.911  32.007  37.341  1.00  0.00     0.029 A 
ATOM     55  C   UNL A   1      41.077  32.166  36.246  1.00  0.00     0.049 A 
ATOM     56  H   UNL A   1      41.010  31.057  34.453  1.00  0.00     0.167 HD
ATOM     57  C   UNL A   1      39.247  33.228  34.949  1.00  0.00     0.074 A 
ATOM     58  C   UNL A   1      38.190  34.202  34.775  1.00  0.00     0.031 C 
ATOM     59  C   UNL A   1      40.029  33.138  36.053  1.00  0.00     0.037 A 
BRANCH  46  60
ATOM     60  C   UNL A   1      44.190  28.568  35.853  1.00  0.00     0.058 A 
ATOM     61  C   UNL A   1      43.896  27.484  36.694  1.00  0.00     0.135 A 
ATOM     62  C   UNL A   1      45.541  28.899  35.659  1.00  0.00     0.135 A 
ATOM     63  F   UNL A   1      42.621  27.133  36.926  1.00  0.00    -0.206 F 
ATOM     64  C   UNL A   1      44.901  26.772  37.342  1.00  0.00     0.059 A 
ATOM     65  C   UNL A   1      46.564  28.183  36.275  1.00  0.00     0.059 A 
ATOM     66  F   UNL A   1      45.878  29.926  34.864  1.00  0.00    -0.206 F 
ATOM     67  C   UNL A   1      46.232  27.131  37.127  1.00  0.00     0.060 A 
BRANCH  67  68
ATOM     68  S   UNL A   1      47.526  26.193  37.970  1.00  0.00     0.124 S 
ATOM     69  O   UNL A   1      47.394  24.885  37.336  1.00  0.00    -0.237 OA
ATOM     70  O   UNL A   1      48.730  26.944  37.629  1.00  0.00    -0.237 OA
ATOM     71  O   UNL A   1      47.130  26.253  39.373  1.00  0.00    -0.744 OA
ENDBRANCH  67  68
ENDBRANCH  46  60
BRANCH  47  72
ATOM     72  C   UNL A   1      36.781  33.136  30.938  1.00  0.00     0.058 A 
ATOM     73  C   UNL A   1      35.454  32.850  31.290  1.00  0.00     0.135 A 
ATOM     74  C   UNL A   1      36.999  34.067  29.910  1.00  0.00     0.135 A 
ATOM     75  F   UNL A   1      35.195  31.963  32.263  1.00  0.00    -0.206 F 
ATOM     76  C   UNL A   1      34.381  33.452  30.640  1.00  0.00     0.059 A 
ATOM     77  C   UNL A   1      35.942  34.700  29.261  1.00  0.00     0.059 A 
ATOM     78  F   UNL A   1      38.250  34.390  29.548  1.00  0.00    -0.206 F 
ATOM     79  C   UNL A   1      34.636  34.377  29.627  1.00  0.00     0.060 A 
BRANCH  79  80
ATOM     80  S   UNL A   1      33.238  35.193  28.825  1.00  0.00     0.124 S 
ATOM     81  O   UNL A   1      33.906  36.257  28.084  1.00  0.00    -0.237 OA
ATOM     82  O   UNL A   1      32.672  34.113  28.022  1.00  0.00    -0.237 OA
ATOM     83  O   UNL A   1      32.414  35.626  29.949  1.00  0.00    -0.744 OA
ENDBRANCH  79  80
ENDBRANCH  47  72
BRANCH  59  84
ATOM     84  C   UNL A   1      39.800  34.143  37.147  1.00  0.00     0.058 A 
ATOM     85  C   UNL A   1      38.931  33.884  38.217  1.00  0.00     0.135 A 
ATOM     86  C   UNL A   1      40.499  35.360  37.147  1.00  0.00     0.135 A 
ATOM     87  F   UNL A   1      38.233  32.738  38.260  1.00  0.00    -0.206 F 
ATOM     88  C   UNL A   1      38.746  34.808  39.241  1.00  0.00     0.059 A 
ATOM     89  C   UNL A   1      40.349  36.288  38.174  1.00  0.00     0.059 A 
ATOM     90  F   UNL A   1      41.350  35.653  36.151  1.00  0.00    -0.206 F 
ATOM     91  C   UNL A   1      39.461  36.007  39.211  1.00  0.00     0.060 A 
BRANCH  91  92
ATOM     92  S   UNL A   1      39.240  37.183  40.563  1.00  0.00     0.124 S 
ATOM     93  O   UNL A   1      40.593  37.705  40.722  1.00  0.00    -0.237 OA
ATOM     94  O   UNL A   1      38.261  38.114  40.012  1.00  0.00    -0.237 OA
ATOM     95  O   UNL A   1      38.756  36.350  41.660  1.00  0.00    -0.744 OA
ENDBRANCH  91  92
ENDBRANCH  59  84
ENDBRANCH  33  34
ENDBRANCH  25  28
ENDBRANCH  23  24
ENDBRANCH  22  23
ENDBRANCH   1  22
TORSDOF 17
ENDMDL
MODEL 2
REMARK VINA RESULT:     -11.2      3.741      6.948
REMARK SMILES COc1ccc(NCc2ccc(C(=O)NCCCNC(=O)c3ccc(-c4c5nc(c(-c6c(F)cc(S(=O)(=O)[O-])cc6F)c6ccc([nH]6)c(-c6c(F)cc(S(=O)(=O)[O-])cc6F)c6nc(c(-c7c(F)cc(S(=O)(=O)[O-])cc7F)c7ccc4[nH]7)C=C6)C=C5)cc3)o2)cc1
REMARK SMILES IDX 16 1 15 2 13 3 14 4 12 6 9 7 10 8 88 9 11 10 8 11 7 12 6 14
REMARK SMILES IDX 3 15 4 16 90 17 5 18 89 19 2 20 1 21 17 22 18 23 19 24 20 25
REMARK SMILES IDX 21 27 22 28 23 29 87 30 24 31 86 32 25 33 26 34 27 35 80 36
REMARK SMILES IDX 28 37 85 38 79 39 81 40 29 41 84 42 78 43 77 44 30 46 64 47
REMARK SMILES IDX 43 48 63 49 44 50 47 51 62 52 82 53 45 54 46 55 61 57 83 58
REMARK SMILES IDX 48 59 31 60 32 61 41 62 33 63 34 64 40 65 42 66 35 67 36 68
REMARK SMILES IDX 37 69 38 70 39 71 65 72 66 73 75 74 67 75 68 76 74 77 76 78
REMARK SMILES IDX 69 79 70 80 71 81 72 82 73 83 49 84 50 85 59 86 51 87 52 88
REMARK SMILES IDX 58 89 60 90 53 91 54 92 55 93 56 94 57 95
REMARK H PARENT 15 5 7 13 19 26 81 45 47 56
REMARK Flexibility Score: inf
ROOT
ATOM      1  C   UNL A   1      43.522  21.902  26.222  1.00  0.00     0.118 C 
ENDROOT
BRANCH   1   2
ATOM      2  N   UNL A   1      43.513  22.048  27.664  1.00  0.00    -0.349 N 
ATOM      3  C   UNL A   1      43.978  23.059  28.473  1.00  0.00     0.286 C 
ATOM      4  O   UNL A   1      43.687  22.958  29.668  1.00  0.00    -0.266 OA
ATOM      5  H   UNL A   1      43.106  21.294  28.148  1.00  0.00     0.163 HD
BRANCH   3   6
ATOM      6  C   UNL A   1      44.736  24.176  27.941  1.00  0.00     0.191 A 
ATOM      7  C   UNL A   1      44.953  25.929  26.600  1.00  0.00     0.124 A 
ATOM      8  C   UNL A   1      46.119  25.855  27.325  1.00  0.00     0.048 A 
ATOM      9  O   UNL A   1      44.117  24.918  26.964  1.00  0.00    -0.454 OA
ATOM     10  C   UNL A   1      45.972  24.746  28.198  1.00  0.00     0.056 A 
BRANCH   7  11
ATOM     11  C   UNL A   1      44.434  26.871  25.572  1.00  0.00     0.188 C 
BRANCH  11  12
ATOM     12  N   UNL A   1      44.900  28.239  25.737  1.00  0.00    -0.378 N 
ATOM     13  H   UNL A   1      45.545  28.577  25.075  1.00  0.00     0.161 HD
BRANCH  12  14
ATOM     14  C   UNL A   1      44.515  29.103  26.742  1.00  0.00     0.035 A 
ATOM     15  C   UNL A   1      43.614  30.976  28.667  1.00  0.00     0.119 A 
ATOM     16  C   UNL A   1      44.956  30.613  28.607  1.00  0.00     0.048 A 
ATOM     17  C   UNL A   1      42.721  30.433  27.751  1.00  0.00     0.048 A 
ATOM     18  C   UNL A   1      45.400  29.683  27.656  1.00  0.00     0.029 A 
ATOM     19  C   UNL A   1      43.174  29.512  26.798  1.00  0.00     0.029 A 
BRANCH  15  20
ATOM     20  O   UNL A   1      43.289  31.912  29.610  1.00  0.00    -0.497 OA
ATOM     21  C   UNL A   1      43.689  33.239  29.285  1.00  0.00     0.278 C 
ENDBRANCH  15  20
ENDBRANCH  12  14
ENDBRANCH  11  12
ENDBRANCH   7  11
ENDBRANCH   3   6
ENDBRANCH   1   2
BRANCH   1  22
ATOM     22  C   UNL A   1      42.181  22.283  25.601  1.00  0.00     0.042 C 
BRANCH  22  23
ATOM     23  C   UNL A   1      40.974  21.823  26.419  1.00  0.00     0.118 C 
BRANCH  23  24
ATOM     24  N   UNL A   1      39.712  22.157  25.772  1.00  0.00    -0.352 N 
ATOM     25  C   UNL A   1      38.868  23.224  25.959  1.00  0.00     0.251 C 
ATOM     26  H   UNL A   1      39.417  21.513  25.087  1.00  0.00     0.163 HD
ATOM     27  O   UNL A   1      37.746  23.187  25.459  1.00  0.00    -0.269 OA
BRANCH  25  28
ATOM     28  C   UNL A   1      39.286  24.403  26.751  1.00  0.00     0.039 A 
ATOM     29  C   UNL A   1      38.823  24.525  28.065  1.00  0.00     0.014 A 
ATOM     30  C   UNL A   1      40.071  25.415  26.193  1.00  0.00     0.014 A 
ATOM     31  C   UNL A   1      39.190  25.634  28.834  1.00  0.00     0.010 A 
ATOM     32  C   UNL A   1      40.488  26.488  26.981  1.00  0.00     0.010 A 
ATOM     33  C   UNL A   1      40.047  26.612  28.307  1.00  0.00    -0.014 A 
BRANCH  33  34
ATOM     34  C   UNL A   1      40.493  27.769  29.126  1.00  0.00     0.031 A 
ATOM     35  C   UNL A   1      41.808  27.719  29.859  1.00  0.00     0.074 A 
ATOM     36  C   UNL A   1      39.682  28.836  29.265  1.00  0.00     0.049 A 
ATOM     37  N   UNL A   1      42.325  28.587  30.688  1.00  0.00    -0.248 NA
ATOM     38  C   UNL A   1      42.637  26.520  29.652  1.00  0.00     0.031 C 
ATOM     39  C   UNL A   1      38.364  28.984  28.645  1.00  0.00     0.029 A 
ATOM     40  N   UNL A   1      39.840  29.994  29.986  1.00  0.00    -0.354 N 
ATOM     41  C   UNL A   1      43.526  28.034  31.120  1.00  0.00     0.074 A 
ATOM     42  C   UNL A   1      43.640  26.736  30.491  1.00  0.00     0.031 C 
ATOM     43  C   UNL A   1      37.838  30.166  29.003  1.00  0.00     0.029 A 
ATOM     44  C   UNL A   1      38.763  30.847  29.904  1.00  0.00     0.049 A 
ATOM     45  H   UNL A   1      40.647  30.195  30.513  1.00  0.00     0.167 HD
ATOM     46  C   UNL A   1      44.454  28.568  31.950  1.00  0.00     0.037 A 
ATOM     47  C   UNL A   1      38.541  32.037  30.495  1.00  0.00     0.037 A 
ATOM     48  C   UNL A   1      44.349  29.874  32.544  1.00  0.00     0.049 A 
ATOM     49  C   UNL A   1      39.599  32.619  31.392  1.00  0.00     0.074 A 
ATOM     50  C   UNL A   1      45.267  30.532  33.345  1.00  0.00     0.029 A 
ATOM     51  N   UNL A   1      43.263  30.726  32.401  1.00  0.00    -0.354 N 
ATOM     52  N   UNL A   1      40.755  32.107  31.741  1.00  0.00    -0.248 NA
ATOM     53  C   UNL A   1      39.327  33.942  31.970  1.00  0.00     0.031 C 
ATOM     54  C   UNL A   1      44.721  31.765  33.716  1.00  0.00     0.029 A 
ATOM     55  C   UNL A   1      43.481  31.895  33.110  1.00  0.00     0.049 A 
ATOM     56  H   UNL A   1      42.456  30.528  31.874  1.00  0.00     0.167 HD
ATOM     57  C   UNL A   1      41.361  33.058  32.555  1.00  0.00     0.074 A 
ATOM     58  C   UNL A   1      40.447  34.178  32.640  1.00  0.00     0.031 C 
ATOM     59  C   UNL A   1      42.566  33.007  33.175  1.00  0.00     0.037 A 
BRANCH  46  60
ATOM     60  C   UNL A   1      45.670  27.738  32.263  1.00  0.00     0.058 A 
ATOM     61  C   UNL A   1      45.754  26.965  33.433  1.00  0.00     0.135 A 
ATOM     62  C   UNL A   1      46.748  27.683  31.365  1.00  0.00     0.135 A 
ATOM     63  F   UNL A   1      44.759  26.991  34.333  1.00  0.00    -0.206 F 
ATOM     64  C   UNL A   1      46.875  26.191  33.714  1.00  0.00     0.059 A 
ATOM     65  C   UNL A   1      47.867  26.894  31.613  1.00  0.00     0.059 A 
ATOM     66  F   UNL A   1      46.720  28.401  30.231  1.00  0.00    -0.206 F 
ATOM     67  C   UNL A   1      47.928  26.163  32.798  1.00  0.00     0.060 A 
BRANCH  67  68
ATOM     68  S   UNL A   1      49.373  25.148  33.175  1.00  0.00     0.124 S 
ATOM     69  O   UNL A   1      50.128  26.035  34.056  1.00  0.00    -0.237 OA
ATOM     70  O   UNL A   1      48.777  23.979  33.814  1.00  0.00    -0.237 OA
ATOM     71  O   UNL A   1      49.970  24.907  31.865  1.00  0.00    -0.744 OA
ENDBRANCH  67  68
ENDBRANCH  46  60
BRANCH  47  72
ATOM     72  C   UNL A   1      37.271  32.765  30.238  1.00  0.00     0.058 A 
ATOM     73  C   UNL A   1      37.158  33.658  29.162  1.00  0.00     0.135 A 
ATOM     74  C   UNL A   1      36.143  32.570  31.049  1.00  0.00     0.135 A 
ATOM     75  F   UNL A   1      38.211  33.882  28.362  1.00  0.00    -0.206 F 
ATOM     76  C   UNL A   1      35.974  34.344  28.907  1.00  0.00     0.059 A 
ATOM     77  C   UNL A   1      34.940  33.226  30.798  1.00  0.00     0.059 A 
ATOM     78  F   UNL A   1      36.194  31.712  32.079  1.00  0.00    -0.206 F 
ATOM     79  C   UNL A   1      34.871  34.120  29.730  1.00  0.00     0.060 A 
BRANCH  79  80
ATOM     80  S   UNL A   1      33.323  34.975  29.359  1.00  0.00     0.124 S 
ATOM     81  O   UNL A   1      32.721  34.079  28.378  1.00  0.00    -0.237 OA
ATOM     82  O   UNL A   1      32.676  35.020  30.666  1.00  0.00    -0.237 OA
ATOM     83  O   UNL A   1      33.770  36.266  28.845  1.00  0.00    -0.744 OA
ENDBRANCH  79  80
ENDBRANCH  47  72
BRANCH  59  84
ATOM     84  C   UNL A   1      42.986  34.212  33.969  1.00  0.00     0.058 A 
ATOM     85  C   UNL A   1      42.825  34.271  35.362  1.00  0.00     0.135 A 
ATOM     86  C   UNL A   1      43.604  35.299  33.333  1.00  0.00     0.135 A 
ATOM     87  F   UNL A   1      42.233  33.260  36.017  1.00  0.00    -0.206 F 
ATOM     88  C   UNL A   1      43.244  35.377  36.094  1.00  0.00     0.059 A 
ATOM     89  C   UNL A   1      44.054  36.405  34.048  1.00  0.00     0.059 A 
ATOM     90  F   UNL A   1      43.791  35.288  32.003  1.00  0.00    -0.206 F 
ATOM     91  C   UNL A   1      43.859  36.439  35.428  1.00  0.00     0.060 A 
BRANCH  91  92
ATOM     92  S   UNL A   1      44.429  37.855  36.393  1.00  0.00     0.124 S 
ATOM     93  O   UNL A   1      45.787  37.446  36.737  1.00  0.00    -0.237 OA
ATOM     94  O   UNL A   1      44.319  38.951  35.436  1.00  0.00    -0.237 OA
ATOM     95  O   UNL A   1      43.488  37.906  37.507  1.00  0.00    -0.744 OA
ENDBRANCH  91  92
ENDBRANCH  59  84
ENDBRANCH  33  34
ENDBRANCH  25  28
ENDBRANCH  23  24
ENDBRANCH  22  23
ENDBRANCH   1  22
TORSDOF 17
ENDMDL
MODEL 3
REMARK VINA RESULT:     -11.1      6.723     12.249
REMARK SMILES COc1ccc(NCc2ccc(C(=O)NCCCNC(=O)c3ccc(-c4c5nc(c(-c6c(F)cc(S(=O)(=O)[O-])cc6F)c6ccc([nH]6)c(-c6c(F)cc(S(=O)(=O)[O-])cc6F)c6nc(c(-c7c(F)cc(S(=O)(=O)[O-])cc7F)c7ccc4[nH]7)C=C6)C=C5)cc3)o2)cc1
REMARK SMILES IDX 16 1 15 2 13 3 14 4 12 6 9 7 10 8 88 9 11 10 8 11 7 12 6 14
REMARK SMILES IDX 3 15 4 16 90 17 5 18 89 19 2 20 1 21 17 22 18 23 19 24 20 25
REMARK SMILES IDX 21 27 22 28 23 29 87 30 24 31 86 32 25 33 26 34 27 35 80 36
REMARK SMILES IDX 28 37 85 38 79 39 81 40 29 41 84 42 78 43 77 44 30 46 64 47
REMARK SMILES IDX 43 48 63 49 44 50 47 51 62 52 82 53 45 54 46 55 61 57 83 58
REMARK SMILES IDX 48 59 31 60 32 61 41 62 33 63 34 64 40 65 42 66 35 67 36 68
REMARK SMILES IDX 37 69 38 70 39 71 65 72 66 73 75 74 67 75 68 76 74 77 76 78
REMARK SMILES IDX 69 79 70 80 71 81 72 82 73 83 49 84 50 85 59 86 51 87 52 88
REMARK SMILES IDX 58 89 60 90 53 91 54 92 55 93 56 94 57 95
REMARK H PARENT 15 5 7 13 19 26 81 45 47 56
REMARK Flexibility Score: inf
ROOT
ATOM      1  C   UNL A   1      33.234  30.366  27.232  1.00  0.00     0.118 C 
ENDROOT
BRANCH   1   2
ATOM      2  N   UNL A   1      32.450  29.212  27.620  1.00  0.00    -0.349 N 
ATOM      3  C   UNL A   1      31.737  28.307  26.867  1.00  0.00     0.286 C 
ATOM      4  O   UNL A   1      31.292  27.336  27.485  1.00  0.00    -0.266 OA
ATOM      5  H   UNL A   1      32.421  29.046  28.590  1.00  0.00     0.163 HD
BRANCH   3   6
ATOM      6  C   UNL A   1      31.550  28.483  25.439  1.00  0.00     0.191 A 
ATOM      7  C   UNL A   1      31.632  27.740  23.351  1.00  0.00     0.124 A 
ATOM      8  C   UNL A   1      31.127  29.017  23.284  1.00  0.00     0.048 A 
ATOM      9  O   UNL A   1      31.893  27.414  24.647  1.00  0.00    -0.454 OA
ATOM     10  C   UNL A   1      31.054  29.485  24.622  1.00  0.00     0.056 A 
BRANCH   7  11
ATOM     11  C   UNL A   1      31.904  26.682  22.341  1.00  0.00     0.188 C 
BRANCH  11  12
ATOM     12  N   UNL A   1      31.403  25.369  22.714  1.00  0.00    -0.378 N 
ATOM     13  H   UNL A   1      30.428  25.237  22.697  1.00  0.00     0.161 HD
BRANCH  12  14
ATOM     14  C   UNL A   1      32.179  24.290  23.091  1.00  0.00     0.035 A 
ATOM     15  C   UNL A   1      33.694  22.098  24.052  1.00  0.00     0.119 A 
ATOM     16  C   UNL A   1      34.282  23.064  23.243  1.00  0.00     0.048 A 
ATOM     17  C   UNL A   1      32.358  22.234  24.412  1.00  0.00     0.048 A 
ATOM     18  C   UNL A   1      33.530  24.147  22.765  1.00  0.00     0.029 A 
ATOM     19  C   UNL A   1      31.616  23.324  23.938  1.00  0.00     0.029 A 
BRANCH  15  20
ATOM     20  O   UNL A   1      34.519  21.099  24.489  1.00  0.00    -0.497 OA
ATOM     21  C   UNL A   1      35.068  21.314  25.786  1.00  0.00     0.278 C 
ENDBRANCH  15  20
ENDBRANCH  12  14
ENDBRANCH  11  12
ENDBRANCH   7  11
ENDBRANCH   3   6
ENDBRANCH   1   2
BRANCH   1  22
ATOM     22  C   UNL A   1      34.733  30.082  27.279  1.00  0.00     0.042 C 
BRANCH  22  23
ATOM     23  C   UNL A   1      35.537  31.156  28.014  1.00  0.00     0.118 C 
BRANCH  23  24
ATOM     24  N   UNL A   1      35.453  31.009  29.462  1.00  0.00    -0.352 N 
ATOM     25  C   UNL A   1      36.329  30.440  30.353  1.00  0.00     0.251 C 
ATOM     26  H   UNL A   1      34.636  31.381  29.867  1.00  0.00     0.163 HD
ATOM     27  O   UNL A   1      35.951  30.229  31.504  1.00  0.00    -0.269 OA
BRANCH  25  28
ATOM     28  C   UNL A   1      37.705  30.074  29.949  1.00  0.00     0.039 A 
ATOM     29  C   UNL A   1      38.640  29.780  30.947  1.00  0.00     0.014 A 
ATOM     30  C   UNL A   1      38.098  30.082  28.609  1.00  0.00     0.014 A 
ATOM     31  C   UNL A   1      39.952  29.444  30.598  1.00  0.00     0.010 A 
ATOM     32  C   UNL A   1      39.388  29.684  28.258  1.00  0.00     0.010 A 
ATOM     33  C   UNL A   1      40.330  29.368  29.249  1.00  0.00    -0.014 A 
BRANCH  33  34
ATOM     34  C   UNL A   1      41.704  28.959  28.854  1.00  0.00     0.031 A 
ATOM     35  C   UNL A   1      42.811  29.978  28.796  1.00  0.00     0.074 A 
ATOM     36  C   UNL A   1      41.937  27.685  28.481  1.00  0.00     0.049 A 
ATOM     37  N   UNL A   1      44.046  29.832  28.393  1.00  0.00    -0.248 NA
ATOM     38  C   UNL A   1      42.477  31.347  29.222  1.00  0.00     0.031 C 
ATOM     39  C   UNL A   1      40.936  26.617  28.449  1.00  0.00     0.029 A 
ATOM     40  N   UNL A   1      43.086  27.075  28.043  1.00  0.00    -0.354 N 
ATOM     41  C   UNL A   1      44.631  31.091  28.494  1.00  0.00     0.074 A 
ATOM     42  C   UNL A   1      43.602  31.996  28.959  1.00  0.00     0.031 C 
ATOM     43  C   UNL A   1      41.515  25.482  28.025  1.00  0.00     0.029 A 
ATOM     44  C   UNL A   1      42.919  25.748  27.722  1.00  0.00     0.049 A 
ATOM     45  H   UNL A   1      43.948  27.544  27.965  1.00  0.00     0.167 HD
ATOM     46  C   UNL A   1      45.912  31.453  28.239  1.00  0.00     0.037 A 
ATOM     47  C   UNL A   1      43.793  24.849  27.230  1.00  0.00     0.037 A 
ATOM     48  C   UNL A   1      46.938  30.539  27.810  1.00  0.00     0.049 A 
ATOM     49  C   UNL A   1      45.215  25.270  26.980  1.00  0.00     0.074 A 
ATOM     50  C   UNL A   1      48.281  30.795  27.591  1.00  0.00     0.029 A 
ATOM     51  N   UNL A   1      46.739  29.193  27.539  1.00  0.00    -0.354 N 
ATOM     52  N   UNL A   1      45.765  26.451  27.139  1.00  0.00    -0.248 NA
ATOM     53  C   UNL A   1      46.139  24.237  26.492  1.00  0.00     0.031 C 
ATOM     54  C   UNL A   1      48.886  29.613  27.151  1.00  0.00     0.029 A 
ATOM     55  C   UNL A   1      47.930  28.610  27.140  1.00  0.00     0.049 A 
ATOM     56  H   UNL A   1      45.879  28.723  27.618  1.00  0.00     0.167 HD
ATOM     57  C   UNL A   1      47.104  26.295  26.798  1.00  0.00     0.074 A 
ATOM     58  C   UNL A   1      47.283  24.905  26.433  1.00  0.00     0.031 C 
ATOM     59  C   UNL A   1      48.095  27.221  26.790  1.00  0.00     0.037 A 
BRANCH  46  60
ATOM     60  C   UNL A   1      46.278  32.901  28.422  1.00  0.00     0.058 A 
ATOM     61  C   UNL A   1      46.164  33.828  27.373  1.00  0.00     0.135 A 
ATOM     62  C   UNL A   1      46.709  33.377  29.671  1.00  0.00     0.135 A 
ATOM     63  F   UNL A   1      45.770  33.425  26.154  1.00  0.00    -0.206 F 
ATOM     64  C   UNL A   1      46.493  35.169  27.548  1.00  0.00     0.059 A 
ATOM     65  C   UNL A   1      47.016  34.719  29.875  1.00  0.00     0.059 A 
ATOM     66  F   UNL A   1      46.834  32.535  30.708  1.00  0.00    -0.206 F 
ATOM     67  C   UNL A   1      46.920  35.604  28.803  1.00  0.00     0.060 A 
BRANCH  67  68
ATOM     68  S   UNL A   1      47.336  37.348  29.015  1.00  0.00     0.124 S 
ATOM     69  O   UNL A   1      46.011  37.952  29.117  1.00  0.00    -0.237 OA
ATOM     70  O   UNL A   1      48.122  37.335  30.244  1.00  0.00    -0.237 OA
ATOM     71  O   UNL A   1      48.081  37.670  27.802  1.00  0.00    -0.744 OA
ENDBRANCH  67  68
ENDBRANCH  46  60
BRANCH  47  72
ATOM     72  C   UNL A   1      43.350  23.456  26.963  1.00  0.00     0.058 A 
ATOM     73  C   UNL A   1      43.108  23.014  25.654  1.00  0.00     0.135 A 
ATOM     74  C   UNL A   1      43.177  22.534  28.007  1.00  0.00     0.135 A 
ATOM     75  F   UNL A   1      43.253  23.860  24.623  1.00  0.00    -0.206 F 
ATOM     76  C   UNL A   1      42.696  21.712  25.389  1.00  0.00     0.059 A 
ATOM     77  C   UNL A   1      42.790  21.219  27.765  1.00  0.00     0.059 A 
ATOM     78  F   UNL A   1      43.415  22.901  29.276  1.00  0.00    -0.206 F 
ATOM     79  C   UNL A   1      42.541  20.821  26.451  1.00  0.00     0.060 A 
BRANCH  79  80
ATOM     80  S   UNL A   1      42.057  19.118  26.093  1.00  0.00     0.124 S 
ATOM     81  O   UNL A   1      42.861  18.828  24.911  1.00  0.00    -0.237 OA
ATOM     82  O   UNL A   1      42.446  18.424  27.317  1.00  0.00    -0.237 OA
ATOM     83  O   UNL A   1      40.618  19.220  25.870  1.00  0.00    -0.744 OA
ENDBRANCH  79  80
ENDBRANCH  47  72
BRANCH  59  84
ATOM     84  C   UNL A   1      49.473  26.755  26.411  1.00  0.00     0.058 A 
ATOM     85  C   UNL A   1      50.303  26.088  27.324  1.00  0.00     0.135 A 
ATOM     86  C   UNL A   1      49.945  26.934  25.102  1.00  0.00     0.135 A 
ATOM     87  F   UNL A   1      49.901  25.898  28.591  1.00  0.00    -0.206 F 
ATOM     88  C   UNL A   1      51.566  25.634  26.957  1.00  0.00     0.059 A 
ATOM     89  C   UNL A   1      51.194  26.465  24.706  1.00  0.00     0.059 A 
ATOM     90  F   UNL A   1      49.185  27.557  24.187  1.00  0.00    -0.206 F 
ATOM     91  C   UNL A   1      52.002  25.826  25.644  1.00  0.00     0.060 A 
BRANCH  91  92
ATOM     92  S   UNL A   1      53.628  25.200  25.170  1.00  0.00     0.124 S 
ATOM     93  O   UNL A   1      54.496  25.892  26.118  1.00  0.00    -0.237 OA
ATOM     94  O   UNL A   1      53.483  23.763  25.374  1.00  0.00    -0.237 OA
ATOM     95  O   UNL A   1      53.759  25.619  23.778  1.00  0.00    -0.744 OA
ENDBRANCH  91  92
ENDBRANCH  59  84
ENDBRANCH  33  34
ENDBRANCH  25  28
ENDBRANCH  23  24
ENDBRANCH  22  23
ENDBRANCH   1  22
TORSDOF 17
ENDMDL
