MODEL 1
REMARK VINA RESULT:     -11.0      0.000      0.000
REMARK SMILES CC(C)(C)[NH2+]CC(=O)N[C@](C)(C(=O)NCCCNC(=O)c1ccc(-c2c3nc(c(-c4c(F)cc(S(=O)(=O)[O-])cc4F)c4ccc([nH]4)c(-c4c(F)cc(S(=O)(=O)[O-])cc4F)c4nc(c(-c5c(F)cc(S(=O)(=O)[O-])cc5F)c5ccc2[nH]5)C=C4)C=C3)cc1)C1CC1
REMARK SMILES IDX 15 1 14 2 12 3 13 4 10 6 11 7 9 8 7 9 8 10 6 12 5 13 2 16
REMARK SMILES IDX 1 17 3 18 4 19 87 20 88 21 89 22 16 23 17 24 18 25 19 26
REMARK SMILES IDX 20 28 21 29 22 30 86 31 23 32 85 33 24 34 25 35 26 36 79 37
REMARK SMILES IDX 27 38 84 39 78 40 80 41 28 42 83 43 77 44 76 45 29 47 63 48
REMARK SMILES IDX 42 49 62 50 43 51 46 52 61 53 81 54 44 55 45 56 60 58 82 59
REMARK SMILES IDX 47 60 30 61 31 62 40 63 32 64 33 65 39 66 41 67 34 68 35 69
REMARK SMILES IDX 36 70 37 71 38 72 64 73 65 74 74 75 66 76 67 77 73 78 75 79
REMARK SMILES IDX 68 80 69 81 70 82 71 83 72 84 48 85 49 86 58 87 50 88 51 89
REMARK SMILES IDX 57 90 59 91 52 92 53 93 54 94 55 95 56 96
REMARK H PARENT 14 5 9 11 5 14 5 15 18 27 80 46 46 57
REMARK Flexibility Score: inf
ROOT
ATOM      1  C   UNL A   1      36.556  22.266  25.698  1.00  0.00     0.117 C 
ENDROOT
BRANCH   1   2
ATOM      2  N   UNL A   1      35.637  22.377  26.806  1.00  0.00    -0.354 N 
ATOM      3  C   UNL A   1      34.288  22.227  26.898  1.00  0.00     0.245 C 
ATOM      4  O   UNL A   1      33.852  22.249  28.060  1.00  0.00    -0.272 OA
ATOM      5  H   UNL A   1      36.070  22.606  27.661  1.00  0.00     0.163 HD
BRANCH   3   6
ATOM      6  C   UNL A   1      33.278  22.291  25.675  1.00  0.00     0.119 C 
ATOM      7  C   UNL A   1      32.059  23.006  26.275  1.00  0.00     0.046 C 
BRANCH   6   8
ATOM      8  N   UNL A   1      33.792  22.735  24.326  1.00  0.00    -0.337 N 
ATOM      9  C   UNL A   1      33.983  23.705  23.409  1.00  0.00     0.275 C 
ATOM     10  O   UNL A   1      34.412  23.268  22.325  1.00  0.00    -0.268 OA
ATOM     11  H   UNL A   1      34.171  21.923  23.919  1.00  0.00     0.164 HD
BRANCH   9  12
ATOM     12  C   UNL A   1      33.791  25.212  23.535  1.00  0.00     0.362 C 
BRANCH  12  13
ATOM     13  N   UNL A   1      32.521  25.665  24.128  1.00  0.00    -0.334 N 
ATOM     14  H   UNL A   1      32.272  25.002  24.862  1.00  0.00     0.347 HD
ATOM     15  H   UNL A   1      32.706  26.616  24.446  1.00  0.00     0.347 HD
BRANCH  13  16
ATOM     16  C   UNL A   1      31.363  25.787  23.236  1.00  0.00     0.088 C 
ATOM     17  C   UNL A   1      31.791  25.999  21.778  1.00  0.00     0.078 C 
ATOM     18  C   UNL A   1      30.426  26.868  23.792  1.00  0.00     0.078 C 
ATOM     19  C   UNL A   1      30.567  24.470  23.226  1.00  0.00     0.078 C 
ENDBRANCH  13  16
ENDBRANCH  12  13
ENDBRANCH   9  12
ENDBRANCH   6   8
BRANCH   6  20
ATOM     20  C   UNL A   1      32.857  20.808  25.348  1.00  0.00     0.024 C 
ATOM     21  C   UNL A   1      32.639  20.214  23.963  1.00  0.00     0.007 C 
ATOM     22  C   UNL A   1      33.863  19.841  24.737  1.00  0.00     0.007 C 
ENDBRANCH   6  20
ENDBRANCH   3   6
ENDBRANCH   1   2
BRANCH   1  23
ATOM     23  C   UNL A   1      37.281  23.572  25.374  1.00  0.00     0.042 C 
BRANCH  23  24
ATOM     24  C   UNL A   1      38.174  24.099  26.491  1.00  0.00     0.118 C 
BRANCH  24  25
ATOM     25  N   UNL A   1      39.591  23.982  26.164  1.00  0.00    -0.352 N 
ATOM     26  C   UNL A   1      40.680  24.727  26.547  1.00  0.00     0.251 C 
ATOM     27  H   UNL A   1      39.804  23.235  25.560  1.00  0.00     0.163 HD
ATOM     28  O   UNL A   1      41.752  24.523  25.980  1.00  0.00    -0.269 OA
BRANCH  26  29
ATOM     29  C   UNL A   1      40.595  25.766  27.603  1.00  0.00     0.039 A 
ATOM     30  C   UNL A   1      39.613  25.638  28.594  1.00  0.00     0.014 A 
ATOM     31  C   UNL A   1      41.419  26.892  27.603  1.00  0.00     0.014 A 
ATOM     32  C   UNL A   1      39.500  26.600  29.603  1.00  0.00     0.010 A 
ATOM     33  C   UNL A   1      41.372  27.797  28.662  1.00  0.00     0.010 A 
ATOM     34  C   UNL A   1      40.401  27.674  29.666  1.00  0.00    -0.014 A 
BRANCH  34  35
ATOM     35  C   UNL A   1      40.330  28.691  30.749  1.00  0.00     0.031 A 
ATOM     36  C   UNL A   1      41.223  28.571  31.958  1.00  0.00     0.074 A 
ATOM     37  C   UNL A   1      39.420  29.683  30.683  1.00  0.00     0.049 A 
ATOM     38  N   UNL A   1      41.246  29.297  33.047  1.00  0.00    -0.248 NA
ATOM     39  C   UNL A   1      42.197  27.467  31.958  1.00  0.00     0.031 C 
ATOM     40  C   UNL A   1      38.464  29.884  29.591  1.00  0.00     0.029 A 
ATOM     41  N   UNL A   1      39.141  30.704  31.557  1.00  0.00    -0.354 N 
ATOM     42  C   UNL A   1      42.213  28.724  33.866  1.00  0.00     0.074 A 
ATOM     43  C   UNL A   1      42.715  27.559  33.173  1.00  0.00     0.031 C 
ATOM     44  C   UNL A   1      37.722  30.973  29.849  1.00  0.00     0.029 A 
ATOM     45  C   UNL A   1      38.120  31.526  31.140  1.00  0.00     0.049 A 
ATOM     46  H   UNL A   1      39.625  30.836  32.404  1.00  0.00     0.167 HD
ATOM     47  C   UNL A   1      42.662  29.146  35.073  1.00  0.00     0.037 A 
ATOM     48  C   UNL A   1      37.560  32.600  31.732  1.00  0.00     0.037 A 
ATOM     49  C   UNL A   1      42.189  30.330  35.740  1.00  0.00     0.049 A 
ATOM     50  C   UNL A   1      38.085  33.059  33.066  1.00  0.00     0.074 A 
ATOM     51  C   UNL A   1      42.626  30.880  36.933  1.00  0.00     0.029 A 
ATOM     52  N   UNL A   1      41.175  31.152  35.270  1.00  0.00    -0.354 N 
ATOM     53  N   UNL A   1      39.040  32.537  33.799  1.00  0.00    -0.248 NA
ATOM     54  C   UNL A   1      37.461  34.253  33.651  1.00  0.00     0.031 C 
ATOM     55  C   UNL A   1      41.849  32.011  37.204  1.00  0.00     0.029 A 
ATOM     56  C   UNL A   1      40.960  32.193  36.157  1.00  0.00     0.049 A 
ATOM     57  H   UNL A   1      40.682  31.014  34.428  1.00  0.00     0.167 HD
ATOM     58  C   UNL A   1      39.149  33.354  34.919  1.00  0.00     0.074 A 
ATOM     59  C   UNL A   1      38.171  34.411  34.761  1.00  0.00     0.031 C 
ATOM     60  C   UNL A   1      39.985  33.242  35.981  1.00  0.00     0.037 A 
BRANCH  47  61
ATOM     61  C   UNL A   1      43.727  28.320  35.746  1.00  0.00     0.058 A 
ATOM     62  C   UNL A   1      43.405  27.295  36.650  1.00  0.00     0.135 A 
ATOM     63  C   UNL A   1      45.086  28.542  35.468  1.00  0.00     0.135 A 
ATOM     64  F   UNL A   1      42.122  27.047  36.963  1.00  0.00    -0.206 F 
ATOM     65  C   UNL A   1      44.390  26.545  37.284  1.00  0.00     0.059 A 
ATOM     66  C   UNL A   1      46.088  27.784  36.069  1.00  0.00     0.059 A 
ATOM     67  F   UNL A   1      45.452  29.507  34.611  1.00  0.00    -0.206 F 
ATOM     68  C   UNL A   1      45.730  26.802  36.990  1.00  0.00     0.060 A 
BRANCH  68  69
ATOM     69  S   UNL A   1      46.998  25.828  37.830  1.00  0.00     0.124 S 
ATOM     70  O   UNL A   1      47.726  26.863  38.556  1.00  0.00    -0.237 OA
ATOM     71  O   UNL A   1      46.203  24.918  38.649  1.00  0.00    -0.237 OA
ATOM     72  O   UNL A   1      47.728  25.201  36.732  1.00  0.00    -0.744 OA
ENDBRANCH  68  69
ENDBRANCH  47  61
BRANCH  48  73
ATOM     73  C   UNL A   1      36.459  33.332  31.051  1.00  0.00     0.058 A 
ATOM     74  C   UNL A   1      36.710  34.115  29.915  1.00  0.00     0.135 A 
ATOM     75  C   UNL A   1      35.134  33.245  31.506  1.00  0.00     0.135 A 
ATOM     76  F   UNL A   1      37.962  34.235  29.447  1.00  0.00    -0.206 F 
ATOM     77  C   UNL A   1      35.690  34.797  29.260  1.00  0.00     0.059 A 
ATOM     78  C   UNL A   1      34.093  33.898  30.852  1.00  0.00     0.059 A 
ATOM     79  F   UNL A   1      34.839  32.495  32.578  1.00  0.00    -0.206 F 
ATOM     80  C   UNL A   1      34.382  34.678  29.734  1.00  0.00     0.060 A 
BRANCH  80  81
ATOM     81  S   UNL A   1      33.058  35.521  28.841  1.00  0.00     0.124 S 
ATOM     82  O   UNL A   1      32.295  36.110  29.935  1.00  0.00    -0.237 OA
ATOM     83  O   UNL A   1      33.801  36.458  28.004  1.00  0.00    -0.237 OA
ATOM     84  O   UNL A   1      32.397  34.438  28.121  1.00  0.00    -0.744 OA
ENDBRANCH  80  81
ENDBRANCH  48  73
BRANCH  60  85
ATOM     85  C   UNL A   1      39.903  34.302  37.043  1.00  0.00     0.058 A 
ATOM     86  C   UNL A   1      40.620  35.505  36.941  1.00  0.00     0.135 A 
ATOM     87  C   UNL A   1      39.054  34.137  38.148  1.00  0.00     0.135 A 
ATOM     88  F   UNL A   1      41.451  35.711  35.906  1.00  0.00    -0.206 F 
ATOM     89  C   UNL A   1      40.513  36.497  37.909  1.00  0.00     0.059 A 
ATOM     90  C   UNL A   1      38.911  35.126  39.115  1.00  0.00     0.059 A 
ATOM     91  F   UNL A   1      38.338  33.008  38.288  1.00  0.00    -0.206 F 
ATOM     92  C   UNL A   1      39.653  36.300  38.991  1.00  0.00     0.060 A 
BRANCH  92  93
ATOM     93  S   UNL A   1      39.494  37.613  40.221  1.00  0.00     0.124 S 
ATOM     94  O   UNL A   1      38.508  38.487  39.593  1.00  0.00    -0.237 OA
ATOM     95  O   UNL A   1      39.034  36.884  41.399  1.00  0.00    -0.237 OA
ATOM     96  O   UNL A   1      40.846  38.155  40.317  1.00  0.00    -0.744 OA
ENDBRANCH  92  93
ENDBRANCH  60  85
ENDBRANCH  34  35
ENDBRANCH  26  29
ENDBRANCH  24  25
ENDBRANCH  23  24
ENDBRANCH   1  23
TORSDOF 18
ENDMDL
MODEL 2
REMARK VINA RESULT:     -10.9      6.868     12.189
REMARK SMILES CC(C)(C)[NH2+]CC(=O)N[C@](C)(C(=O)NCCCNC(=O)c1ccc(-c2c3nc(c(-c4c(F)cc(S(=O)(=O)[O-])cc4F)c4ccc([nH]4)c(-c4c(F)cc(S(=O)(=O)[O-])cc4F)c4nc(c(-c5c(F)cc(S(=O)(=O)[O-])cc5F)c5ccc2[nH]5)C=C4)C=C3)cc1)C1CC1
REMARK SMILES IDX 15 1 14 2 12 3 13 4 10 6 11 7 9 8 7 9 8 10 6 12 5 13 2 16
REMARK SMILES IDX 1 17 3 18 4 19 87 20 88 21 89 22 16 23 17 24 18 25 19 26
REMARK SMILES IDX 20 28 21 29 22 30 86 31 23 32 85 33 24 34 25 35 26 36 79 37
REMARK SMILES IDX 27 38 84 39 78 40 80 41 28 42 83 43 77 44 76 45 29 47 63 48
REMARK SMILES IDX 42 49 62 50 43 51 46 52 61 53 81 54 44 55 45 56 60 58 82 59
REMARK SMILES IDX 47 60 30 61 31 62 40 63 32 64 33 65 39 66 41 67 34 68 35 69
REMARK SMILES IDX 36 70 37 71 38 72 64 73 65 74 74 75 66 76 67 77 73 78 75 79
REMARK SMILES IDX 68 80 69 81 70 82 71 83 72 84 48 85 49 86 58 87 50 88 51 89
REMARK SMILES IDX 57 90 59 91 52 92 53 93 54 94 55 95 56 96
REMARK H PARENT 14 5 9 11 5 14 5 15 18 27 80 46 46 57
REMARK Flexibility Score: inf
ROOT
ATOM      1  C   UNL A   1      33.422  29.414  25.942  1.00  0.00     0.117 C 
ENDROOT
BRANCH   1   2
ATOM      2  N   UNL A   1      33.982  28.088  26.061  1.00  0.00    -0.354 N 
ATOM      3  C   UNL A   1      33.554  26.869  25.633  1.00  0.00     0.245 C 
ATOM      4  O   UNL A   1      34.382  25.958  25.786  1.00  0.00    -0.272 OA
ATOM      5  H   UNL A   1      34.839  28.061  26.546  1.00  0.00     0.163 HD
BRANCH   3   6
ATOM      6  C   UNL A   1      32.060  26.518  25.226  1.00  0.00     0.119 C 
ATOM      7  C   UNL A   1      31.265  26.897  26.483  1.00  0.00     0.046 C 
BRANCH   6   8
ATOM      8  N   UNL A   1      31.547  26.965  23.878  1.00  0.00    -0.337 N 
ATOM      9  C   UNL A   1      30.954  27.895  23.101  1.00  0.00     0.275 C 
ATOM     10  O   UNL A   1      30.700  27.479  21.956  1.00  0.00    -0.268 OA
ATOM     11  H   UNL A   1      31.739  26.214  23.271  1.00  0.00     0.164 HD
BRANCH   9  12
ATOM     12  C   UNL A   1      30.607  29.346  23.417  1.00  0.00     0.362 C 
BRANCH  12  13
ATOM     13  N   UNL A   1      30.075  30.151  22.303  1.00  0.00    -0.334 N 
ATOM     14  H   UNL A   1      30.738  30.906  22.128  1.00  0.00     0.347 HD
ATOM     15  H   UNL A   1      29.958  29.488  21.536  1.00  0.00     0.347 HD
BRANCH  13  16
ATOM     16  C   UNL A   1      28.752  30.759  22.478  1.00  0.00     0.088 C 
ATOM     17  C   UNL A   1      28.298  31.502  21.215  1.00  0.00     0.078 C 
ATOM     18  C   UNL A   1      28.769  31.613  23.753  1.00  0.00     0.078 C 
ATOM     19  C   UNL A   1      27.695  29.661  22.692  1.00  0.00     0.078 C 
ENDBRANCH  13  16
ENDBRANCH  12  13
ENDBRANCH   9  12
ENDBRANCH   6   8
BRANCH   6  20
ATOM     20  C   UNL A   1      31.985  24.954  25.057  1.00  0.00     0.024 C 
ATOM     21  C   UNL A   1      30.889  24.172  24.347  1.00  0.00     0.007 C 
ATOM     22  C   UNL A   1      32.228  24.314  23.696  1.00  0.00     0.007 C 
ENDBRANCH   6  20
ENDBRANCH   3   6
ENDBRANCH   1   2
BRANCH   1  23
ATOM     23  C   UNL A   1      33.783  30.335  27.106  1.00  0.00     0.042 C 
BRANCH  23  24
ATOM     24  C   UNL A   1      35.158  30.085  27.713  1.00  0.00     0.118 C 
BRANCH  24  25
ATOM     25  N   UNL A   1      35.211  30.449  29.125  1.00  0.00    -0.352 N 
ATOM     26  C   UNL A   1      36.219  30.353  30.055  1.00  0.00     0.251 C 
ATOM     27  H   UNL A   1      34.375  30.833  29.474  1.00  0.00     0.163 HD
ATOM     28  O   UNL A   1      35.943  30.568  31.234  1.00  0.00    -0.269 OA
BRANCH  26  29
ATOM     29  C   UNL A   1      37.607  29.989  29.681  1.00  0.00     0.039 A 
ATOM     30  C   UNL A   1      38.491  29.585  30.690  1.00  0.00     0.014 A 
ATOM     31  C   UNL A   1      38.074  30.093  28.370  1.00  0.00     0.014 A 
ATOM     32  C   UNL A   1      39.809  29.237  30.376  1.00  0.00     0.010 A 
ATOM     33  C   UNL A   1      39.355  29.652  28.043  1.00  0.00     0.010 A 
ATOM     34  C   UNL A   1      40.245  29.236  29.043  1.00  0.00    -0.014 A 
BRANCH  34  35
ATOM     35  C   UNL A   1      41.629  28.834  28.674  1.00  0.00     0.031 A 
ATOM     36  C   UNL A   1      42.734  29.859  28.655  1.00  0.00     0.074 A 
ATOM     37  C   UNL A   1      41.883  27.567  28.289  1.00  0.00     0.049 A 
ATOM     38  N   UNL A   1      43.979  29.730  28.271  1.00  0.00    -0.248 NA
ATOM     39  C   UNL A   1      42.384  31.221  29.093  1.00  0.00     0.031 C 
ATOM     40  C   UNL A   1      40.893  26.490  28.216  1.00  0.00     0.029 A 
ATOM     41  N   UNL A   1      43.049  26.971  27.876  1.00  0.00    -0.354 N 
ATOM     42  C   UNL A   1      44.549  30.992  28.398  1.00  0.00     0.074 A 
ATOM     43  C   UNL A   1      43.502  31.885  28.840  1.00  0.00     0.031 C 
ATOM     44  C   UNL A   1      41.497  25.362  27.809  1.00  0.00     0.029 A 
ATOM     45  C   UNL A   1      42.907  25.642  27.553  1.00  0.00     0.049 A 
ATOM     46  H   UNL A   1      43.907  27.451  27.815  1.00  0.00     0.167 HD
ATOM     47  C   UNL A   1      45.835  31.368  28.191  1.00  0.00     0.037 A 
ATOM     48  C   UNL A   1      43.807  24.749  27.096  1.00  0.00     0.037 A 
ATOM     49  C   UNL A   1      46.883  30.467  27.791  1.00  0.00     0.049 A 
ATOM     50  C   UNL A   1      45.232  25.185  26.888  1.00  0.00     0.074 A 
ATOM     51  C   UNL A   1      48.230  30.735  27.620  1.00  0.00     0.029 A 
ATOM     52  N   UNL A   1      46.704  29.121  27.504  1.00  0.00    -0.354 N 
ATOM     53  N   UNL A   1      45.766  26.370  27.068  1.00  0.00    -0.248 NA
ATOM     54  C   UNL A   1      46.179  24.164  26.419  1.00  0.00     0.031 C 
ATOM     55  C   UNL A   1      48.858  29.561  27.190  1.00  0.00     0.029 A 
ATOM     56  C   UNL A   1      47.911  28.550  27.139  1.00  0.00     0.049 A 
ATOM     57  H   UNL A   1      45.844  28.644  27.552  1.00  0.00     0.167 HD
ATOM     58  C   UNL A   1      47.115  26.231  26.760  1.00  0.00     0.074 A 
ATOM     59  C   UNL A   1      47.318  24.844  26.394  1.00  0.00     0.031 C 
ATOM     60  C   UNL A   1      48.097  27.165  26.782  1.00  0.00     0.037 A 
BRANCH  47  61
ATOM     61  C   UNL A   1      46.178  32.819  28.403  1.00  0.00     0.058 A 
ATOM     62  C   UNL A   1      46.096  33.757  27.361  1.00  0.00     0.135 A 
ATOM     63  C   UNL A   1      46.572  33.283  29.669  1.00  0.00     0.135 A 
ATOM     64  F   UNL A   1      45.737  33.367  26.127  1.00  0.00    -0.206 F 
ATOM     65  C   UNL A   1      46.431  35.093  27.555  1.00  0.00     0.059 A 
ATOM     66  C   UNL A   1      46.883  34.622  29.893  1.00  0.00     0.059 A 
ATOM     67  F   UNL A   1      46.666  32.432  30.703  1.00  0.00    -0.206 F 
ATOM     68  C   UNL A   1      46.828  35.515  28.825  1.00  0.00     0.060 A 
BRANCH  68  69
ATOM     69  S   UNL A   1      47.270  37.250  29.056  1.00  0.00     0.124 S 
ATOM     70  O   UNL A   1      46.664  37.534  30.353  1.00  0.00    -0.237 OA
ATOM     71  O   UNL A   1      48.728  37.209  29.033  1.00  0.00    -0.237 OA
ATOM     72  O   UNL A   1      46.646  37.914  27.914  1.00  0.00    -0.744 OA
ENDBRANCH  68  69
ENDBRANCH  47  61
BRANCH  48  73
ATOM     73  C   UNL A   1      43.392  23.345  26.833  1.00  0.00     0.058 A 
ATOM     74  C   UNL A   1      43.358  22.836  25.527  1.00  0.00     0.135 A 
ATOM     75  C   UNL A   1      43.044  22.478  27.881  1.00  0.00     0.135 A 
ATOM     76  F   UNL A   1      43.676  23.629  24.491  1.00  0.00    -0.206 F 
ATOM     77  C   UNL A   1      42.984  21.523  25.265  1.00  0.00     0.059 A 
ATOM     78  C   UNL A   1      42.690  21.153  27.646  1.00  0.00     0.059 A 
ATOM     79  F   UNL A   1      43.076  22.911  29.151  1.00  0.00    -0.206 F 
ATOM     80  C   UNL A   1      42.656  20.687  26.333  1.00  0.00     0.060 A 
BRANCH  80  81
ATOM     81  S   UNL A   1      42.226  18.967  25.986  1.00  0.00     0.124 S 
ATOM     82  O   UNL A   1      42.647  18.305  27.215  1.00  0.00    -0.237 OA
ATOM     83  O   UNL A   1      40.785  19.049  25.765  1.00  0.00    -0.237 OA
ATOM     84  O   UNL A   1      43.017  18.658  24.799  1.00  0.00    -0.744 OA
ENDBRANCH  80  81
ENDBRANCH  48  73
BRANCH  60  85
ATOM     85  C   UNL A   1      49.488  26.717  26.429  1.00  0.00     0.058 A 
ATOM     86  C   UNL A   1      50.307  26.054  27.356  1.00  0.00     0.135 A 
ATOM     87  C   UNL A   1      49.986  26.905  25.129  1.00  0.00     0.135 A 
ATOM     88  F   UNL A   1      49.881  25.856  28.613  1.00  0.00    -0.206 F 
ATOM     89  C   UNL A   1      51.580  25.611  27.012  1.00  0.00     0.059 A 
ATOM     90  C   UNL A   1      51.244  26.446  24.756  1.00  0.00     0.059 A 
ATOM     91  F   UNL A   1      49.238  27.525  24.201  1.00  0.00    -0.206 F 
ATOM     92  C   UNL A   1      52.039  25.808  25.708  1.00  0.00     0.060 A 
BRANCH  92  93
ATOM     93  S   UNL A   1      53.677  25.194  25.264  1.00  0.00     0.124 S 
ATOM     94  O   UNL A   1      53.503  23.753  25.419  1.00  0.00    -0.237 OA
ATOM     95  O   UNL A   1      53.829  25.670  23.893  1.00  0.00    -0.237 OA
ATOM     96  O   UNL A   1      54.555  25.829  26.242  1.00  0.00    -0.744 OA
ENDBRANCH  92  93
ENDBRANCH  60  85
ENDBRANCH  34  35
ENDBRANCH  26  29
ENDBRANCH  24  25
ENDBRANCH  23  24
ENDBRANCH   1  23
TORSDOF 18
ENDMDL
MODEL 3
REMARK VINA RESULT:     -10.8      1.384      2.849
REMARK SMILES CC(C)(C)[NH2+]CC(=O)N[C@](C)(C(=O)NCCCNC(=O)c1ccc(-c2c3nc(c(-c4c(F)cc(S(=O)(=O)[O-])cc4F)c4ccc([nH]4)c(-c4c(F)cc(S(=O)(=O)[O-])cc4F)c4nc(c(-c5c(F)cc(S(=O)(=O)[O-])cc5F)c5ccc2[nH]5)C=C4)C=C3)cc1)C1CC1
REMARK SMILES IDX 15 1 14 2 12 3 13 4 10 6 11 7 9 8 7 9 8 10 6 12 5 13 2 16
REMARK SMILES IDX 1 17 3 18 4 19 87 20 88 21 89 22 16 23 17 24 18 25 19 26
REMARK SMILES IDX 20 28 21 29 22 30 86 31 23 32 85 33 24 34 25 35 26 36 79 37
REMARK SMILES IDX 27 38 84 39 78 40 80 41 28 42 83 43 77 44 76 45 29 47 63 48
REMARK SMILES IDX 42 49 62 50 43 51 46 52 61 53 81 54 44 55 45 56 60 58 82 59
REMARK SMILES IDX 47 60 30 61 31 62 40 63 32 64 33 65 39 66 41 67 34 68 35 69
REMARK SMILES IDX 36 70 37 71 38 72 64 73 65 74 74 75 66 76 67 77 73 78 75 79
REMARK SMILES IDX 68 80 69 81 70 82 71 83 72 84 48 85 49 86 58 87 50 88 51 89
REMARK SMILES IDX 57 90 59 91 52 92 53 93 54 94 55 95 56 96
REMARK H PARENT 14 5 9 11 5 14 5 15 18 27 80 46 46 57
REMARK Flexibility Score: inf
ROOT
ATOM      1  C   UNL A   1      37.727  23.558  25.332  1.00  0.00     0.117 C 
ENDROOT
BRANCH   1   2
ATOM      2  N   UNL A   1      37.333  22.171  25.401  1.00  0.00    -0.354 N 
ATOM      3  C   UNL A   1      36.256  21.497  24.914  1.00  0.00     0.245 C 
ATOM      4  O   UNL A   1      36.329  20.265  25.039  1.00  0.00    -0.272 OA
ATOM      5  H   UNL A   1      37.967  21.602  25.896  1.00  0.00     0.163 HD
BRANCH   3   6
ATOM      6  C   UNL A   1      34.886  22.166  24.469  1.00  0.00     0.119 C 
ATOM      7  C   UNL A   1      35.338  23.224  23.453  1.00  0.00     0.046 C 
BRANCH   6   8
ATOM      8  N   UNL A   1      33.717  21.276  24.123  1.00  0.00    -0.337 N 
ATOM      9  C   UNL A   1      33.055  20.109  24.258  1.00  0.00     0.275 C 
ATOM     10  O   UNL A   1      32.100  19.999  23.467  1.00  0.00    -0.268 OA
ATOM     11  H   UNL A   1      33.174  21.804  23.494  1.00  0.00     0.164 HD
BRANCH   9  12
ATOM     12  C   UNL A   1      33.289  18.968  25.243  1.00  0.00     0.362 C 
BRANCH  12  13
ATOM     13  N   UNL A   1      34.486  18.139  25.015  1.00  0.00    -0.334 N 
ATOM     14  H   UNL A   1      35.006  18.558  24.245  1.00  0.00     0.347 HD
ATOM     15  H   UNL A   1      34.969  18.128  25.913  1.00  0.00     0.347 HD
BRANCH  13  16
ATOM     16  C   UNL A   1      34.276  16.725  24.686  1.00  0.00     0.088 C 
ATOM     17  C   UNL A   1      35.358  15.832  25.309  1.00  0.00     0.078 C 
ATOM     18  C   UNL A   1      34.133  16.590  23.164  1.00  0.00     0.078 C 
ATOM     19  C   UNL A   1      32.955  16.233  25.303  1.00  0.00     0.078 C 
ENDBRANCH  13  16
ENDBRANCH  12  13
ENDBRANCH   9  12
ENDBRANCH   6   8
BRANCH   6  20
ATOM     20  C   UNL A   1      34.311  22.918  25.729  1.00  0.00     0.024 C 
ATOM     21  C   UNL A   1      34.058  24.414  25.853  1.00  0.00     0.007 C 
ATOM     22  C   UNL A   1      32.897  23.483  25.708  1.00  0.00     0.007 C 
ENDBRANCH   6  20
ENDBRANCH   3   6
ENDBRANCH   1   2
BRANCH   1  23
ATOM     23  C   UNL A   1      38.317  24.091  26.637  1.00  0.00     0.042 C 
BRANCH  23  24
ATOM     24  C   UNL A   1      39.641  23.456  27.042  1.00  0.00     0.118 C 
BRANCH  24  25
ATOM     25  N   UNL A   1      40.756  23.948  26.240  1.00  0.00    -0.352 N 
ATOM     26  C   UNL A   1      41.461  25.128  26.283  1.00  0.00     0.251 C 
ATOM     27  H   UNL A   1      41.057  23.324  25.543  1.00  0.00     0.163 HD
ATOM     28  O   UNL A   1      42.246  25.369  25.368  1.00  0.00    -0.269 OA
BRANCH  26  29
ATOM     29  C   UNL A   1      41.291  26.109  27.383  1.00  0.00     0.039 A 
ATOM     30  C   UNL A   1      40.346  25.843  28.382  1.00  0.00     0.014 A 
ATOM     31  C   UNL A   1      41.998  27.312  27.419  1.00  0.00     0.014 A 
ATOM     32  C   UNL A   1      40.156  26.746  29.432  1.00  0.00     0.010 A 
ATOM     33  C   UNL A   1      41.881  28.163  28.516  1.00  0.00     0.010 A 
ATOM     34  C   UNL A   1      40.946  27.902  29.528  1.00  0.00    -0.014 A 
BRANCH  34  35
ATOM     35  C   UNL A   1      40.794  28.863  30.653  1.00  0.00     0.031 A 
ATOM     36  C   UNL A   1      41.661  28.733  31.879  1.00  0.00     0.074 A 
ATOM     37  C   UNL A   1      39.833  29.807  30.608  1.00  0.00     0.049 A 
ATOM     38  N   UNL A   1      41.618  29.408  33.001  1.00  0.00    -0.248 NA
ATOM     39  C   UNL A   1      42.693  27.683  31.855  1.00  0.00     0.031 C 
ATOM     40  C   UNL A   1      38.895  30.008  29.501  1.00  0.00     0.029 A 
ATOM     41  N   UNL A   1      39.478  30.770  31.520  1.00  0.00    -0.354 N 
ATOM     42  C   UNL A   1      42.594  28.849  33.819  1.00  0.00     0.074 A 
ATOM     43  C   UNL A   1      43.175  27.745  33.088  1.00  0.00     0.031 C 
ATOM     44  C   UNL A   1      38.089  31.044  29.788  1.00  0.00     0.029 A 
ATOM     45  C   UNL A   1      38.424  31.556  31.113  1.00  0.00     0.049 A 
ATOM     46  H   UNL A   1      39.933  30.887  32.384  1.00  0.00     0.167 HD
ATOM     47  C   UNL A   1      42.990  29.236  35.056  1.00  0.00     0.037 A 
ATOM     48  C   UNL A   1      37.794  32.570  31.737  1.00  0.00     0.037 A 
ATOM     49  C   UNL A   1      42.438  30.361  35.762  1.00  0.00     0.049 A 
ATOM     50  C   UNL A   1      38.260  32.993  33.104  1.00  0.00     0.074 A 
ATOM     51  C   UNL A   1      42.814  30.877  36.990  1.00  0.00     0.029 A 
ATOM     52  N   UNL A   1      41.392  31.150  35.303  1.00  0.00    -0.354 N 
ATOM     53  N   UNL A   1      39.223  32.488  33.839  1.00  0.00    -0.248 NA
ATOM     54  C   UNL A   1      37.558  34.123  33.726  1.00  0.00     0.031 C 
ATOM     55  C   UNL A   1      41.971  31.951  37.291  1.00  0.00     0.029 A 
ATOM     56  C   UNL A   1      41.099  32.135  36.230  1.00  0.00     0.049 A 
ATOM     57  H   UNL A   1      40.928  31.026  34.443  1.00  0.00     0.167 HD
ATOM     58  C   UNL A   1      39.260  33.257  34.998  1.00  0.00     0.074 A 
ATOM     59  C   UNL A   1      38.230  34.267  34.861  1.00  0.00     0.031 C 
ATOM     60  C   UNL A   1      40.074  33.139  36.076  1.00  0.00     0.037 A 
BRANCH  47  61
ATOM     61  C   UNL A   1      44.080  28.437  35.719  1.00  0.00     0.058 A 
ATOM     62  C   UNL A   1      43.792  27.359  36.571  1.00  0.00     0.135 A 
ATOM     63  C   UNL A   1      45.432  28.739  35.484  1.00  0.00     0.135 A 
ATOM     64  F   UNL A   1      42.517  27.034  36.843  1.00  0.00    -0.206 F 
ATOM     65  C   UNL A   1      44.800  26.633  37.197  1.00  0.00     0.059 A 
ATOM     66  C   UNL A   1      46.459  28.007  36.076  1.00  0.00     0.059 A 
ATOM     67  F   UNL A   1      45.767  29.757  34.676  1.00  0.00    -0.206 F 
ATOM     68  C   UNL A   1      46.131  26.969  36.946  1.00  0.00     0.060 A 
BRANCH  68  69
ATOM     69  S   UNL A   1      47.428  26.025  37.776  1.00  0.00     0.124 S 
ATOM     70  O   UNL A   1      47.106  26.260  39.179  1.00  0.00    -0.237 OA
ATOM     71  O   UNL A   1      47.191  24.671  37.288  1.00  0.00    -0.237 OA
ATOM     72  O   UNL A   1      48.660  26.652  37.302  1.00  0.00    -0.744 OA
ENDBRANCH  68  69
ENDBRANCH  47  61
BRANCH  48  73
ATOM     73  C   UNL A   1      36.672  33.274  31.061  1.00  0.00     0.058 A 
ATOM     74  C   UNL A   1      36.913  34.158  29.999  1.00  0.00     0.135 A 
ATOM     75  C   UNL A   1      35.338  33.060  31.444  1.00  0.00     0.135 A 
ATOM     76  F   UNL A   1      38.171  34.401  29.602  1.00  0.00    -0.206 F 
ATOM     77  C   UNL A   1      35.875  34.816  29.348  1.00  0.00     0.059 A 
ATOM     78  C   UNL A   1      34.281  33.688  30.791  1.00  0.00     0.059 A 
ATOM     79  F   UNL A   1      35.053  32.211  32.442  1.00  0.00    -0.206 F 
ATOM     80  C   UNL A   1      34.560  34.570  29.749  1.00  0.00     0.060 A 
BRANCH  80  81
ATOM     81  S   UNL A   1      33.217  35.386  28.859  1.00  0.00     0.124 S 
ATOM     82  O   UNL A   1      33.948  36.335  28.029  1.00  0.00    -0.237 OA
ATOM     83  O   UNL A   1      32.593  34.270  28.156  1.00  0.00    -0.237 OA
ATOM     84  O   UNL A   1      32.413  35.971  29.928  1.00  0.00    -0.744 OA
ENDBRANCH  80  81
ENDBRANCH  48  73
BRANCH  60  85
ATOM     85  C   UNL A   1      39.909  34.142  37.182  1.00  0.00     0.058 A 
ATOM     86  C   UNL A   1      40.530  35.400  37.135  1.00  0.00     0.135 A 
ATOM     87  C   UNL A   1      39.075  33.863  38.276  1.00  0.00     0.135 A 
ATOM     88  F   UNL A   1      41.342  35.715  36.113  1.00  0.00    -0.206 F 
ATOM     89  C   UNL A   1      40.345  36.339  38.145  1.00  0.00     0.059 A 
ATOM     90  C   UNL A   1      38.855  34.795  39.284  1.00  0.00     0.059 A 
ATOM     91  F   UNL A   1      38.450  32.677  38.364  1.00  0.00    -0.206 F 
ATOM     92  C   UNL A   1      39.502  36.028  39.214  1.00  0.00     0.060 A 
BRANCH  92  93
ATOM     93  S   UNL A   1      39.240  37.269  40.499  1.00  0.00     0.124 S 
ATOM     94  O   UNL A   1      40.558  37.893  40.579  1.00  0.00    -0.237 OA
ATOM     95  O   UNL A   1      38.182  38.095  39.926  1.00  0.00    -0.237 OA
ATOM     96  O   UNL A   1      38.849  36.477  41.662  1.00  0.00    -0.744 OA
ENDBRANCH  92  93
ENDBRANCH  60  85
ENDBRANCH  34  35
ENDBRANCH  26  29
ENDBRANCH  24  25
ENDBRANCH  23  24
ENDBRANCH   1  23
TORSDOF 18
ENDMDL
