MODEL 1
REMARK VINA RESULT:     -13.4      0.000      0.000
REMARK SMILES Cc1cc(=O)n2nc(C)c(C(=O)NCCCNC(=O)c3ccc(-c4c5nc(c(-c6c(F)cc(S(=O)(=O)[O-])cc6F)c6ccc([nH]6)c(-c6c(F)cc(S(=O)(=O)[O-])cc6F)c6nc(c(-c7c(F)cc(S(=O)(=O)[O-])cc7F)c7ccc4[nH]7)C=C6)C=C5)cc3)c2[nH]1
REMARK SMILES IDX 17 1 18 2 19 3 16 5 15 6 14 7 13 8 11 9 12 10 10 12 1 13
REMARK SMILES IDX 2 14 3 15 87 16 4 17 86 18 5 20 6 21 7 22 8 23 9 24 20 25
REMARK SMILES IDX 21 26 85 27 22 28 84 29 23 30 24 31 25 32 78 33 26 34 83 35
REMARK SMILES IDX 77 36 79 37 27 38 82 39 76 40 75 41 28 43 62 44 41 45 61 46
REMARK SMILES IDX 42 47 45 48 60 49 80 50 43 51 44 52 59 54 81 55 46 56 29 57
REMARK SMILES IDX 30 58 39 59 31 60 32 61 38 62 40 63 33 64 34 65 35 66 36 67
REMARK SMILES IDX 37 68 63 69 64 70 73 71 65 72 66 73 72 74 74 75 67 76 68 77
REMARK SMILES IDX 69 78 70 79 71 80 47 81 48 82 57 83 49 84 50 85 56 86 58 87
REMARK SMILES IDX 51 88 52 89 53 90 54 91 55 92
REMARK H PARENT 17 4 13 11 87 19 79 42 45 53
REMARK Flexibility Score: inf
ROOT
ATOM      1  N   UNL A   1      40.358  22.004  26.002  1.00  0.00    -0.352 N 
ATOM      2  C   UNL A   1      41.346  22.969  26.040  1.00  0.00     0.251 C 
ATOM      3  O   UNL A   1      42.330  22.886  25.315  1.00  0.00    -0.269 OA
ATOM      4  H   UNL A   1      40.618  21.140  25.609  1.00  0.00     0.163 HD
ENDROOT
BRANCH   1   5
ATOM      5  C   UNL A   1      38.970  22.102  26.470  1.00  0.00     0.118 C 
BRANCH   5   6
ATOM      6  C   UNL A   1      38.011  22.343  25.324  1.00  0.00     0.042 C 
BRANCH   6   7
ATOM      7  C   UNL A   1      36.950  21.244  25.210  1.00  0.00     0.118 C 
BRANCH   7   8
ATOM      8  N   UNL A   1      35.885  21.417  26.168  1.00  0.00    -0.352 N 
ATOM      9  C   UNL A   1      34.552  21.118  26.149  1.00  0.00     0.256 C 
ATOM     10  O   UNL A   1      33.985  21.257  27.239  1.00  0.00    -0.269 OA
ATOM     11  H   UNL A   1      36.181  21.835  27.009  1.00  0.00     0.163 HD
BRANCH   9  12
ATOM     12  C   UNL A   1      33.800  20.640  24.985  1.00  0.00     0.105 A 
ATOM     13  C   UNL A   1      35.267  15.873  25.179  1.00  0.00     0.064 C 
ATOM     14  C   UNL A   1      34.452  16.973  24.562  1.00  0.00     0.019 A 
ATOM     15  C   UNL A   1      33.628  16.732  23.522  1.00  0.00     0.095 A 
ATOM     16  N   UNL A   1      34.577  18.240  25.102  1.00  0.00    -0.343 N 
ATOM     17  C   UNL A   1      32.849  17.847  22.930  1.00  0.00     0.274 A 
ATOM     18  C   UNL A   1      33.887  19.303  24.614  1.00  0.00     0.150 A 
ATOM     19  H   UNL A   1      35.184  18.375  25.865  1.00  0.00     0.168 HD
ATOM     20  O   UNL A   1      32.082  17.703  21.974  1.00  0.00    -0.267 OA
ATOM     21  N   UNL A   1      33.057  19.088  23.544  1.00  0.00    -0.179 N 
ATOM     22  N   UNL A   1      32.452  20.219  23.146  1.00  0.00    -0.168 NA
ATOM     23  C   UNL A   1      32.856  21.152  24.022  1.00  0.00     0.075 A 
ATOM     24  C   UNL A   1      32.214  22.473  23.828  1.00  0.00     0.070 C 
ENDBRANCH   9  12
ENDBRANCH   7   8
ENDBRANCH   6   7
ENDBRANCH   5   6
ENDBRANCH   1   5
BRANCH   2  25
ATOM     25  C   UNL A   1      41.180  24.093  26.974  1.00  0.00     0.039 A 
ATOM     26  C   UNL A   1      41.908  24.186  28.162  1.00  0.00     0.014 A 
ATOM     27  C   UNL A   1      40.321  25.112  26.580  1.00  0.00     0.014 A 
ATOM     28  C   UNL A   1      41.818  25.365  28.898  1.00  0.00     0.010 A 
ATOM     29  C   UNL A   1      40.423  26.338  27.169  1.00  0.00     0.010 A 
ATOM     30  C   UNL A   1      41.093  26.450  28.376  1.00  0.00    -0.014 A 
BRANCH  30  31
ATOM     31  C   UNL A   1      41.105  27.759  29.015  1.00  0.00     0.031 A 
ATOM     32  C   UNL A   1      42.147  28.668  28.470  1.00  0.00     0.074 A 
ATOM     33  C   UNL A   1      40.133  28.176  29.860  1.00  0.00     0.049 A 
ATOM     34  N   UNL A   1      43.280  28.971  29.009  1.00  0.00    -0.248 NA
ATOM     35  C   UNL A   1      42.018  29.125  27.076  1.00  0.00     0.031 C 
ATOM     36  C   UNL A   1      38.876  27.500  30.222  1.00  0.00     0.029 A 
ATOM     37  N   UNL A   1      40.026  29.356  30.527  1.00  0.00    -0.354 N 
ATOM     38  C   UNL A   1      43.875  29.884  28.144  1.00  0.00     0.074 A 
ATOM     39  C   UNL A   1      43.183  29.750  26.891  1.00  0.00     0.031 C 
ATOM     40  C   UNL A   1      38.047  28.367  30.845  1.00  0.00     0.029 A 
ATOM     41  C   UNL A   1      38.779  29.589  31.109  1.00  0.00     0.049 A 
ATOM     42  H   UNL A   1      40.770  29.998  30.593  1.00  0.00     0.167 HD
ATOM     43  C   UNL A   1      44.673  30.878  28.627  1.00  0.00     0.037 A 
ATOM     44  C   UNL A   1      38.400  30.704  31.780  1.00  0.00     0.037 A 
ATOM     45  C   UNL A   1      45.006  30.624  30.009  1.00  0.00     0.049 A 
ATOM     46  C   UNL A   1      39.655  31.356  32.225  1.00  0.00     0.074 A 
ATOM     47  C   UNL A   1      45.758  29.697  30.698  1.00  0.00     0.029 A 
ATOM     48  N   UNL A   1      44.137  31.188  30.908  1.00  0.00    -0.354 N 
ATOM     49  N   UNL A   1      40.480  30.828  33.087  1.00  0.00    -0.248 NA
ATOM     50  C   UNL A   1      40.199  32.437  31.416  1.00  0.00     0.031 C 
ATOM     51  C   UNL A   1      45.094  29.515  31.948  1.00  0.00     0.029 A 
ATOM     52  C   UNL A   1      44.000  30.381  32.006  1.00  0.00     0.049 A 
ATOM     53  H   UNL A   1      43.678  32.050  30.783  1.00  0.00     0.167 HD
ATOM     54  C   UNL A   1      41.735  31.210  32.648  1.00  0.00     0.074 A 
ATOM     55  C   UNL A   1      41.493  32.314  31.724  1.00  0.00     0.031 C 
ATOM     56  C   UNL A   1      42.817  30.400  32.846  1.00  0.00     0.037 A 
BRANCH  43  57
ATOM     57  C   UNL A   1      44.759  32.279  28.050  1.00  0.00     0.058 A 
ATOM     58  C   UNL A   1      45.981  32.718  27.495  1.00  0.00     0.135 A 
ATOM     59  C   UNL A   1      43.802  33.294  28.272  1.00  0.00     0.135 A 
ATOM     60  F   UNL A   1      46.976  31.848  27.257  1.00  0.00    -0.206 F 
ATOM     61  C   UNL A   1      46.249  34.064  27.235  1.00  0.00     0.059 A 
ATOM     62  C   UNL A   1      44.027  34.633  27.971  1.00  0.00     0.059 A 
ATOM     63  F   UNL A   1      42.635  33.061  28.883  1.00  0.00    -0.206 F 
ATOM     64  C   UNL A   1      45.265  35.016  27.483  1.00  0.00     0.060 A 
BRANCH  64  65
ATOM     65  S   UNL A   1      45.624  36.759  27.203  1.00  0.00     0.124 S 
ATOM     66  O   UNL A   1      46.209  37.147  28.481  1.00  0.00    -0.237 OA
ATOM     67  O   UNL A   1      46.543  36.697  26.070  1.00  0.00    -0.237 OA
ATOM     68  O   UNL A   1      44.314  37.329  26.907  1.00  0.00    -0.744 OA
ENDBRANCH  64  65
ENDBRANCH  43  57
BRANCH  44  69
ATOM     69  C   UNL A   1      37.106  31.439  31.768  1.00  0.00     0.058 A 
ATOM     70  C   UNL A   1      36.510  31.840  32.981  1.00  0.00     0.135 A 
ATOM     71  C   UNL A   1      36.628  32.069  30.604  1.00  0.00     0.135 A 
ATOM     72  F   UNL A   1      36.897  31.281  34.138  1.00  0.00    -0.206 F 
ATOM     73  C   UNL A   1      35.586  32.885  33.052  1.00  0.00     0.059 A 
ATOM     74  C   UNL A   1      35.698  33.111  30.649  1.00  0.00     0.059 A 
ATOM     75  F   UNL A   1      37.131  31.762  29.399  1.00  0.00    -0.206 F 
ATOM     76  C   UNL A   1      35.216  33.543  31.881  1.00  0.00     0.060 A 
BRANCH  76  77
ATOM     77  S   UNL A   1      34.214  35.048  31.998  1.00  0.00     0.124 S 
ATOM     78  O   UNL A   1      35.071  35.921  32.794  1.00  0.00    -0.237 OA
ATOM     79  O   UNL A   1      34.057  35.418  30.595  1.00  0.00    -0.237 OA
ATOM     80  O   UNL A   1      32.996  34.593  32.661  1.00  0.00    -0.744 OA
ENDBRANCH  76  77
ENDBRANCH  44  69
BRANCH  56  81
ATOM     81  C   UNL A   1      42.721  29.354  33.926  1.00  0.00     0.058 A 
ATOM     82  C   UNL A   1      42.898  29.581  35.302  1.00  0.00     0.135 A 
ATOM     83  C   UNL A   1      42.314  28.070  33.536  1.00  0.00     0.135 A 
ATOM     84  F   UNL A   1      43.214  30.797  35.766  1.00  0.00    -0.206 F 
ATOM     85  C   UNL A   1      42.699  28.568  36.244  1.00  0.00     0.059 A 
ATOM     86  C   UNL A   1      42.081  27.054  34.457  1.00  0.00     0.059 A 
ATOM     87  F   UNL A   1      42.087  27.802  32.239  1.00  0.00    -0.206 F 
ATOM     88  C   UNL A   1      42.285  27.307  35.812  1.00  0.00     0.060 A 
BRANCH  88  89
ATOM     89  S   UNL A   1      41.955  26.015  37.030  1.00  0.00     0.124 S 
ATOM     90  O   UNL A   1      40.577  26.299  37.416  1.00  0.00    -0.237 OA
ATOM     91  O   UNL A   1      42.158  24.794  36.256  1.00  0.00    -0.237 OA
ATOM     92  O   UNL A   1      42.955  26.257  38.067  1.00  0.00    -0.744 OA
ENDBRANCH  88  89
ENDBRANCH  56  81
ENDBRANCH  30  31
ENDBRANCH   2  25
TORSDOF 13
ENDMDL
MODEL 2
REMARK VINA RESULT:     -13.2      3.707      6.550
REMARK SMILES Cc1cc(=O)n2nc(C)c(C(=O)NCCCNC(=O)c3ccc(-c4c5nc(c(-c6c(F)cc(S(=O)(=O)[O-])cc6F)c6ccc([nH]6)c(-c6c(F)cc(S(=O)(=O)[O-])cc6F)c6nc(c(-c7c(F)cc(S(=O)(=O)[O-])cc7F)c7ccc4[nH]7)C=C6)C=C5)cc3)c2[nH]1
REMARK SMILES IDX 17 1 18 2 19 3 16 5 15 6 14 7 13 8 11 9 12 10 10 12 1 13
REMARK SMILES IDX 2 14 3 15 87 16 4 17 86 18 5 20 6 21 7 22 8 23 9 24 20 25
REMARK SMILES IDX 21 26 85 27 22 28 84 29 23 30 24 31 25 32 78 33 26 34 83 35
REMARK SMILES IDX 77 36 79 37 27 38 82 39 76 40 75 41 28 43 62 44 41 45 61 46
REMARK SMILES IDX 42 47 45 48 60 49 80 50 43 51 44 52 59 54 81 55 46 56 29 57
REMARK SMILES IDX 30 58 39 59 31 60 32 61 38 62 40 63 33 64 34 65 35 66 36 67
REMARK SMILES IDX 37 68 63 69 64 70 73 71 65 72 66 73 72 74 74 75 67 76 68 77
REMARK SMILES IDX 69 78 70 79 71 80 47 81 48 82 57 83 49 84 50 85 56 86 58 87
REMARK SMILES IDX 51 88 52 89 53 90 54 91 55 92
REMARK H PARENT 17 4 13 11 87 19 79 42 45 53
REMARK Flexibility Score: inf
ROOT
ATOM      1  N   UNL A   1      41.669  21.998  26.076  1.00  0.00    -0.352 N 
ATOM      2  C   UNL A   1      41.000  22.487  27.182  1.00  0.00     0.251 C 
ATOM      3  O   UNL A   1      40.351  21.737  27.902  1.00  0.00    -0.269 OA
ATOM      4  H   UNL A   1      41.363  21.125  25.741  1.00  0.00     0.163 HD
ENDROOT
BRANCH   1   5
ATOM      5  C   UNL A   1      42.778  22.614  25.336  1.00  0.00     0.118 C 
BRANCH   5   6
ATOM      6  C   UNL A   1      44.083  21.888  25.584  1.00  0.00     0.042 C 
BRANCH   6   7
ATOM      7  C   UNL A   1      45.281  22.843  25.633  1.00  0.00     0.118 C 
BRANCH   7   8
ATOM      8  N   UNL A   1      45.527  23.335  26.967  1.00  0.00    -0.352 N 
ATOM      9  C   UNL A   1      45.513  24.585  27.521  1.00  0.00     0.256 C 
ATOM     10  O   UNL A   1      45.606  24.595  28.754  1.00  0.00    -0.269 OA
ATOM     11  H   UNL A   1      45.751  22.624  27.611  1.00  0.00     0.163 HD
BRANCH   9  12
ATOM     12  C   UNL A   1      45.371  25.844  26.784  1.00  0.00     0.105 A 
ATOM     13  C   UNL A   1      49.563  28.017  28.405  1.00  0.00     0.064 C 
ATOM     14  C   UNL A   1      48.325  28.020  27.555  1.00  0.00     0.019 A 
ATOM     15  C   UNL A   1      48.041  29.055  26.738  1.00  0.00     0.095 A 
ATOM     16  N   UNL A   1      47.490  26.920  27.639  1.00  0.00    -0.343 N 
ATOM     17  C   UNL A   1      46.803  29.029  25.923  1.00  0.00     0.274 A 
ATOM     18  C   UNL A   1      46.345  26.828  26.915  1.00  0.00     0.150 A 
ATOM     19  H   UNL A   1      47.734  26.182  28.242  1.00  0.00     0.168 HD
ATOM     20  O   UNL A   1      46.475  29.942  25.161  1.00  0.00    -0.267 OA
ATOM     21  N   UNL A   1      46.024  27.877  26.092  1.00  0.00    -0.179 N 
ATOM     22  N   UNL A   1      44.863  27.671  25.450  1.00  0.00    -0.168 NA
ATOM     23  C   UNL A   1      44.476  26.442  25.824  1.00  0.00     0.075 A 
ATOM     24  C   UNL A   1      43.251  25.964  25.140  1.00  0.00     0.070 C 
ENDBRANCH   9  12
ENDBRANCH   7   8
ENDBRANCH   6   7
ENDBRANCH   5   6
ENDBRANCH   1   5
BRANCH   2  25
ATOM     25  C   UNL A   1      41.093  23.927  27.466  1.00  0.00     0.039 A 
ATOM     26  C   UNL A   1      40.148  24.839  26.994  1.00  0.00     0.014 A 
ATOM     27  C   UNL A   1      42.123  24.333  28.305  1.00  0.00     0.014 A 
ATOM     28  C   UNL A   1      40.213  26.152  27.454  1.00  0.00     0.010 A 
ATOM     29  C   UNL A   1      42.038  25.542  28.932  1.00  0.00     0.010 A 
ATOM     30  C   UNL A   1      41.147  26.487  28.449  1.00  0.00    -0.014 A 
BRANCH  30  31
ATOM     31  C   UNL A   1      41.149  27.795  29.090  1.00  0.00     0.031 A 
ATOM     32  C   UNL A   1      42.192  28.709  28.555  1.00  0.00     0.074 A 
ATOM     33  C   UNL A   1      40.170  28.206  29.929  1.00  0.00     0.049 A 
ATOM     34  N   UNL A   1      43.320  29.016  29.104  1.00  0.00    -0.248 NA
ATOM     35  C   UNL A   1      42.071  29.169  27.161  1.00  0.00     0.031 C 
ATOM     36  C   UNL A   1      38.913  27.525  30.280  1.00  0.00     0.029 A 
ATOM     37  N   UNL A   1      40.053  29.385  30.597  1.00  0.00    -0.354 N 
ATOM     38  C   UNL A   1      43.918  29.933  28.244  1.00  0.00     0.074 A 
ATOM     39  C   UNL A   1      43.236  29.799  26.987  1.00  0.00     0.031 C 
ATOM     40  C   UNL A   1      38.075  28.387  30.899  1.00  0.00     0.029 A 
ATOM     41  C   UNL A   1      38.801  29.611  31.171  1.00  0.00     0.049 A 
ATOM     42  H   UNL A   1      40.794  30.029  30.671  1.00  0.00     0.167 HD
ATOM     43  C   UNL A   1      44.708  30.929  28.736  1.00  0.00     0.037 A 
ATOM     44  C   UNL A   1      38.413  30.724  31.841  1.00  0.00     0.037 A 
ATOM     45  C   UNL A   1      45.032  30.673  30.120  1.00  0.00     0.049 A 
ATOM     46  C   UNL A   1      39.661  31.380  32.297  1.00  0.00     0.074 A 
ATOM     47  C   UNL A   1      45.782  29.748  30.812  1.00  0.00     0.029 A 
ATOM     48  N   UNL A   1      44.154  31.232  31.014  1.00  0.00    -0.354 N 
ATOM     49  N   UNL A   1      40.482  30.854  33.164  1.00  0.00    -0.248 NA
ATOM     50  C   UNL A   1      40.208  32.464  31.495  1.00  0.00     0.031 C 
ATOM     51  C   UNL A   1      45.109  29.561  32.058  1.00  0.00     0.029 A 
ATOM     52  C   UNL A   1      44.012  30.423  32.109  1.00  0.00     0.049 A 
ATOM     53  H   UNL A   1      43.692  32.093  30.887  1.00  0.00     0.167 HD
ATOM     54  C   UNL A   1      41.739  31.241  32.735  1.00  0.00     0.074 A 
ATOM     55  C   UNL A   1      41.499  32.346  31.812  1.00  0.00     0.031 C 
ATOM     56  C   UNL A   1      42.822  30.435  32.940  1.00  0.00     0.037 A 
BRANCH  43  57
ATOM     57  C   UNL A   1      44.792  32.331  28.162  1.00  0.00     0.058 A 
ATOM     58  C   UNL A   1      46.040  32.811  27.705  1.00  0.00     0.135 A 
ATOM     59  C   UNL A   1      43.788  33.314  28.304  1.00  0.00     0.135 A 
ATOM     60  F   UNL A   1      47.079  31.974  27.550  1.00  0.00    -0.206 F 
ATOM     61  C   UNL A   1      46.283  34.165  27.462  1.00  0.00     0.059 A 
ATOM     62  C   UNL A   1      43.991  34.660  28.017  1.00  0.00     0.059 A 
ATOM     63  F   UNL A   1      42.584  33.043  28.821  1.00  0.00    -0.206 F 
ATOM     64  C   UNL A   1      45.250  35.084  27.627  1.00  0.00     0.060 A 
BRANCH  64  65
ATOM     65  S   UNL A   1      45.572  36.837  27.371  1.00  0.00     0.124 S 
ATOM     66  O   UNL A   1      46.384  36.813  26.159  1.00  0.00    -0.237 OA
ATOM     67  O   UNL A   1      44.221  37.371  27.227  1.00  0.00    -0.237 OA
ATOM     68  O   UNL A   1      46.268  37.233  28.591  1.00  0.00    -0.744 OA
ENDBRANCH  64  65
ENDBRANCH  43  57
BRANCH  44  69
ATOM     69  C   UNL A   1      37.115  31.454  31.821  1.00  0.00     0.058 A 
ATOM     70  C   UNL A   1      36.516  31.863  33.030  1.00  0.00     0.135 A 
ATOM     71  C   UNL A   1      36.637  32.073  30.651  1.00  0.00     0.135 A 
ATOM     72  F   UNL A   1      36.903  31.314  34.192  1.00  0.00    -0.206 F 
ATOM     73  C   UNL A   1      35.587  32.905  33.090  1.00  0.00     0.059 A 
ATOM     74  C   UNL A   1      35.703  33.111  30.686  1.00  0.00     0.059 A 
ATOM     75  F   UNL A   1      37.143  31.758  29.449  1.00  0.00    -0.206 F 
ATOM     76  C   UNL A   1      35.217  33.552  31.913  1.00  0.00     0.060 A 
BRANCH  76  77
ATOM     77  S   UNL A   1      34.210  35.054  32.016  1.00  0.00     0.124 S 
ATOM     78  O   UNL A   1      35.089  35.959  32.749  1.00  0.00    -0.237 OA
ATOM     79  O   UNL A   1      33.997  35.373  30.609  1.00  0.00    -0.237 OA
ATOM     80  O   UNL A   1      33.021  34.614  32.740  1.00  0.00    -0.744 OA
ENDBRANCH  76  77
ENDBRANCH  44  69
BRANCH  56  81
ATOM     81  C   UNL A   1      42.722  29.387  34.017  1.00  0.00     0.058 A 
ATOM     82  C   UNL A   1      42.900  29.609  35.393  1.00  0.00     0.135 A 
ATOM     83  C   UNL A   1      42.310  28.105  33.624  1.00  0.00     0.135 A 
ATOM     84  F   UNL A   1      43.221  30.823  35.860  1.00  0.00    -0.206 F 
ATOM     85  C   UNL A   1      42.697  28.594  36.333  1.00  0.00     0.059 A 
ATOM     86  C   UNL A   1      42.074  27.088  34.542  1.00  0.00     0.059 A 
ATOM     87  F   UNL A   1      42.083  27.841  32.326  1.00  0.00    -0.206 F 
ATOM     88  C   UNL A   1      42.278  27.336  35.897  1.00  0.00     0.060 A 
BRANCH  88  89
ATOM     89  S   UNL A   1      41.943  26.041  37.112  1.00  0.00     0.124 S 
ATOM     90  O   UNL A   1      42.938  26.320  38.142  1.00  0.00    -0.237 OA
ATOM     91  O   UNL A   1      40.556  26.308  37.481  1.00  0.00    -0.237 OA
ATOM     92  O   UNL A   1      42.152  24.805  36.362  1.00  0.00    -0.744 OA
ENDBRANCH  88  89
ENDBRANCH  56  81
ENDBRANCH  30  31
ENDBRANCH   2  25
TORSDOF 13
ENDMDL
MODEL 3
REMARK VINA RESULT:     -13.1      4.571     10.541
REMARK SMILES Cc1cc(=O)n2nc(C)c(C(=O)NCCCNC(=O)c3ccc(-c4c5nc(c(-c6c(F)cc(S(=O)(=O)[O-])cc6F)c6ccc([nH]6)c(-c6c(F)cc(S(=O)(=O)[O-])cc6F)c6nc(c(-c7c(F)cc(S(=O)(=O)[O-])cc7F)c7ccc4[nH]7)C=C6)C=C5)cc3)c2[nH]1
REMARK SMILES IDX 17 1 18 2 19 3 16 5 15 6 14 7 13 8 11 9 12 10 10 12 1 13
REMARK SMILES IDX 2 14 3 15 87 16 4 17 86 18 5 20 6 21 7 22 8 23 9 24 20 25
REMARK SMILES IDX 21 26 85 27 22 28 84 29 23 30 24 31 25 32 78 33 26 34 83 35
REMARK SMILES IDX 77 36 79 37 27 38 82 39 76 40 75 41 28 43 62 44 41 45 61 46
REMARK SMILES IDX 42 47 45 48 60 49 80 50 43 51 44 52 59 54 81 55 46 56 29 57
REMARK SMILES IDX 30 58 39 59 31 60 32 61 38 62 40 63 33 64 34 65 35 66 36 67
REMARK SMILES IDX 37 68 63 69 64 70 73 71 65 72 66 73 72 74 74 75 67 76 68 77
REMARK SMILES IDX 69 78 70 79 71 80 47 81 48 82 57 83 49 84 50 85 56 86 58 87
REMARK SMILES IDX 51 88 52 89 53 90 54 91 55 92
REMARK H PARENT 17 4 13 11 87 19 79 42 45 53
REMARK Flexibility Score: inf
ROOT
ATOM      1  N   UNL A   1      34.541  31.649  28.033  1.00  0.00    -0.352 N 
ATOM      2  C   UNL A   1      35.116  31.939  29.255  1.00  0.00     0.251 C 
ATOM      3  O   UNL A   1      34.627  32.790  29.990  1.00  0.00    -0.269 OA
ATOM      4  H   UNL A   1      33.936  32.335  27.669  1.00  0.00     0.163 HD
ENDROOT
BRANCH   1   5
ATOM      5  C   UNL A   1      34.716  30.448  27.206  1.00  0.00     0.118 C 
BRANCH   5   6
ATOM      6  C   UNL A   1      33.442  29.634  27.130  1.00  0.00     0.042 C 
BRANCH   6   7
ATOM      7  C   UNL A   1      32.529  30.085  25.985  1.00  0.00     0.118 C 
BRANCH   7   8
ATOM      8  N   UNL A   1      33.013  29.641  24.700  1.00  0.00    -0.352 N 
ATOM      9  C   UNL A   1      32.406  29.058  23.623  1.00  0.00     0.256 C 
ATOM     10  O   UNL A   1      33.122  28.980  22.618  1.00  0.00    -0.269 OA
ATOM     11  H   UNL A   1      33.977  29.790  24.573  1.00  0.00     0.163 HD
BRANCH   9  12
ATOM     12  C   UNL A   1      31.023  28.573  23.579  1.00  0.00     0.105 A 
ATOM     13  C   UNL A   1      28.798  33.011  23.055  1.00  0.00     0.064 C 
ATOM     14  C   UNL A   1      28.737  31.514  23.150  1.00  0.00     0.019 A 
ATOM     15  C   UNL A   1      27.565  30.854  23.056  1.00  0.00     0.095 A 
ATOM     16  N   UNL A   1      29.930  30.836  23.333  1.00  0.00    -0.343 N 
ATOM     17  C   UNL A   1      27.542  29.376  23.167  1.00  0.00     0.274 A 
ATOM     18  C   UNL A   1      29.982  29.484  23.435  1.00  0.00     0.150 A 
ATOM     19  H   UNL A   1      30.766  31.352  23.391  1.00  0.00     0.168 HD
ATOM     20  O   UNL A   1      26.507  28.708  23.099  1.00  0.00    -0.267 OA
ATOM     21  N   UNL A   1      28.800  28.791  23.363  1.00  0.00    -0.179 N 
ATOM     22  N   UNL A   1      28.986  27.468  23.497  1.00  0.00    -0.168 NA
ATOM     23  C   UNL A   1      30.316  27.317  23.590  1.00  0.00     0.075 A 
ATOM     24  C   UNL A   1      30.755  25.901  23.640  1.00  0.00     0.070 C 
ENDBRANCH   9  12
ENDBRANCH   7   8
ENDBRANCH   6   7
ENDBRANCH   5   6
ENDBRANCH   1   5
BRANCH   2  25
ATOM     25  C   UNL A   1      36.325  31.199  29.645  1.00  0.00     0.039 A 
ATOM     26  C   UNL A   1      36.287  29.851  30.006  1.00  0.00     0.014 A 
ATOM     27  C   UNL A   1      37.532  31.881  29.555  1.00  0.00     0.014 A 
ATOM     28  C   UNL A   1      37.496  29.184  30.189  1.00  0.00     0.010 A 
ATOM     29  C   UNL A   1      38.698  31.175  29.498  1.00  0.00     0.010 A 
ATOM     30  C   UNL A   1      38.700  29.850  29.903  1.00  0.00    -0.014 A 
BRANCH  30  31
ATOM     31  C   UNL A   1      39.981  29.156  29.911  1.00  0.00     0.031 A 
ATOM     32  C   UNL A   1      40.493  28.886  31.280  1.00  0.00     0.074 A 
ATOM     33  C   UNL A   1      40.538  28.625  28.798  1.00  0.00     0.049 A 
ATOM     34  N   UNL A   1      41.424  29.523  31.908  1.00  0.00    -0.248 NA
ATOM     35  C   UNL A   1      39.748  27.943  32.132  1.00  0.00     0.031 C 
ATOM     36  C   UNL A   1      39.975  28.533  27.441  1.00  0.00     0.029 A 
ATOM     37  N   UNL A   1      41.721  27.967  28.662  1.00  0.00    -0.354 N 
ATOM     38  C   UNL A   1      41.569  28.869  33.127  1.00  0.00     0.074 A 
ATOM     39  C   UNL A   1      40.377  28.087  33.301  1.00  0.00     0.031 C 
ATOM     40  C   UNL A   1      40.702  27.672  26.694  1.00  0.00     0.029 A 
ATOM     41  C   UNL A   1      41.888  27.310  27.443  1.00  0.00     0.049 A 
ATOM     42  H   UNL A   1      42.405  27.955  29.370  1.00  0.00     0.167 HD
ATOM     43  C   UNL A   1      42.789  28.794  33.731  1.00  0.00     0.037 A 
ATOM     44  C   UNL A   1      42.948  26.545  27.080  1.00  0.00     0.037 A 
ATOM     45  C   UNL A   1      43.717  29.702  33.099  1.00  0.00     0.049 A 
ATOM     46  C   UNL A   1      44.069  26.963  27.955  1.00  0.00     0.074 A 
ATOM     47  C   UNL A   1      43.860  31.069  32.999  1.00  0.00     0.029 A 
ATOM     48  N   UNL A   1      44.438  29.143  32.074  1.00  0.00    -0.354 N 
ATOM     49  N   UNL A   1      44.609  28.150  27.922  1.00  0.00    -0.248 NA
ATOM     50  C   UNL A   1      44.344  26.181  29.151  1.00  0.00     0.031 C 
ATOM     51  C   UNL A   1      44.427  31.302  31.709  1.00  0.00     0.029 A 
ATOM     52  C   UNL A   1      44.668  30.072  31.094  1.00  0.00     0.049 A 
ATOM     53  H   UNL A   1      44.746  28.209  32.046  1.00  0.00     0.167 HD
ATOM     54  C   UNL A   1      44.933  28.424  29.240  1.00  0.00     0.074 A 
ATOM     55  C   UNL A   1      44.893  27.130  29.914  1.00  0.00     0.031 C 
ATOM     56  C   UNL A   1      44.905  29.705  29.710  1.00  0.00     0.037 A 
BRANCH  43  57
ATOM     57  C   UNL A   1      43.286  27.607  34.536  1.00  0.00     0.058 A 
ATOM     58  C   UNL A   1      43.639  27.796  35.890  1.00  0.00     0.135 A 
ATOM     59  C   UNL A   1      43.701  26.379  33.974  1.00  0.00     0.135 A 
ATOM     60  F   UNL A   1      43.317  28.933  36.528  1.00  0.00    -0.206 F 
ATOM     61  C   UNL A   1      44.390  26.864  36.610  1.00  0.00     0.059 A 
ATOM     62  C   UNL A   1      44.404  25.413  34.687  1.00  0.00     0.059 A 
ATOM     63  F   UNL A   1      43.535  26.088  32.678  1.00  0.00    -0.206 F 
ATOM     64  C   UNL A   1      44.773  25.675  35.995  1.00  0.00     0.060 A 
BRANCH  64  65
ATOM     65  S   UNL A   1      45.790  24.495  36.899  1.00  0.00     0.124 S 
ATOM     66  O   UNL A   1      47.128  25.033  36.680  1.00  0.00    -0.237 OA
ATOM     67  O   UNL A   1      45.262  24.622  38.254  1.00  0.00    -0.237 OA
ATOM     68  O   UNL A   1      45.502  23.227  36.237  1.00  0.00    -0.744 OA
ENDBRANCH  64  65
ENDBRANCH  43  57
BRANCH  44  69
ATOM     69  C   UNL A   1      42.994  25.268  26.317  1.00  0.00     0.058 A 
ATOM     70  C   UNL A   1      43.891  25.120  25.239  1.00  0.00     0.135 A 
ATOM     71  C   UNL A   1      42.450  24.079  26.838  1.00  0.00     0.135 A 
ATOM     72  F   UNL A   1      44.446  26.203  24.674  1.00  0.00    -0.206 F 
ATOM     73  C   UNL A   1      44.316  23.870  24.785  1.00  0.00     0.059 A 
ATOM     74  C   UNL A   1      42.854  22.817  26.395  1.00  0.00     0.059 A 
ATOM     75  F   UNL A   1      41.589  24.108  27.867  1.00  0.00    -0.206 F 
ATOM     76  C   UNL A   1      43.821  22.721  25.399  1.00  0.00     0.060 A 
BRANCH  76  77
ATOM     77  S   UNL A   1      44.552  21.117  24.981  1.00  0.00     0.124 S 
ATOM     78  O   UNL A   1      45.808  21.155  25.724  1.00  0.00    -0.237 OA
ATOM     79  O   UNL A   1      43.546  20.186  25.479  1.00  0.00    -0.237 OA
ATOM     80  O   UNL A   1      44.683  21.173  23.528  1.00  0.00    -0.744 OA
ENDBRANCH  76  77
ENDBRANCH  44  69
BRANCH  56  81
ATOM     81  C   UNL A   1      44.985  30.823  28.704  1.00  0.00     0.058 A 
ATOM     82  C   UNL A   1      46.152  31.249  28.046  1.00  0.00     0.135 A 
ATOM     83  C   UNL A   1      43.776  31.417  28.311  1.00  0.00     0.135 A 
ATOM     84  F   UNL A   1      47.337  30.683  28.309  1.00  0.00    -0.206 F 
ATOM     85  C   UNL A   1      46.118  32.236  27.057  1.00  0.00     0.059 A 
ATOM     86  C   UNL A   1      43.714  32.379  27.309  1.00  0.00     0.059 A 
ATOM     87  F   UNL A   1      42.621  31.023  28.873  1.00  0.00    -0.206 F 
ATOM     88  C   UNL A   1      44.891  32.792  26.691  1.00  0.00     0.060 A 
BRANCH  88  89
ATOM     89  S   UNL A   1      44.831  34.014  25.362  1.00  0.00     0.124 S 
ATOM     90  O   UNL A   1      46.223  34.444  25.275  1.00  0.00    -0.237 OA
ATOM     91  O   UNL A   1      44.338  33.229  24.234  1.00  0.00    -0.237 OA
ATOM     92  O   UNL A   1      43.899  35.020  25.863  1.00  0.00    -0.744 OA
ENDBRANCH  88  89
ENDBRANCH  56  81
ENDBRANCH  30  31
ENDBRANCH   2  25
TORSDOF 13
ENDMDL
