MODEL 1
REMARK VINA RESULT:     -14.0      0.000      0.000
REMARK SMILES O=C(Cn1c(-c2nc(-c3ccc(C(F)(F)F)cc3)no2)cc2ccccc21)NCCCNC(=O)c1ccc(-c2c3nc(c(-c4c(F)cc(S(=O)(=O)[O-])cc4F)c4ccc([nH]4)c(-c4c(F)cc(S(=O)(=O)[O-])cc4F)c4nc(c(-c5c(F)cc(S(=O)(=O)[O-])cc5F)c5ccc2[nH]5)C=C4)C=C3)cc1
REMARK SMILES IDX 29 1 28 2 1 3 2 4 3 6 4 7 5 8 27 9 21 10 22 11 26 12 23 13
REMARK SMILES IDX 25 14 24 15 6 16 7 17 20 18 8 19 19 20 9 21 10 22 18 23
REMARK SMILES IDX 11 24 17 25 12 26 13 27 14 28 15 29 16 30 30 31 31 32 32 33
REMARK SMILES IDX 33 34 34 36 35 37 36 38 100 39 37 40 99 41 38 42 39 43 40 44
REMARK SMILES IDX 93 45 41 46 98 47 92 48 94 49 42 50 97 51 91 52 90 53 43 55
REMARK SMILES IDX 77 56 56 57 76 58 57 59 60 60 75 61 95 62 58 63 59 64 74 66
REMARK SMILES IDX 96 67 61 68 44 69 45 70 54 71 46 72 47 73 53 74 55 75 48 76
REMARK SMILES IDX 49 77 50 78 51 79 52 80 78 81 79 82 88 83 80 84 81 85 87 86
REMARK SMILES IDX 89 87 82 88 83 89 84 90 85 91 86 92 62 93 63 94 72 95 64 96
REMARK SMILES IDX 65 97 71 98 73 99 66 100 67 101 68 102 69 103 70 104
REMARK H PARENT 28 5 32 35 94 54 60 65
REMARK Flexibility Score: inf
ROOT
ATOM      1  C   UNL A   1      37.822  21.530  24.903  1.00  0.00     0.117 C 
ENDROOT
BRANCH   1   2
ATOM      2  N   UNL A   1      36.405  21.322  25.157  1.00  0.00    -0.354 N 
ATOM      3  O   UNL A   1      35.662  23.322  24.303  1.00  0.00    -0.273 OA
ATOM      4  C   UNL A   1      35.429  22.237  24.827  1.00  0.00     0.239 C 
ATOM      5  H   UNL A   1      36.128  20.481  25.589  1.00  0.00     0.163 HD
BRANCH   4   6
ATOM      6  C   UNL A   1      34.025  21.852  25.252  1.00  0.00     0.222 C 
BRANCH   6   7
ATOM      7  N   UNL A   1      33.305  21.112  24.222  1.00  0.00    -0.327 N 
ATOM      8  C   UNL A   1      32.469  21.650  23.259  1.00  0.00     0.109 A 
ATOM      9  C   UNL A   1      33.399  19.737  24.057  1.00  0.00     0.049 A 
ATOM     10  C   UNL A   1      31.939  20.591  22.546  1.00  0.00     0.042 A 
ATOM     11  C   UNL A   1      32.555  19.392  23.000  1.00  0.00     0.000 A 
ATOM     12  C   UNL A   1      34.156  18.770  24.745  1.00  0.00     0.027 A 
ATOM     13  C   UNL A   1      32.483  18.043  22.596  1.00  0.00     0.010 A 
ATOM     14  C   UNL A   1      34.072  17.440  24.321  1.00  0.00     0.002 A 
ATOM     15  C   UNL A   1      33.253  17.079  23.258  1.00  0.00     0.001 A 
BRANCH   8  16
ATOM     16  C   UNL A   1      32.292  23.052  23.016  1.00  0.00     0.274 A 
ATOM     17  N   UNL A   1      31.318  23.807  23.492  1.00  0.00    -0.185 NA
ATOM     18  O   UNL A   1      33.153  23.757  22.220  1.00  0.00    -0.332 OA
ATOM     19  C   UNL A   1      31.553  25.030  22.882  1.00  0.00     0.202 A 
ATOM     20  N   UNL A   1      32.663  25.048  22.128  1.00  0.00    -0.057 NA
BRANCH  19  21
ATOM     21  C   UNL A   1      30.761  26.242  23.075  1.00  0.00     0.023 A 
ATOM     22  C   UNL A   1      29.496  26.180  23.668  1.00  0.00     0.013 A 
ATOM     23  C   UNL A   1      31.171  27.461  22.536  1.00  0.00     0.013 A 
ATOM     24  C   UNL A   1      28.638  27.288  23.641  1.00  0.00     0.014 A 
ATOM     25  C   UNL A   1      30.314  28.567  22.481  1.00  0.00     0.014 A 
ATOM     26  C   UNL A   1      29.020  28.479  23.003  1.00  0.00     0.056 A 
BRANCH  26  27
ATOM     27  C   UNL A   1      28.034  29.611  22.849  1.00  0.00     0.416 C 
ATOM     28  F   UNL A   1      27.791  29.899  21.538  1.00  0.00    -0.166 F 
ATOM     29  F   UNL A   1      26.820  29.330  23.396  1.00  0.00    -0.166 F 
ATOM     30  F   UNL A   1      28.442  30.781  23.412  1.00  0.00    -0.166 F 
ENDBRANCH  26  27
ENDBRANCH  19  21
ENDBRANCH   8  16
ENDBRANCH   6   7
ENDBRANCH   4   6
ENDBRANCH   1   2
BRANCH   1  31
ATOM     31  C   UNL A   1      38.538  22.162  26.099  1.00  0.00     0.042 C 
BRANCH  31  32
ATOM     32  C   UNL A   1      39.885  21.523  26.420  1.00  0.00     0.118 C 
BRANCH  32  33
ATOM     33  N   UNL A   1      41.004  22.180  25.766  1.00  0.00    -0.352 N 
ATOM     34  C   UNL A   1      41.743  23.297  26.039  1.00  0.00     0.251 C 
ATOM     35  H   UNL A   1      41.294  21.718  24.946  1.00  0.00     0.163 HD
ATOM     36  O   UNL A   1      42.875  23.320  25.548  1.00  0.00    -0.269 OA
BRANCH  34  37
ATOM     37  C   UNL A   1      41.271  24.474  26.808  1.00  0.00     0.039 A 
ATOM     38  C   UNL A   1      40.418  25.460  26.319  1.00  0.00     0.014 A 
ATOM     39  C   UNL A   1      41.877  24.658  28.069  1.00  0.00     0.014 A 
ATOM     40  C   UNL A   1      40.283  26.656  27.014  1.00  0.00     0.010 A 
ATOM     41  C   UNL A   1      41.752  25.856  28.759  1.00  0.00     0.010 A 
ATOM     42  C   UNL A   1      41.008  26.879  28.193  1.00  0.00    -0.014 A 
BRANCH  42  43
ATOM     43  C   UNL A   1      40.919  28.199  28.804  1.00  0.00     0.031 A 
ATOM     44  C   UNL A   1      42.053  29.101  28.480  1.00  0.00     0.074 A 
ATOM     45  C   UNL A   1      39.918  28.603  29.613  1.00  0.00     0.049 A 
ATOM     46  N   UNL A   1      43.044  29.413  29.247  1.00  0.00    -0.248 NA
ATOM     47  C   UNL A   1      42.187  29.580  27.100  1.00  0.00     0.031 C 
ATOM     48  C   UNL A   1      38.626  27.970  29.882  1.00  0.00     0.029 A 
ATOM     49  N   UNL A   1      39.857  29.741  30.360  1.00  0.00    -0.354 N 
ATOM     50  C   UNL A   1      43.833  30.299  28.518  1.00  0.00     0.074 A 
ATOM     51  C   UNL A   1      43.343  30.244  27.164  1.00  0.00     0.031 C 
ATOM     52  C   UNL A   1      37.836  28.831  30.569  1.00  0.00     0.029 A 
ATOM     53  C   UNL A   1      38.614  30.007  30.922  1.00  0.00     0.049 A 
ATOM     54  H   UNL A   1      40.636  30.331  30.492  1.00  0.00     0.167 HD
ATOM     55  C   UNL A   1      44.700  31.147  29.139  1.00  0.00     0.037 A 
ATOM     56  C   UNL A   1      38.259  31.118  31.619  1.00  0.00     0.037 A 
ATOM     57  C   UNL A   1      44.966  30.725  30.491  1.00  0.00     0.049 A 
ATOM     58  C   UNL A   1      39.513  31.697  32.171  1.00  0.00     0.074 A 
ATOM     59  C   UNL A   1      45.524  29.597  31.065  1.00  0.00     0.029 A 
ATOM     60  N   UNL A   1      44.303  31.365  31.511  1.00  0.00    -0.354 N 
ATOM     61  N   UNL A   1      40.237  31.109  33.087  1.00  0.00    -0.248 NA
ATOM     62  C   UNL A   1      40.206  32.695  31.373  1.00  0.00     0.031 C 
ATOM     63  C   UNL A   1      44.754  29.363  32.242  1.00  0.00     0.029 A 
ATOM     64  C   UNL A   1      43.818  30.393  32.348  1.00  0.00     0.049 A 
ATOM     65  H   UNL A   1      44.195  32.338  31.619  1.00  0.00     0.167 HD
ATOM     66  C   UNL A   1      41.550  31.342  32.704  1.00  0.00     0.074 A 
ATOM     67  C   UNL A   1      41.468  32.382  31.681  1.00  0.00     0.031 C 
ATOM     68  C   UNL A   1      42.557  30.487  33.052  1.00  0.00     0.037 A 
BRANCH  55  69
ATOM     69  C   UNL A   1      45.039  32.535  28.650  1.00  0.00     0.058 A 
ATOM     70  C   UNL A   1      46.389  32.876  28.421  1.00  0.00     0.135 A 
ATOM     71  C   UNL A   1      44.136  33.621  28.682  1.00  0.00     0.135 A 
ATOM     72  F   UNL A   1      47.335  31.925  28.360  1.00  0.00    -0.206 F 
ATOM     73  C   UNL A   1      46.822  34.199  28.330  1.00  0.00     0.059 A 
ATOM     74  C   UNL A   1      44.539  34.944  28.544  1.00  0.00     0.059 A 
ATOM     75  F   UNL A   1      42.835  33.462  28.948  1.00  0.00    -0.206 F 
ATOM     76  C   UNL A   1      45.888  35.227  28.415  1.00  0.00     0.060 A 
BRANCH  76  77
ATOM     77  S   UNL A   1      46.461  36.934  28.435  1.00  0.00     0.124 S 
ATOM     78  O   UNL A   1      47.827  36.778  28.911  1.00  0.00    -0.237 OA
ATOM     79  O   UNL A   1      46.306  37.319  27.037  1.00  0.00    -0.237 OA
ATOM     80  O   UNL A   1      45.537  37.586  29.365  1.00  0.00    -0.744 OA
ENDBRANCH  76  77
ENDBRANCH  55  69
BRANCH  56  81
ATOM     81  C   UNL A   1      37.004  31.913  31.487  1.00  0.00     0.058 A 
ATOM     82  C   UNL A   1      36.206  32.216  32.609  1.00  0.00     0.135 A 
ATOM     83  C   UNL A   1      36.721  32.643  30.316  1.00  0.00     0.135 A 
ATOM     84  F   UNL A   1      36.414  31.584  33.774  1.00  0.00    -0.206 F 
ATOM     85  C   UNL A   1      35.230  33.222  32.587  1.00  0.00     0.059 A 
ATOM     86  C   UNL A   1      35.751  33.646  30.268  1.00  0.00     0.059 A 
ATOM     87  F   UNL A   1      37.446  32.470  29.202  1.00  0.00    -0.206 F 
ATOM     88  C   UNL A   1      35.027  33.950  31.415  1.00  0.00     0.060 A 
BRANCH  88  89
ATOM     89  S   UNL A   1      33.897  35.363  31.426  1.00  0.00     0.124 S 
ATOM     90  O   UNL A   1      33.820  35.703  30.010  1.00  0.00    -0.237 OA
ATOM     91  O   UNL A   1      32.690  34.788  32.011  1.00  0.00    -0.237 OA
ATOM     92  O   UNL A   1      34.586  36.342  32.265  1.00  0.00    -0.744 OA
ENDBRANCH  88  89
ENDBRANCH  56  81
BRANCH  68  93
ATOM     93  C   UNL A   1      42.272  29.415  34.073  1.00  0.00     0.058 A 
ATOM     94  C   UNL A   1      41.713  28.160  33.770  1.00  0.00     0.135 A 
ATOM     95  C   UNL A   1      42.748  29.601  35.381  1.00  0.00     0.135 A 
ATOM     96  F   UNL A   1      41.323  27.861  32.523  1.00  0.00    -0.206 F 
ATOM     97  C   UNL A   1      41.607  27.149  34.730  1.00  0.00     0.059 A 
ATOM     98  C   UNL A   1      42.680  28.598  36.344  1.00  0.00     0.059 A 
ATOM     99  F   UNL A   1      43.347  30.756  35.718  1.00  0.00    -0.206 F 
ATOM    100  C   UNL A   1      42.101  27.376  36.014  1.00  0.00     0.060 A 
BRANCH 100 101
ATOM    101  S   UNL A   1      42.052  26.038  37.227  1.00  0.00     0.124 S 
ATOM    102  O   UNL A   1      40.657  26.067  37.661  1.00  0.00    -0.237 OA
ATOM    103  O   UNL A   1      42.440  24.876  36.427  1.00  0.00    -0.237 OA
ATOM    104  O   UNL A   1      43.026  26.446  38.229  1.00  0.00    -0.744 OA
ENDBRANCH 100 101
ENDBRANCH  68  93
ENDBRANCH  42  43
ENDBRANCH  34  37
ENDBRANCH  32  33
ENDBRANCH  31  32
ENDBRANCH   1  31
TORSDOF 17
ENDMDL
MODEL 2
REMARK VINA RESULT:     -14.0      1.191      1.473
REMARK SMILES O=C(Cn1c(-c2nc(-c3ccc(C(F)(F)F)cc3)no2)cc2ccccc21)NCCCNC(=O)c1ccc(-c2c3nc(c(-c4c(F)cc(S(=O)(=O)[O-])cc4F)c4ccc([nH]4)c(-c4c(F)cc(S(=O)(=O)[O-])cc4F)c4nc(c(-c5c(F)cc(S(=O)(=O)[O-])cc5F)c5ccc2[nH]5)C=C4)C=C3)cc1
REMARK SMILES IDX 29 1 28 2 1 3 2 4 3 6 4 7 5 8 27 9 21 10 22 11 26 12 23 13
REMARK SMILES IDX 25 14 24 15 6 16 7 17 20 18 8 19 19 20 9 21 10 22 18 23
REMARK SMILES IDX 11 24 17 25 12 26 13 27 14 28 15 29 16 30 30 31 31 32 32 33
REMARK SMILES IDX 33 34 34 36 35 37 36 38 100 39 37 40 99 41 38 42 39 43 40 44
REMARK SMILES IDX 93 45 41 46 98 47 92 48 94 49 42 50 97 51 91 52 90 53 43 55
REMARK SMILES IDX 77 56 56 57 76 58 57 59 60 60 75 61 95 62 58 63 59 64 74 66
REMARK SMILES IDX 96 67 61 68 44 69 45 70 54 71 46 72 47 73 53 74 55 75 48 76
REMARK SMILES IDX 49 77 50 78 51 79 52 80 78 81 79 82 88 83 80 84 81 85 87 86
REMARK SMILES IDX 89 87 82 88 83 89 84 90 85 91 86 92 62 93 63 94 72 95 64 96
REMARK SMILES IDX 65 97 71 98 73 99 66 100 67 101 68 102 69 103 70 104
REMARK H PARENT 28 5 32 35 94 54 60 65
REMARK Flexibility Score: inf
ROOT
ATOM      1  C   UNL A   1      37.989  23.098  25.827  1.00  0.00     0.117 C 
ENDROOT
BRANCH   1   2
ATOM      2  N   UNL A   1      36.610  22.714  26.086  1.00  0.00    -0.354 N 
ATOM      3  O   UNL A   1      36.036  22.221  23.916  1.00  0.00    -0.273 OA
ATOM      4  C   UNL A   1      35.739  22.294  25.104  1.00  0.00     0.239 C 
ATOM      5  H   UNL A   1      36.281  22.757  27.014  1.00  0.00     0.163 HD
BRANCH   4   6
ATOM      6  C   UNL A   1      34.326  22.017  25.582  1.00  0.00     0.222 C 
BRANCH   6   7
ATOM      7  N   UNL A   1      33.472  21.470  24.535  1.00  0.00    -0.327 N 
ATOM      8  C   UNL A   1      32.617  22.188  23.716  1.00  0.00     0.109 A 
ATOM      9  C   UNL A   1      33.435  20.125  24.199  1.00  0.00     0.049 A 
ATOM     10  C   UNL A   1      31.946  21.272  22.929  1.00  0.00     0.042 A 
ATOM     11  C   UNL A   1      32.489  19.981  23.183  1.00  0.00     0.000 A 
ATOM     12  C   UNL A   1      34.154  19.024  24.700  1.00  0.00     0.027 A 
ATOM     13  C   UNL A   1      32.271  18.704  22.627  1.00  0.00     0.010 A 
ATOM     14  C   UNL A   1      33.925  17.768  24.129  1.00  0.00     0.002 A 
ATOM     15  C   UNL A   1      33.002  17.608  23.102  1.00  0.00     0.001 A 
BRANCH   8  16
ATOM     16  C   UNL A   1      32.543  23.619  23.659  1.00  0.00     0.274 A 
ATOM     17  N   UNL A   1      31.491  24.357  23.961  1.00  0.00    -0.185 NA
ATOM     18  O   UNL A   1      33.608  24.377  23.253  1.00  0.00    -0.332 OA
ATOM     19  C   UNL A   1      31.912  25.639  23.641  1.00  0.00     0.202 A 
ATOM     20  N   UNL A   1      33.191  25.696  23.235  1.00  0.00    -0.057 NA
BRANCH  19  21
ATOM     21  C   UNL A   1      31.123  26.858  23.798  1.00  0.00     0.023 A 
ATOM     22  C   UNL A   1      29.843  26.954  23.242  1.00  0.00     0.013 A 
ATOM     23  C   UNL A   1      31.678  28.005  24.363  1.00  0.00     0.013 A 
ATOM     24  C   UNL A   1      29.181  28.188  23.180  1.00  0.00     0.014 A 
ATOM     25  C   UNL A   1      31.037  29.247  24.286  1.00  0.00     0.014 A 
ATOM     26  C   UNL A   1      29.793  29.357  23.658  1.00  0.00     0.056 A 
BRANCH  26  27
ATOM     27  C   UNL A   1      29.135  30.701  23.452  1.00  0.00     0.416 C 
ATOM     28  F   UNL A   1      27.783  30.636  23.619  1.00  0.00    -0.166 F 
ATOM     29  F   UNL A   1      29.571  31.642  24.333  1.00  0.00    -0.166 F 
ATOM     30  F   UNL A   1      29.327  31.225  22.210  1.00  0.00    -0.166 F 
ENDBRANCH  26  27
ENDBRANCH  19  21
ENDBRANCH   8  16
ENDBRANCH   6   7
ENDBRANCH   4   6
ENDBRANCH   1   2
BRANCH   1  31
ATOM     31  C   UNL A   1      38.970  21.961  26.123  1.00  0.00     0.042 C 
BRANCH  31  32
ATOM     32  C   UNL A   1      40.221  22.406  26.875  1.00  0.00     0.118 C 
BRANCH  32  33
ATOM     33  N   UNL A   1      41.401  22.488  26.032  1.00  0.00    -0.352 N 
ATOM     34  C   UNL A   1      42.484  23.322  25.989  1.00  0.00     0.251 C 
ATOM     35  H   UNL A   1      41.427  21.790  25.338  1.00  0.00     0.163 HD
ATOM     36  O   UNL A   1      43.495  22.855  25.459  1.00  0.00    -0.269 OA
BRANCH  34  37
ATOM     37  C   UNL A   1      42.507  24.727  26.466  1.00  0.00     0.039 A 
ATOM     38  C   UNL A   1      43.018  25.148  27.691  1.00  0.00     0.014 A 
ATOM     39  C   UNL A   1      41.809  25.652  25.662  1.00  0.00     0.014 A 
ATOM     40  C   UNL A   1      42.721  26.423  28.156  1.00  0.00     0.010 A 
ATOM     41  C   UNL A   1      41.502  26.923  26.129  1.00  0.00     0.010 A 
ATOM     42  C   UNL A   1      41.902  27.280  27.407  1.00  0.00    -0.014 A 
BRANCH  42  43
ATOM     43  C   UNL A   1      41.526  28.553  28.007  1.00  0.00     0.031 A 
ATOM     44  C   UNL A   1      42.561  29.611  27.897  1.00  0.00     0.074 A 
ATOM     45  C   UNL A   1      40.354  28.789  28.632  1.00  0.00     0.049 A 
ATOM     46  N   UNL A   1      43.351  30.029  28.830  1.00  0.00    -0.248 NA
ATOM     47  C   UNL A   1      42.862  30.152  26.567  1.00  0.00     0.031 C 
ATOM     48  C   UNL A   1      39.136  27.977  28.663  1.00  0.00     0.029 A 
ATOM     49  N   UNL A   1      40.006  29.882  29.369  1.00  0.00    -0.354 N 
ATOM     50  C   UNL A   1      44.122  31.038  28.260  1.00  0.00     0.074 A 
ATOM     51  C   UNL A   1      43.886  30.965  26.840  1.00  0.00     0.031 C 
ATOM     52  C   UNL A   1      38.126  28.699  29.210  1.00  0.00     0.029 A 
ATOM     53  C   UNL A   1      38.660  29.956  29.707  1.00  0.00     0.049 A 
ATOM     54  H   UNL A   1      40.660  30.566  29.642  1.00  0.00     0.167 HD
ATOM     55  C   UNL A   1      44.742  31.974  29.032  1.00  0.00     0.037 A 
ATOM     56  C   UNL A   1      38.038  30.983  30.342  1.00  0.00     0.037 A 
ATOM     57  C   UNL A   1      44.827  31.545  30.406  1.00  0.00     0.049 A 
ATOM     58  C   UNL A   1      39.084  31.707  31.112  1.00  0.00     0.074 A 
ATOM     59  C   UNL A   1      45.430  30.484  31.056  1.00  0.00     0.029 A 
ATOM     60  N   UNL A   1      43.915  32.053  31.300  1.00  0.00    -0.354 N 
ATOM     61  N   UNL A   1      39.715  31.193  32.134  1.00  0.00    -0.248 NA
ATOM     62  C   UNL A   1      39.759  32.818  30.458  1.00  0.00     0.031 C 
ATOM     63  C   UNL A   1      44.509  30.106  32.078  1.00  0.00     0.029 A 
ATOM     64  C   UNL A   1      43.434  30.995  32.029  1.00  0.00     0.049 A 
ATOM     65  H   UNL A   1      43.655  32.998  31.398  1.00  0.00     0.167 HD
ATOM     66  C   UNL A   1      41.029  31.614  31.991  1.00  0.00     0.074 A 
ATOM     67  C   UNL A   1      40.980  32.669  30.980  1.00  0.00     0.031 C 
ATOM     68  C   UNL A   1      42.070  30.893  32.501  1.00  0.00     0.037 A 
BRANCH  55  69
ATOM     69  C   UNL A   1      44.962  33.412  28.625  1.00  0.00     0.058 A 
ATOM     70  C   UNL A   1      46.273  33.935  28.622  1.00  0.00     0.135 A 
ATOM     71  C   UNL A   1      43.927  34.367  28.528  1.00  0.00     0.135 A 
ATOM     72  F   UNL A   1      47.337  33.119  28.701  1.00  0.00    -0.206 F 
ATOM     73  C   UNL A   1      46.531  35.306  28.622  1.00  0.00     0.059 A 
ATOM     74  C   UNL A   1      44.163  35.737  28.476  1.00  0.00     0.059 A 
ATOM     75  F   UNL A   1      42.634  34.029  28.578  1.00  0.00    -0.206 F 
ATOM     76  C   UNL A   1      45.465  36.198  28.571  1.00  0.00     0.060 A 
BRANCH  76  77
ATOM     77  S   UNL A   1      45.791  37.964  28.708  1.00  0.00     0.124 S 
ATOM     78  O   UNL A   1      47.200  38.030  28.350  1.00  0.00    -0.237 OA
ATOM     79  O   UNL A   1      44.854  38.519  27.739  1.00  0.00    -0.237 OA
ATOM     80  O   UNL A   1      45.480  38.254  30.110  1.00  0.00    -0.744 OA
ENDBRANCH  76  77
ENDBRANCH  55  69
BRANCH  56  81
ATOM     81  C   UNL A   1      36.725  31.605  30.001  1.00  0.00     0.058 A 
ATOM     82  C   UNL A   1      35.934  32.232  30.983  1.00  0.00     0.135 A 
ATOM     83  C   UNL A   1      36.364  31.861  28.663  1.00  0.00     0.135 A 
ATOM     84  F   UNL A   1      36.213  32.062  32.284  1.00  0.00    -0.206 F 
ATOM     85  C   UNL A   1      34.887  33.106  30.657  1.00  0.00     0.059 A 
ATOM     86  C   UNL A   1      35.323  32.722  28.314  1.00  0.00     0.059 A 
ATOM     87  F   UNL A   1      37.075  31.352  27.646  1.00  0.00    -0.206 F 
ATOM     88  C   UNL A   1      34.605  33.364  29.316  1.00  0.00     0.060 A 
BRANCH  88  89
ATOM     89  S   UNL A   1      33.375  34.621  28.888  1.00  0.00     0.124 S 
ATOM     90  O   UNL A   1      32.586  33.940  27.868  1.00  0.00    -0.237 OA
ATOM     91  O   UNL A   1      32.707  34.846  30.166  1.00  0.00    -0.237 OA
ATOM     92  O   UNL A   1      34.185  35.738  28.407  1.00  0.00    -0.744 OA
ENDBRANCH  88  89
ENDBRANCH  56  81
BRANCH  68  93
ATOM     93  C   UNL A   1      41.766  29.757  33.445  1.00  0.00     0.058 A 
ATOM     94  C   UNL A   1      41.501  28.436  33.037  1.00  0.00     0.135 A 
ATOM     95  C   UNL A   1      41.923  29.979  34.822  1.00  0.00     0.135 A 
ATOM     96  F   UNL A   1      41.434  28.116  31.737  1.00  0.00    -0.206 F 
ATOM     97  C   UNL A   1      41.373  27.393  33.958  1.00  0.00     0.059 A 
ATOM     98  C   UNL A   1      41.829  28.949  35.754  1.00  0.00     0.059 A 
ATOM     99  F   UNL A   1      42.236  31.206  35.272  1.00  0.00    -0.206 F 
ATOM    100  C   UNL A   1      41.546  27.659  35.315  1.00  0.00     0.060 A 
BRANCH 100 101
ATOM    101  S   UNL A   1      41.475  26.293  36.497  1.00  0.00     0.124 S 
ATOM    102  O   UNL A   1      40.815  25.247  35.719  1.00  0.00    -0.237 OA
ATOM    103  O   UNL A   1      42.888  26.063  36.795  1.00  0.00    -0.237 OA
ATOM    104  O   UNL A   1      40.695  26.835  37.602  1.00  0.00    -0.744 OA
ENDBRANCH 100 101
ENDBRANCH  68  93
ENDBRANCH  42  43
ENDBRANCH  34  37
ENDBRANCH  32  33
ENDBRANCH  31  32
ENDBRANCH   1  31
TORSDOF 17
ENDMDL
MODEL 3
REMARK VINA RESULT:     -13.7      3.060      5.146
REMARK SMILES O=C(Cn1c(-c2nc(-c3ccc(C(F)(F)F)cc3)no2)cc2ccccc21)NCCCNC(=O)c1ccc(-c2c3nc(c(-c4c(F)cc(S(=O)(=O)[O-])cc4F)c4ccc([nH]4)c(-c4c(F)cc(S(=O)(=O)[O-])cc4F)c4nc(c(-c5c(F)cc(S(=O)(=O)[O-])cc5F)c5ccc2[nH]5)C=C4)C=C3)cc1
REMARK SMILES IDX 29 1 28 2 1 3 2 4 3 6 4 7 5 8 27 9 21 10 22 11 26 12 23 13
REMARK SMILES IDX 25 14 24 15 6 16 7 17 20 18 8 19 19 20 9 21 10 22 18 23
REMARK SMILES IDX 11 24 17 25 12 26 13 27 14 28 15 29 16 30 30 31 31 32 32 33
REMARK SMILES IDX 33 34 34 36 35 37 36 38 100 39 37 40 99 41 38 42 39 43 40 44
REMARK SMILES IDX 93 45 41 46 98 47 92 48 94 49 42 50 97 51 91 52 90 53 43 55
REMARK SMILES IDX 77 56 56 57 76 58 57 59 60 60 75 61 95 62 58 63 59 64 74 66
REMARK SMILES IDX 96 67 61 68 44 69 45 70 54 71 46 72 47 73 53 74 55 75 48 76
REMARK SMILES IDX 49 77 50 78 51 79 52 80 78 81 79 82 88 83 80 84 81 85 87 86
REMARK SMILES IDX 89 87 82 88 83 89 84 90 85 91 86 92 62 93 63 94 72 95 64 96
REMARK SMILES IDX 65 97 71 98 73 99 66 100 67 101 68 102 69 103 70 104
REMARK H PARENT 28 5 32 35 94 54 60 65
REMARK Flexibility Score: inf
ROOT
ATOM      1  C   UNL A   1      35.219  24.254  25.242  1.00  0.00     0.117 C 
ENDROOT
BRANCH   1   2
ATOM      2  N   UNL A   1      34.442  24.834  24.158  1.00  0.00    -0.354 N 
ATOM      3  O   UNL A   1      33.636  26.647  25.318  1.00  0.00    -0.273 OA
ATOM      4  C   UNL A   1      33.714  25.998  24.279  1.00  0.00     0.239 C 
ATOM      5  H   UNL A   1      34.436  24.369  23.289  1.00  0.00     0.163 HD
BRANCH   4   6
ATOM      6  C   UNL A   1      32.915  26.381  23.048  1.00  0.00     0.222 C 
BRANCH   6   7
ATOM      7  N   UNL A   1      31.476  26.360  23.278  1.00  0.00    -0.327 N 
ATOM      8  C   UNL A   1      30.735  25.285  23.739  1.00  0.00     0.109 A 
ATOM      9  C   UNL A   1      30.651  27.459  23.088  1.00  0.00     0.049 A 
ATOM     10  C   UNL A   1      29.409  25.674  23.733  1.00  0.00     0.042 A 
ATOM     11  C   UNL A   1      29.349  27.051  23.379  1.00  0.00     0.000 A 
ATOM     12  C   UNL A   1      30.941  28.777  22.686  1.00  0.00     0.027 A 
ATOM     13  C   UNL A   1      28.303  27.993  23.296  1.00  0.00     0.010 A 
ATOM     14  C   UNL A   1      29.887  29.694  22.618  1.00  0.00     0.002 A 
ATOM     15  C   UNL A   1      28.587  29.312  22.924  1.00  0.00     0.001 A 
BRANCH   8  16
ATOM     16  C   UNL A   1      31.289  24.051  24.217  1.00  0.00     0.274 A 
ATOM     17  N   UNL A   1      31.836  23.105  23.476  1.00  0.00    -0.185 NA
ATOM     18  O   UNL A   1      31.282  23.729  25.547  1.00  0.00    -0.332 OA
ATOM     19  C   UNL A   1      32.107  22.108  24.401  1.00  0.00     0.202 A 
ATOM     20  N   UNL A   1      31.811  22.455  25.664  1.00  0.00    -0.057 NA
BRANCH  19  21
ATOM     21  C   UNL A   1      32.737  20.824  24.108  1.00  0.00     0.023 A 
ATOM     22  C   UNL A   1      32.161  19.941  23.188  1.00  0.00     0.013 A 
ATOM     23  C   UNL A   1      33.833  20.376  24.844  1.00  0.00     0.013 A 
ATOM     24  C   UNL A   1      32.621  18.622  23.078  1.00  0.00     0.014 A 
ATOM     25  C   UNL A   1      34.286  19.054  24.761  1.00  0.00     0.014 A 
ATOM     26  C   UNL A   1      33.657  18.150  23.900  1.00  0.00     0.056 A 
BRANCH  26  27
ATOM     27  C   UNL A   1      34.042  16.691  23.878  1.00  0.00     0.416 C 
ATOM     28  F   UNL A   1      35.077  16.425  24.726  1.00  0.00    -0.166 F 
ATOM     29  F   UNL A   1      33.027  15.872  24.269  1.00  0.00    -0.166 F 
ATOM     30  F   UNL A   1      34.443  16.242  22.658  1.00  0.00    -0.166 F 
ENDBRANCH  26  27
ENDBRANCH  19  21
ENDBRANCH   8  16
ENDBRANCH   6   7
ENDBRANCH   4   6
ENDBRANCH   1   2
BRANCH   1  31
ATOM     31  C   UNL A   1      36.286  23.282  24.732  1.00  0.00     0.042 C 
BRANCH  31  32
ATOM     32  C   UNL A   1      36.905  22.417  25.825  1.00  0.00     0.118 C 
BRANCH  32  33
ATOM     33  N   UNL A   1      38.329  22.195  25.647  1.00  0.00    -0.352 N 
ATOM     34  C   UNL A   1      39.446  22.578  26.337  1.00  0.00     0.251 C 
ATOM     35  H   UNL A   1      38.537  21.648  24.855  1.00  0.00     0.163 HD
ATOM     36  O   UNL A   1      40.440  21.864  26.181  1.00  0.00    -0.269 OA
BRANCH  34  37
ATOM     37  C   UNL A   1      39.560  23.791  27.184  1.00  0.00     0.039 A 
ATOM     38  C   UNL A   1      38.627  24.824  27.232  1.00  0.00     0.014 A 
ATOM     39  C   UNL A   1      40.790  23.948  27.856  1.00  0.00     0.014 A 
ATOM     40  C   UNL A   1      38.973  26.033  27.824  1.00  0.00     0.010 A 
ATOM     41  C   UNL A   1      41.142  25.158  28.439  1.00  0.00     0.010 A 
ATOM     42  C   UNL A   1      40.255  26.221  28.359  1.00  0.00    -0.014 A 
BRANCH  42  43
ATOM     43  C   UNL A   1      40.596  27.549  28.850  1.00  0.00     0.031 A 
ATOM     44  C   UNL A   1      41.791  28.151  28.208  1.00  0.00     0.074 A 
ATOM     45  C   UNL A   1      39.920  28.206  29.815  1.00  0.00     0.049 A 
ATOM     46  N   UNL A   1      42.976  28.259  28.711  1.00  0.00    -0.248 NA
ATOM     47  C   UNL A   1      41.703  28.530  26.793  1.00  0.00     0.031 C 
ATOM     48  C   UNL A   1      38.619  27.901  30.414  1.00  0.00     0.029 A 
ATOM     49  N   UNL A   1      40.280  29.358  30.450  1.00  0.00    -0.354 N 
ATOM     50  C   UNL A   1      43.747  28.907  27.751  1.00  0.00     0.074 A 
ATOM     51  C   UNL A   1      42.958  28.911  26.545  1.00  0.00     0.031 C 
ATOM     52  C   UNL A   1      38.214  28.949  31.172  1.00  0.00     0.029 A 
ATOM     53  C   UNL A   1      39.288  29.926  31.239  1.00  0.00     0.049 A 
ATOM     54  H   UNL A   1      41.176  29.757  30.356  1.00  0.00     0.167 HD
ATOM     55  C   UNL A   1      44.896  29.558  28.088  1.00  0.00     0.037 A 
ATOM     56  C   UNL A   1      39.350  31.117  31.891  1.00  0.00     0.037 A 
ATOM     57  C   UNL A   1      45.369  29.142  29.385  1.00  0.00     0.049 A 
ATOM     58  C   UNL A   1      40.792  31.413  32.104  1.00  0.00     0.074 A 
ATOM     59  C   UNL A   1      45.788  27.940  29.926  1.00  0.00     0.029 A 
ATOM     60  N   UNL A   1      45.114  29.959  30.460  1.00  0.00    -0.354 N 
ATOM     61  N   UNL A   1      41.564  30.713  32.892  1.00  0.00    -0.248 NA
ATOM     62  C   UNL A   1      41.481  32.190  31.086  1.00  0.00     0.031 C 
ATOM     63  C   UNL A   1      45.279  27.938  31.258  1.00  0.00     0.029 A 
ATOM     64  C   UNL A   1      44.637  29.160  31.468  1.00  0.00     0.049 A 
ATOM     65  H   UNL A   1      45.246  30.934  30.498  1.00  0.00     0.167 HD
ATOM     66  C   UNL A   1      42.772  30.620  32.216  1.00  0.00     0.074 A 
ATOM     67  C   UNL A   1      42.682  31.608  31.142  1.00  0.00     0.031 C 
ATOM     68  C   UNL A   1      43.624  29.571  32.415  1.00  0.00     0.037 A 
BRANCH  55  69
ATOM     69  C   UNL A   1      45.403  30.809  27.412  1.00  0.00     0.058 A 
ATOM     70  C   UNL A   1      46.740  30.856  26.963  1.00  0.00     0.135 A 
ATOM     71  C   UNL A   1      44.732  32.051  27.454  1.00  0.00     0.135 A 
ATOM     72  F   UNL A   1      47.474  29.735  26.872  1.00  0.00    -0.206 F 
ATOM     73  C   UNL A   1      47.389  32.057  26.671  1.00  0.00     0.059 A 
ATOM     74  C   UNL A   1      45.345  33.253  27.120  1.00  0.00     0.059 A 
ATOM     75  F   UNL A   1      43.482  32.174  27.913  1.00  0.00    -0.206 F 
ATOM     76  C   UNL A   1      46.685  33.252  26.776  1.00  0.00     0.060 A 
BRANCH  76  77
ATOM     77  S   UNL A   1      47.559  34.809  26.533  1.00  0.00     0.124 S 
ATOM     78  O   UNL A   1      48.794  34.567  27.264  1.00  0.00    -0.237 OA
ATOM     79  O   UNL A   1      47.670  34.868  25.080  1.00  0.00    -0.237 OA
ATOM     80  O   UNL A   1      46.655  35.795  27.128  1.00  0.00    -0.744 OA
ENDBRANCH  76  77
ENDBRANCH  55  69
BRANCH  56  81
ATOM     81  C   UNL A   1      38.300  32.175  31.960  1.00  0.00     0.058 A 
ATOM     82  C   UNL A   1      37.748  32.736  30.792  1.00  0.00     0.135 A 
ATOM     83  C   UNL A   1      37.607  32.438  33.158  1.00  0.00     0.135 A 
ATOM     84  F   UNL A   1      38.329  32.524  29.601  1.00  0.00    -0.206 F 
ATOM     85  C   UNL A   1      36.549  33.463  30.803  1.00  0.00     0.059 A 
ATOM     86  C   UNL A   1      36.415  33.164  33.195  1.00  0.00     0.059 A 
ATOM     87  F   UNL A   1      38.017  31.918  34.323  1.00  0.00    -0.206 F 
ATOM     88  C   UNL A   1      35.876  33.651  32.010  1.00  0.00     0.060 A 
BRANCH  88  89
ATOM     89  S   UNL A   1      34.245  34.434  32.010  1.00  0.00     0.124 S 
ATOM     90  O   UNL A   1      33.526  33.640  32.999  1.00  0.00    -0.237 OA
ATOM     91  O   UNL A   1      34.561  35.805  32.400  1.00  0.00    -0.237 OA
ATOM     92  O   UNL A   1      33.790  34.272  30.630  1.00  0.00    -0.744 OA
ENDBRANCH  88  89
ENDBRANCH  56  81
BRANCH  68  93
ATOM     93  C   UNL A   1      43.358  28.637  33.568  1.00  0.00     0.058 A 
ATOM     94  C   UNL A   1      42.381  27.624  33.560  1.00  0.00     0.135 A 
ATOM     95  C   UNL A   1      44.247  28.655  34.655  1.00  0.00     0.135 A 
ATOM     96  F   UNL A   1      41.554  27.473  32.516  1.00  0.00    -0.206 F 
ATOM     97  C   UNL A   1      42.277  26.692  34.596  1.00  0.00     0.059 A 
ATOM     98  C   UNL A   1      44.181  27.718  35.682  1.00  0.00     0.059 A 
ATOM     99  F   UNL A   1      45.241  29.559  34.693  1.00  0.00    -0.206 F 
ATOM    100  C   UNL A   1      43.187  26.743  35.651  1.00  0.00     0.060 A 
BRANCH 100 101
ATOM    101  S   UNL A   1      43.113  25.480  36.941  1.00  0.00     0.124 S 
ATOM    102  O   UNL A   1      41.821  24.849  36.680  1.00  0.00    -0.237 OA
ATOM    103  O   UNL A   1      44.287  24.660  36.645  1.00  0.00    -0.237 OA
ATOM    104  O   UNL A   1      43.196  26.246  38.177  1.00  0.00    -0.744 OA
ENDBRANCH 100 101
ENDBRANCH  68  93
ENDBRANCH  42  43
ENDBRANCH  34  37
ENDBRANCH  32  33
ENDBRANCH  31  32
ENDBRANCH   1  31
TORSDOF 17
ENDMDL
