MODEL 1
REMARK VINA RESULT:     -10.1      0.000      0.000
REMARK SMILES C[C@H]1CCC[C@@H]([NH2+]Cc2ccc(C(=O)NCCCNC(=O)c3ccc(-c4c5nc(c(-c6c(F)cc(S(=O)(=O)[O-])cc6F)c6ccc([nH]6)c(-c6c(F)cc(S(=O)(=O)[O-])cc6F)c6nc(c(-c7c(F)cc(S(=O)(=O)[O-])cc7F)c7ccc4[nH]7)C=C6)C=C5)cc3)cn2)C1
REMARK SMILES IDX 17 1 16 2 15 3 13 4 14 5 12 7 9 8 10 9 89 10 11 11 88 12
REMARK SMILES IDX 8 13 7 14 6 17 1 18 2 19 3 20 90 21 4 22 5 23 18 24 19 25
REMARK SMILES IDX 20 26 21 28 22 29 23 30 87 31 24 32 86 33 25 34 26 35 27 36
REMARK SMILES IDX 80 37 28 38 85 39 79 40 81 41 29 42 84 43 78 44 77 45 30 47
REMARK SMILES IDX 64 48 43 49 63 50 44 51 47 52 62 53 82 54 45 55 46 56 61 58
REMARK SMILES IDX 83 59 48 60 31 61 32 62 41 63 33 64 34 65 40 66 42 67 35 68
REMARK SMILES IDX 36 69 37 70 38 71 39 72 65 73 66 74 75 75 67 76 68 77 74 78
REMARK SMILES IDX 76 79 69 80 70 81 71 82 72 83 73 84 49 85 50 86 59 87 51 88
REMARK SMILES IDX 52 89 58 90 60 91 53 92 54 93 55 94 56 95 57 96
REMARK H PARENT 15 6 7 15 7 16 19 27 81 46 47 57
REMARK Flexibility Score: inf
ROOT
ATOM      1  C   UNL A   1      40.941  20.080  26.665  1.00  0.00     0.042 C 
ENDROOT
BRANCH   1   2
ATOM      2  C   UNL A   1      42.360  19.768  27.136  1.00  0.00     0.118 C 
BRANCH   2   3
ATOM      3  N   UNL A   1      43.188  19.261  26.056  1.00  0.00    -0.352 N 
ATOM      4  C   UNL A   1      44.120  19.882  25.261  1.00  0.00     0.252 C 
ATOM      5  O   UNL A   1      44.792  19.191  24.498  1.00  0.00    -0.269 OA
ATOM      6  H   UNL A   1      43.059  18.305  25.860  1.00  0.00     0.163 HD
BRANCH   4   7
ATOM      7  C   UNL A   1      44.375  21.337  25.320  1.00  0.00     0.058 A 
ATOM      8  C   UNL A   1      45.073  24.003  25.550  1.00  0.00     0.094 A 
ATOM      9  C   UNL A   1      43.830  23.665  25.018  1.00  0.00     0.030 A 
ATOM     10  N   UNL A   1      45.980  23.062  25.911  1.00  0.00    -0.255 NA
ATOM     11  C   UNL A   1      43.486  22.320  24.895  1.00  0.00     0.017 A 
ATOM     12  C   UNL A   1      45.616  21.761  25.780  1.00  0.00     0.125 A 
BRANCH   8  13
ATOM     13  C   UNL A   1      45.454  25.465  25.729  1.00  0.00     0.318 C 
BRANCH  13  14
ATOM     14  N   UNL A   1      44.546  26.371  25.008  1.00  0.00    -0.339 N 
ATOM     15  H   UNL A   1      45.100  26.950  24.378  1.00  0.00     0.346 HD
ATOM     16  H   UNL A   1      43.874  25.788  24.508  1.00  0.00     0.346 HD
BRANCH  14  17
ATOM     17  C   UNL A   1      43.776  27.252  25.895  1.00  0.00     0.182 C 
ATOM     18  C   UNL A   1      45.095  30.175  28.111  1.00  0.00     0.008 C 
ATOM     19  C   UNL A   1      44.074  29.223  27.491  1.00  0.00    -0.008 C 
ATOM     20  C   UNL A   1      43.013  30.004  26.708  1.00  0.00     0.004 C 
ATOM     21  C   UNL A   1      44.774  28.200  26.587  1.00  0.00     0.068 C 
ATOM     22  C   UNL A   1      42.014  29.068  26.037  1.00  0.00     0.006 C 
ATOM     23  C   UNL A   1      42.711  28.054  25.133  1.00  0.00     0.065 C 
ENDBRANCH  14  17
ENDBRANCH  13  14
ENDBRANCH   8  13
ENDBRANCH   4   7
ENDBRANCH   2   3
ENDBRANCH   1   2
BRANCH   1  24
ATOM     24  C   UNL A   1      40.521  21.529  26.885  1.00  0.00     0.118 C 
BRANCH  24  25
ATOM     25  N   UNL A   1      39.448  21.929  25.991  1.00  0.00    -0.352 N 
ATOM     26  C   UNL A   1      38.698  23.077  25.968  1.00  0.00     0.251 C 
ATOM     27  H   UNL A   1      39.222  21.271  25.294  1.00  0.00     0.163 HD
ATOM     28  O   UNL A   1      37.693  23.114  25.263  1.00  0.00    -0.269 OA
BRANCH  26  29
ATOM     29  C   UNL A   1      39.077  24.261  26.777  1.00  0.00     0.039 A 
ATOM     30  C   UNL A   1      39.950  25.200  26.215  1.00  0.00     0.014 A 
ATOM     31  C   UNL A   1      38.650  24.419  28.098  1.00  0.00     0.014 A 
ATOM     32  C   UNL A   1      40.370  26.302  26.963  1.00  0.00     0.010 A 
ATOM     33  C   UNL A   1      39.012  25.557  28.820  1.00  0.00     0.010 A 
ATOM     34  C   UNL A   1      39.893  26.498  28.270  1.00  0.00    -0.014 A 
BRANCH  34  35
ATOM     35  C   UNL A   1      40.346  27.656  29.082  1.00  0.00     0.031 A 
ATOM     36  C   UNL A   1      41.693  27.622  29.758  1.00  0.00     0.074 A 
ATOM     37  C   UNL A   1      39.534  28.719  29.243  1.00  0.00     0.049 A 
ATOM     38  N   UNL A   1      42.246  28.509  30.544  1.00  0.00    -0.248 NA
ATOM     39  C   UNL A   1      42.514  26.420  29.540  1.00  0.00     0.031 C 
ATOM     40  C   UNL A   1      38.191  28.852  28.676  1.00  0.00     0.029 A 
ATOM     41  N   UNL A   1      39.719  29.890  29.935  1.00  0.00    -0.354 N 
ATOM     42  C   UNL A   1      43.469  27.968  30.928  1.00  0.00     0.074 A 
ATOM     43  C   UNL A   1      43.555  26.655  30.328  1.00  0.00     0.031 C 
ATOM     44  C   UNL A   1      37.683  30.045  29.023  1.00  0.00     0.029 A 
ATOM     45  C   UNL A   1      38.649  30.750  29.860  1.00  0.00     0.049 A 
ATOM     46  H   UNL A   1      40.540  30.094  30.439  1.00  0.00     0.167 HD
ATOM     47  C   UNL A   1      44.442  28.523  31.690  1.00  0.00     0.037 A 
ATOM     48  C   UNL A   1      38.469  31.969  30.404  1.00  0.00     0.037 A 
ATOM     49  C   UNL A   1      44.365  29.845  32.257  1.00  0.00     0.049 A 
ATOM     50  C   UNL A   1      39.576  32.578  31.221  1.00  0.00     0.074 A 
ATOM     51  C   UNL A   1      45.312  30.517  33.010  1.00  0.00     0.029 A 
ATOM     52  N   UNL A   1      43.281  30.699  32.123  1.00  0.00    -0.354 N 
ATOM     53  N   UNL A   1      40.743  32.067  31.538  1.00  0.00    -0.248 NA
ATOM     54  C   UNL A   1      39.348  33.931  31.743  1.00  0.00     0.031 C 
ATOM     55  C   UNL A   1      44.790  31.768  33.354  1.00  0.00     0.029 A 
ATOM     56  C   UNL A   1      43.534  31.892  32.782  1.00  0.00     0.049 A 
ATOM     57  H   UNL A   1      42.453  30.490  31.634  1.00  0.00     0.167 HD
ATOM     58  C   UNL A   1      41.400  33.051  32.267  1.00  0.00     0.074 A 
ATOM     59  C   UNL A   1      40.506  34.187  32.338  1.00  0.00     0.031 C 
ATOM     60  C   UNL A   1      42.636  33.017  32.828  1.00  0.00     0.037 A 
BRANCH  47  61
ATOM     61  C   UNL A   1      45.678  27.704  31.944  1.00  0.00     0.058 A 
ATOM     62  C   UNL A   1      46.780  27.746  31.074  1.00  0.00     0.135 A 
ATOM     63  C   UNL A   1      45.777  26.890  33.084  1.00  0.00     0.135 A 
ATOM     64  F   UNL A   1      46.734  28.495  29.960  1.00  0.00    -0.206 F 
ATOM     65  C   UNL A   1      47.921  26.984  31.305  1.00  0.00     0.059 A 
ATOM     66  C   UNL A   1      46.920  26.140  33.350  1.00  0.00     0.059 A 
ATOM     67  F   UNL A   1      44.754  26.812  33.950  1.00  0.00    -0.206 F 
ATOM     68  C   UNL A   1      47.981  26.183  32.446  1.00  0.00     0.060 A 
BRANCH  68  69
ATOM     69  S   UNL A   1      49.468  25.201  32.735  1.00  0.00     0.124 S 
ATOM     70  O   UNL A   1      49.871  24.875  31.369  1.00  0.00    -0.237 OA
ATOM     71  O   UNL A   1      50.332  26.141  33.442  1.00  0.00    -0.237 OA
ATOM     72  O   UNL A   1      48.985  24.077  33.532  1.00  0.00    -0.744 OA
ENDBRANCH  68  69
ENDBRANCH  47  61
BRANCH  48  73
ATOM     73  C   UNL A   1      37.205  32.712  30.159  1.00  0.00     0.058 A 
ATOM     74  C   UNL A   1      37.103  33.632  29.105  1.00  0.00     0.135 A 
ATOM     75  C   UNL A   1      36.072  32.511  30.963  1.00  0.00     0.135 A 
ATOM     76  F   UNL A   1      38.160  33.861  28.310  1.00  0.00    -0.206 F 
ATOM     77  C   UNL A   1      35.931  34.343  28.867  1.00  0.00     0.059 A 
ATOM     78  C   UNL A   1      34.882  33.193  30.731  1.00  0.00     0.059 A 
ATOM     79  F   UNL A   1      36.113  31.628  31.973  1.00  0.00    -0.206 F 
ATOM     80  C   UNL A   1      34.824  34.115  29.687  1.00  0.00     0.060 A 
BRANCH  80  81
ATOM     81  S   UNL A   1      33.292  35.008  29.343  1.00  0.00     0.124 S 
ATOM     82  O   UNL A   1      32.667  35.034  30.660  1.00  0.00    -0.237 OA
ATOM     83  O   UNL A   1      33.786  36.286  28.843  1.00  0.00    -0.237 OA
ATOM     84  O   UNL A   1      32.633  34.168  28.347  1.00  0.00    -0.744 OA
ENDBRANCH  80  81
ENDBRANCH  48  73
BRANCH  60  85
ATOM     85  C   UNL A   1      43.108  34.263  33.522  1.00  0.00     0.058 A 
ATOM     86  C   UNL A   1      43.680  35.333  32.815  1.00  0.00     0.135 A 
ATOM     87  C   UNL A   1      42.958  34.398  34.911  1.00  0.00     0.135 A 
ATOM     88  F   UNL A   1      43.850  35.250  31.486  1.00  0.00    -0.206 F 
ATOM     89  C   UNL A   1      44.116  36.482  33.467  1.00  0.00     0.059 A 
ATOM     90  C   UNL A   1      43.363  35.549  35.580  1.00  0.00     0.059 A 
ATOM     91  F   UNL A   1      42.407  33.409  35.632  1.00  0.00    -0.206 F 
ATOM     92  C   UNL A   1      43.956  36.578  34.851  1.00  0.00     0.060 A 
BRANCH  92  93
ATOM     93  S   UNL A   1      44.513  38.079  35.686  1.00  0.00     0.124 S 
ATOM     94  O   UNL A   1      43.748  38.024  36.927  1.00  0.00    -0.237 OA
ATOM     95  O   UNL A   1      45.949  37.853  35.816  1.00  0.00    -0.237 OA
ATOM     96  O   UNL A   1      44.134  39.142  34.759  1.00  0.00    -0.744 OA
ENDBRANCH  92  93
ENDBRANCH  60  85
ENDBRANCH  34  35
ENDBRANCH  26  29
ENDBRANCH  24  25
ENDBRANCH   1  24
TORSDOF 16
ENDMDL
MODEL 2
REMARK VINA RESULT:     -10.0      5.021     11.996
REMARK SMILES C[C@H]1CCC[C@@H]([NH2+]Cc2ccc(C(=O)NCCCNC(=O)c3ccc(-c4c5nc(c(-c6c(F)cc(S(=O)(=O)[O-])cc6F)c6ccc([nH]6)c(-c6c(F)cc(S(=O)(=O)[O-])cc6F)c6nc(c(-c7c(F)cc(S(=O)(=O)[O-])cc7F)c7ccc4[nH]7)C=C6)C=C5)cc3)cn2)C1
REMARK SMILES IDX 17 1 16 2 15 3 13 4 14 5 12 7 9 8 10 9 89 10 11 11 88 12
REMARK SMILES IDX 8 13 7 14 6 17 1 18 2 19 3 20 90 21 4 22 5 23 18 24 19 25
REMARK SMILES IDX 20 26 21 28 22 29 23 30 87 31 24 32 86 33 25 34 26 35 27 36
REMARK SMILES IDX 80 37 28 38 85 39 79 40 81 41 29 42 84 43 78 44 77 45 30 47
REMARK SMILES IDX 64 48 43 49 63 50 44 51 47 52 62 53 82 54 45 55 46 56 61 58
REMARK SMILES IDX 83 59 48 60 31 61 32 62 41 63 33 64 34 65 40 66 42 67 35 68
REMARK SMILES IDX 36 69 37 70 38 71 39 72 65 73 66 74 75 75 67 76 68 77 74 78
REMARK SMILES IDX 76 79 69 80 70 81 71 82 72 83 73 84 49 85 50 86 59 87 51 88
REMARK SMILES IDX 52 89 58 90 60 91 53 92 54 93 55 94 56 95 57 96
REMARK H PARENT 15 6 7 15 7 16 19 27 81 46 47 57
REMARK Flexibility Score: inf
ROOT
ATOM      1  C   UNL A   1      33.708  29.188  26.905  1.00  0.00     0.042 C 
ENDROOT
BRANCH   1   2
ATOM      2  C   UNL A   1      32.710  28.180  27.469  1.00  0.00     0.118 C 
BRANCH   2   3
ATOM      3  N   UNL A   1      31.689  27.829  26.496  1.00  0.00    -0.352 N 
ATOM      4  C   UNL A   1      31.374  26.629  25.909  1.00  0.00     0.252 C 
ATOM      5  O   UNL A   1      30.364  26.567  25.209  1.00  0.00    -0.269 OA
ATOM      6  H   UNL A   1      31.127  28.584  26.208  1.00  0.00     0.163 HD
BRANCH   4   7
ATOM      7  C   UNL A   1      32.172  25.403  26.121  1.00  0.00     0.058 A 
ATOM      8  C   UNL A   1      33.466  23.016  26.650  1.00  0.00     0.094 A 
ATOM      9  C   UNL A   1      34.151  24.033  25.985  1.00  0.00     0.030 A 
ATOM     10  N   UNL A   1      32.162  23.138  27.000  1.00  0.00    -0.255 NA
ATOM     11  C   UNL A   1      33.492  25.230  25.712  1.00  0.00     0.017 A 
ATOM     12  C   UNL A   1      31.548  24.317  26.721  1.00  0.00     0.125 A 
BRANCH   8  13
ATOM     13  C   UNL A   1      34.177  21.716  26.992  1.00  0.00     0.318 C 
BRANCH  13  14
ATOM     14  N   UNL A   1      33.366  20.533  26.661  1.00  0.00    -0.339 N 
ATOM     15  H   UNL A   1      33.681  19.754  27.238  1.00  0.00     0.346 HD
ATOM     16  H   UNL A   1      32.391  20.777  26.840  1.00  0.00     0.346 HD
BRANCH  14  17
ATOM     17  C   UNL A   1      33.460  20.137  25.251  1.00  0.00     0.182 C 
ATOM     18  C   UNL A   1      33.657  16.534  23.776  1.00  0.00     0.008 C 
ATOM     19  C   UNL A   1      33.604  18.060  23.771  1.00  0.00    -0.008 C 
ATOM     20  C   UNL A   1      32.390  18.556  22.977  1.00  0.00     0.004 C 
ATOM     21  C   UNL A   1      33.571  18.601  25.207  1.00  0.00     0.068 C 
ATOM     22  C   UNL A   1      32.289  20.076  23.004  1.00  0.00     0.006 C 
ATOM     23  C   UNL A   1      32.251  20.614  24.432  1.00  0.00     0.065 C 
ENDBRANCH  14  17
ENDBRANCH  13  14
ENDBRANCH   8  13
ENDBRANCH   4   7
ENDBRANCH   2   3
ENDBRANCH   1   2
BRANCH   1  24
ATOM     24  C   UNL A   1      35.083  29.130  27.562  1.00  0.00     0.118 C 
BRANCH  24  25
ATOM     25  N   UNL A   1      35.185  30.033  28.696  1.00  0.00    -0.352 N 
ATOM     26  C   UNL A   1      36.253  30.313  29.510  1.00  0.00     0.251 C 
ATOM     27  H   UNL A   1      34.357  30.519  28.916  1.00  0.00     0.163 HD
ATOM     28  O   UNL A   1      36.058  30.943  30.547  1.00  0.00    -0.269 OA
BRANCH  26  29
ATOM     29  C   UNL A   1      37.624  29.866  29.163  1.00  0.00     0.039 A 
ATOM     30  C   UNL A   1      38.497  29.526  30.202  1.00  0.00     0.014 A 
ATOM     31  C   UNL A   1      38.084  29.853  27.843  1.00  0.00     0.014 A 
ATOM     32  C   UNL A   1      39.811  29.149  29.918  1.00  0.00     0.010 A 
ATOM     33  C   UNL A   1      39.374  29.407  27.554  1.00  0.00     0.010 A 
ATOM     34  C   UNL A   1      40.258  29.073  28.589  1.00  0.00    -0.014 A 
BRANCH  34  35
ATOM     35  C   UNL A   1      41.659  28.692  28.275  1.00  0.00     0.031 A 
ATOM     36  C   UNL A   1      42.745  29.736  28.285  1.00  0.00     0.074 A 
ATOM     37  C   UNL A   1      41.948  27.417  27.945  1.00  0.00     0.049 A 
ATOM     38  N   UNL A   1      44.014  29.612  27.993  1.00  0.00    -0.248 NA
ATOM     39  C   UNL A   1      42.345  31.106  28.645  1.00  0.00     0.031 C 
ATOM     40  C   UNL A   1      40.977  26.325  27.859  1.00  0.00     0.029 A 
ATOM     41  N   UNL A   1      43.142  26.827  27.618  1.00  0.00    -0.354 N 
ATOM     42  C   UNL A   1      44.560  30.886  28.119  1.00  0.00     0.074 A 
ATOM     43  C   UNL A   1      43.474  31.777  28.463  1.00  0.00     0.031 C 
ATOM     44  C   UNL A   1      41.617  25.193  27.525  1.00  0.00     0.029 A 
ATOM     45  C   UNL A   1      43.037  25.483  27.344  1.00  0.00     0.049 A 
ATOM     46  H   UNL A   1      43.995  27.318  27.581  1.00  0.00     0.167 HD
ATOM     47  C   UNL A   1      45.851  31.274  27.982  1.00  0.00     0.037 A 
ATOM     48  C   UNL A   1      43.978  24.587  26.990  1.00  0.00     0.037 A 
ATOM     49  C   UNL A   1      46.934  30.376  27.672  1.00  0.00     0.049 A 
ATOM     50  C   UNL A   1      45.410  25.036  26.875  1.00  0.00     0.074 A 
ATOM     51  C   UNL A   1      48.282  30.661  27.551  1.00  0.00     0.029 A 
ATOM     52  N   UNL A   1      46.790  29.016  27.442  1.00  0.00    -0.354 N 
ATOM     53  N   UNL A   1      45.913  26.237  27.039  1.00  0.00    -0.248 NA
ATOM     54  C   UNL A   1      46.403  24.007  26.542  1.00  0.00     0.031 C 
ATOM     55  C   UNL A   1      48.952  29.477  27.223  1.00  0.00     0.029 A 
ATOM     56  C   UNL A   1      48.025  28.448  27.179  1.00  0.00     0.049 A 
ATOM     57  H   UNL A   1      45.936  28.527  27.463  1.00  0.00     0.167 HD
ATOM     58  C   UNL A   1      47.284  26.100  26.860  1.00  0.00     0.074 A 
ATOM     59  C   UNL A   1      47.533  24.700  26.584  1.00  0.00     0.031 C 
ATOM     60  C   UNL A   1      48.253  27.049  26.921  1.00  0.00     0.037 A 
BRANCH  47  61
ATOM     61  C   UNL A   1      46.163  32.733  28.180  1.00  0.00     0.058 A 
ATOM     62  C   UNL A   1      46.569  33.235  29.427  1.00  0.00     0.135 A 
ATOM     63  C   UNL A   1      46.084  33.635  27.108  1.00  0.00     0.135 A 
ATOM     64  F   UNL A   1      46.647  32.420  30.492  1.00  0.00    -0.206 F 
ATOM     65  C   UNL A   1      46.852  34.585  29.613  1.00  0.00     0.059 A 
ATOM     66  C   UNL A   1      46.388  34.985  27.263  1.00  0.00     0.059 A 
ATOM     67  F   UNL A   1      45.701  33.209  25.893  1.00  0.00    -0.206 F 
ATOM     68  C   UNL A   1      46.757  35.452  28.524  1.00  0.00     0.060 A 
BRANCH  68  69
ATOM     69  S   UNL A   1      47.128  37.201  28.778  1.00  0.00     0.124 S 
ATOM     70  O   UNL A   1      46.859  37.350  30.206  1.00  0.00    -0.237 OA
ATOM     71  O   UNL A   1      48.532  37.283  28.387  1.00  0.00    -0.237 OA
ATOM     72  O   UNL A   1      46.192  37.881  27.888  1.00  0.00    -0.744 OA
ENDBRANCH  68  69
ENDBRANCH  47  61
BRANCH  48  73
ATOM     73  C   UNL A   1      43.603  23.168  26.759  1.00  0.00     0.058 A 
ATOM     74  C   UNL A   1      43.243  22.334  27.829  1.00  0.00     0.135 A 
ATOM     75  C   UNL A   1      43.585  22.618  25.468  1.00  0.00     0.135 A 
ATOM     76  F   UNL A   1      43.248  22.813  29.082  1.00  0.00    -0.206 F 
ATOM     77  C   UNL A   1      42.898  21.001  27.631  1.00  0.00     0.059 A 
ATOM     78  C   UNL A   1      43.222  21.294  25.242  1.00  0.00     0.059 A 
ATOM     79  F   UNL A   1      43.904  23.379  24.409  1.00  0.00    -0.206 F 
ATOM     80  C   UNL A   1      42.890  20.490  26.332  1.00  0.00     0.060 A 
BRANCH  80  81
ATOM     81  S   UNL A   1      42.397  18.771  26.079  1.00  0.00     0.124 S 
ATOM     82  O   UNL A   1      43.331  18.348  25.043  1.00  0.00    -0.237 OA
ATOM     83  O   UNL A   1      42.604  18.194  27.403  1.00  0.00    -0.237 OA
ATOM     84  O   UNL A   1      41.001  18.882  25.665  1.00  0.00    -0.744 OA
ENDBRANCH  80  81
ENDBRANCH  48  73
BRANCH  60  85
ATOM     85  C   UNL A   1      49.672  26.593  26.734  1.00  0.00     0.058 A 
ATOM     86  C   UNL A   1      50.499  26.279  27.824  1.00  0.00     0.135 A 
ATOM     87  C   UNL A   1      50.201  26.437  25.443  1.00  0.00     0.135 A 
ATOM     88  F   UNL A   1      50.042  26.416  29.079  1.00  0.00    -0.206 F 
ATOM     89  C   UNL A   1      51.813  25.859  27.642  1.00  0.00     0.059 A 
ATOM     90  C   UNL A   1      51.503  25.994  25.236  1.00  0.00     0.059 A 
ATOM     91  F   UNL A   1      49.448  26.713  24.366  1.00  0.00    -0.206 F 
ATOM     92  C   UNL A   1      52.306  25.723  26.343  1.00  0.00     0.060 A 
BRANCH  92  93
ATOM     93  S   UNL A   1      54.008  25.164  26.115  1.00  0.00     0.124 S 
ATOM     94  O   UNL A   1      53.807  23.790  25.670  1.00  0.00    -0.237 OA
ATOM     95  O   UNL A   1      54.511  26.091  25.105  1.00  0.00    -0.237 OA
ATOM     96  O   UNL A   1      54.595  25.317  27.443  1.00  0.00    -0.744 OA
ENDBRANCH  92  93
ENDBRANCH  60  85
ENDBRANCH  34  35
ENDBRANCH  26  29
ENDBRANCH  24  25
ENDBRANCH   1  24
TORSDOF 16
ENDMDL
MODEL 3
REMARK VINA RESULT:     -10.0      4.672      7.086
REMARK SMILES C[C@H]1CCC[C@@H]([NH2+]Cc2ccc(C(=O)NCCCNC(=O)c3ccc(-c4c5nc(c(-c6c(F)cc(S(=O)(=O)[O-])cc6F)c6ccc([nH]6)c(-c6c(F)cc(S(=O)(=O)[O-])cc6F)c6nc(c(-c7c(F)cc(S(=O)(=O)[O-])cc7F)c7ccc4[nH]7)C=C6)C=C5)cc3)cn2)C1
REMARK SMILES IDX 17 1 16 2 15 3 13 4 14 5 12 7 9 8 10 9 89 10 11 11 88 12
REMARK SMILES IDX 8 13 7 14 6 17 1 18 2 19 3 20 90 21 4 22 5 23 18 24 19 25
REMARK SMILES IDX 20 26 21 28 22 29 23 30 87 31 24 32 86 33 25 34 26 35 27 36
REMARK SMILES IDX 80 37 28 38 85 39 79 40 81 41 29 42 84 43 78 44 77 45 30 47
REMARK SMILES IDX 64 48 43 49 63 50 44 51 47 52 62 53 82 54 45 55 46 56 61 58
REMARK SMILES IDX 83 59 48 60 31 61 32 62 41 63 33 64 34 65 40 66 42 67 35 68
REMARK SMILES IDX 36 69 37 70 38 71 39 72 65 73 66 74 75 75 67 76 68 77 74 78
REMARK SMILES IDX 76 79 69 80 70 81 71 82 72 83 73 84 49 85 50 86 59 87 51 88
REMARK SMILES IDX 52 89 58 90 60 91 53 92 54 93 55 94 56 95 57 96
REMARK H PARENT 15 6 7 15 7 16 19 27 81 46 47 57
REMARK Flexibility Score: inf
ROOT
ATOM      1  C   UNL A   1      37.755  22.792  26.014  1.00  0.00     0.042 C 
ENDROOT
BRANCH   1   2
ATOM      2  C   UNL A   1      36.248  22.977  25.850  1.00  0.00     0.118 C 
BRANCH   2   3
ATOM      3  N   UNL A   1      35.505  21.858  26.404  1.00  0.00    -0.352 N 
ATOM      4  C   UNL A   1      34.155  21.656  26.557  1.00  0.00     0.252 C 
ATOM      5  O   UNL A   1      33.768  20.551  26.934  1.00  0.00    -0.269 OA
ATOM      6  H   UNL A   1      36.066  21.117  26.726  1.00  0.00     0.163 HD
BRANCH   4   7
ATOM      7  C   UNL A   1      33.152  22.696  26.243  1.00  0.00     0.058 A 
ATOM      8  C   UNL A   1      31.184  24.607  25.895  1.00  0.00     0.094 A 
ATOM      9  C   UNL A   1      32.001  24.263  24.819  1.00  0.00     0.030 A 
ATOM     10  N   UNL A   1      31.357  24.073  27.129  1.00  0.00    -0.255 NA
ATOM     11  C   UNL A   1      32.998  23.307  25.002  1.00  0.00     0.017 A 
ATOM     12  C   UNL A   1      32.336  23.143  27.275  1.00  0.00     0.125 A 
BRANCH   8  13
ATOM     13  C   UNL A   1      30.065  25.621  25.709  1.00  0.00     0.318 C 
BRANCH  13  14
ATOM     14  N   UNL A   1      29.537  25.624  24.335  1.00  0.00    -0.339 N 
ATOM     15  H   UNL A   1      29.948  24.838  23.830  1.00  0.00     0.346 HD
ATOM     16  H   UNL A   1      28.522  25.551  24.403  1.00  0.00     0.346 HD
BRANCH  14  17
ATOM     17  C   UNL A   1      29.833  26.858  23.599  1.00  0.00     0.182 C 
ATOM     18  C   UNL A   1      27.422  29.815  22.798  1.00  0.00     0.008 C 
ATOM     19  C   UNL A   1      28.728  29.024  22.816  1.00  0.00    -0.008 C 
ATOM     20  C   UNL A   1      29.836  29.826  23.507  1.00  0.00     0.004 C 
ATOM     21  C   UNL A   1      28.526  27.669  23.508  1.00  0.00     0.068 C 
ATOM     22  C   UNL A   1      31.135  29.032  23.582  1.00  0.00     0.006 C 
ATOM     23  C   UNL A   1      30.935  27.687  24.275  1.00  0.00     0.065 C 
ENDBRANCH  14  17
ENDBRANCH  13  14
ENDBRANCH   8  13
ENDBRANCH   4   7
ENDBRANCH   2   3
ENDBRANCH   1   2
BRANCH   1  24
ATOM     24  C   UNL A   1      38.492  24.062  26.427  1.00  0.00     0.118 C 
BRANCH  24  25
ATOM     25  N   UNL A   1      39.915  23.985  26.144  1.00  0.00    -0.352 N 
ATOM     26  C   UNL A   1      40.943  24.795  26.554  1.00  0.00     0.251 C 
ATOM     27  H   UNL A   1      40.183  23.235  25.565  1.00  0.00     0.163 HD
ATOM     28  O   UNL A   1      42.041  24.676  26.016  1.00  0.00    -0.269 OA
BRANCH  26  29
ATOM     29  C   UNL A   1      40.749  25.805  27.622  1.00  0.00     0.039 A 
ATOM     30  C   UNL A   1      41.669  26.854  27.722  1.00  0.00     0.014 A 
ATOM     31  C   UNL A   1      39.726  25.692  28.569  1.00  0.00     0.014 A 
ATOM     32  C   UNL A   1      41.549  27.797  28.746  1.00  0.00     0.010 A 
ATOM     33  C   UNL A   1      39.564  26.673  29.547  1.00  0.00     0.010 A 
ATOM     34  C   UNL A   1      40.486  27.723  29.660  1.00  0.00    -0.014 A 
BRANCH  34  35
ATOM     35  C   UNL A   1      40.357  28.708  30.764  1.00  0.00     0.031 A 
ATOM     36  C   UNL A   1      41.235  28.592  31.984  1.00  0.00     0.074 A 
ATOM     37  C   UNL A   1      39.430  29.682  30.688  1.00  0.00     0.049 A 
ATOM     38  N   UNL A   1      41.242  29.321  33.070  1.00  0.00    -0.248 NA
ATOM     39  C   UNL A   1      42.215  27.494  31.995  1.00  0.00     0.031 C 
ATOM     40  C   UNL A   1      38.493  29.873  29.578  1.00  0.00     0.029 A 
ATOM     41  N   UNL A   1      39.120  30.694  31.561  1.00  0.00    -0.354 N 
ATOM     42  C   UNL A   1      42.212  28.764  33.897  1.00  0.00     0.074 A 
ATOM     43  C   UNL A   1      42.736  27.605  33.209  1.00  0.00     0.031 C 
ATOM     44  C   UNL A   1      37.730  30.949  29.828  1.00  0.00     0.029 A 
ATOM     45  C   UNL A   1      38.101  31.507  31.125  1.00  0.00     0.049 A 
ATOM     46  H   UNL A   1      39.582  30.825  32.421  1.00  0.00     0.167 HD
ATOM     47  C   UNL A   1      42.643  29.191  35.109  1.00  0.00     0.037 A 
ATOM     48  C   UNL A   1      37.531  32.582  31.704  1.00  0.00     0.037 A 
ATOM     49  C   UNL A   1      42.140  30.366  35.774  1.00  0.00     0.049 A 
ATOM     50  C   UNL A   1      38.048  33.055  33.036  1.00  0.00     0.074 A 
ATOM     51  C   UNL A   1      42.537  30.907  36.984  1.00  0.00     0.029 A 
ATOM     52  N   UNL A   1      41.136  31.184  35.279  1.00  0.00    -0.354 N 
ATOM     53  N   UNL A   1      38.995  32.539  33.784  1.00  0.00    -0.248 NA
ATOM     54  C   UNL A   1      37.430  34.264  33.596  1.00  0.00     0.031 C 
ATOM     55  C   UNL A   1      41.755  32.040  37.234  1.00  0.00     0.029 A 
ATOM     56  C   UNL A   1      40.899  32.227  36.160  1.00  0.00     0.049 A 
ATOM     57  H   UNL A   1      40.662  31.046  34.428  1.00  0.00     0.167 HD
ATOM     58  C   UNL A   1      39.107  33.378  34.885  1.00  0.00     0.074 A 
ATOM     59  C   UNL A   1      38.139  34.440  34.703  1.00  0.00     0.031 C 
ATOM     60  C   UNL A   1      39.940  33.282  35.953  1.00  0.00     0.037 A 
BRANCH  47  61
ATOM     61  C   UNL A   1      43.720  28.389  35.786  1.00  0.00     0.058 A 
ATOM     62  C   UNL A   1      43.412  27.345  36.674  1.00  0.00     0.135 A 
ATOM     63  C   UNL A   1      45.076  28.645  35.526  1.00  0.00     0.135 A 
ATOM     64  F   UNL A   1      42.132  27.066  36.972  1.00  0.00    -0.206 F 
ATOM     65  C   UNL A   1      44.408  26.607  37.305  1.00  0.00     0.059 A 
ATOM     66  C   UNL A   1      46.089  27.902  36.125  1.00  0.00     0.059 A 
ATOM     67  F   UNL A   1      45.428  29.631  34.685  1.00  0.00    -0.206 F 
ATOM     68  C   UNL A   1      45.744  26.894  37.025  1.00  0.00     0.060 A 
BRANCH  68  69
ATOM     69  S   UNL A   1      47.027  25.927  37.850  1.00  0.00     0.124 S 
ATOM     70  O   UNL A   1      46.416  24.601  37.881  1.00  0.00    -0.237 OA
ATOM     71  O   UNL A   1      48.164  26.079  36.947  1.00  0.00    -0.237 OA
ATOM     72  O   UNL A   1      47.168  26.584  39.146  1.00  0.00    -0.744 OA
ENDBRANCH  68  69
ENDBRANCH  47  61
BRANCH  48  73
ATOM     73  C   UNL A   1      36.436  33.307  31.010  1.00  0.00     0.058 A 
ATOM     74  C   UNL A   1      35.113  33.225  31.469  1.00  0.00     0.135 A 
ATOM     75  C   UNL A   1      36.688  34.103  29.882  1.00  0.00     0.135 A 
ATOM     76  F   UNL A   1      34.822  32.473  32.542  1.00  0.00    -0.206 F 
ATOM     77  C   UNL A   1      34.074  33.889  30.825  1.00  0.00     0.059 A 
ATOM     78  C   UNL A   1      35.669  34.796  29.235  1.00  0.00     0.059 A 
ATOM     79  F   UNL A   1      37.939  34.229  29.414  1.00  0.00    -0.206 F 
ATOM     80  C   UNL A   1      34.363  34.674  29.708  1.00  0.00     0.060 A 
BRANCH  80  81
ATOM     81  S   UNL A   1      33.016  35.570  28.905  1.00  0.00     0.124 S 
ATOM     82  O   UNL A   1      32.265  36.060  30.054  1.00  0.00    -0.237 OA
ATOM     83  O   UNL A   1      33.735  36.579  28.133  1.00  0.00    -0.237 OA
ATOM     84  O   UNL A   1      32.356  34.539  28.110  1.00  0.00    -0.744 OA
ENDBRANCH  80  81
ENDBRANCH  48  73
BRANCH  60  85
ATOM     85  C   UNL A   1      39.871  34.378  36.978  1.00  0.00     0.058 A 
ATOM     86  C   UNL A   1      40.606  35.566  36.842  1.00  0.00     0.135 A 
ATOM     87  C   UNL A   1      39.033  34.248  38.096  1.00  0.00     0.135 A 
ATOM     88  F   UNL A   1      41.426  35.736  35.792  1.00  0.00    -0.206 F 
ATOM     89  C   UNL A   1      40.538  36.575  37.797  1.00  0.00     0.059 A 
ATOM     90  C   UNL A   1      38.929  35.255  39.051  1.00  0.00     0.059 A 
ATOM     91  F   UNL A   1      38.300  33.137  38.268  1.00  0.00    -0.206 F 
ATOM     92  C   UNL A   1      39.698  36.408  38.900  1.00  0.00     0.060 A 
BRANCH  92  93
ATOM     93  S   UNL A   1      39.605  37.729  40.127  1.00  0.00     0.124 S 
ATOM     94  O   UNL A   1      40.951  38.289  40.057  1.00  0.00    -0.237 OA
ATOM     95  O   UNL A   1      38.538  38.574  39.600  1.00  0.00    -0.237 OA
ATOM     96  O   UNL A   1      39.281  37.021  41.363  1.00  0.00    -0.744 OA
ENDBRANCH  92  93
ENDBRANCH  60  85
ENDBRANCH  34  35
ENDBRANCH  26  29
ENDBRANCH  24  25
ENDBRANCH   1  24
TORSDOF 16
ENDMDL
