MODEL 1
REMARK VINA RESULT:     -12.5      0.000      0.000
REMARK SMILES CCn1cc(Br)cc1C(=O)N[C@@H]1C=C[C@@H](C(=O)NCCCNC(=O)c2ccc(-c3c4nc(c(-c5c(F)cc(S(=O)(=O)[O-])cc5F)c5ccc([nH]5)c(-c5c(F)cc(S(=O)(=O)[O-])cc5F)c5nc(c(-c6c(F)cc(S(=O)(=O)[O-])cc6F)c6ccc3[nH]6)C=C5)C=C4)cc2)C1
REMARK SMILES IDX 20 1 19 2 18 3 16 4 17 5 15 7 12 8 13 9 91 10 14 11 11 12
REMARK SMILES IDX 9 13 10 14 8 16 3 17 4 18 5 19 7 20 6 21 2 22 1 23 21 24
REMARK SMILES IDX 22 25 23 26 24 28 25 29 26 30 90 31 27 32 89 33 28 34 29 35
REMARK SMILES IDX 30 36 83 37 31 38 88 39 82 40 84 41 32 42 87 43 81 44 80 45
REMARK SMILES IDX 33 47 67 48 46 49 66 50 47 51 50 52 65 53 85 54 48 55 49 56
REMARK SMILES IDX 64 58 86 59 51 60 34 61 35 62 44 63 36 64 37 65 43 66 45 67
REMARK SMILES IDX 38 68 39 69 40 70 41 71 42 72 68 73 69 74 78 75 70 76 71 77
REMARK SMILES IDX 77 78 79 79 72 80 73 81 74 82 75 83 76 84 52 85 53 86 62 87
REMARK SMILES IDX 54 88 55 89 61 90 63 91 56 92 57 93 58 94 59 95 60 96
REMARK H PARENT 18 6 11 15 22 27 84 46 50 57
REMARK Flexibility Score: inf
ROOT
ATOM      1  C   UNL A   1      31.585  31.829  26.654  1.00  0.00     0.042 C 
ENDROOT
BRANCH   1   2
ATOM      2  C   UNL A   1      31.929  30.458  26.087  1.00  0.00     0.117 C 
BRANCH   2   3
ATOM      3  N   UNL A   1      31.834  29.342  27.041  1.00  0.00    -0.356 N 
ATOM      4  C   UNL A   1      31.615  27.998  27.060  1.00  0.00     0.227 C 
ATOM      5  O   UNL A   1      31.937  27.467  28.135  1.00  0.00    -0.274 OA
ATOM      6  H   UNL A   1      31.973  29.672  27.958  1.00  0.00     0.163 HD
BRANCH   4   7
ATOM      7  C   UNL A   1      30.872  27.064  25.969  1.00  0.00     0.103 C 
ATOM      8  C   UNL A   1      32.328  24.948  24.029  1.00  0.00     0.106 C 
ATOM      9  C   UNL A   1      30.710  24.135  24.982  1.00  0.00    -0.006 C 
ATOM     10  C   UNL A   1      32.299  26.944  24.484  1.00  0.00     0.047 C 
ATOM     11  C   UNL A   1      29.916  25.261  25.929  1.00  0.00    -0.016 C 
BRANCH   8  12
ATOM     12  N   UNL A   1      32.337  24.492  22.702  1.00  0.00    -0.345 N 
ATOM     13  C   UNL A   1      33.401  23.754  22.388  1.00  0.00     0.268 C 
ATOM     14  O   UNL A   1      33.713  23.464  21.243  1.00  0.00    -0.268 OA
ATOM     15  H   UNL A   1      31.620  24.698  22.060  1.00  0.00     0.164 HD
BRANCH  13  16
ATOM     16  C   UNL A   1      34.041  23.364  23.602  1.00  0.00     0.108 A 
ATOM     17  N   UNL A   1      33.917  21.974  24.301  1.00  0.00    -0.343 N 
ATOM     18  C   UNL A   1      35.381  22.059  24.749  1.00  0.00     0.102 A 
ATOM     19  C   UNL A   1      35.743  23.347  25.031  1.00  0.00     0.036 A 
ATOM     20  C   UNL A   1      34.920  24.177  24.299  1.00  0.00     0.049 A 
ATOM     21  Br  UNL A   1      37.315  23.912  25.879  1.00  0.00    -0.049 Br
BRANCH  17  22
ATOM     22  C   UNL A   1      32.390  20.550  24.442  1.00  0.00     0.119 C 
ATOM     23  C   UNL A   1      32.481  18.813  25.007  1.00  0.00     0.027 C 
ENDBRANCH  17  22
ENDBRANCH  13  16
ENDBRANCH   8  12
ENDBRANCH   4   7
ENDBRANCH   2   3
ENDBRANCH   1   2
BRANCH   1  24
ATOM     24  C   UNL A   1      32.810  32.454  27.267  1.00  0.00     0.118 C 
BRANCH  24  25
ATOM     25  N   UNL A   1      32.556  33.832  27.714  1.00  0.00    -0.352 N 
ATOM     26  C   UNL A   1      33.098  34.473  28.813  1.00  0.00     0.251 C 
ATOM     27  H   UNL A   1      31.929  34.358  27.166  1.00  0.00     0.163 HD
ATOM     28  O   UNL A   1      32.552  35.452  29.305  1.00  0.00    -0.269 OA
BRANCH  26  29
ATOM     29  C   UNL A   1      34.382  33.966  29.323  1.00  0.00     0.039 A 
ATOM     30  C   UNL A   1      34.501  32.858  30.158  1.00  0.00     0.014 A 
ATOM     31  C   UNL A   1      35.512  34.591  28.818  1.00  0.00     0.014 A 
ATOM     32  C   UNL A   1      35.789  32.416  30.476  1.00  0.00     0.010 A 
ATOM     33  C   UNL A   1      36.666  33.868  28.791  1.00  0.00     0.010 A 
ATOM     34  C   UNL A   1      36.897  32.952  29.787  1.00  0.00    -0.014 A 
BRANCH  34  35
ATOM     35  C   UNL A   1      38.233  32.354  29.779  1.00  0.00     0.031 A 
ATOM     36  C   UNL A   1      38.128  30.971  29.260  1.00  0.00     0.074 A 
ATOM     37  C   UNL A   1      39.395  33.017  30.042  1.00  0.00     0.049 A 
ATOM     38  N   UNL A   1      37.938  29.930  30.001  1.00  0.00    -0.248 NA
ATOM     39  C   UNL A   1      37.820  30.720  27.836  1.00  0.00     0.031 C 
ATOM     40  C   UNL A   1      39.604  34.432  30.379  1.00  0.00     0.029 A 
ATOM     41  N   UNL A   1      40.691  32.543  30.043  1.00  0.00    -0.354 N 
ATOM     42  C   UNL A   1      37.945  28.863  29.120  1.00  0.00     0.074 A 
ATOM     43  C   UNL A   1      37.537  29.411  27.858  1.00  0.00     0.031 C 
ATOM     44  C   UNL A   1      40.925  34.747  30.317  1.00  0.00     0.029 A 
ATOM     45  C   UNL A   1      41.697  33.542  30.068  1.00  0.00     0.049 A 
ATOM     46  H   UNL A   1      40.902  31.581  30.027  1.00  0.00     0.167 HD
ATOM     47  C   UNL A   1      38.704  27.776  29.430  1.00  0.00     0.037 A 
ATOM     48  C   UNL A   1      43.057  33.364  29.956  1.00  0.00     0.037 A 
ATOM     49  C   UNL A   1      39.081  27.824  30.831  1.00  0.00     0.049 A 
ATOM     50  C   UNL A   1      43.329  31.950  30.343  1.00  0.00     0.074 A 
ATOM     51  C   UNL A   1      38.394  27.961  32.025  1.00  0.00     0.029 A 
ATOM     52  N   UNL A   1      40.376  28.201  31.092  1.00  0.00    -0.354 N 
ATOM     53  N   UNL A   1      43.153  31.518  31.565  1.00  0.00    -0.248 NA
ATOM     54  C   UNL A   1      43.176  30.956  29.291  1.00  0.00     0.031 C 
ATOM     55  C   UNL A   1      39.188  28.849  32.811  1.00  0.00     0.029 A 
ATOM     56  C   UNL A   1      40.384  29.086  32.136  1.00  0.00     0.049 A 
ATOM     57  H   UNL A   1      41.172  27.886  30.606  1.00  0.00     0.167 HD
ATOM     58  C   UNL A   1      42.377  30.380  31.409  1.00  0.00     0.074 A 
ATOM     59  C   UNL A   1      42.442  30.072  29.974  1.00  0.00     0.031 C 
ATOM     60  C   UNL A   1      41.479  29.999  32.367  1.00  0.00     0.037 A 
BRANCH  47  61
ATOM     61  C   UNL A   1      39.532  26.999  28.427  1.00  0.00     0.058 A 
ATOM     62  C   UNL A   1      39.532  25.591  28.523  1.00  0.00     0.135 A 
ATOM     63  C   UNL A   1      40.539  27.550  27.601  1.00  0.00     0.135 A 
ATOM     64  F   UNL A   1      38.628  24.959  29.288  1.00  0.00    -0.206 F 
ATOM     65  C   UNL A   1      40.502  24.800  27.914  1.00  0.00     0.059 A 
ATOM     66  C   UNL A   1      41.486  26.774  26.945  1.00  0.00     0.059 A 
ATOM     67  F   UNL A   1      40.715  28.864  27.443  1.00  0.00    -0.206 F 
ATOM     68  C   UNL A   1      41.476  25.402  27.125  1.00  0.00     0.060 A 
BRANCH  68  69
ATOM     69  S   UNL A   1      42.719  24.376  26.328  1.00  0.00     0.124 S 
ATOM     70  O   UNL A   1      43.770  24.348  27.336  1.00  0.00    -0.237 OA
ATOM     71  O   UNL A   1      41.984  23.129  26.131  1.00  0.00    -0.237 OA
ATOM     72  O   UNL A   1      43.027  25.113  25.106  1.00  0.00    -0.744 OA
ENDBRANCH  68  69
ENDBRANCH  47  61
BRANCH  48  73
ATOM     73  C   UNL A   1      44.084  34.172  29.203  1.00  0.00     0.058 A 
ATOM     74  C   UNL A   1      45.432  34.308  29.625  1.00  0.00     0.135 A 
ATOM     75  C   UNL A   1      43.836  34.570  27.878  1.00  0.00     0.135 A 
ATOM     76  F   UNL A   1      45.788  33.960  30.872  1.00  0.00    -0.206 F 
ATOM     77  C   UNL A   1      46.466  34.736  28.764  1.00  0.00     0.059 A 
ATOM     78  C   UNL A   1      44.844  34.995  27.006  1.00  0.00     0.059 A 
ATOM     79  F   UNL A   1      42.609  34.467  27.351  1.00  0.00    -0.206 F 
ATOM     80  C   UNL A   1      46.163  35.046  27.440  1.00  0.00     0.060 A 
BRANCH  80  81
ATOM     81  S   UNL A   1      47.485  35.377  26.238  1.00  0.00     0.124 S 
ATOM     82  O   UNL A   1      47.079  34.567  25.095  1.00  0.00    -0.237 OA
ATOM     83  O   UNL A   1      47.393  36.822  26.058  1.00  0.00    -0.237 OA
ATOM     84  O   UNL A   1      48.690  34.919  26.927  1.00  0.00    -0.744 OA
ENDBRANCH  80  81
ENDBRANCH  48  73
BRANCH  60  85
ATOM     85  C   UNL A   1      41.547  30.651  33.724  1.00  0.00     0.058 A 
ATOM     86  C   UNL A   1      40.901  31.845  34.099  1.00  0.00     0.135 A 
ATOM     87  C   UNL A   1      42.219  29.949  34.734  1.00  0.00     0.135 A 
ATOM     88  F   UNL A   1      40.124  32.511  33.231  1.00  0.00    -0.206 F 
ATOM     89  C   UNL A   1      40.994  32.355  35.398  1.00  0.00     0.059 A 
ATOM     90  C   UNL A   1      42.296  30.416  36.039  1.00  0.00     0.059 A 
ATOM     91  F   UNL A   1      42.788  28.762  34.464  1.00  0.00    -0.206 F 
ATOM     92  C   UNL A   1      41.712  31.638  36.357  1.00  0.00     0.060 A 
BRANCH  92  93
ATOM     93  S   UNL A   1      41.882  32.301  38.028  1.00  0.00     0.124 S 
ATOM     94  O   UNL A   1      42.701  31.283  38.678  1.00  0.00    -0.237 OA
ATOM     95  O   UNL A   1      42.531  33.587  37.794  1.00  0.00    -0.237 OA
ATOM     96  O   UNL A   1      40.502  32.386  38.503  1.00  0.00    -0.744 OA
ENDBRANCH  92  93
ENDBRANCH  60  85
ENDBRANCH  34  35
ENDBRANCH  26  29
ENDBRANCH  24  25
ENDBRANCH   1  24
TORSDOF 16
ENDMDL
MODEL 2
REMARK VINA RESULT:     -12.5      3.854      9.132
REMARK SMILES CCn1cc(Br)cc1C(=O)N[C@@H]1C=C[C@@H](C(=O)NCCCNC(=O)c2ccc(-c3c4nc(c(-c5c(F)cc(S(=O)(=O)[O-])cc5F)c5ccc([nH]5)c(-c5c(F)cc(S(=O)(=O)[O-])cc5F)c5nc(c(-c6c(F)cc(S(=O)(=O)[O-])cc6F)c6ccc3[nH]6)C=C5)C=C4)cc2)C1
REMARK SMILES IDX 20 1 19 2 18 3 16 4 17 5 15 7 12 8 13 9 91 10 14 11 11 12
REMARK SMILES IDX 9 13 10 14 8 16 3 17 4 18 5 19 7 20 6 21 2 22 1 23 21 24
REMARK SMILES IDX 22 25 23 26 24 28 25 29 26 30 90 31 27 32 89 33 28 34 29 35
REMARK SMILES IDX 30 36 83 37 31 38 88 39 82 40 84 41 32 42 87 43 81 44 80 45
REMARK SMILES IDX 33 47 67 48 46 49 66 50 47 51 50 52 65 53 85 54 48 55 49 56
REMARK SMILES IDX 64 58 86 59 51 60 34 61 35 62 44 63 36 64 37 65 43 66 45 67
REMARK SMILES IDX 38 68 39 69 40 70 41 71 42 72 68 73 69 74 78 75 70 76 71 77
REMARK SMILES IDX 77 78 79 79 72 80 73 81 74 82 75 83 76 84 52 85 53 86 62 87
REMARK SMILES IDX 54 88 55 89 61 90 63 91 56 92 57 93 58 94 59 95 60 96
REMARK H PARENT 18 6 11 15 22 27 84 46 50 57
REMARK Flexibility Score: inf
ROOT
ATOM      1  C   UNL A   1      40.676  20.400  26.457  1.00  0.00     0.042 C 
ENDROOT
BRANCH   1   2
ATOM      2  C   UNL A   1      40.083  21.742  26.868  1.00  0.00     0.117 C 
BRANCH   2   3
ATOM      3  N   UNL A   1      39.213  22.377  25.865  1.00  0.00    -0.356 N 
ATOM      4  C   UNL A   1      37.897  22.462  25.526  1.00  0.00     0.227 C 
ATOM      5  O   UNL A   1      37.655  23.395  24.744  1.00  0.00    -0.274 OA
ATOM      6  H   UNL A   1      39.756  22.911  25.241  1.00  0.00     0.163 HD
BRANCH   4   7
ATOM      7  C   UNL A   1      36.682  21.451  25.867  1.00  0.00     0.103 C 
ATOM      8  C   UNL A   1      33.558  22.228  25.865  1.00  0.00     0.106 C 
ATOM      9  C   UNL A   1      33.928  20.515  24.809  1.00  0.00    -0.006 C 
ATOM     10  C   UNL A   1      35.328  22.720  26.770  1.00  0.00     0.047 C 
ATOM     11  C   UNL A   1      35.541  20.078  24.878  1.00  0.00    -0.016 C 
BRANCH   8  12
ATOM     12  N   UNL A   1      32.376  22.050  26.600  1.00  0.00    -0.345 N 
ATOM     13  C   UNL A   1      31.674  23.169  26.780  1.00  0.00     0.268 C 
ATOM     14  O   UNL A   1      30.756  23.272  27.579  1.00  0.00    -0.268 OA
ATOM     15  H   UNL A   1      32.090  21.176  26.951  1.00  0.00     0.164 HD
BRANCH  13  16
ATOM     16  C   UNL A   1      32.169  24.150  25.871  1.00  0.00     0.108 A 
ATOM     17  N   UNL A   1      31.750  24.311  24.376  1.00  0.00    -0.343 N 
ATOM     18  C   UNL A   1      31.875  25.835  24.497  1.00  0.00     0.102 A 
ATOM     19  C   UNL A   1      32.884  26.188  25.347  1.00  0.00     0.036 A 
ATOM     20  C   UNL A   1      33.065  25.144  26.230  1.00  0.00     0.049 A 
ATOM     21  Br  UNL A   1      33.600  27.902  25.592  1.00  0.00    -0.049 Br
BRANCH  17  22
ATOM     22  C   UNL A   1      31.154  22.974  22.882  1.00  0.00     0.119 C 
ATOM     23  C   UNL A   1      32.016  21.490  22.250  1.00  0.00     0.027 C 
ENDBRANCH  17  22
ENDBRANCH  13  16
ENDBRANCH   8  12
ENDBRANCH   4   7
ENDBRANCH   2   3
ENDBRANCH   1   2
BRANCH   1  24
ATOM     24  C   UNL A   1      41.932  20.130  27.242  1.00  0.00     0.118 C 
BRANCH  24  25
ATOM     25  N   UNL A   1      43.036  19.693  26.375  1.00  0.00    -0.352 N 
ATOM     26  C   UNL A   1      43.739  20.456  25.460  1.00  0.00     0.251 C 
ATOM     27  H   UNL A   1      43.305  18.749  26.456  1.00  0.00     0.163 HD
ATOM     28  O   UNL A   1      44.357  19.931  24.544  1.00  0.00    -0.269 OA
BRANCH  26  29
ATOM     29  C   UNL A   1      43.761  21.912  25.672  1.00  0.00     0.039 A 
ATOM     30  C   UNL A   1      43.097  22.824  24.856  1.00  0.00     0.014 A 
ATOM     31  C   UNL A   1      44.392  22.337  26.832  1.00  0.00     0.014 A 
ATOM     32  C   UNL A   1      43.106  24.169  25.237  1.00  0.00     0.010 A 
ATOM     33  C   UNL A   1      43.991  23.524  27.363  1.00  0.00     0.010 A 
ATOM     34  C   UNL A   1      43.586  24.525  26.515  1.00  0.00    -0.014 A 
BRANCH  34  35
ATOM     35  C   UNL A   1      43.345  25.818  27.157  1.00  0.00     0.031 A 
ATOM     36  C   UNL A   1      44.395  26.766  26.716  1.00  0.00     0.074 A 
ATOM     37  C   UNL A   1      42.247  26.140  27.897  1.00  0.00     0.049 A 
ATOM     38  N   UNL A   1      45.515  26.948  27.334  1.00  0.00    -0.248 NA
ATOM     39  C   UNL A   1      44.424  27.269  25.327  1.00  0.00     0.031 C 
ATOM     40  C   UNL A   1      41.072  25.320  28.224  1.00  0.00     0.029 A 
ATOM     41  N   UNL A   1      41.930  27.328  28.523  1.00  0.00    -0.354 N 
ATOM     42  C   UNL A   1      46.163  27.932  26.610  1.00  0.00     0.074 A 
ATOM     43  C   UNL A   1      45.639  27.831  25.278  1.00  0.00     0.031 C 
ATOM     44  C   UNL A   1      40.090  26.087  28.767  1.00  0.00     0.029 A 
ATOM     45  C   UNL A   1      40.587  27.437  28.964  1.00  0.00     0.049 A 
ATOM     46  H   UNL A   1      42.590  28.048  28.654  1.00  0.00     0.167 HD
ATOM     47  C   UNL A   1      46.705  28.980  27.290  1.00  0.00     0.037 A 
ATOM     48  C   UNL A   1      39.971  28.543  29.505  1.00  0.00     0.037 A 
ATOM     49  C   UNL A   1      46.798  28.654  28.702  1.00  0.00     0.049 A 
ATOM     50  C   UNL A   1      41.059  29.409  30.043  1.00  0.00     0.074 A 
ATOM     51  C   UNL A   1      47.343  27.613  29.431  1.00  0.00     0.029 A 
ATOM     52  N   UNL A   1      45.858  29.238  29.516  1.00  0.00    -0.354 N 
ATOM     53  N   UNL A   1      41.794  29.049  31.062  1.00  0.00    -0.248 NA
ATOM     54  C   UNL A   1      41.692  30.308  29.089  1.00  0.00     0.031 C 
ATOM     55  C   UNL A   1      46.385  27.333  30.452  1.00  0.00     0.029 A 
ATOM     56  C   UNL A   1      45.388  28.304  30.400  1.00  0.00     0.049 A 
ATOM     57  H   UNL A   1      45.567  30.178  29.471  1.00  0.00     0.167 HD
ATOM     58  C   UNL A   1      43.095  29.236  30.619  1.00  0.00     0.074 A 
ATOM     59  C   UNL A   1      42.966  30.038  29.395  1.00  0.00     0.031 C 
ATOM     60  C   UNL A   1      44.115  28.444  31.068  1.00  0.00     0.037 A 
BRANCH  47  61
ATOM     61  C   UNL A   1      46.647  30.421  26.825  1.00  0.00     0.058 A 
ATOM     62  C   UNL A   1      47.827  31.190  26.912  1.00  0.00     0.135 A 
ATOM     63  C   UNL A   1      45.461  31.157  26.599  1.00  0.00     0.135 A 
ATOM     64  F   UNL A   1      49.011  30.599  27.136  1.00  0.00    -0.206 F 
ATOM     65  C   UNL A   1      47.820  32.582  26.861  1.00  0.00     0.059 A 
ATOM     66  C   UNL A   1      45.439  32.542  26.497  1.00  0.00     0.059 A 
ATOM     67  F   UNL A   1      44.252  30.592  26.546  1.00  0.00    -0.206 F 
ATOM     68  C   UNL A   1      46.618  33.249  26.652  1.00  0.00     0.060 A 
BRANCH  68  69
ATOM     69  S   UNL A   1      46.614  35.045  26.571  1.00  0.00     0.124 S 
ATOM     70  O   UNL A   1      47.881  35.313  25.902  1.00  0.00    -0.237 OA
ATOM     71  O   UNL A   1      45.408  35.297  25.787  1.00  0.00    -0.237 OA
ATOM     72  O   UNL A   1      46.536  35.443  27.972  1.00  0.00    -0.744 OA
ENDBRANCH  68  69
ENDBRANCH  47  61
BRANCH  48  73
ATOM     73  C   UNL A   1      38.585  29.091  29.277  1.00  0.00     0.058 A 
ATOM     74  C   UNL A   1      37.691  29.415  30.331  1.00  0.00     0.135 A 
ATOM     75  C   UNL A   1      38.227  29.606  28.019  1.00  0.00     0.135 A 
ATOM     76  F   UNL A   1      37.929  28.978  31.578  1.00  0.00    -0.206 F 
ATOM     77  C   UNL A   1      36.569  30.254  30.154  1.00  0.00     0.059 A 
ATOM     78  C   UNL A   1      37.122  30.439  27.820  1.00  0.00     0.059 A 
ATOM     79  F   UNL A   1      39.002  29.392  26.948  1.00  0.00    -0.206 F 
ATOM     80  C   UNL A   1      36.313  30.790  28.894  1.00  0.00     0.060 A 
BRANCH  80  81
ATOM     81  S   UNL A   1      35.023  32.050  28.665  1.00  0.00     0.124 S 
ATOM     82  O   UNL A   1      35.647  32.966  27.718  1.00  0.00    -0.237 OA
ATOM     83  O   UNL A   1      33.905  31.267  28.151  1.00  0.00    -0.237 OA
ATOM     84  O   UNL A   1      34.832  32.585  30.012  1.00  0.00    -0.744 OA
ENDBRANCH  80  81
ENDBRANCH  48  73
BRANCH  60  85
ATOM     85  C   UNL A   1      43.876  27.564  32.267  1.00  0.00     0.058 A 
ATOM     86  C   UNL A   1      43.713  26.165  32.245  1.00  0.00     0.135 A 
ATOM     87  C   UNL A   1      43.935  28.176  33.528  1.00  0.00     0.135 A 
ATOM     88  F   UNL A   1      43.780  25.482  31.094  1.00  0.00    -0.206 F 
ATOM     89  C   UNL A   1      43.532  25.427  33.420  1.00  0.00     0.059 A 
ATOM     90  C   UNL A   1      43.793  27.461  34.709  1.00  0.00     0.059 A 
ATOM     91  F   UNL A   1      44.170  29.495  33.623  1.00  0.00    -0.206 F 
ATOM     92  C   UNL A   1      43.556  26.092  34.647  1.00  0.00     0.060 A 
BRANCH  92  93
ATOM     93  S   UNL A   1      43.279  25.164  36.171  1.00  0.00     0.124 S 
ATOM     94  O   UNL A   1      42.264  25.972  36.840  1.00  0.00    -0.237 OA
ATOM     95  O   UNL A   1      42.833  23.865  35.677  1.00  0.00    -0.237 OA
ATOM     96  O   UNL A   1      44.593  25.161  36.812  1.00  0.00    -0.744 OA
ENDBRANCH  92  93
ENDBRANCH  60  85
ENDBRANCH  34  35
ENDBRANCH  26  29
ENDBRANCH  24  25
ENDBRANCH   1  24
TORSDOF 16
ENDMDL
MODEL 3
REMARK VINA RESULT:     -12.4      3.217      8.079
REMARK SMILES CCn1cc(Br)cc1C(=O)N[C@@H]1C=C[C@@H](C(=O)NCCCNC(=O)c2ccc(-c3c4nc(c(-c5c(F)cc(S(=O)(=O)[O-])cc5F)c5ccc([nH]5)c(-c5c(F)cc(S(=O)(=O)[O-])cc5F)c5nc(c(-c6c(F)cc(S(=O)(=O)[O-])cc6F)c6ccc3[nH]6)C=C5)C=C4)cc2)C1
REMARK SMILES IDX 20 1 19 2 18 3 16 4 17 5 15 7 12 8 13 9 91 10 14 11 11 12
REMARK SMILES IDX 9 13 10 14 8 16 3 17 4 18 5 19 7 20 6 21 2 22 1 23 21 24
REMARK SMILES IDX 22 25 23 26 24 28 25 29 26 30 90 31 27 32 89 33 28 34 29 35
REMARK SMILES IDX 30 36 83 37 31 38 88 39 82 40 84 41 32 42 87 43 81 44 80 45
REMARK SMILES IDX 33 47 67 48 46 49 66 50 47 51 50 52 65 53 85 54 48 55 49 56
REMARK SMILES IDX 64 58 86 59 51 60 34 61 35 62 44 63 36 64 37 65 43 66 45 67
REMARK SMILES IDX 38 68 39 69 40 70 41 71 42 72 68 73 69 74 78 75 70 76 71 77
REMARK SMILES IDX 77 78 79 79 72 80 73 81 74 82 75 83 76 84 52 85 53 86 62 87
REMARK SMILES IDX 54 88 55 89 61 90 63 91 56 92 57 93 58 94 59 95 60 96
REMARK H PARENT 18 6 11 15 22 27 84 46 50 57
REMARK Flexibility Score: inf
ROOT
ATOM      1  C   UNL A   1      36.829  22.202  25.585  1.00  0.00     0.042 C 
ENDROOT
BRANCH   1   2
ATOM      2  C   UNL A   1      36.019  23.304  26.259  1.00  0.00     0.117 C 
BRANCH   2   3
ATOM      3  N   UNL A   1      34.930  22.839  27.131  1.00  0.00    -0.356 N 
ATOM      4  C   UNL A   1      33.743  22.175  27.058  1.00  0.00     0.227 C 
ATOM      5  O   UNL A   1      33.341  21.774  28.162  1.00  0.00    -0.274 OA
ATOM      6  H   UNL A   1      35.119  23.087  28.065  1.00  0.00     0.163 HD
BRANCH   4   7
ATOM      7  C   UNL A   1      32.748  21.987  25.797  1.00  0.00     0.103 C 
ATOM      8  C   UNL A   1      31.321  24.378  24.182  1.00  0.00     0.106 C 
ATOM      9  C   UNL A   1      32.229  23.037  22.932  1.00  0.00    -0.006 C 
ATOM     10  C   UNL A   1      31.446  23.568  26.058  1.00  0.00     0.047 C 
ATOM     11  C   UNL A   1      32.903  21.759  23.775  1.00  0.00    -0.016 C 
BRANCH   8  12
ATOM     12  N   UNL A   1      30.090  24.748  23.616  1.00  0.00    -0.345 N 
ATOM     13  C   UNL A   1      29.731  26.006  23.871  1.00  0.00     0.268 C 
ATOM     14  O   UNL A   1      28.608  26.444  23.675  1.00  0.00    -0.268 OA
ATOM     15  H   UNL A   1      29.541  24.132  23.079  1.00  0.00     0.164 HD
BRANCH  13  16
ATOM     16  C   UNL A   1      30.878  26.702  24.356  1.00  0.00     0.108 A 
ATOM     17  N   UNL A   1      32.087  27.191  23.497  1.00  0.00    -0.343 N 
ATOM     18  C   UNL A   1      32.219  28.439  24.380  1.00  0.00     0.102 A 
ATOM     19  C   UNL A   1      31.898  28.166  25.680  1.00  0.00     0.036 A 
ATOM     20  C   UNL A   1      31.038  27.088  25.676  1.00  0.00     0.049 A 
ATOM     21  Br  UNL A   1      32.180  29.275  27.164  1.00  0.00    -0.049 Br
BRANCH  17  22
ATOM     22  C   UNL A   1      33.033  26.471  21.776  1.00  0.00     0.119 C 
ATOM     23  C   UNL A   1      32.309  25.600  20.340  1.00  0.00     0.027 C 
ENDBRANCH  17  22
ENDBRANCH  13  16
ENDBRANCH   8  12
ENDBRANCH   4   7
ENDBRANCH   2   3
ENDBRANCH   1   2
BRANCH   1  24
ATOM     24  C   UNL A   1      38.277  22.607  25.500  1.00  0.00     0.118 C 
BRANCH  24  25
ATOM     25  N   UNL A   1      39.109  21.862  26.456  1.00  0.00    -0.352 N 
ATOM     26  C   UNL A   1      40.207  22.329  27.156  1.00  0.00     0.251 C 
ATOM     27  H   UNL A   1      38.856  20.924  26.615  1.00  0.00     0.163 HD
ATOM     28  O   UNL A   1      41.036  21.556  27.617  1.00  0.00    -0.269 OA
BRANCH  26  29
ATOM     29  C   UNL A   1      40.299  23.782  27.374  1.00  0.00     0.039 A 
ATOM     30  C   UNL A   1      39.243  24.665  27.166  1.00  0.00     0.014 A 
ATOM     31  C   UNL A   1      41.488  24.227  27.932  1.00  0.00     0.014 A 
ATOM     32  C   UNL A   1      39.432  26.004  27.522  1.00  0.00     0.010 A 
ATOM     33  C   UNL A   1      41.448  25.384  28.648  1.00  0.00     0.010 A 
ATOM     34  C   UNL A   1      40.574  26.371  28.263  1.00  0.00    -0.014 A 
BRANCH  34  35
ATOM     35  C   UNL A   1      40.725  27.641  28.975  1.00  0.00     0.031 A 
ATOM     36  C   UNL A   1      41.814  28.414  28.334  1.00  0.00     0.074 A 
ATOM     37  C   UNL A   1      39.891  28.103  29.950  1.00  0.00     0.049 A 
ATOM     38  N   UNL A   1      43.055  28.353  28.690  1.00  0.00    -0.248 NA
ATOM     39  C   UNL A   1      41.637  28.994  26.986  1.00  0.00     0.031 C 
ATOM     40  C   UNL A   1      38.682  27.484  30.510  1.00  0.00     0.029 A 
ATOM     41  N   UNL A   1      39.946  29.284  30.660  1.00  0.00    -0.354 N 
ATOM     42  C   UNL A   1      43.704  29.252  27.865  1.00  0.00     0.074 A 
ATOM     43  C   UNL A   1      42.896  29.333  26.682  1.00  0.00     0.031 C 
ATOM     44  C   UNL A   1      38.002  28.376  31.278  1.00  0.00     0.029 A 
ATOM     45  C   UNL A   1      38.774  29.601  31.393  1.00  0.00     0.049 A 
ATOM     46  H   UNL A   1      40.741  29.866  30.658  1.00  0.00     0.167 HD
ATOM     47  C   UNL A   1      44.567  30.140  28.432  1.00  0.00     0.037 A 
ATOM     48  C   UNL A   1      38.507  30.760  32.085  1.00  0.00     0.037 A 
ATOM     49  C   UNL A   1      44.899  29.711  29.779  1.00  0.00     0.049 A 
ATOM     50  C   UNL A   1      39.828  31.383  32.388  1.00  0.00     0.074 A 
ATOM     51  C   UNL A   1      45.382  28.543  30.342  1.00  0.00     0.029 A 
ATOM     52  N   UNL A   1      44.282  30.397  30.796  1.00  0.00    -0.354 N 
ATOM     53  N   UNL A   1      40.685  30.831  33.207  1.00  0.00    -0.248 NA
ATOM     54  C   UNL A   1      40.399  32.215  31.339  1.00  0.00     0.031 C 
ATOM     55  C   UNL A   1      44.631  28.371  31.543  1.00  0.00     0.029 A 
ATOM     56  C   UNL A   1      43.846  29.506  31.740  1.00  0.00     0.049 A 
ATOM     57  H   UNL A   1      44.170  31.374  30.841  1.00  0.00     0.167 HD
ATOM     58  C   UNL A   1      41.871  30.813  32.489  1.00  0.00     0.074 A 
ATOM     59  C   UNL A   1      41.635  31.704  31.346  1.00  0.00     0.031 C 
ATOM     60  C   UNL A   1      42.797  29.824  32.678  1.00  0.00     0.037 A 
BRANCH  47  61
ATOM     61  C   UNL A   1      44.681  31.596  28.028  1.00  0.00     0.058 A 
ATOM     62  C   UNL A   1      45.945  32.067  27.613  1.00  0.00     0.135 A 
ATOM     63  C   UNL A   1      43.726  32.598  28.313  1.00  0.00     0.135 A 
ATOM     64  F   UNL A   1      46.934  31.206  27.326  1.00  0.00    -0.206 F 
ATOM     65  C   UNL A   1      46.260  33.423  27.564  1.00  0.00     0.059 A 
ATOM     66  C   UNL A   1      44.005  33.956  28.224  1.00  0.00     0.059 A 
ATOM     67  F   UNL A   1      42.500  32.328  28.770  1.00  0.00    -0.206 F 
ATOM     68  C   UNL A   1      45.280  34.361  27.872  1.00  0.00     0.060 A 
BRANCH  68  69
ATOM     69  S   UNL A   1      45.685  36.111  27.792  1.00  0.00     0.124 S 
ATOM     70  O   UNL A   1      44.834  36.658  28.842  1.00  0.00    -0.237 OA
ATOM     71  O   UNL A   1      47.118  36.091  28.072  1.00  0.00    -0.237 OA
ATOM     72  O   UNL A   1      45.325  36.476  26.426  1.00  0.00    -0.744 OA
ENDBRANCH  68  69
ENDBRANCH  47  61
BRANCH  48  73
ATOM     73  C   UNL A   1      37.233  31.560  32.186  1.00  0.00     0.058 A 
ATOM     74  C   UNL A   1      36.744  32.096  33.406  1.00  0.00     0.135 A 
ATOM     75  C   UNL A   1      36.633  32.082  31.028  1.00  0.00     0.135 A 
ATOM     76  F   UNL A   1      37.242  31.673  34.579  1.00  0.00    -0.206 F 
ATOM     77  C   UNL A   1      35.784  33.130  33.459  1.00  0.00     0.059 A 
ATOM     78  C   UNL A   1      35.682  33.107  31.055  1.00  0.00     0.059 A 
ATOM     79  F   UNL A   1      37.025  31.676  29.813  1.00  0.00    -0.206 F 
ATOM     80  C   UNL A   1      35.283  33.654  32.269  1.00  0.00     0.060 A 
BRANCH  80  81
ATOM     81  S   UNL A   1      34.225  35.132  32.277  1.00  0.00     0.124 S 
ATOM     82  O   UNL A   1      34.988  36.057  33.107  1.00  0.00    -0.237 OA
ATOM     83  O   UNL A   1      34.143  35.468  30.859  1.00  0.00    -0.237 OA
ATOM     84  O   UNL A   1      32.978  34.650  32.867  1.00  0.00    -0.744 OA
ENDBRANCH  80  81
ENDBRANCH  48  73
BRANCH  60  85
ATOM     85  C   UNL A   1      42.661  28.924  33.879  1.00  0.00     0.058 A 
ATOM     86  C   UNL A   1      43.078  29.227  35.189  1.00  0.00     0.135 A 
ATOM     87  C   UNL A   1      41.954  27.726  33.699  1.00  0.00     0.135 A 
ATOM     88  F   UNL A   1      43.641  30.410  35.477  1.00  0.00    -0.206 F 
ATOM     89  C   UNL A   1      42.875  28.338  36.250  1.00  0.00     0.059 A 
ATOM     90  C   UNL A   1      41.709  26.844  34.743  1.00  0.00     0.059 A 
ATOM     91  F   UNL A   1      41.456  27.415  32.491  1.00  0.00    -0.206 F 
ATOM     92  C   UNL A   1      42.203  27.139  36.009  1.00  0.00     0.060 A 
BRANCH  92  93
ATOM     93  S   UNL A   1      41.970  25.958  37.355  1.00  0.00     0.124 S 
ATOM     94  O   UNL A   1      40.551  26.115  37.657  1.00  0.00    -0.237 OA
ATOM     95  O   UNL A   1      42.353  24.692  36.738  1.00  0.00    -0.237 OA
ATOM     96  O   UNL A   1      42.883  26.438  38.391  1.00  0.00    -0.744 OA
ENDBRANCH  92  93
ENDBRANCH  60  85
ENDBRANCH  34  35
ENDBRANCH  26  29
ENDBRANCH  24  25
ENDBRANCH   1  24
TORSDOF 16
ENDMDL
