MODEL 1
REMARK VINA RESULT:     -10.3      0.000      0.000
REMARK SMILES O=C(NCCCNC(=O)c1ccc(N2C(=O)/C(=C\c3ccc4c(c3)OCO4)[NH+]=C2c2ccccc2)cc1)c1ccc(-c2c3nc(c(-c4c(F)cc(S(=O)(=O)[O-])cc4F)c4ccc([nH]4)c(-c4c(F)cc(S(=O)(=O)[O-])cc4F)c4nc(c(-c5c(F)cc(S(=O)(=O)[O-])cc5F)c5ccc2[nH]5)C=C4)C=C3)cc1
REMARK SMILES IDX 4 1 3 2 1 3 2 4 38 6 39 7 103 8 40 9 102 10 41 11 42 12
REMARK SMILES IDX 43 13 96 14 44 15 101 16 95 17 97 18 45 19 100 20 94 21
REMARK SMILES IDX 93 22 46 24 80 25 59 26 79 27 60 28 63 29 78 30 98 31 61 32
REMARK SMILES IDX 62 33 77 35 99 36 64 37 47 38 48 39 57 40 49 41 50 42 56 43
REMARK SMILES IDX 58 44 51 45 52 46 53 47 54 48 55 49 81 50 82 51 91 52 83 53
REMARK SMILES IDX 84 54 90 55 92 56 85 57 86 58 87 59 88 60 89 61 65 62 66 63
REMARK SMILES IDX 75 64 67 65 68 66 74 67 76 68 69 69 70 70 71 71 72 72 73 73
REMARK SMILES IDX 5 74 6 75 7 76 8 77 9 79 10 80 11 81 37 82 12 83 36 84 13 85
REMARK SMILES IDX 14 86 15 87 29 88 16 89 17 90 28 91 18 92 30 94 31 95 35 96
REMARK SMILES IDX 32 97 34 98 33 99 19 100 20 101 24 102 21 103 23 104 22 105
REMARK SMILES IDX 25 106 27 107 26 108
REMARK H PARENT 3 5 97 23 63 34 7 78 28 93
REMARK Flexibility Score: inf
ROOT
ATOM      1  C   UNL A   1      34.881  32.485  29.183  1.00  0.00     0.118 C 
ENDROOT
BRANCH   1   2
ATOM      2  N   UNL A   1      34.240  31.306  28.619  1.00  0.00    -0.352 N 
ATOM      3  O   UNL A   1      34.065  29.351  27.531  1.00  0.00    -0.269 OA
ATOM      4  C   UNL A   1      34.783  30.137  28.147  1.00  0.00     0.251 C 
ATOM      5  H   UNL A   1      33.258  31.356  28.568  1.00  0.00     0.163 HD
BRANCH   4   6
ATOM      6  C   UNL A   1      36.214  29.824  28.351  1.00  0.00     0.039 A 
ATOM      7  C   UNL A   1      37.161  30.049  27.348  1.00  0.00     0.014 A 
ATOM      8  C   UNL A   1      36.624  29.345  29.599  1.00  0.00     0.014 A 
ATOM      9  C   UNL A   1      38.489  29.677  27.544  1.00  0.00     0.010 A 
ATOM     10  C   UNL A   1      37.970  29.042  29.821  1.00  0.00     0.010 A 
ATOM     11  C   UNL A   1      38.909  29.179  28.787  1.00  0.00    -0.014 A 
BRANCH  11  12
ATOM     12  C   UNL A   1      40.337  28.846  29.021  1.00  0.00     0.031 A 
ATOM     13  C   UNL A   1      41.285  29.878  29.560  1.00  0.00     0.074 A 
ATOM     14  C   UNL A   1      40.785  27.616  28.706  1.00  0.00     0.049 A 
ATOM     15  N   UNL A   1      42.579  29.798  29.739  1.00  0.00    -0.248 NA
ATOM     16  C   UNL A   1      40.705  31.176  29.941  1.00  0.00     0.031 C 
ATOM     17  C   UNL A   1      39.961  26.532  28.167  1.00  0.00     0.029 A 
ATOM     18  N   UNL A   1      42.044  27.074  28.774  1.00  0.00    -0.354 N 
ATOM     19  C   UNL A   1      42.974  31.039  30.223  1.00  0.00     0.074 A 
ATOM     20  C   UNL A   1      41.784  31.860  30.293  1.00  0.00     0.031 C 
ATOM     21  C   UNL A   1      40.732  25.457  27.954  1.00  0.00     0.029 A 
ATOM     22  C   UNL A   1      42.114  25.792  28.286  1.00  0.00     0.049 A 
ATOM     23  H   UNL A   1      42.821  27.557  29.137  1.00  0.00     0.167 HD
ATOM     24  C   UNL A   1      44.215  31.452  30.577  1.00  0.00     0.037 A 
ATOM     25  C   UNL A   1      43.174  24.984  28.089  1.00  0.00     0.037 A 
ATOM     26  C   UNL A   1      45.392  30.623  30.509  1.00  0.00     0.049 A 
ATOM     27  C   UNL A   1      44.544  25.466  28.466  1.00  0.00     0.074 A 
ATOM     28  C   UNL A   1      46.687  30.935  30.883  1.00  0.00     0.029 A 
ATOM     29  N   UNL A   1      45.418  29.322  30.023  1.00  0.00    -0.354 N 
ATOM     30  N   UNL A   1      44.897  26.628  28.960  1.00  0.00    -0.248 NA
ATOM     31  C   UNL A   1      45.660  24.533  28.263  1.00  0.00     0.031 C 
ATOM     32  C   UNL A   1      47.504  29.838  30.583  1.00  0.00     0.029 A 
ATOM     33  C   UNL A   1      46.710  28.826  30.067  1.00  0.00     0.049 A 
ATOM     34  H   UNL A   1      44.633  28.827  29.695  1.00  0.00     0.167 HD
ATOM     35  C   UNL A   1      46.271  26.560  29.148  1.00  0.00     0.074 A 
ATOM     36  C   UNL A   1      46.688  25.241  28.715  1.00  0.00     0.031 C 
ATOM     37  C   UNL A   1      47.109  27.505  29.642  1.00  0.00     0.037 A 
BRANCH  24  38
ATOM     38  C   UNL A   1      44.365  32.877  31.035  1.00  0.00     0.058 A 
ATOM     39  C   UNL A   1      44.201  33.246  32.380  1.00  0.00     0.135 A 
ATOM     40  C   UNL A   1      44.673  33.891  30.113  1.00  0.00     0.135 A 
ATOM     41  F   UNL A   1      43.896  32.319  33.303  1.00  0.00    -0.206 F 
ATOM     42  C   UNL A   1      44.287  34.574  32.786  1.00  0.00     0.059 A 
ATOM     43  C   UNL A   1      44.789  35.223  30.501  1.00  0.00     0.059 A 
ATOM     44  F   UNL A   1      44.848  33.595  28.816  1.00  0.00    -0.206 F 
ATOM     45  C   UNL A   1      44.568  35.557  31.836  1.00  0.00     0.060 A 
BRANCH  45  46
ATOM     46  S   UNL A   1      44.619  37.282  32.365  1.00  0.00     0.124 S 
ATOM     47  O   UNL A   1      44.569  37.978  31.083  1.00  0.00    -0.237 OA
ATOM     48  O   UNL A   1      43.421  37.394  33.192  1.00  0.00    -0.237 OA
ATOM     49  O   UNL A   1      45.884  37.380  33.086  1.00  0.00    -0.744 OA
ENDBRANCH  45  46
ENDBRANCH  24  38
BRANCH  25  50
ATOM     50  C   UNL A   1      42.951  23.641  27.495  1.00  0.00     0.058 A 
ATOM     51  C   UNL A   1      43.185  23.405  26.135  1.00  0.00     0.135 A 
ATOM     52  C   UNL A   1      42.597  22.547  28.302  1.00  0.00     0.135 A 
ATOM     53  F   UNL A   1      43.520  24.421  25.325  1.00  0.00    -0.206 F 
ATOM     54  C   UNL A   1      43.089  22.127  25.594  1.00  0.00     0.059 A 
ATOM     55  C   UNL A   1      42.517  21.257  27.789  1.00  0.00     0.059 A 
ATOM     56  F   UNL A   1      42.381  22.722  29.615  1.00  0.00    -0.206 F 
ATOM     57  C   UNL A   1      42.768  21.057  26.433  1.00  0.00     0.060 A 
BRANCH  57  58
ATOM     58  S   UNL A   1      42.757  19.388  25.741  1.00  0.00     0.124 S 
ATOM     59  O   UNL A   1      41.362  19.242  25.346  1.00  0.00    -0.237 OA
ATOM     60  O   UNL A   1      43.721  19.502  24.652  1.00  0.00    -0.237 OA
ATOM     61  O   UNL A   1      43.188  18.559  26.863  1.00  0.00    -0.744 OA
ENDBRANCH  57  58
ENDBRANCH  25  50
BRANCH  37  62
ATOM     62  C   UNL A   1      48.561  27.147  29.782  1.00  0.00     0.058 A 
ATOM     63  C   UNL A   1      49.503  27.491  28.803  1.00  0.00     0.135 A 
ATOM     64  C   UNL A   1      49.027  26.542  30.962  1.00  0.00     0.135 A 
ATOM     65  F   UNL A   1      49.107  28.061  27.653  1.00  0.00    -0.206 F 
ATOM     66  C   UNL A   1      50.861  27.252  28.988  1.00  0.00     0.059 A 
ATOM     67  C   UNL A   1      50.381  26.313  31.177  1.00  0.00     0.059 A 
ATOM     68  F   UNL A   1      48.164  26.199  31.931  1.00  0.00    -0.206 F 
ATOM     69  C   UNL A   1      51.292  26.671  30.184  1.00  0.00     0.060 A 
BRANCH  69  70
ATOM     70  S   UNL A   1      53.063  26.444  30.449  1.00  0.00     0.124 S 
ATOM     71  O   UNL A   1      53.078  25.373  31.441  1.00  0.00    -0.237 OA
ATOM     72  O   UNL A   1      53.535  26.080  29.116  1.00  0.00    -0.237 OA
ATOM     73  O   UNL A   1      53.506  27.750  30.928  1.00  0.00    -0.744 OA
ENDBRANCH  69  70
ENDBRANCH  37  62
ENDBRANCH  11  12
ENDBRANCH   4   6
ENDBRANCH   1   2
BRANCH   1  74
ATOM     74  C   UNL A   1      34.744  32.561  30.699  1.00  0.00     0.042 C 
BRANCH  74  75
ATOM     75  C   UNL A   1      35.565  33.667  31.354  1.00  0.00     0.118 C 
BRANCH  75  76
ATOM     76  N   UNL A   1      36.587  34.201  30.465  1.00  0.00    -0.352 N 
ATOM     77  C   UNL A   1      37.952  34.190  30.595  1.00  0.00     0.251 C 
ATOM     78  H   UNL A   1      36.247  34.635  29.649  1.00  0.00     0.163 HD
ATOM     79  O   UNL A   1      38.656  34.849  29.838  1.00  0.00    -0.269 OA
BRANCH  77  80
ATOM     80  C   UNL A   1      38.581  33.389  31.662  1.00  0.00     0.040 A 
ATOM     81  C   UNL A   1      38.069  32.125  31.947  1.00  0.00     0.018 A 
ATOM     82  C   UNL A   1      39.638  33.904  32.413  1.00  0.00     0.018 A 
ATOM     83  C   UNL A   1      38.671  31.340  32.936  1.00  0.00     0.053 A 
ATOM     84  C   UNL A   1      40.231  33.118  33.403  1.00  0.00     0.053 A 
ATOM     85  C   UNL A   1      39.778  31.813  33.656  1.00  0.00     0.136 A 
BRANCH  85  86
ATOM     86  N   UNL A   1      40.402  31.021  34.650  1.00  0.00    -0.154 N 
ATOM     87  C   UNL A   1      41.049  29.841  34.377  1.00  0.00     0.385 C 
ATOM     88  C   UNL A   1      40.552  31.263  35.993  1.00  0.00     0.295 C 
ATOM     89  O   UNL A   1      41.116  29.205  33.339  1.00  0.00    -0.236 OA
ATOM     90  C   UNL A   1      41.705  29.514  35.689  1.00  0.00     0.216 C 
ATOM     91  N   UNL A   1      41.293  30.413  36.647  1.00  0.00    -0.233 N 
ATOM     92  C   UNL A   1      42.638  28.573  35.892  1.00  0.00     0.068 C 
ATOM     93  H   UNL A   1      41.508  30.413  37.607  1.00  0.00     0.312 HD
BRANCH  88  94
ATOM     94  C   UNL A   1      39.862  32.366  36.676  1.00  0.00     0.065 A 
ATOM     95  C   UNL A   1      38.494  32.256  36.935  1.00  0.00     0.017 A 
ATOM     96  C   UNL A   1      40.571  33.513  37.046  1.00  0.00     0.017 A 
ATOM     97  C   UNL A   1      37.840  33.287  37.610  1.00  0.00     0.001 A 
ATOM     98  C   UNL A   1      39.909  34.545  37.709  1.00  0.00     0.001 A 
ATOM     99  C   UNL A   1      38.548  34.428  37.996  1.00  0.00     0.000 A 
ENDBRANCH  88  94
BRANCH  92 100
ATOM    100  C   UNL A   1      43.248  27.839  34.784  1.00  0.00    -0.017 A 
ATOM    101  C   UNL A   1      44.204  28.441  33.941  1.00  0.00     0.012 A 
ATOM    102  C   UNL A   1      42.975  26.466  34.680  1.00  0.00     0.059 A 
ATOM    103  C   UNL A   1      44.936  27.664  33.034  1.00  0.00     0.051 A 
ATOM    104  C   UNL A   1      43.740  25.725  33.812  1.00  0.00     0.166 A 
ATOM    105  C   UNL A   1      44.702  26.304  33.018  1.00  0.00     0.165 A 
ATOM    106  O   UNL A   1      43.698  24.372  33.678  1.00  0.00    -0.454 OA
ATOM    107  O   UNL A   1      45.386  25.381  32.290  1.00  0.00    -0.454 OA
ATOM    108  C   UNL A   1      44.873  24.163  32.872  1.00  0.00     0.468 C 
ENDBRANCH  92 100
ENDBRANCH  85  86
ENDBRANCH  77  80
ENDBRANCH  75  76
ENDBRANCH  74  75
ENDBRANCH   1  74
TORSDOF 16
ENDMDL
MODEL 2
REMARK VINA RESULT:     -10.1      3.175      5.171
REMARK SMILES O=C(NCCCNC(=O)c1ccc(N2C(=O)/C(=C\c3ccc4c(c3)OCO4)[NH+]=C2c2ccccc2)cc1)c1ccc(-c2c3nc(c(-c4c(F)cc(S(=O)(=O)[O-])cc4F)c4ccc([nH]4)c(-c4c(F)cc(S(=O)(=O)[O-])cc4F)c4nc(c(-c5c(F)cc(S(=O)(=O)[O-])cc5F)c5ccc2[nH]5)C=C4)C=C3)cc1
REMARK SMILES IDX 4 1 3 2 1 3 2 4 38 6 39 7 103 8 40 9 102 10 41 11 42 12
REMARK SMILES IDX 43 13 96 14 44 15 101 16 95 17 97 18 45 19 100 20 94 21
REMARK SMILES IDX 93 22 46 24 80 25 59 26 79 27 60 28 63 29 78 30 98 31 61 32
REMARK SMILES IDX 62 33 77 35 99 36 64 37 47 38 48 39 57 40 49 41 50 42 56 43
REMARK SMILES IDX 58 44 51 45 52 46 53 47 54 48 55 49 81 50 82 51 91 52 83 53
REMARK SMILES IDX 84 54 90 55 92 56 85 57 86 58 87 59 88 60 89 61 65 62 66 63
REMARK SMILES IDX 75 64 67 65 68 66 74 67 76 68 69 69 70 70 71 71 72 72 73 73
REMARK SMILES IDX 5 74 6 75 7 76 8 77 9 79 10 80 11 81 37 82 12 83 36 84 13 85
REMARK SMILES IDX 14 86 15 87 29 88 16 89 17 90 28 91 18 92 30 94 31 95 35 96
REMARK SMILES IDX 32 97 34 98 33 99 19 100 20 101 24 102 21 103 23 104 22 105
REMARK SMILES IDX 25 106 27 107 26 108
REMARK H PARENT 3 5 97 23 63 34 7 78 28 93
REMARK Flexibility Score: inf
ROOT
ATOM      1  C   UNL A   1      35.796  31.466  28.149  1.00  0.00     0.118 C 
ENDROOT
BRANCH   1   2
ATOM      2  N   UNL A   1      35.593  31.008  29.515  1.00  0.00    -0.352 N 
ATOM      3  O   UNL A   1      35.907  29.783  31.369  1.00  0.00    -0.269 OA
ATOM      4  C   UNL A   1      36.370  30.203  30.311  1.00  0.00     0.251 C 
ATOM      5  H   UNL A   1      34.762  31.327  29.938  1.00  0.00     0.163 HD
BRANCH   4   6
ATOM      6  C   UNL A   1      37.740  29.822  29.901  1.00  0.00     0.039 A 
ATOM      7  C   UNL A   1      38.164  29.942  28.574  1.00  0.00     0.014 A 
ATOM      8  C   UNL A   1      38.636  29.387  30.881  1.00  0.00     0.014 A 
ATOM      9  C   UNL A   1      39.435  29.507  28.206  1.00  0.00     0.010 A 
ATOM     10  C   UNL A   1      39.936  29.021  30.524  1.00  0.00     0.010 A 
ATOM     11  C   UNL A   1      40.338  29.052  29.179  1.00  0.00    -0.014 A 
BRANCH  11  12
ATOM     12  C   UNL A   1      41.717  28.653  28.798  1.00  0.00     0.031 A 
ATOM     13  C   UNL A   1      42.817  29.673  28.726  1.00  0.00     0.074 A 
ATOM     14  C   UNL A   1      41.964  27.368  28.479  1.00  0.00     0.049 A 
ATOM     15  N   UNL A   1      44.053  29.527  28.323  1.00  0.00    -0.248 NA
ATOM     16  C   UNL A   1      42.481  31.040  29.153  1.00  0.00     0.031 C 
ATOM     17  C   UNL A   1      40.975  26.289  28.504  1.00  0.00     0.029 A 
ATOM     18  N   UNL A   1      43.115  26.755  28.052  1.00  0.00    -0.354 N 
ATOM     19  C   UNL A   1      44.635  30.784  28.419  1.00  0.00     0.074 A 
ATOM     20  C   UNL A   1      43.611  31.686  28.902  1.00  0.00     0.031 C 
ATOM     21  C   UNL A   1      41.559  25.148  28.112  1.00  0.00     0.029 A 
ATOM     22  C   UNL A   1      42.947  25.425  27.753  1.00  0.00     0.049 A 
ATOM     23  H   UNL A   1      43.977  27.222  27.970  1.00  0.00     0.167 HD
ATOM     24  C   UNL A   1      45.908  31.151  28.132  1.00  0.00     0.037 A 
ATOM     25  C   UNL A   1      43.799  24.531  27.213  1.00  0.00     0.037 A 
ATOM     26  C   UNL A   1      46.922  30.243  27.658  1.00  0.00     0.049 A 
ATOM     27  C   UNL A   1      45.198  24.960  26.881  1.00  0.00     0.074 A 
ATOM     28  C   UNL A   1      48.251  30.507  27.378  1.00  0.00     0.029 A 
ATOM     29  N   UNL A   1      46.715  28.897  27.382  1.00  0.00    -0.354 N 
ATOM     30  N   UNL A   1      45.746  26.143  27.014  1.00  0.00    -0.248 NA
ATOM     31  C   UNL A   1      46.096  23.937  26.327  1.00  0.00     0.031 C 
ATOM     32  C   UNL A   1      48.837  29.332  26.891  1.00  0.00     0.029 A 
ATOM     33  C   UNL A   1      47.885  28.324  26.913  1.00  0.00     0.049 A 
ATOM     34  H   UNL A   1      45.862  28.422  27.501  1.00  0.00     0.167 HD
ATOM     35  C   UNL A   1      47.059  26.005  26.583  1.00  0.00     0.074 A 
ATOM     36  C   UNL A   1      47.224  24.622  26.184  1.00  0.00     0.031 C 
ATOM     37  C   UNL A   1      48.038  26.941  26.530  1.00  0.00     0.037 A 
BRANCH  24  38
ATOM     38  C   UNL A   1      46.262  32.604  28.289  1.00  0.00     0.058 A 
ATOM     39  C   UNL A   1      46.762  33.120  29.495  1.00  0.00     0.135 A 
ATOM     40  C   UNL A   1      46.093  33.497  27.217  1.00  0.00     0.135 A 
ATOM     41  F   UNL A   1      46.933  32.315  30.556  1.00  0.00    -0.206 F 
ATOM     42  C   UNL A   1      47.033  34.477  29.649  1.00  0.00     0.059 A 
ATOM     43  C   UNL A   1      46.383  34.852  27.340  1.00  0.00     0.059 A 
ATOM     44  F   UNL A   1      45.625  33.057  26.039  1.00  0.00    -0.206 F 
ATOM     45  C   UNL A   1      46.828  35.337  28.570  1.00  0.00     0.060 A 
BRANCH  45  46
ATOM     46  S   UNL A   1      47.129  37.102  28.800  1.00  0.00     0.124 S 
ATOM     47  O   UNL A   1      47.396  37.530  27.430  1.00  0.00    -0.237 OA
ATOM     48  O   UNL A   1      45.869  37.564  29.373  1.00  0.00    -0.237 OA
ATOM     49  O   UNL A   1      48.274  37.137  29.704  1.00  0.00    -0.744 OA
ENDBRANCH  45  46
ENDBRANCH  24  38
BRANCH  25  50
ATOM     50  C   UNL A   1      43.320  23.149  26.957  1.00  0.00     0.058 A 
ATOM     51  C   UNL A   1      43.114  22.686  25.652  1.00  0.00     0.135 A 
ATOM     52  C   UNL A   1      43.158  22.236  28.013  1.00  0.00     0.135 A 
ATOM     53  F   UNL A   1      43.252  23.524  24.613  1.00  0.00    -0.206 F 
ATOM     54  C   UNL A   1      42.777  21.360  25.398  1.00  0.00     0.059 A 
ATOM     55  C   UNL A   1      42.844  20.901  27.782  1.00  0.00     0.059 A 
ATOM     56  F   UNL A   1      43.363  22.630  29.280  1.00  0.00    -0.206 F 
ATOM     57  C   UNL A   1      42.657  20.473  26.469  1.00  0.00     0.060 A 
BRANCH  57  58
ATOM     58  S   UNL A   1      42.330  18.731  26.118  1.00  0.00     0.124 S 
ATOM     59  O   UNL A   1      43.281  18.463  25.046  1.00  0.00    -0.237 OA
ATOM     60  O   UNL A   1      42.620  18.100  27.402  1.00  0.00    -0.237 OA
ATOM     61  O   UNL A   1      40.922  18.727  25.732  1.00  0.00    -0.744 OA
ENDBRANCH  57  58
ENDBRANCH  25  50
BRANCH  37  62
ATOM     62  C   UNL A   1      49.397  26.505  26.059  1.00  0.00     0.058 A 
ATOM     63  C   UNL A   1      49.815  26.696  24.734  1.00  0.00     0.135 A 
ATOM     64  C   UNL A   1      50.326  25.982  26.974  1.00  0.00     0.135 A 
ATOM     65  F   UNL A   1      48.960  27.183  23.819  1.00  0.00    -0.206 F 
ATOM     66  C   UNL A   1      51.110  26.389  24.332  1.00  0.00     0.059 A 
ATOM     67  C   UNL A   1      51.632  25.687  26.598  1.00  0.00     0.059 A 
ATOM     68  F   UNL A   1      49.975  25.785  28.254  1.00  0.00    -0.206 F 
ATOM     69  C   UNL A   1      52.015  25.894  25.274  1.00  0.00     0.060 A 
BRANCH  69  70
ATOM     70  S   UNL A   1      53.717  25.578  24.760  1.00  0.00     0.124 S 
ATOM     71  O   UNL A   1      53.747  24.119  24.719  1.00  0.00    -0.237 OA
ATOM     72  O   UNL A   1      53.783  26.250  23.466  1.00  0.00    -0.237 OA
ATOM     73  O   UNL A   1      54.511  26.192  25.820  1.00  0.00    -0.744 OA
ENDBRANCH  69  70
ENDBRANCH  37  62
ENDBRANCH  11  12
ENDBRANCH   4   6
ENDBRANCH   1   2
BRANCH   1  74
ATOM     74  C   UNL A   1      35.332  32.902  27.934  1.00  0.00     0.042 C 
BRANCH  74  75
ATOM     75  C   UNL A   1      35.594  33.834  29.112  1.00  0.00     0.118 C 
BRANCH  75  76
ATOM     76  N   UNL A   1      34.367  34.380  29.674  1.00  0.00    -0.352 N 
ATOM     77  C   UNL A   1      33.979  34.490  30.984  1.00  0.00     0.251 C 
ATOM     78  H   UNL A   1      33.719  34.719  29.015  1.00  0.00     0.163 HD
ATOM     79  O   UNL A   1      32.830  34.809  31.269  1.00  0.00    -0.269 OA
BRANCH  77  80
ATOM     80  C   UNL A   1      34.946  34.212  32.063  1.00  0.00     0.040 A 
ATOM     81  C   UNL A   1      35.760  35.246  32.521  1.00  0.00     0.018 A 
ATOM     82  C   UNL A   1      35.087  32.925  32.582  1.00  0.00     0.018 A 
ATOM     83  C   UNL A   1      36.663  35.008  33.562  1.00  0.00     0.053 A 
ATOM     84  C   UNL A   1      35.995  32.692  33.616  1.00  0.00     0.053 A 
ATOM     85  C   UNL A   1      36.772  33.736  34.143  1.00  0.00     0.136 A 
BRANCH  85  86
ATOM     86  N   UNL A   1      37.674  33.487  35.207  1.00  0.00    -0.154 N 
ATOM     87  C   UNL A   1      37.293  33.452  36.526  1.00  0.00     0.385 C 
ATOM     88  C   UNL A   1      39.012  33.184  35.164  1.00  0.00     0.295 C 
ATOM     89  O   UNL A   1      36.223  33.725  37.040  1.00  0.00    -0.236 OA
ATOM     90  C   UNL A   1      38.533  32.952  37.212  1.00  0.00     0.216 C 
ATOM     91  N   UNL A   1      39.563  32.873  36.303  1.00  0.00    -0.233 N 
ATOM     92  C   UNL A   1      38.616  32.532  38.483  1.00  0.00     0.068 C 
ATOM     93  H   UNL A   1      40.503  32.637  36.476  1.00  0.00     0.312 HD
BRANCH  88  94
ATOM     94  C   UNL A   1      39.801  33.274  33.927  1.00  0.00     0.065 A 
ATOM     95  C   UNL A   1      39.900  32.151  33.102  1.00  0.00     0.017 A 
ATOM     96  C   UNL A   1      40.451  34.467  33.596  1.00  0.00     0.017 A 
ATOM     97  C   UNL A   1      40.622  32.240  31.912  1.00  0.00     0.001 A 
ATOM     98  C   UNL A   1      41.181  34.545  32.411  1.00  0.00     0.001 A 
ATOM     99  C   UNL A   1      41.259  33.434  31.568  1.00  0.00     0.000 A 
ENDBRANCH  88  94
BRANCH  92 100
ATOM    100  C   UNL A   1      37.428  32.367  39.321  1.00  0.00    -0.017 A 
ATOM    101  C   UNL A   1      36.677  31.175  39.305  1.00  0.00     0.012 A 
ATOM    102  C   UNL A   1      37.149  33.369  40.263  1.00  0.00     0.059 A 
ATOM    103  C   UNL A   1      35.685  30.952  40.268  1.00  0.00     0.051 A 
ATOM    104  C   UNL A   1      36.200  33.102  41.220  1.00  0.00     0.166 A 
ATOM    105  C   UNL A   1      35.495  31.922  41.231  1.00  0.00     0.165 A 
ATOM    106  O   UNL A   1      35.896  33.902  42.277  1.00  0.00    -0.454 OA
ATOM    107  O   UNL A   1      34.661  31.836  42.303  1.00  0.00    -0.454 OA
ATOM    108  C   UNL A   1      35.079  33.001  43.048  1.00  0.00     0.468 C 
ENDBRANCH  92 100
ENDBRANCH  85  86
ENDBRANCH  77  80
ENDBRANCH  75  76
ENDBRANCH  74  75
ENDBRANCH   1  74
TORSDOF 16
ENDMDL
MODEL 3
REMARK VINA RESULT:     -10.1      5.246     11.936
REMARK SMILES O=C(NCCCNC(=O)c1ccc(N2C(=O)/C(=C\c3ccc4c(c3)OCO4)[NH+]=C2c2ccccc2)cc1)c1ccc(-c2c3nc(c(-c4c(F)cc(S(=O)(=O)[O-])cc4F)c4ccc([nH]4)c(-c4c(F)cc(S(=O)(=O)[O-])cc4F)c4nc(c(-c5c(F)cc(S(=O)(=O)[O-])cc5F)c5ccc2[nH]5)C=C4)C=C3)cc1
REMARK SMILES IDX 4 1 3 2 1 3 2 4 38 6 39 7 103 8 40 9 102 10 41 11 42 12
REMARK SMILES IDX 43 13 96 14 44 15 101 16 95 17 97 18 45 19 100 20 94 21
REMARK SMILES IDX 93 22 46 24 80 25 59 26 79 27 60 28 63 29 78 30 98 31 61 32
REMARK SMILES IDX 62 33 77 35 99 36 64 37 47 38 48 39 57 40 49 41 50 42 56 43
REMARK SMILES IDX 58 44 51 45 52 46 53 47 54 48 55 49 81 50 82 51 91 52 83 53
REMARK SMILES IDX 84 54 90 55 92 56 85 57 86 58 87 59 88 60 89 61 65 62 66 63
REMARK SMILES IDX 75 64 67 65 68 66 74 67 76 68 69 69 70 70 71 71 72 72 73 73
REMARK SMILES IDX 5 74 6 75 7 76 8 77 9 79 10 80 11 81 37 82 12 83 36 84 13 85
REMARK SMILES IDX 14 86 15 87 29 88 16 89 17 90 28 91 18 92 30 94 31 95 35 96
REMARK SMILES IDX 32 97 34 98 33 99 19 100 20 101 24 102 21 103 23 104 22 105
REMARK SMILES IDX 25 106 27 107 26 108
REMARK H PARENT 3 5 97 23 63 34 7 78 28 93
REMARK Flexibility Score: inf
ROOT
ATOM      1  C   UNL A   1      39.982  20.020  26.382  1.00  0.00     0.118 C 
ENDROOT
BRANCH   1   2
ATOM      2  N   UNL A   1      41.149  19.197  26.102  1.00  0.00    -0.352 N 
ATOM      3  O   UNL A   1      43.255  18.706  25.502  1.00  0.00    -0.269 OA
ATOM      4  C   UNL A   1      42.465  19.546  25.927  1.00  0.00     0.251 C 
ATOM      5  H   UNL A   1      40.964  18.233  26.024  1.00  0.00     0.163 HD
BRANCH   4   6
ATOM      6  C   UNL A   1      42.934  20.918  26.224  1.00  0.00     0.039 A 
ATOM      7  C   UNL A   1      43.240  21.822  25.202  1.00  0.00     0.014 A 
ATOM      8  C   UNL A   1      43.017  21.324  27.559  1.00  0.00     0.014 A 
ATOM      9  C   UNL A   1      43.749  23.081  25.513  1.00  0.00     0.010 A 
ATOM     10  C   UNL A   1      43.457  22.613  27.870  1.00  0.00     0.010 A 
ATOM     11  C   UNL A   1      43.853  23.494  26.850  1.00  0.00    -0.014 A 
BRANCH  11  12
ATOM     12  C   UNL A   1      44.330  24.860  27.181  1.00  0.00     0.031 A 
ATOM     13  C   UNL A   1      43.363  25.924  27.615  1.00  0.00     0.074 A 
ATOM     14  C   UNL A   1      45.638  25.148  27.050  1.00  0.00     0.049 A 
ATOM     15  N   UNL A   1      43.582  27.192  27.852  1.00  0.00    -0.248 NA
ATOM     16  C   UNL A   1      41.962  25.512  27.796  1.00  0.00     0.031 C 
ATOM     17  C   UNL A   1      46.672  24.200  26.630  1.00  0.00     0.029 A 
ATOM     18  N   UNL A   1      46.322  26.323  27.238  1.00  0.00    -0.354 N 
ATOM     19  C   UNL A   1      42.348  27.737  28.182  1.00  0.00     0.074 A 
ATOM     20  C   UNL A   1      41.379  26.664  28.096  1.00  0.00     0.031 C 
ATOM     21  C   UNL A   1      47.855  24.828  26.591  1.00  0.00     0.029 A 
ATOM     22  C   UNL A   1      47.657  26.234  26.929  1.00  0.00     0.049 A 
ATOM     23  H   UNL A   1      45.897  27.149  27.564  1.00  0.00     0.167 HD
ATOM     24  C   UNL A   1      42.052  29.014  28.525  1.00  0.00     0.037 A 
ATOM     25  C   UNL A   1      48.613  27.182  26.882  1.00  0.00     0.037 A 
ATOM     26  C   UNL A   1      43.025  30.072  28.614  1.00  0.00     0.049 A 
ATOM     27  C   UNL A   1      48.263  28.596  27.244  1.00  0.00     0.074 A 
ATOM     28  C   UNL A   1      42.833  31.389  28.993  1.00  0.00     0.029 A 
ATOM     29  N   UNL A   1      44.373  29.937  28.307  1.00  0.00    -0.354 N 
ATOM     30  N   UNL A   1      47.099  29.088  27.593  1.00  0.00    -0.248 NA
ATOM     31  C   UNL A   1      49.350  29.583  27.211  1.00  0.00     0.031 C 
ATOM     32  C   UNL A   1      44.056  32.061  28.873  1.00  0.00     0.029 A 
ATOM     33  C   UNL A   1      45.019  31.151  28.466  1.00  0.00     0.049 A 
ATOM     34  H   UNL A   1      44.805  29.101  28.018  1.00  0.00     0.167 HD
ATOM     35  C   UNL A   1      47.315  30.437  27.841  1.00  0.00     0.074 A 
ATOM     36  C   UNL A   1      48.723  30.685  27.604  1.00  0.00     0.031 C 
ATOM     37  C   UNL A   1      46.426  31.381  28.237  1.00  0.00     0.037 A 
BRANCH  24  38
ATOM     38  C   UNL A   1      40.608  29.341  28.795  1.00  0.00     0.058 A 
ATOM     39  C   UNL A   1      40.112  29.488  30.100  1.00  0.00     0.135 A 
ATOM     40  C   UNL A   1      39.706  29.503  27.731  1.00  0.00     0.135 A 
ATOM     41  F   UNL A   1      40.927  29.333  31.156  1.00  0.00    -0.206 F 
ATOM     42  C   UNL A   1      38.764  29.735  30.342  1.00  0.00     0.059 A 
ATOM     43  C   UNL A   1      38.359  29.776  27.949  1.00  0.00     0.059 A 
ATOM     44  F   UNL A   1      40.127  29.380  26.463  1.00  0.00    -0.206 F 
ATOM     45  C   UNL A   1      37.893  29.865  29.260  1.00  0.00     0.060 A 
BRANCH  45  46
ATOM     46  S   UNL A   1      36.137  30.127  29.589  1.00  0.00     0.124 S 
ATOM     47  O   UNL A   1      35.526  29.437  28.457  1.00  0.00    -0.237 OA
ATOM     48  O   UNL A   1      35.961  29.488  30.889  1.00  0.00    -0.237 OA
ATOM     49  O   UNL A   1      36.004  31.581  29.587  1.00  0.00    -0.744 OA
ENDBRANCH  45  46
ENDBRANCH  24  38
BRANCH  25  50
ATOM     50  C   UNL A   1      49.985  26.797  26.464  1.00  0.00     0.058 A 
ATOM     51  C   UNL A   1      50.903  26.278  27.385  1.00  0.00     0.135 A 
ATOM     52  C   UNL A   1      50.367  26.848  25.113  1.00  0.00     0.135 A 
ATOM     53  F   UNL A   1      50.584  26.214  28.687  1.00  0.00    -0.206 F 
ATOM     54  C   UNL A   1      52.148  25.808  26.982  1.00  0.00     0.059 A 
ATOM     55  C   UNL A   1      51.597  26.364  24.682  1.00  0.00     0.059 A 
ATOM     56  F   UNL A   1      49.513  27.321  24.190  1.00  0.00    -0.206 F 
ATOM     57  C   UNL A   1      52.481  25.843  25.626  1.00  0.00     0.060 A 
BRANCH  57  58
ATOM     58  S   UNL A   1      54.055  25.127  25.101  1.00  0.00     0.124 S 
ATOM     59  O   UNL A   1      54.890  25.366  26.271  1.00  0.00    -0.237 OA
ATOM     60  O   UNL A   1      53.690  23.737  24.850  1.00  0.00    -0.237 OA
ATOM     61  O   UNL A   1      54.394  25.901  23.911  1.00  0.00    -0.744 OA
ENDBRANCH  57  58
ENDBRANCH  25  50
BRANCH  37  62
ATOM     62  C   UNL A   1      46.944  32.771  28.479  1.00  0.00     0.058 A 
ATOM     63  C   UNL A   1      46.926  33.750  27.477  1.00  0.00     0.135 A 
ATOM     64  C   UNL A   1      47.368  33.150  29.764  1.00  0.00     0.135 A 
ATOM     65  F   UNL A   1      46.540  33.434  26.230  1.00  0.00    -0.206 F 
ATOM     66  C   UNL A   1      47.307  35.062  27.739  1.00  0.00     0.059 A 
ATOM     67  C   UNL A   1      47.733  34.460  30.054  1.00  0.00     0.059 A 
ATOM     68  F   UNL A   1      47.397  32.249  30.759  1.00  0.00    -0.206 F 
ATOM     69  C   UNL A   1      47.699  35.410  29.034  1.00  0.00     0.060 A 
BRANCH  69  70
ATOM     70  S   UNL A   1      48.110  37.134  29.382  1.00  0.00     0.124 S 
ATOM     71  O   UNL A   1      47.643  37.276  30.758  1.00  0.00    -0.237 OA
ATOM     72  O   UNL A   1      49.557  37.155  29.197  1.00  0.00    -0.237 OA
ATOM     73  O   UNL A   1      47.346  37.873  28.381  1.00  0.00    -0.744 OA
ENDBRANCH  69  70
ENDBRANCH  37  62
ENDBRANCH  11  12
ENDBRANCH   4   6
ENDBRANCH   1   2
BRANCH   1  74
ATOM     74  C   UNL A   1      38.833  19.761  25.413  1.00  0.00     0.042 C 
BRANCH  74  75
ATOM     75  C   UNL A   1      38.088  21.014  24.966  1.00  0.00     0.118 C 
BRANCH  75  76
ATOM     76  N   UNL A   1      38.526  22.205  25.679  1.00  0.00    -0.352 N 
ATOM     77  C   UNL A   1      37.888  23.408  25.847  1.00  0.00     0.251 C 
ATOM     78  H   UNL A   1      39.412  22.138  26.103  1.00  0.00     0.163 HD
ATOM     79  O   UNL A   1      38.485  24.368  26.323  1.00  0.00    -0.269 OA
BRANCH  77  80
ATOM     80  C   UNL A   1      36.478  23.554  25.441  1.00  0.00     0.040 A 
ATOM     81  C   UNL A   1      36.178  23.707  24.090  1.00  0.00     0.018 A 
ATOM     82  C   UNL A   1      35.461  23.593  26.395  1.00  0.00     0.018 A 
ATOM     83  C   UNL A   1      34.844  23.819  23.684  1.00  0.00     0.053 A 
ATOM     84  C   UNL A   1      34.132  23.711  25.985  1.00  0.00     0.053 A 
ATOM     85  C   UNL A   1      33.802  23.793  24.623  1.00  0.00     0.136 A 
BRANCH  85  86
ATOM     86  N   UNL A   1      32.448  23.892  24.221  1.00  0.00    -0.154 N 
ATOM     87  C   UNL A   1      31.752  25.076  24.201  1.00  0.00     0.385 C 
ATOM     88  C   UNL A   1      31.606  22.922  23.737  1.00  0.00     0.295 C 
ATOM     89  O   UNL A   1      32.073  26.181  24.605  1.00  0.00    -0.236 OA
ATOM     90  C   UNL A   1      30.472  24.694  23.515  1.00  0.00     0.216 C 
ATOM     91  N   UNL A   1      30.442  23.332  23.320  1.00  0.00    -0.233 N 
ATOM     92  C   UNL A   1      29.541  25.541  23.051  1.00  0.00     0.068 C 
ATOM     93  H   UNL A   1      29.707  22.791  22.950  1.00  0.00     0.312 HD
BRANCH  88  94
ATOM     94  C   UNL A   1      31.959  21.495  23.751  1.00  0.00     0.065 A 
ATOM     95  C   UNL A   1      32.203  20.868  24.975  1.00  0.00     0.017 A 
ATOM     96  C   UNL A   1      32.060  20.786  22.550  1.00  0.00     0.017 A 
ATOM     97  C   UNL A   1      32.509  19.507  24.998  1.00  0.00     0.001 A 
ATOM     98  C   UNL A   1      32.378  19.429  22.579  1.00  0.00     0.001 A 
ATOM     99  C   UNL A   1      32.594  18.791  23.802  1.00  0.00     0.000 A 
ENDBRANCH  88  94
BRANCH  92 100
ATOM    100  C   UNL A   1      29.757  26.988  23.028  1.00  0.00    -0.017 A 
ATOM    101  C   UNL A   1      30.910  27.550  22.444  1.00  0.00     0.012 A 
ATOM    102  C   UNL A   1      28.707  27.813  23.462  1.00  0.00     0.059 A 
ATOM    103  C   UNL A   1      30.993  28.933  22.234  1.00  0.00     0.051 A 
ATOM    104  C   UNL A   1      28.801  29.158  23.203  1.00  0.00     0.166 A 
ATOM    105  C   UNL A   1      29.907  29.704  22.594  1.00  0.00     0.165 A 
ATOM    106  O   UNL A   1      27.827  30.078  23.437  1.00  0.00    -0.454 OA
ATOM    107  O   UNL A   1      29.759  31.038  22.370  1.00  0.00    -0.454 OA
ATOM    108  C   UNL A   1      28.369  31.206  22.725  1.00  0.00     0.468 C 
ENDBRANCH  92 100
ENDBRANCH  85  86
ENDBRANCH  77  80
ENDBRANCH  75  76
ENDBRANCH  74  75
ENDBRANCH   1  74
TORSDOF 16
ENDMDL
