MODEL 1
REMARK VINA RESULT:     -12.6      0.000      0.000
REMARK SMILES CC[C@@H]1CCC[C@@](C[C@@H]2CSc3ccccc32)(C(=O)NCCCNC(=O)c2ccc(-c3c4nc(c(-c5c(F)cc(S(=O)(=O)[O-])cc5F)c5ccc([nH]5)c(-c5c(F)cc(S(=O)(=O)[O-])cc5F)c5nc(c(-c6c(F)cc(S(=O)(=O)[O-])cc6F)c6ccc3[nH]6)C=C5)C=C4)cc2)C1
REMARK SMILES IDX 22 1 21 2 20 3 18 4 19 5 7 7 3 8 4 9 93 10 5 11 6 12 2 13
REMARK SMILES IDX 1 14 8 15 9 16 10 17 17 18 11 19 12 20 16 21 13 22 15 23
REMARK SMILES IDX 14 24 23 25 24 26 25 27 26 29 27 30 28 31 92 32 29 33 91 34
REMARK SMILES IDX 30 35 31 36 32 37 85 38 33 39 90 40 84 41 86 42 34 43 89 44
REMARK SMILES IDX 83 45 82 46 35 48 69 49 48 50 68 51 49 52 52 53 67 54 87 55
REMARK SMILES IDX 50 56 51 57 66 59 88 60 53 61 36 62 37 63 46 64 38 65 39 66
REMARK SMILES IDX 45 67 47 68 40 69 41 70 42 71 43 72 44 73 70 74 71 75 80 76
REMARK SMILES IDX 72 77 73 78 79 79 81 80 74 81 75 82 76 83 77 84 78 85 54 86
REMARK SMILES IDX 55 87 64 88 56 89 57 90 63 91 65 92 58 93 59 94 60 95 61 96
REMARK SMILES IDX 62 97
REMARK H PARENT 20 6 24 28 86 47 52 58
REMARK Flexibility Score: inf
ROOT
ATOM      1  C   UNL A   1      34.214  31.065  27.620  1.00  0.00     0.042 C 
ENDROOT
BRANCH   1   2
ATOM      2  C   UNL A   1      34.089  29.560  27.566  1.00  0.00     0.117 C 
BRANCH   2   3
ATOM      3  N   UNL A   1      32.742  29.048  27.571  1.00  0.00    -0.356 N 
ATOM      4  C   UNL A   1      32.270  27.901  27.014  1.00  0.00     0.226 C 
ATOM      5  O   UNL A   1      31.297  27.400  27.590  1.00  0.00    -0.274 OA
ATOM      6  H   UNL A   1      32.076  29.602  28.036  1.00  0.00     0.163 HD
BRANCH   4   7
ATOM      7  C   UNL A   1      32.891  27.232  25.752  1.00  0.00     0.050 C 
ATOM      8  C   UNL A   1      30.777  27.878  24.310  1.00  0.00    -0.010 C 
ATOM      9  C   UNL A   1      31.618  28.869  23.500  1.00  0.00     0.003 C 
ATOM     10  C   UNL A   1      31.651  26.741  24.888  1.00  0.00     0.020 C 
ATOM     11  C   UNL A   1      32.813  29.365  24.299  1.00  0.00     0.001 C 
ATOM     12  C   UNL A   1      33.653  28.193  24.809  1.00  0.00     0.017 C 
BRANCH   8  13
ATOM     13  C   UNL A   1      29.581  27.334  23.502  1.00  0.00     0.000 C 
ATOM     14  C   UNL A   1      29.106  25.937  23.879  1.00  0.00     0.004 C 
ENDBRANCH   8  13
BRANCH   7  15
ATOM     15  C   UNL A   1      33.651  25.893  26.128  1.00  0.00     0.026 C 
BRANCH  15  16
ATOM     16  C   UNL A   1      33.276  24.444  25.699  1.00  0.00     0.032 C 
ATOM     17  C   UNL A   1      32.566  23.614  26.787  1.00  0.00     0.083 C 
ATOM     18  C   UNL A   1      34.355  23.607  25.069  1.00  0.00    -0.030 A 
ATOM     19  S   UNL A   1      33.192  21.903  26.719  1.00  0.00    -0.125 SA
ATOM     20  C   UNL A   1      34.481  22.317  25.584  1.00  0.00     0.011 A 
ATOM     21  C   UNL A   1      35.193  24.022  24.036  1.00  0.00     0.005 A 
ATOM     22  C   UNL A   1      35.538  21.497  25.214  1.00  0.00     0.015 A 
ATOM     23  C   UNL A   1      36.250  23.199  23.643  1.00  0.00     0.000 A 
ATOM     24  C   UNL A   1      36.442  21.956  24.253  1.00  0.00     0.001 A 
ENDBRANCH  15  16
ENDBRANCH   7  15
ENDBRANCH   4   7
ENDBRANCH   2   3
ENDBRANCH   1   2
BRANCH   1  25
ATOM     25  C   UNL A   1      35.490  31.499  28.328  1.00  0.00     0.118 C 
BRANCH  25  26
ATOM     26  N   UNL A   1      35.523  31.135  29.750  1.00  0.00    -0.352 N 
ATOM     27  C   UNL A   1      36.363  30.331  30.488  1.00  0.00     0.251 C 
ATOM     28  H   UNL A   1      34.803  31.545  30.280  1.00  0.00     0.163 HD
ATOM     29  O   UNL A   1      36.080  30.073  31.657  1.00  0.00    -0.269 OA
BRANCH  27  30
ATOM     30  C   UNL A   1      37.579  29.748  29.884  1.00  0.00     0.039 A 
ATOM     31  C   UNL A   1      38.469  29.023  30.663  1.00  0.00     0.014 A 
ATOM     32  C   UNL A   1      37.849  29.937  28.524  1.00  0.00     0.014 A 
ATOM     33  C   UNL A   1      39.738  28.754  30.179  1.00  0.00     0.010 A 
ATOM     34  C   UNL A   1      39.071  29.510  27.990  1.00  0.00     0.010 A 
ATOM     35  C   UNL A   1      40.062  28.984  28.833  1.00  0.00    -0.014 A 
BRANCH  35  36
ATOM     36  C   UNL A   1      41.445  28.677  28.371  1.00  0.00     0.031 A 
ATOM     37  C   UNL A   1      42.546  29.702  28.484  1.00  0.00     0.074 A 
ATOM     38  C   UNL A   1      41.731  27.424  27.956  1.00  0.00     0.049 A 
ATOM     39  N   UNL A   1      43.811  29.585  28.164  1.00  0.00    -0.248 NA
ATOM     40  C   UNL A   1      42.192  31.031  29.011  1.00  0.00     0.031 C 
ATOM     41  C   UNL A   1      40.752  26.342  27.806  1.00  0.00     0.029 A 
ATOM     42  N   UNL A   1      42.925  26.827  27.641  1.00  0.00    -0.354 N 
ATOM     43  C   UNL A   1      44.388  30.828  28.409  1.00  0.00     0.074 A 
ATOM     44  C   UNL A   1      43.335  31.693  28.892  1.00  0.00     0.031 C 
ATOM     45  C   UNL A   1      41.392  25.198  27.536  1.00  0.00     0.029 A 
ATOM     46  C   UNL A   1      42.815  25.478  27.391  1.00  0.00     0.049 A 
ATOM     47  H   UNL A   1      43.778  27.316  27.597  1.00  0.00     0.167 HD
ATOM     48  C   UNL A   1      45.678  31.206  28.254  1.00  0.00     0.037 A 
ATOM     49  C   UNL A   1      43.748  24.565  27.059  1.00  0.00     0.037 A 
ATOM     50  C   UNL A   1      46.733  30.322  27.832  1.00  0.00     0.049 A 
ATOM     51  C   UNL A   1      45.170  25.013  26.899  1.00  0.00     0.074 A 
ATOM     52  C   UNL A   1      48.078  30.607  27.664  1.00  0.00     0.029 A 
ATOM     53  N   UNL A   1      46.569  28.979  27.529  1.00  0.00    -0.354 N 
ATOM     54  N   UNL A   1      45.683  26.202  27.103  1.00  0.00    -0.248 NA
ATOM     55  C   UNL A   1      46.135  24.006  26.439  1.00  0.00     0.031 C 
ATOM     56  C   UNL A   1      48.720  29.444  27.229  1.00  0.00     0.029 A 
ATOM     57  C   UNL A   1      47.784  28.424  27.163  1.00  0.00     0.049 A 
ATOM     58  H   UNL A   1      45.714  28.491  27.568  1.00  0.00     0.167 HD
ATOM     59  C   UNL A   1      47.030  26.090  26.785  1.00  0.00     0.074 A 
ATOM     60  C   UNL A   1      47.259  24.709  26.410  1.00  0.00     0.031 C 
ATOM     61  C   UNL A   1      47.988  27.049  26.788  1.00  0.00     0.037 A 
BRANCH  48  62
ATOM     62  C   UNL A   1      46.038  32.640  28.534  1.00  0.00     0.058 A 
ATOM     63  C   UNL A   1      46.500  33.054  29.792  1.00  0.00     0.135 A 
ATOM     64  C   UNL A   1      46.000  33.594  27.503  1.00  0.00     0.135 A 
ATOM     65  F   UNL A   1      46.537  32.188  30.817  1.00  0.00    -0.206 F 
ATOM     66  C   UNL A   1      46.910  34.364  30.020  1.00  0.00     0.059 A 
ATOM     67  C   UNL A   1      46.424  34.905  27.703  1.00  0.00     0.059 A 
ATOM     68  F   UNL A   1      45.562  33.250  26.282  1.00  0.00    -0.206 F 
ATOM     69  C   UNL A   1      46.875  35.281  28.967  1.00  0.00     0.060 A 
BRANCH  69  70
ATOM     70  S   UNL A   1      47.449  36.966  29.272  1.00  0.00     0.124 S 
ATOM     71  O   UNL A   1      48.647  37.021  28.440  1.00  0.00    -0.237 OA
ATOM     72  O   UNL A   1      46.320  37.767  28.809  1.00  0.00    -0.237 OA
ATOM     73  O   UNL A   1      47.684  36.991  30.712  1.00  0.00    -0.744 OA
ENDBRANCH  69  70
ENDBRANCH  48  62
BRANCH  49  74
ATOM     74  C   UNL A   1      43.349  23.152  26.823  1.00  0.00     0.058 A 
ATOM     75  C   UNL A   1      43.311  22.614  25.530  1.00  0.00     0.135 A 
ATOM     76  C   UNL A   1      43.033  22.301  27.895  1.00  0.00     0.135 A 
ATOM     77  F   UNL A   1      43.598  23.389  24.472  1.00  0.00    -0.206 F 
ATOM     78  C   UNL A   1      42.971  21.284  25.304  1.00  0.00     0.059 A 
ATOM     79  C   UNL A   1      42.718  20.961  27.698  1.00  0.00     0.059 A 
ATOM     80  F   UNL A   1      43.069  22.763  29.155  1.00  0.00    -0.206 F 
ATOM     81  C   UNL A   1      42.682  20.464  26.397  1.00  0.00     0.060 A 
BRANCH  81  82
ATOM     82  S   UNL A   1      42.303  18.723  26.104  1.00  0.00     0.124 S 
ATOM     83  O   UNL A   1      40.890  18.787  25.753  1.00  0.00    -0.237 OA
ATOM     84  O   UNL A   1      43.218  18.388  25.017  1.00  0.00    -0.237 OA
ATOM     85  O   UNL A   1      42.609  18.094  27.385  1.00  0.00    -0.744 OA
ENDBRANCH  81  82
ENDBRANCH  49  74
BRANCH  61  86
ATOM     86  C   UNL A   1      49.368  26.638  26.371  1.00  0.00     0.058 A 
ATOM     87  C   UNL A   1      50.234  25.989  27.264  1.00  0.00     0.135 A 
ATOM     88  C   UNL A   1      49.808  26.841  25.054  1.00  0.00     0.135 A 
ATOM     89  F   UNL A   1      49.861  25.781  28.537  1.00  0.00    -0.206 F 
ATOM     90  C   UNL A   1      51.498  25.568  26.869  1.00  0.00     0.059 A 
ATOM     91  C   UNL A   1      51.059  26.408  24.630  1.00  0.00     0.059 A 
ATOM     92  F   UNL A   1      49.010  27.451  24.161  1.00  0.00    -0.206 F 
ATOM     93  C   UNL A   1      51.900  25.779  25.548  1.00  0.00     0.060 A 
BRANCH  93  94
ATOM     94  S   UNL A   1      53.529  25.192  25.038  1.00  0.00     0.124 S 
ATOM     95  O   UNL A   1      53.442  23.771  25.360  1.00  0.00    -0.237 OA
ATOM     96  O   UNL A   1      53.549  25.520  23.617  1.00  0.00    -0.237 OA
ATOM     97  O   UNL A   1      54.445  25.967  25.868  1.00  0.00    -0.744 OA
ENDBRANCH  93  94
ENDBRANCH  61  86
ENDBRANCH  35  36
ENDBRANCH  27  30
ENDBRANCH  25  26
ENDBRANCH   1  25
TORSDOF 16
ENDMDL
MODEL 2
REMARK VINA RESULT:     -12.4      6.622     12.045
REMARK SMILES CC[C@@H]1CCC[C@@](C[C@@H]2CSc3ccccc32)(C(=O)NCCCNC(=O)c2ccc(-c3c4nc(c(-c5c(F)cc(S(=O)(=O)[O-])cc5F)c5ccc([nH]5)c(-c5c(F)cc(S(=O)(=O)[O-])cc5F)c5nc(c(-c6c(F)cc(S(=O)(=O)[O-])cc6F)c6ccc3[nH]6)C=C5)C=C4)cc2)C1
REMARK SMILES IDX 22 1 21 2 20 3 18 4 19 5 7 7 3 8 4 9 93 10 5 11 6 12 2 13
REMARK SMILES IDX 1 14 8 15 9 16 10 17 17 18 11 19 12 20 16 21 13 22 15 23
REMARK SMILES IDX 14 24 23 25 24 26 25 27 26 29 27 30 28 31 92 32 29 33 91 34
REMARK SMILES IDX 30 35 31 36 32 37 85 38 33 39 90 40 84 41 86 42 34 43 89 44
REMARK SMILES IDX 83 45 82 46 35 48 69 49 48 50 68 51 49 52 52 53 67 54 87 55
REMARK SMILES IDX 50 56 51 57 66 59 88 60 53 61 36 62 37 63 46 64 38 65 39 66
REMARK SMILES IDX 45 67 47 68 40 69 41 70 42 71 43 72 44 73 70 74 71 75 80 76
REMARK SMILES IDX 72 77 73 78 79 79 81 80 74 81 75 82 76 83 77 84 78 85 54 86
REMARK SMILES IDX 55 87 64 88 56 89 57 90 63 91 65 92 58 93 59 94 60 95 61 96
REMARK SMILES IDX 62 97
REMARK H PARENT 20 6 24 28 86 47 52 58
REMARK Flexibility Score: inf
ROOT
ATOM      1  C   UNL A   1      39.001  22.248  26.480  1.00  0.00     0.042 C 
ENDROOT
BRANCH   1   2
ATOM      2  C   UNL A   1      38.030  23.190  25.805  1.00  0.00     0.117 C 
BRANCH   2   3
ATOM      3  N   UNL A   1      37.459  22.714  24.571  1.00  0.00    -0.356 N 
ATOM      4  C   UNL A   1      36.279  23.062  23.994  1.00  0.00     0.226 C 
ATOM      5  O   UNL A   1      36.257  22.991  22.759  1.00  0.00    -0.274 OA
ATOM      6  H   UNL A   1      37.993  22.047  24.083  1.00  0.00     0.163 HD
BRANCH   4   7
ATOM      7  C   UNL A   1      35.028  23.531  24.796  1.00  0.00     0.050 C 
ATOM      8  C   UNL A   1      33.755  21.293  24.217  1.00  0.00    -0.010 C 
ATOM      9  C   UNL A   1      33.827  20.859  25.683  1.00  0.00     0.003 C 
ATOM     10  C   UNL A   1      33.790  22.834  24.084  1.00  0.00     0.020 C 
ATOM     11  C   UNL A   1      35.006  21.505  26.395  1.00  0.00     0.001 C 
ATOM     12  C   UNL A   1      34.960  23.027  26.256  1.00  0.00     0.017 C 
BRANCH   8  13
ATOM     13  C   UNL A   1      32.544  20.679  23.487  1.00  0.00     0.000 C 
ATOM     14  C   UNL A   1      31.865  21.573  22.457  1.00  0.00     0.004 C 
ENDBRANCH   8  13
BRANCH   7  15
ATOM     15  C   UNL A   1      34.765  25.081  24.591  1.00  0.00     0.026 C 
BRANCH  15  16
ATOM     16  C   UNL A   1      33.456  25.755  24.086  1.00  0.00     0.032 C 
ATOM     17  C   UNL A   1      33.537  26.329  22.657  1.00  0.00     0.083 C 
ATOM     18  C   UNL A   1      32.809  26.771  24.987  1.00  0.00    -0.030 A 
ATOM     19  S   UNL A   1      32.635  27.913  22.610  1.00  0.00    -0.125 SA
ATOM     20  C   UNL A   1      32.441  27.965  24.366  1.00  0.00     0.011 A 
ATOM     21  C   UNL A   1      32.554  26.594  26.345  1.00  0.00     0.005 A 
ATOM     22  C   UNL A   1      31.988  29.049  25.105  1.00  0.00     0.015 A 
ATOM     23  C   UNL A   1      32.083  27.672  27.097  1.00  0.00     0.000 A 
ATOM     24  C   UNL A   1      31.833  28.904  26.486  1.00  0.00     0.001 A 
ENDBRANCH  15  16
ENDBRANCH   7  15
ENDBRANCH   4   7
ENDBRANCH   2   3
ENDBRANCH   1   2
BRANCH   1  25
ATOM     25  C   UNL A   1      40.246  22.977  26.965  1.00  0.00     0.118 C 
BRANCH  25  26
ATOM     26  N   UNL A   1      40.762  23.958  26.002  1.00  0.00    -0.352 N 
ATOM     27  C   UNL A   1      41.101  25.288  26.115  1.00  0.00     0.251 C 
ATOM     28  H   UNL A   1      40.892  23.593  25.097  1.00  0.00     0.163 HD
ATOM     29  O   UNL A   1      41.376  25.929  25.103  1.00  0.00    -0.269 OA
BRANCH  27  30
ATOM     30  C   UNL A   1      41.104  25.960  27.431  1.00  0.00     0.039 A 
ATOM     31  C   UNL A   1      40.013  25.839  28.281  1.00  0.00     0.014 A 
ATOM     32  C   UNL A   1      42.200  26.736  27.823  1.00  0.00     0.014 A 
ATOM     33  C   UNL A   1      39.883  26.706  29.352  1.00  0.00     0.010 A 
ATOM     34  C   UNL A   1      42.136  27.488  29.004  1.00  0.00     0.010 A 
ATOM     35  C   UNL A   1      40.943  27.541  29.739  1.00  0.00    -0.014 A 
BRANCH  35  36
ATOM     36  C   UNL A   1      40.742  28.455  30.899  1.00  0.00     0.031 A 
ATOM     37  C   UNL A   1      41.702  28.455  32.063  1.00  0.00     0.074 A 
ATOM     38  C   UNL A   1      39.751  29.371  30.843  1.00  0.00     0.049 A 
ATOM     39  N   UNL A   1      41.693  29.211  33.133  1.00  0.00    -0.248 NA
ATOM     40  C   UNL A   1      42.806  27.482  32.038  1.00  0.00     0.031 C 
ATOM     41  C   UNL A   1      38.758  29.474  29.768  1.00  0.00     0.029 A 
ATOM     42  N   UNL A   1      39.445  30.423  31.668  1.00  0.00    -0.354 N 
ATOM     43  C   UNL A   1      42.755  28.777  33.920  1.00  0.00     0.074 A 
ATOM     44  C   UNL A   1      43.383  27.683  33.215  1.00  0.00     0.031 C 
ATOM     45  C   UNL A   1      38.030  30.584  29.941  1.00  0.00     0.029 A 
ATOM     46  C   UNL A   1      38.429  31.218  31.191  1.00  0.00     0.049 A 
ATOM     47  H   UNL A   1      39.908  30.592  32.520  1.00  0.00     0.167 HD
ATOM     48  C   UNL A   1      43.173  29.257  35.115  1.00  0.00     0.037 A 
ATOM     49  C   UNL A   1      37.861  32.326  31.706  1.00  0.00     0.037 A 
ATOM     50  C   UNL A   1      42.582  30.388  35.781  1.00  0.00     0.049 A 
ATOM     51  C   UNL A   1      38.347  32.837  33.029  1.00  0.00     0.074 A 
ATOM     52  C   UNL A   1      42.947  30.963  36.987  1.00  0.00     0.029 A 
ATOM     53  N   UNL A   1      41.515  31.128  35.294  1.00  0.00    -0.354 N 
ATOM     54  N   UNL A   1      39.331  32.388  33.770  1.00  0.00    -0.248 NA
ATOM     55  C   UNL A   1      37.632  33.985  33.601  1.00  0.00     0.031 C 
ATOM     56  C   UNL A   1      42.081  32.030  37.243  1.00  0.00     0.029 A 
ATOM     57  C   UNL A   1      41.200  32.145  36.179  1.00  0.00     0.049 A 
ATOM     58  H   UNL A   1      41.049  30.955  34.443  1.00  0.00     0.167 HD
ATOM     59  C   UNL A   1      39.347  33.191  34.902  1.00  0.00     0.074 A 
ATOM     60  C   UNL A   1      38.298  34.176  34.732  1.00  0.00     0.031 C 
ATOM     61  C   UNL A   1      40.149  33.111  35.992  1.00  0.00     0.037 A 
BRANCH  48  62
ATOM     62  C   UNL A   1      44.323  28.567  35.796  1.00  0.00     0.058 A 
ATOM     63  C   UNL A   1      44.124  27.492  36.675  1.00  0.00     0.135 A 
ATOM     64  C   UNL A   1      45.647  28.932  35.497  1.00  0.00     0.135 A 
ATOM     65  F   UNL A   1      42.880  27.115  37.012  1.00  0.00    -0.206 F 
ATOM     66  C   UNL A   1      45.195  26.805  37.237  1.00  0.00     0.059 A 
ATOM     67  C   UNL A   1      46.733  28.245  36.031  1.00  0.00     0.059 A 
ATOM     68  F   UNL A   1      45.892  29.956  34.665  1.00  0.00    -0.206 F 
ATOM     69  C   UNL A   1      46.497  27.185  36.903  1.00  0.00     0.060 A 
BRANCH  69  70
ATOM     70  S   UNL A   1      47.874  26.254  37.611  1.00  0.00     0.124 S 
ATOM     71  O   UNL A   1      48.680  27.324  38.193  1.00  0.00    -0.237 OA
ATOM     72  O   UNL A   1      47.200  25.380  38.565  1.00  0.00    -0.237 OA
ATOM     73  O   UNL A   1      48.463  25.584  36.456  1.00  0.00    -0.744 OA
ENDBRANCH  69  70
ENDBRANCH  48  62
BRANCH  49  74
ATOM     74  C   UNL A   1      36.747  32.992  30.980  1.00  0.00     0.058 A 
ATOM     75  C   UNL A   1      35.413  32.796  31.359  1.00  0.00     0.135 A 
ATOM     76  C   UNL A   1      37.002  33.869  29.913  1.00  0.00     0.135 A 
ATOM     77  F   UNL A   1      35.117  31.962  32.368  1.00  0.00    -0.206 F 
ATOM     78  C   UNL A   1      34.368  33.442  30.705  1.00  0.00     0.059 A 
ATOM     79  C   UNL A   1      35.978  34.549  29.263  1.00  0.00     0.059 A 
ATOM     80  F   UNL A   1      38.264  34.103  29.521  1.00  0.00    -0.206 F 
ATOM     81  C   UNL A   1      34.662  34.322  29.662  1.00  0.00     0.060 A 
BRANCH  81  82
ATOM     82  S   UNL A   1      33.308  35.206  28.859  1.00  0.00     0.124 S 
ATOM     83  O   UNL A   1      32.676  34.139  28.093  1.00  0.00    -0.237 OA
ATOM     84  O   UNL A   1      32.550  35.710  30.000  1.00  0.00    -0.237 OA
ATOM     85  O   UNL A   1      33.995  36.227  28.074  1.00  0.00    -0.744 OA
ENDBRANCH  81  82
ENDBRANCH  49  74
BRANCH  61  86
ATOM     86  C   UNL A   1      39.919  34.112  37.085  1.00  0.00     0.058 A 
ATOM     87  C   UNL A   1      40.381  35.431  36.969  1.00  0.00     0.135 A 
ATOM     88  C   UNL A   1      39.184  33.766  38.229  1.00  0.00     0.135 A 
ATOM     89  F   UNL A   1      41.097  35.806  35.897  1.00  0.00    -0.206 F 
ATOM     90  C   UNL A   1      40.134  36.374  37.960  1.00  0.00     0.059 A 
ATOM     91  C   UNL A   1      38.905  34.697  39.222  1.00  0.00     0.059 A 
ATOM     92  F   UNL A   1      38.716  32.517  38.380  1.00  0.00    -0.206 F 
ATOM     93  C   UNL A   1      39.391  35.998  39.082  1.00  0.00     0.060 A 
BRANCH  93  94
ATOM     94  S   UNL A   1      39.044  37.242  40.343  1.00  0.00     0.124 S 
ATOM     95  O   UNL A   1      40.384  37.543  40.835  1.00  0.00    -0.237 OA
ATOM     96  O   UNL A   1      38.399  38.298  39.570  1.00  0.00    -0.237 OA
ATOM     97  O   UNL A   1      38.174  36.540  41.282  1.00  0.00    -0.744 OA
ENDBRANCH  93  94
ENDBRANCH  61  86
ENDBRANCH  35  36
ENDBRANCH  27  30
ENDBRANCH  25  26
ENDBRANCH   1  25
TORSDOF 16
ENDMDL
MODEL 3
REMARK VINA RESULT:     -12.2      1.154      2.157
REMARK SMILES CC[C@@H]1CCC[C@@](C[C@@H]2CSc3ccccc32)(C(=O)NCCCNC(=O)c2ccc(-c3c4nc(c(-c5c(F)cc(S(=O)(=O)[O-])cc5F)c5ccc([nH]5)c(-c5c(F)cc(S(=O)(=O)[O-])cc5F)c5nc(c(-c6c(F)cc(S(=O)(=O)[O-])cc6F)c6ccc3[nH]6)C=C5)C=C4)cc2)C1
REMARK SMILES IDX 22 1 21 2 20 3 18 4 19 5 7 7 3 8 4 9 93 10 5 11 6 12 2 13
REMARK SMILES IDX 1 14 8 15 9 16 10 17 17 18 11 19 12 20 16 21 13 22 15 23
REMARK SMILES IDX 14 24 23 25 24 26 25 27 26 29 27 30 28 31 92 32 29 33 91 34
REMARK SMILES IDX 30 35 31 36 32 37 85 38 33 39 90 40 84 41 86 42 34 43 89 44
REMARK SMILES IDX 83 45 82 46 35 48 69 49 48 50 68 51 49 52 52 53 67 54 87 55
REMARK SMILES IDX 50 56 51 57 66 59 88 60 53 61 36 62 37 63 46 64 38 65 39 66
REMARK SMILES IDX 45 67 47 68 40 69 41 70 42 71 43 72 44 73 70 74 71 75 80 76
REMARK SMILES IDX 72 77 73 78 79 79 81 80 74 81 75 82 76 83 77 84 78 85 54 86
REMARK SMILES IDX 55 87 64 88 56 89 57 90 63 91 65 92 58 93 59 94 60 95 61 96
REMARK SMILES IDX 62 97
REMARK H PARENT 20 6 24 28 86 47 52 58
REMARK Flexibility Score: inf
ROOT
ATOM      1  C   UNL A   1      33.553  30.286  27.075  1.00  0.00     0.042 C 
ENDROOT
BRANCH   1   2
ATOM      2  C   UNL A   1      33.060  29.387  25.965  1.00  0.00     0.117 C 
BRANCH   2   3
ATOM      3  N   UNL A   1      33.954  29.236  24.846  1.00  0.00    -0.356 N 
ATOM      4  C   UNL A   1      33.968  28.261  23.899  1.00  0.00     0.226 C 
ATOM      5  O   UNL A   1      34.398  28.610  22.792  1.00  0.00    -0.274 OA
ATOM      6  H   UNL A   1      34.647  29.929  24.755  1.00  0.00     0.163 HD
BRANCH   4   7
ATOM      7  C   UNL A   1      33.478  26.803  24.149  1.00  0.00     0.050 C 
ATOM      8  C   UNL A   1      31.132  27.355  23.074  1.00  0.00    -0.010 C 
ATOM      9  C   UNL A   1      31.448  26.440  21.887  1.00  0.00     0.003 C 
ATOM     10  C   UNL A   1      31.905  26.919  24.340  1.00  0.00     0.020 C 
ATOM     11  C   UNL A   1      32.947  26.311  21.671  1.00  0.00     0.001 C 
ATOM     12  C   UNL A   1      33.644  25.842  22.949  1.00  0.00     0.017 C 
BRANCH   8  13
ATOM     13  C   UNL A   1      29.616  27.469  23.334  1.00  0.00     0.000 C 
ATOM     14  C   UNL A   1      28.971  28.790  22.932  1.00  0.00     0.004 C 
ENDBRANCH   8  13
BRANCH   7  15
ATOM     15  C   UNL A   1      33.995  26.257  25.544  1.00  0.00     0.026 C 
BRANCH  15  16
ATOM     16  C   UNL A   1      34.158  24.768  25.970  1.00  0.00     0.032 C 
ATOM     17  C   UNL A   1      35.232  23.988  25.185  1.00  0.00     0.083 C 
ATOM     18  C   UNL A   1      32.911  23.933  26.059  1.00  0.00    -0.030 A 
ATOM     19  S   UNL A   1      34.614  22.302  24.868  1.00  0.00    -0.125 SA
ATOM     20  C   UNL A   1      32.986  22.687  25.436  1.00  0.00     0.011 A 
ATOM     21  C   UNL A   1      31.738  24.308  26.711  1.00  0.00     0.005 A 
ATOM     22  C   UNL A   1      31.862  21.886  25.297  1.00  0.00     0.015 A 
ATOM     23  C   UNL A   1      30.604  23.502  26.593  1.00  0.00     0.000 A 
ATOM     24  C   UNL A   1      30.657  22.312  25.860  1.00  0.00     0.001 A 
ENDBRANCH  15  16
ENDBRANCH   7  15
ENDBRANCH   4   7
ENDBRANCH   2   3
ENDBRANCH   1   2
BRANCH   1  25
ATOM     25  C   UNL A   1      34.885  29.808  27.638  1.00  0.00     0.118 C 
BRANCH  25  26
ATOM     26  N   UNL A   1      35.195  30.364  28.961  1.00  0.00    -0.352 N 
ATOM     27  C   UNL A   1      36.321  30.317  29.752  1.00  0.00     0.251 C 
ATOM     28  H   UNL A   1      34.451  30.869  29.361  1.00  0.00     0.163 HD
ATOM     29  O   UNL A   1      36.270  30.750  30.902  1.00  0.00    -0.269 OA
BRANCH  27  30
ATOM     30  C   UNL A   1      37.576  29.722  29.249  1.00  0.00     0.039 A 
ATOM     31  C   UNL A   1      38.448  29.085  30.121  1.00  0.00     0.014 A 
ATOM     32  C   UNL A   1      37.903  29.810  27.892  1.00  0.00     0.014 A 
ATOM     33  C   UNL A   1      39.743  28.814  29.715  1.00  0.00     0.010 A 
ATOM     34  C   UNL A   1      39.158  29.376  27.446  1.00  0.00     0.010 A 
ATOM     35  C   UNL A   1      40.122  28.946  28.370  1.00  0.00    -0.014 A 
BRANCH  35  36
ATOM     36  C   UNL A   1      41.531  28.642  27.994  1.00  0.00     0.031 A 
ATOM     37  C   UNL A   1      42.612  29.686  28.124  1.00  0.00     0.074 A 
ATOM     38  C   UNL A   1      41.855  27.378  27.645  1.00  0.00     0.049 A 
ATOM     39  N   UNL A   1      43.893  29.576  27.875  1.00  0.00    -0.248 NA
ATOM     40  C   UNL A   1      42.214  31.029  28.578  1.00  0.00     0.031 C 
ATOM     41  C   UNL A   1      40.899  26.276  27.487  1.00  0.00     0.029 A 
ATOM     42  N   UNL A   1      43.071  26.786  27.417  1.00  0.00    -0.354 N 
ATOM     43  C   UNL A   1      44.440  30.835  28.100  1.00  0.00     0.074 A 
ATOM     44  C   UNL A   1      43.353  31.703  28.492  1.00  0.00     0.031 C 
ATOM     45  C   UNL A   1      41.567  25.132  27.298  1.00  0.00     0.029 A 
ATOM     46  C   UNL A   1      42.992  25.427  27.216  1.00  0.00     0.049 A 
ATOM     47  H   UNL A   1      43.919  27.286  27.399  1.00  0.00     0.167 HD
ATOM     48  C   UNL A   1      45.732  31.226  27.998  1.00  0.00     0.037 A 
ATOM     49  C   UNL A   1      43.953  24.516  26.971  1.00  0.00     0.037 A 
ATOM     50  C   UNL A   1      46.819  30.342  27.668  1.00  0.00     0.049 A 
ATOM     51  C   UNL A   1      45.375  24.978  26.868  1.00  0.00     0.074 A 
ATOM     52  C   UNL A   1      48.167  30.640  27.559  1.00  0.00     0.029 A 
ATOM     53  N   UNL A   1      46.688  28.986  27.410  1.00  0.00    -0.354 N 
ATOM     54  N   UNL A   1      45.862  26.181  27.050  1.00  0.00    -0.248 NA
ATOM     55  C   UNL A   1      46.376  23.968  26.499  1.00  0.00     0.031 C 
ATOM     56  C   UNL A   1      48.846  29.470  27.205  1.00  0.00     0.029 A 
ATOM     57  C   UNL A   1      47.928  28.435  27.131  1.00  0.00     0.049 A 
ATOM     58  H   UNL A   1      45.839  28.487  27.424  1.00  0.00     0.167 HD
ATOM     59  C   UNL A   1      47.225  26.078  26.808  1.00  0.00     0.074 A 
ATOM     60  C   UNL A   1      47.491  24.686  26.500  1.00  0.00     0.031 C 
ATOM     61  C   UNL A   1      48.169  27.049  26.823  1.00  0.00     0.037 A 
BRANCH  48  62
ATOM     62  C   UNL A   1      46.058  32.675  28.239  1.00  0.00     0.058 A 
ATOM     63  C   UNL A   1      45.975  33.631  27.216  1.00  0.00     0.135 A 
ATOM     64  C   UNL A   1      46.375  33.125  29.532  1.00  0.00     0.135 A 
ATOM     65  F   UNL A   1      45.696  33.253  25.958  1.00  0.00    -0.206 F 
ATOM     66  C   UNL A   1      46.196  34.983  27.464  1.00  0.00     0.059 A 
ATOM     67  C   UNL A   1      46.580  34.474  29.807  1.00  0.00     0.059 A 
ATOM     68  F   UNL A   1      46.471  32.251  30.545  1.00  0.00    -0.206 F 
ATOM     69  C   UNL A   1      46.491  35.395  28.766  1.00  0.00     0.060 A 
BRANCH  69  70
ATOM     70  S   UNL A   1      46.736  37.157  29.076  1.00  0.00     0.124 S 
ATOM     71  O   UNL A   1      46.225  37.287  30.437  1.00  0.00    -0.237 OA
ATOM     72  O   UNL A   1      48.180  37.301  28.926  1.00  0.00    -0.237 OA
ATOM     73  O   UNL A   1      45.933  37.801  28.042  1.00  0.00    -0.744 OA
ENDBRANCH  69  70
ENDBRANCH  48  62
BRANCH  49  74
ATOM     74  C   UNL A   1      43.585  23.089  26.771  1.00  0.00     0.058 A 
ATOM     75  C   UNL A   1      43.185  22.284  27.846  1.00  0.00     0.135 A 
ATOM     76  C   UNL A   1      43.594  22.512  25.490  1.00  0.00     0.135 A 
ATOM     77  F   UNL A   1      43.167  22.786  29.090  1.00  0.00    -0.206 F 
ATOM     78  C   UNL A   1      42.809  20.957  27.661  1.00  0.00     0.059 A 
ATOM     79  C   UNL A   1      43.195  21.198  25.276  1.00  0.00     0.059 A 
ATOM     80  F   UNL A   1      43.955  23.245  24.425  1.00  0.00    -0.206 F 
ATOM     81  C   UNL A   1      42.811  20.425  26.370  1.00  0.00     0.060 A 
BRANCH  81  82
ATOM     82  S   UNL A   1      42.261  18.723  26.128  1.00  0.00     0.124 S 
ATOM     83  O   UNL A   1      40.869  18.918  25.742  1.00  0.00    -0.237 OA
ATOM     84  O   UNL A   1      43.158  18.256  25.074  1.00  0.00    -0.237 OA
ATOM     85  O   UNL A   1      42.476  18.113  27.436  1.00  0.00    -0.744 OA
ENDBRANCH  81  82
ENDBRANCH  49  74
BRANCH  61  86
ATOM     86  C   UNL A   1      49.575  26.643  26.495  1.00  0.00     0.058 A 
ATOM     87  C   UNL A   1      50.406  26.059  27.463  1.00  0.00     0.135 A 
ATOM     88  C   UNL A   1      50.075  26.784  25.192  1.00  0.00     0.135 A 
ATOM     89  F   UNL A   1      49.974  25.910  28.725  1.00  0.00    -0.206 F 
ATOM     90  C   UNL A   1      51.695  25.641  27.152  1.00  0.00     0.059 A 
ATOM     91  C   UNL A   1      51.352  26.354  24.853  1.00  0.00     0.059 A 
ATOM     92  F   UNL A   1      49.313  27.331  24.231  1.00  0.00    -0.206 F 
ATOM     93  C   UNL A   1      52.158  25.790  25.843  1.00  0.00     0.060 A 
BRANCH  93  94
ATOM     94  S   UNL A   1      53.819  25.206  25.444  1.00  0.00     0.124 S 
ATOM     95  O   UNL A   1      54.605  25.802  26.520  1.00  0.00    -0.237 OA
ATOM     96  O   UNL A   1      53.663  23.757  25.500  1.00  0.00    -0.237 OA
ATOM     97  O   UNL A   1      54.062  25.755  24.114  1.00  0.00    -0.744 OA
ENDBRANCH  93  94
ENDBRANCH  61  86
ENDBRANCH  35  36
ENDBRANCH  27  30
ENDBRANCH  25  26
ENDBRANCH   1  25
TORSDOF 16
ENDMDL
