MODEL 1
REMARK VINA RESULT:     -12.0      0.000      0.000
REMARK SMILES O=C(CCCNC(=O)COc1ccc2c3c(c(=O)oc2c1)CCC3)NCCCNC(=O)c1ccc(-c2c3nc(c(-c4c(F)cc(S(=O)(=O)[O-])cc4F)c4ccc([nH]4)c(-c4c(F)cc(S(=O)(=O)[O-])cc4F)c4nc(c(-c5c(F)cc(S(=O)(=O)[O-])cc5F)c5ccc2[nH]5)C=C4)C=C3)cc1
REMARK SMILES IDX 1 1 2 2 25 3 3 5 4 6 5 7 6 8 7 9 8 11 9 12 10 13 11 14 12 15
REMARK SMILES IDX 21 16 13 17 20 18 14 19 19 20 15 21 17 22 16 23 24 24 18 25
REMARK SMILES IDX 22 26 23 27 26 28 27 29 28 30 29 31 30 32 31 34 32 35 33 36
REMARK SMILES IDX 97 37 34 38 96 39 35 40 36 41 37 42 90 43 38 44 95 45 89 46
REMARK SMILES IDX 91 47 39 48 94 49 88 50 87 51 40 53 74 54 53 55 73 56 54 57
REMARK SMILES IDX 57 58 72 59 92 60 55 61 56 62 71 64 93 65 58 66 41 67 42 68
REMARK SMILES IDX 51 69 43 70 44 71 50 72 52 73 45 74 46 75 47 76 48 77 49 78
REMARK SMILES IDX 75 79 76 80 85 81 77 82 78 83 84 84 86 85 79 86 80 87 81 88
REMARK SMILES IDX 82 89 83 90 59 91 60 92 69 93 61 94 62 95 68 96 70 97 63 98
REMARK SMILES IDX 64 99 65 100 66 101 67 102
REMARK H PARENT 25 4 6 10 29 33 91 52 57 63
REMARK Flexibility Score: inf
ROOT
ATOM      1  O   UNL A   1      38.842  24.392  26.008  1.00  0.00    -0.275 OA
ATOM      2  C   UNL A   1      38.212  23.349  26.130  1.00  0.00     0.220 C 
ATOM      3  N   UNL A   1      38.787  22.126  26.383  1.00  0.00    -0.356 N 
ATOM      4  H   UNL A   1      38.195  21.352  26.525  1.00  0.00     0.163 HD
ENDROOT
BRANCH   2   5
ATOM      5  C   UNL A   1      36.707  23.285  25.965  1.00  0.00     0.102 C 
BRANCH   5   6
ATOM      6  C   UNL A   1      36.269  22.110  25.087  1.00  0.00     0.031 C 
BRANCH   6   7
ATOM      7  C   UNL A   1      35.475  21.012  25.800  1.00  0.00     0.116 C 
BRANCH   7   8
ATOM      8  N   UNL A   1      35.234  19.856  24.956  1.00  0.00    -0.353 N 
ATOM      9  C   UNL A   1      34.071  19.184  24.730  1.00  0.00     0.257 C 
ATOM     10  H   UNL A   1      36.022  19.509  24.480  1.00  0.00     0.163 HD
ATOM     11  O   UNL A   1      34.085  18.297  23.874  1.00  0.00    -0.271 OA
BRANCH   9  12
ATOM     12  C   UNL A   1      32.803  19.516  25.518  1.00  0.00     0.329 C 
BRANCH  12  13
ATOM     13  O   UNL A   1      31.891  20.474  25.002  1.00  0.00    -0.484 OA
BRANCH  13  14
ATOM     14  C   UNL A   1      32.316  21.768  24.904  1.00  0.00     0.123 A 
ATOM     15  C   UNL A   1      32.384  22.460  26.119  1.00  0.00     0.047 A 
ATOM     16  C   UNL A   1      32.594  22.443  23.721  1.00  0.00     0.094 A 
ATOM     17  C   UNL A   1      32.740  23.814  26.159  1.00  0.00     0.016 A 
ATOM     18  C   UNL A   1      32.926  23.795  23.770  1.00  0.00     0.142 A 
ATOM     19  C   UNL A   1      33.006  24.497  24.975  1.00  0.00     0.021 A 
ATOM     20  O   UNL A   1      33.157  24.433  22.526  1.00  0.00    -0.422 OA
ATOM     21  C   UNL A   1      33.359  25.899  24.903  1.00  0.00    -0.027 A 
ATOM     22  C   UNL A   1      33.487  25.783  22.440  1.00  0.00     0.339 A 
ATOM     23  C   UNL A   1      33.587  26.481  23.724  1.00  0.00     0.042 A 
ATOM     24  C   UNL A   1      33.519  26.855  26.032  1.00  0.00     0.037 C 
ATOM     25  O   UNL A   1      33.674  26.352  21.375  1.00  0.00    -0.246 OA
ATOM     26  C   UNL A   1      33.944  27.915  23.856  1.00  0.00     0.044 C 
ATOM     27  C   UNL A   1      33.539  28.207  25.304  1.00  0.00     0.010 C 
ENDBRANCH  13  14
ENDBRANCH  12  13
ENDBRANCH   9  12
ENDBRANCH   7   8
ENDBRANCH   6   7
ENDBRANCH   5   6
ENDBRANCH   2   5
BRANCH   3  28
ATOM     28  C   UNL A   1      40.219  21.919  26.451  1.00  0.00     0.117 C 
BRANCH  28  29
ATOM     29  C   UNL A   1      40.797  22.358  27.790  1.00  0.00     0.042 C 
BRANCH  29  30
ATOM     30  C   UNL A   1      42.146  23.069  27.713  1.00  0.00     0.118 C 
BRANCH  30  31
ATOM     31  N   UNL A   1      42.329  23.833  26.490  1.00  0.00    -0.352 N 
ATOM     32  C   UNL A   1      42.188  25.182  26.268  1.00  0.00     0.251 C 
ATOM     33  H   UNL A   1      42.594  23.304  25.703  1.00  0.00     0.163 HD
ATOM     34  O   UNL A   1      42.259  25.606  25.117  1.00  0.00    -0.269 OA
BRANCH  32  35
ATOM     35  C   UNL A   1      41.926  26.119  27.388  1.00  0.00     0.039 A 
ATOM     36  C   UNL A   1      40.738  25.977  28.111  1.00  0.00     0.014 A 
ATOM     37  C   UNL A   1      42.812  27.150  27.710  1.00  0.00     0.014 A 
ATOM     38  C   UNL A   1      40.463  26.841  29.176  1.00  0.00     0.010 A 
ATOM     39  C   UNL A   1      42.577  27.953  28.827  1.00  0.00     0.010 A 
ATOM     40  C   UNL A   1      41.389  27.824  29.560  1.00  0.00    -0.014 A 
BRANCH  40  41
ATOM     41  C   UNL A   1      41.101  28.742  30.697  1.00  0.00     0.031 A 
ATOM     42  C   UNL A   1      41.909  28.659  31.967  1.00  0.00     0.074 A 
ATOM     43  C   UNL A   1      40.099  29.640  30.598  1.00  0.00     0.049 A 
ATOM     44  N   UNL A   1      41.812  29.375  33.058  1.00  0.00    -0.248 NA
ATOM     45  C   UNL A   1      42.948  27.618  32.029  1.00  0.00     0.031 C 
ATOM     46  C   UNL A   1      39.208  29.791  29.446  1.00  0.00     0.029 A 
ATOM     47  N   UNL A   1      39.663  30.599  31.480  1.00  0.00    -0.354 N 
ATOM     48  C   UNL A   1      42.767  28.869  33.934  1.00  0.00     0.074 A 
ATOM     49  C   UNL A   1      43.388  27.743  33.273  1.00  0.00     0.031 C 
ATOM     50  C   UNL A   1      38.354  30.802  29.678  1.00  0.00     0.029 A 
ATOM     51  C   UNL A   1      38.612  31.351  31.006  1.00  0.00     0.049 A 
ATOM     52  H   UNL A   1      40.063  30.735  32.370  1.00  0.00     0.167 HD
ATOM     53  C   UNL A   1      43.118  29.317  35.165  1.00  0.00     0.037 A 
ATOM     54  C   UNL A   1      37.936  32.370  31.573  1.00  0.00     0.037 A 
ATOM     55  C   UNL A   1      42.510  30.451  35.812  1.00  0.00     0.049 A 
ATOM     56  C   UNL A   1      38.346  32.854  32.939  1.00  0.00     0.074 A 
ATOM     57  C   UNL A   1      42.826  31.013  37.037  1.00  0.00     0.029 A 
ATOM     58  N   UNL A   1      41.463  31.196  35.291  1.00  0.00    -0.354 N 
ATOM     59  N   UNL A   1      39.294  32.402  33.725  1.00  0.00    -0.248 NA
ATOM     60  C   UNL A   1      37.604  33.996  33.489  1.00  0.00     0.031 C 
ATOM     61  C   UNL A   1      41.937  32.065  37.280  1.00  0.00     0.029 A 
ATOM     62  C   UNL A   1      41.110  32.202  36.176  1.00  0.00     0.049 A 
ATOM     63  H   UNL A   1      41.034  31.035  34.420  1.00  0.00     0.167 HD
ATOM     64  C   UNL A   1      39.291  33.231  34.843  1.00  0.00     0.074 A 
ATOM     65  C   UNL A   1      38.250  34.215  34.625  1.00  0.00     0.031 C 
ATOM     66  C   UNL A   1      40.080  33.185  35.945  1.00  0.00     0.037 A 
BRANCH  53  67
ATOM     67  C   UNL A   1      44.213  28.580  35.890  1.00  0.00     0.058 A 
ATOM     68  C   UNL A   1      43.940  27.487  36.730  1.00  0.00     0.135 A 
ATOM     69  C   UNL A   1      45.558  28.947  35.718  1.00  0.00     0.135 A 
ATOM     70  F   UNL A   1      42.672  27.100  36.945  1.00  0.00    -0.206 F 
ATOM     71  C   UNL A   1      44.953  26.808  37.398  1.00  0.00     0.059 A 
ATOM     72  C   UNL A   1      46.592  28.261  36.349  1.00  0.00     0.059 A 
ATOM     73  F   UNL A   1      45.881  29.982  34.926  1.00  0.00    -0.206 F 
ATOM     74  C   UNL A   1      46.278  27.202  37.200  1.00  0.00     0.060 A 
BRANCH  74  75
ATOM     75  S   UNL A   1      47.581  26.303  38.067  1.00  0.00     0.124 S 
ATOM     76  O   UNL A   1      48.434  27.396  38.525  1.00  0.00    -0.237 OA
ATOM     77  O   UNL A   1      46.836  25.602  39.108  1.00  0.00    -0.237 OA
ATOM     78  O   UNL A   1      48.156  25.452  37.031  1.00  0.00    -0.744 OA
ENDBRANCH  74  75
ENDBRANCH  53  67
BRANCH  54  79
ATOM     79  C   UNL A   1      36.821  33.026  30.836  1.00  0.00     0.058 A 
ATOM     80  C   UNL A   1      35.485  32.664  31.069  1.00  0.00     0.135 A 
ATOM     81  C   UNL A   1      37.068  34.029  29.884  1.00  0.00     0.135 A 
ATOM     82  F   UNL A   1      35.196  31.706  31.964  1.00  0.00    -0.206 F 
ATOM     83  C   UNL A   1      34.436  33.255  30.371  1.00  0.00     0.059 A 
ATOM     84  C   UNL A   1      36.033  34.655  29.197  1.00  0.00     0.059 A 
ATOM     85  F   UNL A   1      38.325  34.424  29.635  1.00  0.00    -0.206 F 
ATOM     86  C   UNL A   1      34.721  34.253  29.438  1.00  0.00     0.060 A 
BRANCH  86  87
ATOM     87  S   UNL A   1      33.348  35.042  28.569  1.00  0.00     0.124 S 
ATOM     88  O   UNL A   1      34.051  35.848  27.578  1.00  0.00    -0.237 OA
ATOM     89  O   UNL A   1      32.613  33.892  28.052  1.00  0.00    -0.237 OA
ATOM     90  O   UNL A   1      32.668  35.789  29.623  1.00  0.00    -0.744 OA
ENDBRANCH  86  87
ENDBRANCH  54  79
BRANCH  66  91
ATOM     91  C   UNL A   1      39.895  34.266  36.977  1.00  0.00     0.058 A 
ATOM     92  C   UNL A   1      40.612  35.472  36.936  1.00  0.00     0.135 A 
ATOM     93  C   UNL A   1      38.959  34.099  38.011  1.00  0.00     0.135 A 
ATOM     94  F   UNL A   1      41.520  35.685  35.970  1.00  0.00    -0.206 F 
ATOM     95  C   UNL A   1      40.439  36.455  37.907  1.00  0.00     0.059 A 
ATOM     96  C   UNL A   1      38.745  35.082  38.973  1.00  0.00     0.059 A 
ATOM     97  F   UNL A   1      38.233  32.972  38.092  1.00  0.00    -0.206 F 
ATOM     98  C   UNL A   1      39.506  36.248  38.923  1.00  0.00     0.060 A 
BRANCH  98  99
ATOM     99  S   UNL A   1      39.289  37.531  40.175  1.00  0.00     0.124 S 
ATOM    100  O   UNL A   1      38.912  36.741  41.342  1.00  0.00    -0.237 OA
ATOM    101  O   UNL A   1      40.612  38.145  40.226  1.00  0.00    -0.237 OA
ATOM    102  O   UNL A   1      38.233  38.373  39.620  1.00  0.00    -0.744 OA
ENDBRANCH  98  99
ENDBRANCH  66  91
ENDBRANCH  40  41
ENDBRANCH  32  35
ENDBRANCH  30  31
ENDBRANCH  29  30
ENDBRANCH  28  29
ENDBRANCH   3  28
TORSDOF 19
ENDMDL
MODEL 2
REMARK VINA RESULT:     -11.5      1.557      2.400
REMARK SMILES O=C(CCCNC(=O)COc1ccc2c3c(c(=O)oc2c1)CCC3)NCCCNC(=O)c1ccc(-c2c3nc(c(-c4c(F)cc(S(=O)(=O)[O-])cc4F)c4ccc([nH]4)c(-c4c(F)cc(S(=O)(=O)[O-])cc4F)c4nc(c(-c5c(F)cc(S(=O)(=O)[O-])cc5F)c5ccc2[nH]5)C=C4)C=C3)cc1
REMARK SMILES IDX 1 1 2 2 25 3 3 5 4 6 5 7 6 8 7 9 8 11 9 12 10 13 11 14 12 15
REMARK SMILES IDX 21 16 13 17 20 18 14 19 19 20 15 21 17 22 16 23 24 24 18 25
REMARK SMILES IDX 22 26 23 27 26 28 27 29 28 30 29 31 30 32 31 34 32 35 33 36
REMARK SMILES IDX 97 37 34 38 96 39 35 40 36 41 37 42 90 43 38 44 95 45 89 46
REMARK SMILES IDX 91 47 39 48 94 49 88 50 87 51 40 53 74 54 53 55 73 56 54 57
REMARK SMILES IDX 57 58 72 59 92 60 55 61 56 62 71 64 93 65 58 66 41 67 42 68
REMARK SMILES IDX 51 69 43 70 44 71 50 72 52 73 45 74 46 75 47 76 48 77 49 78
REMARK SMILES IDX 75 79 76 80 85 81 77 82 78 83 84 84 86 85 79 86 80 87 81 88
REMARK SMILES IDX 82 89 83 90 59 91 60 92 69 93 61 94 62 95 68 96 70 97 63 98
REMARK SMILES IDX 64 99 65 100 66 101 67 102
REMARK H PARENT 25 4 6 10 29 33 91 52 57 63
REMARK Flexibility Score: inf
ROOT
ATOM      1  O   UNL A   1      36.504  23.106  22.824  1.00  0.00    -0.275 OA
ATOM      2  C   UNL A   1      35.733  23.411  23.727  1.00  0.00     0.220 C 
ATOM      3  N   UNL A   1      36.061  23.391  25.062  1.00  0.00    -0.356 N 
ATOM      4  H   UNL A   1      35.395  23.710  25.711  1.00  0.00     0.163 HD
ENDROOT
BRANCH   2   5
ATOM      5  C   UNL A   1      34.294  23.805  23.466  1.00  0.00     0.102 C 
BRANCH   5   6
ATOM      6  C   UNL A   1      33.647  22.950  22.372  1.00  0.00     0.031 C 
BRANCH   6   7
ATOM      7  C   UNL A   1      32.568  21.974  22.848  1.00  0.00     0.116 C 
BRANCH   7   8
ATOM      8  N   UNL A   1      33.065  21.019  23.820  1.00  0.00    -0.353 N 
ATOM      9  C   UNL A   1      32.707  20.852  25.124  1.00  0.00     0.257 C 
ATOM     10  H   UNL A   1      33.759  20.404  23.491  1.00  0.00     0.163 HD
ATOM     11  O   UNL A   1      33.185  19.889  25.726  1.00  0.00    -0.271 OA
BRANCH   9  12
ATOM     12  C   UNL A   1      31.754  21.833  25.810  1.00  0.00     0.329 C 
BRANCH  12  13
ATOM     13  O   UNL A   1      32.273  23.021  26.388  1.00  0.00    -0.484 OA
BRANCH  13  14
ATOM     14  C   UNL A   1      31.804  24.214  25.915  1.00  0.00     0.123 A 
ATOM     15  C   UNL A   1      30.704  24.116  25.054  1.00  0.00     0.047 A 
ATOM     16  C   UNL A   1      32.373  25.461  26.152  1.00  0.00     0.094 A 
ATOM     17  C   UNL A   1      30.163  25.254  24.443  1.00  0.00     0.016 A 
ATOM     18  C   UNL A   1      31.841  26.583  25.522  1.00  0.00     0.142 A 
ATOM     19  C   UNL A   1      30.738  26.503  24.668  1.00  0.00     0.021 A 
ATOM     20  O   UNL A   1      32.492  27.816  25.775  1.00  0.00    -0.422 OA
ATOM     21  C   UNL A   1      30.273  27.735  24.069  1.00  0.00    -0.027 A 
ATOM     22  C   UNL A   1      32.063  29.008  25.198  1.00  0.00     0.339 A 
ATOM     23  C   UNL A   1      30.890  28.891  24.328  1.00  0.00     0.042 A 
ATOM     24  C   UNL A   1      29.124  27.918  23.141  1.00  0.00     0.037 C 
ATOM     25  O   UNL A   1      32.622  30.077  25.391  1.00  0.00    -0.246 OA
ATOM     26  C   UNL A   1      30.262  30.040  23.631  1.00  0.00     0.044 C 
ATOM     27  C   UNL A   1      29.369  29.335  22.605  1.00  0.00     0.010 C 
ENDBRANCH  13  14
ENDBRANCH  12  13
ENDBRANCH   9  12
ENDBRANCH   7   8
ENDBRANCH   6   7
ENDBRANCH   5   6
ENDBRANCH   2   5
BRANCH   3  28
ATOM     28  C   UNL A   1      37.338  22.923  25.560  1.00  0.00     0.117 C 
BRANCH  28  29
ATOM     29  C   UNL A   1      38.184  24.059  26.120  1.00  0.00     0.042 C 
BRANCH  29  30
ATOM     30  C   UNL A   1      39.466  23.627  26.828  1.00  0.00     0.118 C 
BRANCH  30  31
ATOM     31  N   UNL A   1      40.676  23.995  26.111  1.00  0.00    -0.352 N 
ATOM     32  C   UNL A   1      41.498  25.084  26.277  1.00  0.00     0.251 C 
ATOM     33  H   UNL A   1      40.946  23.370  25.400  1.00  0.00     0.163 HD
ATOM     34  O   UNL A   1      42.402  25.276  25.466  1.00  0.00    -0.269 OA
BRANCH  32  35
ATOM     35  C   UNL A   1      41.292  26.035  27.396  1.00  0.00     0.039 A 
ATOM     36  C   UNL A   1      40.327  25.731  28.361  1.00  0.00     0.014 A 
ATOM     37  C   UNL A   1      42.007  27.232  27.489  1.00  0.00     0.014 A 
ATOM     38  C   UNL A   1      40.110  26.604  29.431  1.00  0.00     0.010 A 
ATOM     39  C   UNL A   1      41.852  28.057  28.603  1.00  0.00     0.010 A 
ATOM     40  C   UNL A   1      40.886  27.766  29.577  1.00  0.00    -0.014 A 
BRANCH  40  41
ATOM     41  C   UNL A   1      40.661  28.695  30.719  1.00  0.00     0.031 A 
ATOM     42  C   UNL A   1      41.489  28.573  31.974  1.00  0.00     0.074 A 
ATOM     43  C   UNL A   1      39.700  29.638  30.640  1.00  0.00     0.049 A 
ATOM     44  N   UNL A   1      41.445  29.293  33.067  1.00  0.00    -0.248 NA
ATOM     45  C   UNL A   1      42.480  27.486  32.017  1.00  0.00     0.031 C 
ATOM     46  C   UNL A   1      38.795  29.830  29.505  1.00  0.00     0.029 A 
ATOM     47  N   UNL A   1      39.324  30.614  31.530  1.00  0.00    -0.354 N 
ATOM     48  C   UNL A   1      42.392  28.742  33.924  1.00  0.00     0.074 A 
ATOM     49  C   UNL A   1      42.948  27.589  33.252  1.00  0.00     0.031 C 
ATOM     50  C   UNL A   1      37.993  30.879  29.752  1.00  0.00     0.029 A 
ATOM     51  C   UNL A   1      38.301  31.415  31.075  1.00  0.00     0.049 A 
ATOM     52  H   UNL A   1      39.747  30.732  32.411  1.00  0.00     0.167 HD
ATOM     53  C   UNL A   1      42.786  29.173  35.148  1.00  0.00     0.037 A 
ATOM     54  C   UNL A   1      37.682  32.462  31.655  1.00  0.00     0.037 A 
ATOM     55  C   UNL A   1      42.244  30.333  35.807  1.00  0.00     0.049 A 
ATOM     56  C   UNL A   1      38.140  32.926  33.014  1.00  0.00     0.074 A 
ATOM     57  C   UNL A   1      42.608  30.878  37.026  1.00  0.00     0.029 A 
ATOM     58  N   UNL A   1      41.222  31.126  35.306  1.00  0.00    -0.354 N 
ATOM     59  N   UNL A   1      39.081  32.430  33.781  1.00  0.00    -0.248 NA
ATOM     60  C   UNL A   1      37.462  34.101  33.578  1.00  0.00     0.031 C 
ATOM     61  C   UNL A   1      41.772  31.969  37.285  1.00  0.00     0.029 A 
ATOM     62  C   UNL A   1      40.932  32.145  36.198  1.00  0.00     0.049 A 
ATOM     63  H   UNL A   1      40.770  30.985  34.443  1.00  0.00     0.167 HD
ATOM     64  C   UNL A   1      39.137  33.258  34.899  1.00  0.00     0.074 A 
ATOM     65  C   UNL A   1      38.138  34.289  34.701  1.00  0.00     0.031 C 
ATOM     66  C   UNL A   1      39.944  33.174  35.986  1.00  0.00     0.037 A 
BRANCH  53  67
ATOM     67  C   UNL A   1      43.860  28.385  35.853  1.00  0.00     0.058 A 
ATOM     68  C   UNL A   1      45.225  28.673  35.677  1.00  0.00     0.135 A 
ATOM     69  C   UNL A   1      43.523  27.353  36.743  1.00  0.00     0.135 A 
ATOM     70  F   UNL A   1      45.608  29.639  34.828  1.00  0.00    -0.206 F 
ATOM     71  C   UNL A   1      46.213  27.945  36.329  1.00  0.00     0.059 A 
ATOM     72  C   UNL A   1      44.495  26.633  37.432  1.00  0.00     0.059 A 
ATOM     73  F   UNL A   1      42.235  27.034  36.952  1.00  0.00    -0.206 F 
ATOM     74  C   UNL A   1      45.838  26.927  37.208  1.00  0.00     0.060 A 
BRANCH  74  75
ATOM     75  S   UNL A   1      47.135  25.998  38.052  1.00  0.00     0.124 S 
ATOM     76  O   UNL A   1      47.155  26.647  39.360  1.00  0.00    -0.237 OA
ATOM     77  O   UNL A   1      46.610  24.637  38.029  1.00  0.00    -0.237 OA
ATOM     78  O   UNL A   1      48.314  26.227  37.223  1.00  0.00    -0.744 OA
ENDBRANCH  74  75
ENDBRANCH  53  67
BRANCH  54  79
ATOM     79  C   UNL A   1      36.585  33.169  30.939  1.00  0.00     0.058 A 
ATOM     80  C   UNL A   1      35.243  32.983  31.304  1.00  0.00     0.135 A 
ATOM     81  C   UNL A   1      36.855  34.047  29.877  1.00  0.00     0.135 A 
ATOM     82  F   UNL A   1      34.930  32.150  32.309  1.00  0.00    -0.206 F 
ATOM     83  C   UNL A   1      34.207  33.622  30.629  1.00  0.00     0.059 A 
ATOM     84  C   UNL A   1      35.839  34.720  29.207  1.00  0.00     0.059 A 
ATOM     85  F   UNL A   1      38.122  34.274  29.498  1.00  0.00    -0.206 F 
ATOM     86  C   UNL A   1      34.516  34.492  29.583  1.00  0.00     0.060 A 
BRANCH  86  87
ATOM     87  S   UNL A   1      33.166  35.347  28.741  1.00  0.00     0.124 S 
ATOM     88  O   UNL A   1      33.892  36.324  27.938  1.00  0.00    -0.237 OA
ATOM     89  O   UNL A   1      32.529  34.261  28.003  1.00  0.00    -0.237 OA
ATOM     90  O   UNL A   1      32.378  35.894  29.841  1.00  0.00    -0.744 OA
ENDBRANCH  86  87
ENDBRANCH  54  79
BRANCH  66  91
ATOM     91  C   UNL A   1      39.827  34.262  37.021  1.00  0.00     0.058 A 
ATOM     92  C   UNL A   1      39.051  34.111  38.181  1.00  0.00     0.135 A 
ATOM     93  C   UNL A   1      40.531  35.467  36.859  1.00  0.00     0.135 A 
ATOM     94  F   UNL A   1      38.357  32.981  38.388  1.00  0.00    -0.206 F 
ATOM     95  C   UNL A   1      38.942  35.133  39.121  1.00  0.00     0.059 A 
ATOM     96  C   UNL A   1      40.463  36.488  37.803  1.00  0.00     0.059 A 
ATOM     97  F   UNL A   1      41.301  35.661  35.777  1.00  0.00    -0.206 F 
ATOM     98  C   UNL A   1      39.649  36.318  38.921  1.00  0.00     0.060 A 
BRANCH  98  99
ATOM     99  S   UNL A   1      39.501  37.635  40.147  1.00  0.00     0.124 S 
ATOM    100  O   UNL A   1      40.880  38.101  40.245  1.00  0.00    -0.237 OA
ATOM    101  O   UNL A   1      38.565  38.554  39.508  1.00  0.00    -0.237 OA
ATOM    102  O   UNL A   1      38.987  36.944  41.327  1.00  0.00    -0.744 OA
ENDBRANCH  98  99
ENDBRANCH  66  91
ENDBRANCH  40  41
ENDBRANCH  32  35
ENDBRANCH  30  31
ENDBRANCH  29  30
ENDBRANCH  28  29
ENDBRANCH   3  28
TORSDOF 19
ENDMDL
MODEL 3
REMARK VINA RESULT:     -11.5      1.337      2.280
REMARK SMILES O=C(CCCNC(=O)COc1ccc2c3c(c(=O)oc2c1)CCC3)NCCCNC(=O)c1ccc(-c2c3nc(c(-c4c(F)cc(S(=O)(=O)[O-])cc4F)c4ccc([nH]4)c(-c4c(F)cc(S(=O)(=O)[O-])cc4F)c4nc(c(-c5c(F)cc(S(=O)(=O)[O-])cc5F)c5ccc2[nH]5)C=C4)C=C3)cc1
REMARK SMILES IDX 1 1 2 2 25 3 3 5 4 6 5 7 6 8 7 9 8 11 9 12 10 13 11 14 12 15
REMARK SMILES IDX 21 16 13 17 20 18 14 19 19 20 15 21 17 22 16 23 24 24 18 25
REMARK SMILES IDX 22 26 23 27 26 28 27 29 28 30 29 31 30 32 31 34 32 35 33 36
REMARK SMILES IDX 97 37 34 38 96 39 35 40 36 41 37 42 90 43 38 44 95 45 89 46
REMARK SMILES IDX 91 47 39 48 94 49 88 50 87 51 40 53 74 54 53 55 73 56 54 57
REMARK SMILES IDX 57 58 72 59 92 60 55 61 56 62 71 64 93 65 58 66 41 67 42 68
REMARK SMILES IDX 51 69 43 70 44 71 50 72 52 73 45 74 46 75 47 76 48 77 49 78
REMARK SMILES IDX 75 79 76 80 85 81 77 82 78 83 84 84 86 85 79 86 80 87 81 88
REMARK SMILES IDX 82 89 83 90 59 91 60 92 69 93 61 94 62 95 68 96 70 97 63 98
REMARK SMILES IDX 64 99 65 100 66 101 67 102
REMARK H PARENT 25 4 6 10 29 33 91 52 57 63
REMARK Flexibility Score: inf
ROOT
ATOM      1  O   UNL A   1      41.642  22.741  26.793  1.00  0.00    -0.275 OA
ATOM      2  C   UNL A   1      41.862  21.858  27.614  1.00  0.00     0.220 C 
ATOM      3  N   UNL A   1      42.782  21.961  28.630  1.00  0.00    -0.356 N 
ATOM      4  H   UNL A   1      42.847  21.223  29.277  1.00  0.00     0.163 HD
ENDROOT
BRANCH   2   5
ATOM      5  C   UNL A   1      41.163  20.514  27.567  1.00  0.00     0.102 C 
BRANCH   5   6
ATOM      6  C   UNL A   1      40.705  20.147  26.153  1.00  0.00     0.031 C 
BRANCH   6   7
ATOM      7  C   UNL A   1      39.260  20.518  25.808  1.00  0.00     0.116 C 
BRANCH   7   8
ATOM      8  N   UNL A   1      39.055  21.952  25.722  1.00  0.00    -0.353 N 
ATOM      9  C   UNL A   1      37.893  22.660  25.779  1.00  0.00     0.257 C 
ATOM     10  H   UNL A   1      39.872  22.490  25.607  1.00  0.00     0.163 HD
ATOM     11  O   UNL A   1      37.977  23.890  25.802  1.00  0.00    -0.271 OA
BRANCH   9  12
ATOM     12  C   UNL A   1      36.539  21.949  25.802  1.00  0.00     0.329 C 
BRANCH  12  13
ATOM     13  O   UNL A   1      35.769  21.874  24.612  1.00  0.00    -0.484 OA
BRANCH  13  14
ATOM     14  C   UNL A   1      34.942  22.922  24.323  1.00  0.00     0.123 A 
ATOM     15  C   UNL A   1      34.414  23.582  25.440  1.00  0.00     0.047 A 
ATOM     16  C   UNL A   1      34.537  23.311  23.051  1.00  0.00     0.094 A 
ATOM     17  C   UNL A   1      33.499  24.632  25.293  1.00  0.00     0.016 A 
ATOM     18  C   UNL A   1      33.610  24.341  22.917  1.00  0.00     0.142 A 
ATOM     19  C   UNL A   1      33.081  25.015  24.020  1.00  0.00     0.021 A 
ATOM     20  O   UNL A   1      33.209  24.660  21.595  1.00  0.00    -0.422 OA
ATOM     21  C   UNL A   1      32.124  26.068  23.758  1.00  0.00    -0.027 A 
ATOM     22  C   UNL A   1      32.283  25.664  21.327  1.00  0.00     0.339 A 
ATOM     23  C   UNL A   1      31.768  26.365  22.506  1.00  0.00     0.042 A 
ATOM     24  C   UNL A   1      31.431  26.933  24.750  1.00  0.00     0.037 C 
ATOM     25  O   UNL A   1      31.914  25.941  20.196  1.00  0.00    -0.246 OA
ATOM     26  C   UNL A   1      30.788  27.477  22.441  1.00  0.00     0.044 C 
ATOM     27  C   UNL A   1      30.324  27.572  23.898  1.00  0.00     0.010 C 
ENDBRANCH  13  14
ENDBRANCH  12  13
ENDBRANCH   9  12
ENDBRANCH   7   8
ENDBRANCH   6   7
ENDBRANCH   5   6
ENDBRANCH   2   5
BRANCH   3  28
ATOM     28  C   UNL A   1      43.661  23.100  28.794  1.00  0.00     0.117 C 
BRANCH  28  29
ATOM     29  C   UNL A   1      44.750  23.140  27.730  1.00  0.00     0.042 C 
BRANCH  29  30
ATOM     30  C   UNL A   1      44.963  24.499  27.068  1.00  0.00     0.118 C 
BRANCH  30  31
ATOM     31  N   UNL A   1      44.024  24.771  25.992  1.00  0.00    -0.352 N 
ATOM     32  C   UNL A   1      42.912  25.579  25.981  1.00  0.00     0.251 C 
ATOM     33  H   UNL A   1      44.215  24.309  25.144  1.00  0.00     0.163 HD
ATOM     34  O   UNL A   1      42.174  25.561  24.998  1.00  0.00    -0.269 OA
BRANCH  32  35
ATOM     35  C   UNL A   1      42.580  26.441  27.141  1.00  0.00     0.039 A 
ATOM     36  C   UNL A   1      41.615  25.994  28.049  1.00  0.00     0.014 A 
ATOM     37  C   UNL A   1      43.175  27.692  27.326  1.00  0.00     0.014 A 
ATOM     38  C   UNL A   1      41.282  26.781  29.156  1.00  0.00     0.010 A 
ATOM     39  C   UNL A   1      42.906  28.433  28.476  1.00  0.00     0.010 A 
ATOM     40  C   UNL A   1      41.940  27.999  29.395  1.00  0.00    -0.014 A 
BRANCH  40  41
ATOM     41  C   UNL A   1      41.591  28.837  30.575  1.00  0.00     0.031 A 
ATOM     42  C   UNL A   1      42.399  28.738  31.845  1.00  0.00     0.074 A 
ATOM     43  C   UNL A   1      40.534  29.673  30.518  1.00  0.00     0.049 A 
ATOM     44  N   UNL A   1      42.254  29.390  32.971  1.00  0.00    -0.248 NA
ATOM     45  C   UNL A   1      43.502  27.763  31.859  1.00  0.00     0.031 C 
ATOM     46  C   UNL A   1      39.639  29.827  29.369  1.00  0.00     0.029 A 
ATOM     47  N   UNL A   1      40.036  30.555  31.445  1.00  0.00    -0.354 N 
ATOM     48  C   UNL A   1      43.237  28.900  33.825  1.00  0.00     0.074 A 
ATOM     49  C   UNL A   1      43.929  27.851  33.111  1.00  0.00     0.031 C 
ATOM     50  C   UNL A   1      38.722  30.769  29.648  1.00  0.00     0.029 A 
ATOM     51  C   UNL A   1      38.941  31.264  31.004  1.00  0.00     0.049 A 
ATOM     52  H   UNL A   1      40.424  30.670  32.343  1.00  0.00     0.167 HD
ATOM     53  C   UNL A   1      43.555  29.304  35.079  1.00  0.00     0.037 A 
ATOM     54  C   UNL A   1      38.200  32.206  31.619  1.00  0.00     0.037 A 
ATOM     55  C   UNL A   1      42.875  30.363  35.781  1.00  0.00     0.049 A 
ATOM     56  C   UNL A   1      38.575  32.643  33.011  1.00  0.00     0.074 A 
ATOM     57  C   UNL A   1      43.151  30.878  37.035  1.00  0.00     0.029 A 
ATOM     58  N   UNL A   1      41.784  31.066  35.293  1.00  0.00    -0.354 N 
ATOM     59  N   UNL A   1      39.547  32.212  33.778  1.00  0.00    -0.248 NA
ATOM     60  C   UNL A   1      37.761  33.707  33.615  1.00  0.00     0.031 C 
ATOM     61  C   UNL A   1      42.196  31.858  37.326  1.00  0.00     0.029 A 
ATOM     62  C   UNL A   1      41.365  32.000  36.227  1.00  0.00     0.049 A 
ATOM     63  H   UNL A   1      41.369  30.924  34.412  1.00  0.00     0.167 HD
ATOM     64  C   UNL A   1      39.488  32.980  34.937  1.00  0.00     0.074 A 
ATOM     65  C   UNL A   1      38.388  33.907  34.765  1.00  0.00     0.031 C 
ATOM     66  C   UNL A   1      40.276  32.926  36.040  1.00  0.00     0.037 A 
BRANCH  53  67
ATOM     67  C   UNL A   1      44.693  28.601  35.772  1.00  0.00     0.058 A 
ATOM     68  C   UNL A   1      46.026  29.018  35.616  1.00  0.00     0.135 A 
ATOM     69  C   UNL A   1      44.447  27.518  36.632  1.00  0.00     0.135 A 
ATOM     70  F   UNL A   1      46.323  30.038  34.796  1.00  0.00    -0.206 F 
ATOM     71  C   UNL A   1      47.073  28.367  36.258  1.00  0.00     0.059 A 
ATOM     72  C   UNL A   1      45.477  26.872  37.311  1.00  0.00     0.059 A 
ATOM     73  F   UNL A   1      43.193  27.076  36.822  1.00  0.00    -0.206 F 
ATOM     74  C   UNL A   1      46.789  27.295  37.105  1.00  0.00     0.060 A 
BRANCH  74  75
ATOM     75  S   UNL A   1      48.161  26.468  37.937  1.00  0.00     0.124 S 
ATOM     76  O   UNL A   1      49.215  27.473  37.832  1.00  0.00    -0.237 OA
ATOM     77  O   UNL A   1      47.627  26.248  39.277  1.00  0.00    -0.237 OA
ATOM     78  O   UNL A   1      48.365  25.262  37.141  1.00  0.00    -0.744 OA
ENDBRANCH  74  75
ENDBRANCH  53  67
BRANCH  54  79
ATOM     79  C   UNL A   1      37.047  32.828  30.910  1.00  0.00     0.058 A 
ATOM     80  C   UNL A   1      35.731  32.413  31.163  1.00  0.00     0.135 A 
ATOM     81  C   UNL A   1      37.239  33.851  29.967  1.00  0.00     0.135 A 
ATOM     82  F   UNL A   1      35.494  31.435  32.050  1.00  0.00    -0.206 F 
ATOM     83  C   UNL A   1      34.648  32.972  30.491  1.00  0.00     0.059 A 
ATOM     84  C   UNL A   1      36.169  34.446  29.306  1.00  0.00     0.059 A 
ATOM     85  F   UNL A   1      38.475  34.297  29.700  1.00  0.00    -0.206 F 
ATOM     86  C   UNL A   1      34.877  33.991  29.565  1.00  0.00     0.060 A 
BRANCH  86  87
ATOM     87  S   UNL A   1      33.460  34.738  28.730  1.00  0.00     0.124 S 
ATOM     88  O   UNL A   1      32.531  34.926  29.838  1.00  0.00    -0.237 OA
ATOM     89  O   UNL A   1      34.042  35.953  28.170  1.00  0.00    -0.237 OA
ATOM     90  O   UNL A   1      33.077  33.726  27.751  1.00  0.00    -0.744 OA
ENDBRANCH  86  87
ENDBRANCH  54  79
BRANCH  66  91
ATOM     91  C   UNL A   1      40.019  33.938  37.126  1.00  0.00     0.058 A 
ATOM     92  C   UNL A   1      40.614  35.210  37.121  1.00  0.00     0.135 A 
ATOM     93  C   UNL A   1      39.137  33.635  38.177  1.00  0.00     0.135 A 
ATOM     94  F   UNL A   1      41.467  35.553  36.141  1.00  0.00    -0.206 F 
ATOM     95  C   UNL A   1      40.379  36.128  38.140  1.00  0.00     0.059 A 
ATOM     96  C   UNL A   1      38.860  34.551  39.188  1.00  0.00     0.059 A 
ATOM     97  F   UNL A   1      38.527  32.441  38.225  1.00  0.00    -0.206 F 
ATOM     98  C   UNL A   1      39.502  35.787  39.171  1.00  0.00     0.060 A 
BRANCH  98  99
ATOM     99  S   UNL A   1      39.202  36.987  40.486  1.00  0.00     0.124 S 
ATOM    100  O   UNL A   1      38.505  38.045  39.765  1.00  0.00    -0.237 OA
ATOM    101  O   UNL A   1      38.391  36.222  41.429  1.00  0.00    -0.237 OA
ATOM    102  O   UNL A   1      40.545  37.324  40.952  1.00  0.00    -0.744 OA
ENDBRANCH  98  99
ENDBRANCH  66  91
ENDBRANCH  40  41
ENDBRANCH  32  35
ENDBRANCH  30  31
ENDBRANCH  29  30
ENDBRANCH  28  29
ENDBRANCH   3  28
TORSDOF 19
ENDMDL
