MODEL 1
REMARK VINA RESULT:     -10.9      0.000      0.000
REMARK SMILES C=CC[NH2+]CC(=O)N1CCOC[C@@H]1C(=O)NCCCNC(=O)c1ccc(-c2c3nc(c(-c4c(F)cc(S(=O)(=O)[O-])cc4F)c4ccc([nH]4)c(-c4c(F)cc(S(=O)(=O)[O-])cc4F)c4nc(c(-c5c(F)cc(S(=O)(=O)[O-])cc5F)c5ccc2[nH]5)C=C4)C=C3)cc1
REMARK SMILES IDX 17 1 16 2 14 3 15 4 13 6 8 7 9 8 10 9 12 10 11 11 6 12 7 13
REMARK SMILES IDX 5 14 4 15 3 18 2 19 1 20 18 21 19 22 20 23 21 24 22 26 23 27
REMARK SMILES IDX 24 28 88 29 25 30 87 31 26 32 27 33 28 34 81 35 29 36 86 37
REMARK SMILES IDX 80 38 82 39 30 40 85 41 79 42 78 43 31 45 65 46 44 47 64 48
REMARK SMILES IDX 45 49 48 50 63 51 83 52 46 53 47 54 62 56 84 57 49 58 32 59
REMARK SMILES IDX 33 60 42 61 34 62 35 63 41 64 43 65 36 66 37 67 38 68 39 69
REMARK SMILES IDX 40 70 66 71 67 72 76 73 68 74 69 75 75 76 77 77 70 78 71 79
REMARK SMILES IDX 72 80 73 81 74 82 50 83 51 84 60 85 52 86 53 87 59 88 61 89
REMARK SMILES IDX 54 90 55 91 56 92 57 93 58 94
REMARK H PARENT 16 5 4 16 4 17 20 25 82 44 48 55
REMARK Flexibility Score: inf
ROOT
ATOM      1  C   UNL A   1      36.539  22.500  25.535  1.00  0.00     0.117 C 
ENDROOT
BRANCH   1   2
ATOM      2  N   UNL A   1      35.666  22.532  26.693  1.00  0.00    -0.354 N 
ATOM      3  C   UNL A   1      34.423  23.018  26.925  1.00  0.00     0.245 C 
ATOM      4  O   UNL A   1      33.943  22.672  28.014  1.00  0.00    -0.273 OA
ATOM      5  H   UNL A   1      36.066  22.109  27.487  1.00  0.00     0.163 HD
BRANCH   3   6
ATOM      6  C   UNL A   1      33.634  24.004  26.017  1.00  0.00     0.200 C 
ATOM      7  N   UNL A   1      32.926  23.360  24.871  1.00  0.00    -0.321 N 
ATOM      8  C   UNL A   1      32.126  24.342  24.131  1.00  0.00     0.149 C 
ATOM      9  C   UNL A   1      33.045  25.410  23.564  1.00  0.00     0.181 C 
ATOM     10  C   UNL A   1      34.423  25.211  25.466  1.00  0.00     0.195 C 
ATOM     11  O   UNL A   1      33.643  26.109  24.657  1.00  0.00    -0.377 OA
BRANCH   7  12
ATOM     12  C   UNL A   1      32.361  22.086  24.997  1.00  0.00     0.278 C 
ATOM     13  O   UNL A   1      31.372  21.858  25.689  1.00  0.00    -0.268 OA
BRANCH  12  14
ATOM     14  C   UNL A   1      32.878  21.091  23.922  1.00  0.00     0.362 C 
BRANCH  14  15
ATOM     15  N   UNL A   1      33.851  20.103  24.497  1.00  0.00    -0.335 N 
ATOM     16  H   UNL A   1      34.733  20.162  23.988  1.00  0.00     0.347 HD
ATOM     17  H   UNL A   1      34.005  20.320  25.481  1.00  0.00     0.347 HD
BRANCH  15  18
ATOM     18  C   UNL A   1      33.317  18.751  24.383  1.00  0.00     0.289 C 
BRANCH  18  19
ATOM     19  C   UNL A   1      34.327  17.658  24.248  1.00  0.00     0.025 C 
ATOM     20  C   UNL A   1      34.189  16.687  23.329  1.00  0.00     0.010 C 
ENDBRANCH  18  19
ENDBRANCH  15  18
ENDBRANCH  14  15
ENDBRANCH  12  14
ENDBRANCH   7  12
ENDBRANCH   3   6
ENDBRANCH   1   2
BRANCH   1  21
ATOM     21  C   UNL A   1      37.387  23.757  25.388  1.00  0.00     0.042 C 
BRANCH  21  22
ATOM     22  C   UNL A   1      38.302  24.009  26.582  1.00  0.00     0.118 C 
BRANCH  22  23
ATOM     23  N   UNL A   1      39.709  23.929  26.208  1.00  0.00    -0.352 N 
ATOM     24  C   UNL A   1      40.733  24.804  26.448  1.00  0.00     0.251 C 
ATOM     25  H   UNL A   1      39.960  23.121  25.705  1.00  0.00     0.163 HD
ATOM     26  O   UNL A   1      41.759  24.731  25.762  1.00  0.00    -0.269 OA
BRANCH  24  27
ATOM     27  C   UNL A   1      40.627  25.813  27.519  1.00  0.00     0.039 A 
ATOM     28  C   UNL A   1      39.672  25.649  28.525  1.00  0.00     0.014 A 
ATOM     29  C   UNL A   1      41.430  26.957  27.495  1.00  0.00     0.014 A 
ATOM     30  C   UNL A   1      39.560  26.608  29.535  1.00  0.00     0.010 A 
ATOM     31  C   UNL A   1      41.375  27.866  28.543  1.00  0.00     0.010 A 
ATOM     32  C   UNL A   1      40.429  27.709  29.566  1.00  0.00    -0.014 A 
BRANCH  32  33
ATOM     33  C   UNL A   1      40.366  28.721  30.649  1.00  0.00     0.031 A 
ATOM     34  C   UNL A   1      41.256  28.585  31.854  1.00  0.00     0.074 A 
ATOM     35  C   UNL A   1      39.449  29.705  30.581  1.00  0.00     0.049 A 
ATOM     36  N   UNL A   1      41.280  29.303  32.947  1.00  0.00    -0.248 NA
ATOM     37  C   UNL A   1      42.226  27.476  31.845  1.00  0.00     0.031 C 
ATOM     38  C   UNL A   1      38.497  29.899  29.484  1.00  0.00     0.029 A 
ATOM     39  N   UNL A   1      39.156  30.717  31.458  1.00  0.00    -0.354 N 
ATOM     40  C   UNL A   1      42.245  28.720  33.762  1.00  0.00     0.074 A 
ATOM     41  C   UNL A   1      42.750  27.562  33.058  1.00  0.00     0.031 C 
ATOM     42  C   UNL A   1      37.741  30.978  29.744  1.00  0.00     0.029 A 
ATOM     43  C   UNL A   1      38.126  31.527  31.040  1.00  0.00     0.049 A 
ATOM     44  H   UNL A   1      39.637  30.852  32.306  1.00  0.00     0.167 HD
ATOM     45  C   UNL A   1      42.684  29.128  34.977  1.00  0.00     0.037 A 
ATOM     46  C   UNL A   1      37.551  32.586  31.640  1.00  0.00     0.037 A 
ATOM     47  C   UNL A   1      42.200  30.307  35.646  1.00  0.00     0.049 A 
ATOM     48  C   UNL A   1      38.067  33.030  32.981  1.00  0.00     0.074 A 
ATOM     49  C   UNL A   1      42.631  30.855  36.842  1.00  0.00     0.029 A 
ATOM     50  N   UNL A   1      41.177  31.118  35.179  1.00  0.00    -0.354 N 
ATOM     51  N   UNL A   1      39.029  32.509  33.707  1.00  0.00    -0.248 NA
ATOM     52  C   UNL A   1      37.426  34.206  33.584  1.00  0.00     0.031 C 
ATOM     53  C   UNL A   1      41.839  31.975  37.116  1.00  0.00     0.029 A 
ATOM     54  C   UNL A   1      40.946  32.151  36.072  1.00  0.00     0.049 A 
ATOM     55  H   UNL A   1      40.686  30.981  34.336  1.00  0.00     0.167 HD
ATOM     56  C   UNL A   1      39.123  33.306  34.841  1.00  0.00     0.074 A 
ATOM     57  C   UNL A   1      38.131  34.353  34.698  1.00  0.00     0.031 C 
ATOM     58  C   UNL A   1      39.955  33.185  35.906  1.00  0.00     0.037 A 
BRANCH  45  59
ATOM     59  C   UNL A   1      43.743  28.302  35.654  1.00  0.00     0.058 A 
ATOM     60  C   UNL A   1      43.415  27.267  36.545  1.00  0.00     0.135 A 
ATOM     61  C   UNL A   1      45.103  28.522  35.382  1.00  0.00     0.135 A 
ATOM     62  F   UNL A   1      42.131  27.023  36.854  1.00  0.00    -0.206 F 
ATOM     63  C   UNL A   1      44.396  26.499  37.162  1.00  0.00     0.059 A 
ATOM     64  C   UNL A   1      46.101  27.747  35.968  1.00  0.00     0.059 A 
ATOM     65  F   UNL A   1      45.475  29.498  34.539  1.00  0.00    -0.206 F 
ATOM     66  C   UNL A   1      45.737  26.747  36.868  1.00  0.00     0.060 A 
BRANCH  66  67
ATOM     67  S   UNL A   1      46.997  25.735  37.671  1.00  0.00     0.124 S 
ATOM     68  O   UNL A   1      47.888  25.437  36.552  1.00  0.00    -0.237 OA
ATOM     69  O   UNL A   1      47.532  26.643  38.680  1.00  0.00    -0.237 OA
ATOM     70  O   UNL A   1      46.243  24.599  38.191  1.00  0.00    -0.744 OA
ENDBRANCH  66  67
ENDBRANCH  45  59
BRANCH  46  71
ATOM     71  C   UNL A   1      36.445  33.314  30.964  1.00  0.00     0.058 A 
ATOM     72  C   UNL A   1      35.132  33.238  31.453  1.00  0.00     0.135 A 
ATOM     73  C   UNL A   1      36.677  34.112  29.834  1.00  0.00     0.135 A 
ATOM     74  F   UNL A   1      34.860  32.485  32.529  1.00  0.00    -0.206 F 
ATOM     75  C   UNL A   1      34.085  33.916  30.837  1.00  0.00     0.059 A 
ATOM     76  C   UNL A   1      35.652  34.819  29.215  1.00  0.00     0.059 A 
ATOM     77  F   UNL A   1      37.919  34.233  29.339  1.00  0.00    -0.206 F 
ATOM     78  C   UNL A   1      34.355  34.706  29.719  1.00  0.00     0.060 A 
BRANCH  78  79
ATOM     79  S   UNL A   1      32.997  35.621  28.956  1.00  0.00     0.124 S 
ATOM     80  O   UNL A   1      32.361  34.583  28.153  1.00  0.00    -0.237 OA
ATOM     81  O   UNL A   1      32.246  36.080  30.120  1.00  0.00    -0.237 OA
ATOM     82  O   UNL A   1      33.681  36.671  28.207  1.00  0.00    -0.744 OA
ENDBRANCH  78  79
ENDBRANCH  46  71
BRANCH  58  83
ATOM     83  C   UNL A   1      39.845  34.223  36.986  1.00  0.00     0.058 A 
ATOM     84  C   UNL A   1      40.441  35.486  36.855  1.00  0.00     0.135 A 
ATOM     85  C   UNL A   1      39.089  33.968  38.142  1.00  0.00     0.135 A 
ATOM     86  F   UNL A   1      41.181  35.775  35.772  1.00  0.00    -0.206 F 
ATOM     87  C   UNL A   1      40.308  36.456  37.843  1.00  0.00     0.059 A 
ATOM     88  C   UNL A   1      38.921  34.931  39.130  1.00  0.00     0.059 A 
ATOM     89  F   UNL A   1      38.490  32.778  38.309  1.00  0.00    -0.206 F 
ATOM     90  C   UNL A   1      39.544  36.169  38.976  1.00  0.00     0.060 A 
BRANCH  90  91
ATOM     91  S   UNL A   1      39.348  37.450  40.233  1.00  0.00     0.124 S 
ATOM     92  O   UNL A   1      38.692  36.711  41.305  1.00  0.00    -0.237 OA
ATOM     93  O   UNL A   1      40.728  37.850  40.489  1.00  0.00    -0.237 OA
ATOM     94  O   UNL A   1      38.525  38.455  39.567  1.00  0.00    -0.744 OA
ENDBRANCH  90  91
ENDBRANCH  58  83
ENDBRANCH  32  33
ENDBRANCH  24  27
ENDBRANCH  22  23
ENDBRANCH  21  22
ENDBRANCH   1  21
TORSDOF 18
ENDMDL
MODEL 2
REMARK VINA RESULT:     -10.6      7.008     12.534
REMARK SMILES C=CC[NH2+]CC(=O)N1CCOC[C@@H]1C(=O)NCCCNC(=O)c1ccc(-c2c3nc(c(-c4c(F)cc(S(=O)(=O)[O-])cc4F)c4ccc([nH]4)c(-c4c(F)cc(S(=O)(=O)[O-])cc4F)c4nc(c(-c5c(F)cc(S(=O)(=O)[O-])cc5F)c5ccc2[nH]5)C=C4)C=C3)cc1
REMARK SMILES IDX 17 1 16 2 14 3 15 4 13 6 8 7 9 8 10 9 12 10 11 11 6 12 7 13
REMARK SMILES IDX 5 14 4 15 3 18 2 19 1 20 18 21 19 22 20 23 21 24 22 26 23 27
REMARK SMILES IDX 24 28 88 29 25 30 87 31 26 32 27 33 28 34 81 35 29 36 86 37
REMARK SMILES IDX 80 38 82 39 30 40 85 41 79 42 78 43 31 45 65 46 44 47 64 48
REMARK SMILES IDX 45 49 48 50 63 51 83 52 46 53 47 54 62 56 84 57 49 58 32 59
REMARK SMILES IDX 33 60 42 61 34 62 35 63 41 64 43 65 36 66 37 67 38 68 39 69
REMARK SMILES IDX 40 70 66 71 67 72 76 73 68 74 69 75 75 76 77 77 70 78 71 79
REMARK SMILES IDX 72 80 73 81 74 82 50 83 51 84 60 85 52 86 53 87 59 88 61 89
REMARK SMILES IDX 54 90 55 91 56 92 57 93 58 94
REMARK H PARENT 16 5 4 16 4 17 20 25 82 44 48 55
REMARK Flexibility Score: inf
ROOT
ATOM      1  C   UNL A   1      33.599  29.562  26.630  1.00  0.00     0.117 C 
ENDROOT
BRANCH   1   2
ATOM      2  N   UNL A   1      33.998  29.323  25.256  1.00  0.00    -0.354 N 
ATOM      3  C   UNL A   1      33.595  28.460  24.292  1.00  0.00     0.245 C 
ATOM      4  O   UNL A   1      34.063  28.706  23.171  1.00  0.00    -0.273 OA
ATOM      5  H   UNL A   1      34.721  29.920  24.957  1.00  0.00     0.163 HD
BRANCH   3   6
ATOM      6  C   UNL A   1      32.715  27.194  24.497  1.00  0.00     0.200 C 
ATOM      7  N   UNL A   1      31.284  27.478  24.815  1.00  0.00    -0.321 N 
ATOM      8  C   UNL A   1      30.508  26.236  24.889  1.00  0.00     0.149 C 
ATOM      9  C   UNL A   1      31.063  25.365  26.002  1.00  0.00     0.181 C 
ATOM     10  C   UNL A   1      33.229  26.159  25.521  1.00  0.00     0.195 C 
ATOM     11  O   UNL A   1      32.397  24.993  25.653  1.00  0.00    -0.377 OA
BRANCH   7  12
ATOM     12  C   UNL A   1      30.626  28.576  24.251  1.00  0.00     0.278 C 
ATOM     13  O   UNL A   1      30.832  29.735  24.605  1.00  0.00    -0.268 OA
BRANCH  12  14
ATOM     14  C   UNL A   1      29.898  28.224  22.925  1.00  0.00     0.362 C 
BRANCH  14  15
ATOM     15  N   UNL A   1      28.405  28.287  23.073  1.00  0.00    -0.335 N 
ATOM     16  H   UNL A   1      27.990  27.450  22.663  1.00  0.00     0.347 HD
ATOM     17  H   UNL A   1      28.170  28.339  24.064  1.00  0.00     0.347 HD
BRANCH  15  18
ATOM     18  C   UNL A   1      27.885  29.467  22.394  1.00  0.00     0.289 C 
BRANCH  18  19
ATOM     19  C   UNL A   1      28.898  30.333  21.719  1.00  0.00     0.025 C 
ATOM     20  C   UNL A   1      28.699  31.653  21.566  1.00  0.00     0.010 C 
ENDBRANCH  18  19
ENDBRANCH  15  18
ENDBRANCH  14  15
ENDBRANCH  12  14
ENDBRANCH   7  12
ENDBRANCH   3   6
ENDBRANCH   1   2
BRANCH   1  21
ATOM     21  C   UNL A   1      34.727  29.334  27.629  1.00  0.00     0.042 C 
BRANCH  21  22
ATOM     22  C   UNL A   1      35.460  30.615  28.011  1.00  0.00     0.118 C 
BRANCH  22  23
ATOM     23  N   UNL A   1      35.461  30.826  29.453  1.00  0.00    -0.352 N 
ATOM     24  C   UNL A   1      36.365  30.427  30.400  1.00  0.00     0.251 C 
ATOM     25  H   UNL A   1      34.691  31.334  29.799  1.00  0.00     0.163 HD
ATOM     26  O   UNL A   1      36.019  30.398  31.586  1.00  0.00    -0.269 OA
BRANCH  24  27
ATOM     27  C   UNL A   1      37.739  30.050  30.018  1.00  0.00     0.039 A 
ATOM     28  C   UNL A   1      38.639  29.641  31.004  1.00  0.00     0.014 A 
ATOM     29  C   UNL A   1      38.158  30.160  28.689  1.00  0.00     0.014 A 
ATOM     30  C   UNL A   1      39.945  29.294  30.648  1.00  0.00     0.010 A 
ATOM     31  C   UNL A   1      39.430  29.736  28.324  1.00  0.00     0.010 A 
ATOM     32  C   UNL A   1      40.341  29.313  29.302  1.00  0.00    -0.014 A 
BRANCH  32  33
ATOM     33  C   UNL A   1      41.705  28.908  28.886  1.00  0.00     0.031 A 
ATOM     34  C   UNL A   1      42.801  29.936  28.804  1.00  0.00     0.074 A 
ATOM     35  C   UNL A   1      41.929  27.636  28.504  1.00  0.00     0.049 A 
ATOM     36  N   UNL A   1      44.027  29.803  28.368  1.00  0.00    -0.248 NA
ATOM     37  C   UNL A   1      42.466  31.303  29.238  1.00  0.00     0.031 C 
ATOM     38  C   UNL A   1      40.925  26.568  28.490  1.00  0.00     0.029 A 
ATOM     39  N   UNL A   1      43.065  27.028  28.037  1.00  0.00    -0.354 N 
ATOM     40  C   UNL A   1      44.599  31.067  28.452  1.00  0.00     0.074 A 
ATOM     41  C   UNL A   1      43.572  31.965  28.935  1.00  0.00     0.031 C 
ATOM     42  C   UNL A   1      41.497  25.432  28.060  1.00  0.00     0.029 A 
ATOM     43  C   UNL A   1      42.893  25.699  27.730  1.00  0.00     0.049 A 
ATOM     44  H   UNL A   1      43.924  27.498  27.933  1.00  0.00     0.167 HD
ATOM     45  C   UNL A   1      45.870  31.440  28.172  1.00  0.00     0.037 A 
ATOM     46  C   UNL A   1      43.761  24.800  27.228  1.00  0.00     0.037 A 
ATOM     47  C   UNL A   1      46.891  30.527  27.730  1.00  0.00     0.049 A 
ATOM     48  C   UNL A   1      45.172  25.234  26.941  1.00  0.00     0.074 A 
ATOM     49  C   UNL A   1      48.231  30.783  27.494  1.00  0.00     0.029 A 
ATOM     50  N   UNL A   1      46.687  29.182  27.458  1.00  0.00    -0.354 N 
ATOM     51  N   UNL A   1      45.716  26.419  27.092  1.00  0.00    -0.248 NA
ATOM     52  C   UNL A   1      46.089  24.212  26.420  1.00  0.00     0.031 C 
ATOM     53  C   UNL A   1      48.826  29.602  27.039  1.00  0.00     0.029 A 
ATOM     54  C   UNL A   1      47.869  28.599  27.035  1.00  0.00     0.049 A 
ATOM     55  H   UNL A   1      45.827  28.711  27.551  1.00  0.00     0.167 HD
ATOM     56  C   UNL A   1      47.043  26.280  26.707  1.00  0.00     0.074 A 
ATOM     57  C   UNL A   1      47.224  24.892  26.329  1.00  0.00     0.031 C 
ATOM     58  C   UNL A   1      48.026  27.214  26.668  1.00  0.00     0.037 A 
BRANCH  45  59
ATOM     59  C   UNL A   1      46.230  32.890  28.342  1.00  0.00     0.058 A 
ATOM     60  C   UNL A   1      46.102  33.812  27.290  1.00  0.00     0.135 A 
ATOM     61  C   UNL A   1      46.673  33.376  29.584  1.00  0.00     0.135 A 
ATOM     62  F   UNL A   1      45.697  33.401  26.077  1.00  0.00    -0.206 F 
ATOM     63  C   UNL A   1      46.426  35.154  27.453  1.00  0.00     0.059 A 
ATOM     64  C   UNL A   1      46.977  34.721  29.777  1.00  0.00     0.059 A 
ATOM     65  F   UNL A   1      46.815  32.540  30.624  1.00  0.00    -0.206 F 
ATOM     66  C   UNL A   1      46.864  35.600  28.701  1.00  0.00     0.060 A 
BRANCH  66  67
ATOM     67  S   UNL A   1      47.272  37.347  28.898  1.00  0.00     0.124 S 
ATOM     68  O   UNL A   1      47.146  37.513  30.344  1.00  0.00    -0.237 OA
ATOM     69  O   UNL A   1      48.631  37.412  28.370  1.00  0.00    -0.237 OA
ATOM     70  O   UNL A   1      46.258  38.026  28.098  1.00  0.00    -0.744 OA
ENDBRANCH  66  67
ENDBRANCH  45  59
BRANCH  46  71
ATOM     71  C   UNL A   1      43.326  23.398  26.994  1.00  0.00     0.058 A 
ATOM     72  C   UNL A   1      43.036  22.943  25.699  1.00  0.00     0.135 A 
ATOM     73  C   UNL A   1      43.213  22.481  28.050  1.00  0.00     0.135 A 
ATOM     74  F   UNL A   1      43.127  23.783  24.658  1.00  0.00    -0.206 F 
ATOM     75  C   UNL A   1      42.633  21.633  25.460  1.00  0.00     0.059 A 
ATOM     76  C   UNL A   1      42.835  21.159  27.834  1.00  0.00     0.059 A 
ATOM     77  F   UNL A   1      43.498  22.861  29.306  1.00  0.00    -0.206 F 
ATOM     78  C   UNL A   1      42.537  20.747  26.535  1.00  0.00     0.060 A 
BRANCH  78  79
ATOM     79  S   UNL A   1      42.061  19.036  26.207  1.00  0.00     0.124 S 
ATOM     80  O   UNL A   1      42.997  18.670  25.150  1.00  0.00    -0.237 OA
ATOM     81  O   UNL A   1      42.282  18.403  27.504  1.00  0.00    -0.237 OA
ATOM     82  O   UNL A   1      40.663  19.149  25.803  1.00  0.00    -0.744 OA
ENDBRANCH  78  79
ENDBRANCH  46  71
BRANCH  58  83
ATOM     83  C   UNL A   1      49.388  26.761  26.226  1.00  0.00     0.058 A 
ATOM     84  C   UNL A   1      49.815  26.907  24.898  1.00  0.00     0.135 A 
ATOM     85  C   UNL A   1      50.296  26.226  27.155  1.00  0.00     0.135 A 
ATOM     86  F   UNL A   1      48.982  27.406  23.970  1.00  0.00    -0.206 F 
ATOM     87  C   UNL A   1      51.091  26.519  24.500  1.00  0.00     0.059 A 
ATOM     88  C   UNL A   1      51.583  25.857  26.786  1.00  0.00     0.059 A 
ATOM     89  F   UNL A   1      49.937  26.077  28.441  1.00  0.00    -0.206 F 
ATOM     90  C   UNL A   1      51.968  25.997  25.453  1.00  0.00     0.060 A 
BRANCH  90  91
ATOM     91  S   UNL A   1      53.632  25.532  24.932  1.00  0.00     0.124 S 
ATOM     92  O   UNL A   1      53.632  25.953  23.535  1.00  0.00    -0.237 OA
ATOM     93  O   UNL A   1      54.472  26.317  25.831  1.00  0.00    -0.237 OA
ATOM     94  O   UNL A   1      53.667  24.089  25.154  1.00  0.00    -0.744 OA
ENDBRANCH  90  91
ENDBRANCH  58  83
ENDBRANCH  32  33
ENDBRANCH  24  27
ENDBRANCH  22  23
ENDBRANCH  21  22
ENDBRANCH   1  21
TORSDOF 18
ENDMDL
MODEL 3
REMARK VINA RESULT:     -10.5      0.857      8.505
REMARK SMILES C=CC[NH2+]CC(=O)N1CCOC[C@@H]1C(=O)NCCCNC(=O)c1ccc(-c2c3nc(c(-c4c(F)cc(S(=O)(=O)[O-])cc4F)c4ccc([nH]4)c(-c4c(F)cc(S(=O)(=O)[O-])cc4F)c4nc(c(-c5c(F)cc(S(=O)(=O)[O-])cc5F)c5ccc2[nH]5)C=C4)C=C3)cc1
REMARK SMILES IDX 17 1 16 2 14 3 15 4 13 6 8 7 9 8 10 9 12 10 11 11 6 12 7 13
REMARK SMILES IDX 5 14 4 15 3 18 2 19 1 20 18 21 19 22 20 23 21 24 22 26 23 27
REMARK SMILES IDX 24 28 88 29 25 30 87 31 26 32 27 33 28 34 81 35 29 36 86 37
REMARK SMILES IDX 80 38 82 39 30 40 85 41 79 42 78 43 31 45 65 46 44 47 64 48
REMARK SMILES IDX 45 49 48 50 63 51 83 52 46 53 47 54 62 56 84 57 49 58 32 59
REMARK SMILES IDX 33 60 42 61 34 62 35 63 41 64 43 65 36 66 37 67 38 68 39 69
REMARK SMILES IDX 40 70 66 71 67 72 76 73 68 74 69 75 75 76 77 77 70 78 71 79
REMARK SMILES IDX 72 80 73 81 74 82 50 83 51 84 60 85 52 86 53 87 59 88 61 89
REMARK SMILES IDX 54 90 55 91 56 92 57 93 58 94
REMARK H PARENT 16 5 4 16 4 17 20 25 82 44 48 55
REMARK Flexibility Score: inf
ROOT
ATOM      1  C   UNL A   1      36.844  22.848  25.893  1.00  0.00     0.117 C 
ENDROOT
BRANCH   1   2
ATOM      2  N   UNL A   1      35.675  22.910  26.749  1.00  0.00    -0.354 N 
ATOM      3  C   UNL A   1      34.339  22.930  26.523  1.00  0.00     0.245 C 
ATOM      4  O   UNL A   1      33.654  22.792  27.547  1.00  0.00    -0.273 OA
ATOM      5  H   UNL A   1      35.902  22.946  27.706  1.00  0.00     0.163 HD
BRANCH   3   6
ATOM      6  C   UNL A   1      33.638  23.197  25.161  1.00  0.00     0.200 C 
ATOM      7  N   UNL A   1      33.442  21.982  24.315  1.00  0.00    -0.321 N 
ATOM      8  C   UNL A   1      32.684  22.306  23.102  1.00  0.00     0.149 C 
ATOM      9  C   UNL A   1      33.464  23.317  22.280  1.00  0.00     0.181 C 
ATOM     10  C   UNL A   1      34.261  24.295  24.272  1.00  0.00     0.195 C 
ATOM     11  O   UNL A   1      33.560  24.526  23.036  1.00  0.00    -0.377 OA
BRANCH   7  12
ATOM     12  C   UNL A   1      33.163  20.739  24.895  1.00  0.00     0.278 C 
ATOM     13  O   UNL A   1      32.019  20.327  25.077  1.00  0.00    -0.268 OA
BRANCH  12  14
ATOM     14  C   UNL A   1      34.406  19.810  24.950  1.00  0.00     0.362 C 
BRANCH  14  15
ATOM     15  N   UNL A   1      34.021  18.375  25.170  1.00  0.00    -0.335 N 
ATOM     16  H   UNL A   1      34.303  18.090  26.107  1.00  0.00     0.347 HD
ATOM     17  H   UNL A   1      33.010  18.281  25.069  1.00  0.00     0.347 HD
BRANCH  15  18
ATOM     18  C   UNL A   1      34.681  17.525  24.187  1.00  0.00     0.289 C 
BRANCH  18  19
ATOM     19  C   UNL A   1      33.831  17.056  23.051  1.00  0.00     0.025 C 
ATOM     20  C   UNL A   1      32.689  17.685  22.726  1.00  0.00     0.010 C 
ENDBRANCH  18  19
ENDBRANCH  15  18
ENDBRANCH  14  15
ENDBRANCH  12  14
ENDBRANCH   7  12
ENDBRANCH   3   6
ENDBRANCH   1   2
BRANCH   1  21
ATOM     21  C   UNL A   1      37.757  24.060  26.037  1.00  0.00     0.042 C 
BRANCH  21  22
ATOM     22  C   UNL A   1      39.052  23.751  26.781  1.00  0.00     0.118 C 
BRANCH  22  23
ATOM     23  N   UNL A   1      40.220  24.232  26.052  1.00  0.00    -0.352 N 
ATOM     24  C   UNL A   1      40.880  25.427  26.140  1.00  0.00     0.251 C 
ATOM     25  H   UNL A   1      40.589  23.599  25.394  1.00  0.00     0.163 HD
ATOM     26  O   UNL A   1      41.616  25.777  25.212  1.00  0.00    -0.269 OA
BRANCH  24  27
ATOM     27  C   UNL A   1      40.730  26.284  27.332  1.00  0.00     0.039 A 
ATOM     28  C   UNL A   1      39.762  25.969  28.288  1.00  0.00     0.014 A 
ATOM     29  C   UNL A   1      41.505  27.439  27.473  1.00  0.00     0.014 A 
ATOM     30  C   UNL A   1      39.609  26.784  29.412  1.00  0.00     0.010 A 
ATOM     31  C   UNL A   1      41.409  28.202  28.630  1.00  0.00     0.010 A 
ATOM     32  C   UNL A   1      40.450  27.891  29.604  1.00  0.00    -0.014 A 
BRANCH  32  33
ATOM     33  C   UNL A   1      40.343  28.750  30.809  1.00  0.00     0.031 A 
ATOM     34  C   UNL A   1      39.321  29.853  30.855  1.00  0.00     0.074 A 
ATOM     35  C   UNL A   1      41.222  28.588  31.816  1.00  0.00     0.049 A 
ATOM     36  N   UNL A   1      39.137  30.771  31.768  1.00  0.00    -0.248 NA
ATOM     37  C   UNL A   1      38.403  29.959  29.708  1.00  0.00     0.031 C 
ATOM     38  C   UNL A   1      42.291  27.586  31.852  1.00  0.00     0.029 A 
ATOM     39  N   UNL A   1      41.369  29.271  32.995  1.00  0.00    -0.354 N 
ATOM     40  C   UNL A   1      38.106  31.575  31.296  1.00  0.00     0.074 A 
ATOM     41  C   UNL A   1      37.735  31.066  29.994  1.00  0.00     0.031 C 
ATOM     42  C   UNL A   1      42.968  27.706  33.006  1.00  0.00     0.029 A 
ATOM     43  C   UNL A   1      42.408  28.815  33.771  1.00  0.00     0.049 A 
ATOM     44  H   UNL A   1      40.784  30.017  33.263  1.00  0.00     0.167 HD
ATOM     45  C   UNL A   1      37.508  32.627  31.905  1.00  0.00     0.037 A 
ATOM     46  C   UNL A   1      42.866  29.251  34.960  1.00  0.00     0.037 A 
ATOM     47  C   UNL A   1      37.862  33.097  33.218  1.00  0.00     0.049 A 
ATOM     48  C   UNL A   1      42.175  30.411  35.623  1.00  0.00     0.074 A 
ATOM     49  C   UNL A   1      37.270  34.103  33.961  1.00  0.00     0.029 A 
ATOM     50  N   UNL A   1      38.901  32.591  33.986  1.00  0.00    -0.354 N 
ATOM     51  N   UNL A   1      41.155  31.116  35.194  1.00  0.00    -0.248 NA
ATOM     52  C   UNL A   1      42.693  30.833  36.931  1.00  0.00     0.031 C 
ATOM     53  C   UNL A   1      37.978  34.233  35.160  1.00  0.00     0.029 A 
ATOM     54  C   UNL A   1      38.983  33.279  35.185  1.00  0.00     0.049 A 
ATOM     55  H   UNL A   1      39.495  31.852  33.718  1.00  0.00     0.167 HD
ATOM     56  C   UNL A   1      40.894  32.051  36.189  1.00  0.00     0.074 A 
ATOM     57  C   UNL A   1      41.855  31.811  37.248  1.00  0.00     0.031 C 
ATOM     58  C   UNL A   1      39.946  33.019  36.226  1.00  0.00     0.037 A 
BRANCH  45  59
ATOM     59  C   UNL A   1      36.409  33.335  31.162  1.00  0.00     0.058 A 
ATOM     60  C   UNL A   1      35.064  33.227  31.552  1.00  0.00     0.135 A 
ATOM     61  C   UNL A   1      36.705  34.164  30.067  1.00  0.00     0.135 A 
ATOM     62  F   UNL A   1      34.721  32.436  32.582  1.00  0.00    -0.206 F 
ATOM     63  C   UNL A   1      34.051  33.891  30.869  1.00  0.00     0.059 A 
ATOM     64  C   UNL A   1      35.710  34.859  29.385  1.00  0.00     0.059 A 
ATOM     65  F   UNL A   1      37.973  34.304  29.650  1.00  0.00    -0.206 F 
ATOM     66  C   UNL A   1      34.384  34.704  29.786  1.00  0.00     0.060 A 
BRANCH  66  67
ATOM     67  S   UNL A   1      33.058  35.566  28.915  1.00  0.00     0.124 S 
ATOM     68  O   UNL A   1      33.812  36.525  28.112  1.00  0.00    -0.237 OA
ATOM     69  O   UNL A   1      32.417  34.485  28.173  1.00  0.00    -0.237 OA
ATOM     70  O   UNL A   1      32.260  36.142  29.993  1.00  0.00    -0.744 OA
ENDBRANCH  66  67
ENDBRANCH  45  59
BRANCH  46  71
ATOM     71  C   UNL A   1      44.015  28.569  35.610  1.00  0.00     0.058 A 
ATOM     72  C   UNL A   1      45.333  28.963  35.333  1.00  0.00     0.135 A 
ATOM     73  C   UNL A   1      43.824  27.529  36.531  1.00  0.00     0.135 A 
ATOM     74  F   UNL A   1      45.567  29.950  34.456  1.00  0.00    -0.206 F 
ATOM     75  C   UNL A   1      46.422  28.340  35.935  1.00  0.00     0.059 A 
ATOM     76  C   UNL A   1      44.895  26.906  37.165  1.00  0.00     0.059 A 
ATOM     77  F   UNL A   1      42.582  27.128  36.846  1.00  0.00    -0.206 F 
ATOM     78  C   UNL A   1      46.193  27.313  36.851  1.00  0.00     0.060 A 
BRANCH  78  79
ATOM     79  S   UNL A   1      47.611  26.544  37.664  1.00  0.00     0.124 S 
ATOM     80  O   UNL A   1      48.617  27.594  37.550  1.00  0.00    -0.237 OA
ATOM     81  O   UNL A   1      47.096  26.295  39.007  1.00  0.00    -0.237 OA
ATOM     82  O   UNL A   1      47.849  25.349  36.861  1.00  0.00    -0.744 OA
ENDBRANCH  78  79
ENDBRANCH  46  71
BRANCH  58  83
ATOM     83  C   UNL A   1      39.884  33.876  37.459  1.00  0.00     0.058 A 
ATOM     84  C   UNL A   1      39.108  33.511  38.569  1.00  0.00     0.135 A 
ATOM     85  C   UNL A   1      40.654  35.047  37.549  1.00  0.00     0.135 A 
ATOM     86  F   UNL A   1      38.349  32.404  38.529  1.00  0.00    -0.206 F 
ATOM     87  C   UNL A   1      39.081  34.289  39.722  1.00  0.00     0.059 A 
ATOM     88  C   UNL A   1      40.662  35.826  38.701  1.00  0.00     0.059 A 
ATOM     89  F   UNL A   1      41.421  35.433  36.517  1.00  0.00    -0.206 F 
ATOM     90  C   UNL A   1      39.864  35.444  39.778  1.00  0.00     0.060 A 
BRANCH  90  91
ATOM     91  S   UNL A   1      39.849  36.424  41.293  1.00  0.00     0.124 S 
ATOM     92  O   UNL A   1      41.059  35.955  41.959  1.00  0.00    -0.237 OA
ATOM     93  O   UNL A   1      39.895  37.791  40.782  1.00  0.00    -0.237 OA
ATOM     94  O   UNL A   1      38.592  36.044  41.931  1.00  0.00    -0.744 OA
ENDBRANCH  90  91
ENDBRANCH  58  83
ENDBRANCH  32  33
ENDBRANCH  24  27
ENDBRANCH  22  23
ENDBRANCH  21  22
ENDBRANCH   1  21
TORSDOF 18
ENDMDL
