MODEL 1
REMARK VINA RESULT:     -12.8      0.000      0.000
REMARK SMILES Cc1onc2c(=O)n(C)nc(C(=O)NCCCNC(=O)c3ccc(-c4c5nc(c(-c6c(F)cc(S(=O)(=O)[O-])cc6F)c6ccc([nH]6)c(-c6c(F)cc(S(=O)(=O)[O-])cc6F)c6nc(c(-c7c(F)cc(S(=O)(=O)[O-])cc7F)c7ccc4[nH]7)C=C6)C=C5)cc3)c12
REMARK SMILES IDX 18 1 19 2 20 3 17 5 16 6 15 7 14 8 12 9 13 10 11 12 1 13
REMARK SMILES IDX 2 14 3 15 87 16 4 17 5 18 6 19 10 20 7 21 8 22 9 23 21 24
REMARK SMILES IDX 22 25 86 26 23 27 85 28 24 29 25 30 26 31 79 32 27 33 84 34
REMARK SMILES IDX 78 35 80 36 28 37 83 38 77 39 76 40 29 42 63 43 42 44 62 45
REMARK SMILES IDX 43 46 46 47 61 48 81 49 44 50 45 51 60 53 82 54 47 55 30 56
REMARK SMILES IDX 31 57 40 58 32 59 33 60 39 61 41 62 34 63 35 64 36 65 37 66
REMARK SMILES IDX 38 67 64 68 65 69 74 70 66 71 67 72 73 73 75 74 68 75 69 76
REMARK SMILES IDX 70 77 71 78 72 79 48 80 49 81 58 82 50 83 51 84 57 85 59 86
REMARK SMILES IDX 52 87 53 88 54 89 55 90 56 91
REMARK H PARENT 18 4 14 11 80 41 46 52
REMARK Flexibility Score: inf
ROOT
ATOM      1  N   UNL A   1      38.690  21.530  26.076  1.00  0.00    -0.352 N 
ATOM      2  C   UNL A   1      39.823  21.943  26.722  1.00  0.00     0.251 C 
ATOM      3  O   UNL A   1      40.563  21.062  27.163  1.00  0.00    -0.269 OA
ATOM      4  H   UNL A   1      38.422  20.608  26.297  1.00  0.00     0.163 HD
ENDROOT
BRANCH   1   5
ATOM      5  C   UNL A   1      37.804  22.185  25.127  1.00  0.00     0.118 C 
BRANCH   5   6
ATOM      6  C   UNL A   1      36.348  22.166  25.634  1.00  0.00     0.042 C 
BRANCH   6   7
ATOM      7  C   UNL A   1      35.823  23.511  26.166  1.00  0.00     0.118 C 
BRANCH   7   8
ATOM      8  N   UNL A   1      34.401  23.457  26.465  1.00  0.00    -0.351 N 
ATOM      9  C   UNL A   1      33.353  24.305  26.185  1.00  0.00     0.272 C 
ATOM     10  O   UNL A   1      32.268  24.060  26.705  1.00  0.00    -0.267 OA
ATOM     11  H   UNL A   1      34.134  22.654  26.969  1.00  0.00     0.163 HD
BRANCH   9  12
ATOM     12  C   UNL A   1      33.466  25.524  25.252  1.00  0.00     0.161 A 
ATOM     13  C   UNL A   1      33.781  22.899  22.966  1.00  0.00     0.091 C 
ATOM     14  C   UNL A   1      33.673  24.371  22.910  1.00  0.00     0.144 A 
ATOM     15  O   UNL A   1      33.698  24.888  21.645  1.00  0.00    -0.360 OA
ATOM     16  C   UNL A   1      33.560  25.408  23.810  1.00  0.00     0.083 A 
ATOM     17  N   UNL A   1      33.642  26.268  21.699  1.00  0.00    -0.074 NA
ATOM     18  C   UNL A   1      33.577  26.562  23.000  1.00  0.00     0.183 A 
ATOM     19  C   UNL A   1      33.562  27.890  23.565  1.00  0.00     0.296 A 
ATOM     20  N   UNL A   1      33.458  26.727  25.767  1.00  0.00    -0.164 NA
ATOM     21  O   UNL A   1      33.590  28.926  22.893  1.00  0.00    -0.265 OA
ATOM     22  N   UNL A   1      33.543  27.876  24.971  1.00  0.00    -0.230 N 
ATOM     23  C   UNL A   1      33.610  29.144  25.668  1.00  0.00     0.178 C 
ENDBRANCH   9  12
ENDBRANCH   7   8
ENDBRANCH   6   7
ENDBRANCH   5   6
ENDBRANCH   1   5
BRANCH   2  24
ATOM     24  C   UNL A   1      40.185  23.363  26.945  1.00  0.00     0.039 A 
ATOM     25  C   UNL A   1      41.466  23.767  26.536  1.00  0.00     0.014 A 
ATOM     26  C   UNL A   1      39.404  24.242  27.700  1.00  0.00     0.014 A 
ATOM     27  C   UNL A   1      41.956  25.034  26.861  1.00  0.00     0.010 A 
ATOM     28  C   UNL A   1      39.899  25.516  28.025  1.00  0.00     0.010 A 
ATOM     29  C   UNL A   1      41.176  25.926  27.605  1.00  0.00    -0.014 A 
BRANCH  29  30
ATOM     30  C   UNL A   1      41.684  27.307  27.790  1.00  0.00     0.031 A 
ATOM     31  C   UNL A   1      40.645  28.377  27.772  1.00  0.00     0.074 A 
ATOM     32  C   UNL A   1      42.868  27.600  28.373  1.00  0.00     0.049 A 
ATOM     33  N   UNL A   1      39.910  28.648  28.811  1.00  0.00    -0.248 NA
ATOM     34  C   UNL A   1      40.202  29.034  26.545  1.00  0.00     0.031 C 
ATOM     35  C   UNL A   1      43.480  26.783  29.428  1.00  0.00     0.029 A 
ATOM     36  N   UNL A   1      43.631  28.749  28.352  1.00  0.00    -0.354 N 
ATOM     37  C   UNL A   1      38.893  29.481  28.389  1.00  0.00     0.074 A 
ATOM     38  C   UNL A   1      39.113  29.694  26.974  1.00  0.00     0.031 C 
ATOM     39  C   UNL A   1      44.407  27.527  30.068  1.00  0.00     0.029 A 
ATOM     40  C   UNL A   1      44.578  28.804  29.377  1.00  0.00     0.049 A 
ATOM     41  H   UNL A   1      43.520  29.460  27.681  1.00  0.00     0.167 HD
ATOM     42  C   UNL A   1      37.935  29.956  29.228  1.00  0.00     0.037 A 
ATOM     43  C   UNL A   1      45.033  29.941  29.977  1.00  0.00     0.037 A 
ATOM     44  C   UNL A   1      38.084  29.595  30.606  1.00  0.00     0.049 A 
ATOM     45  C   UNL A   1      43.781  30.417  30.674  1.00  0.00     0.074 A 
ATOM     46  C   UNL A   1      37.611  28.636  31.476  1.00  0.00     0.029 A 
ATOM     47  N   UNL A   1      38.969  30.331  31.361  1.00  0.00    -0.354 N 
ATOM     48  N   UNL A   1      43.296  29.951  31.795  1.00  0.00    -0.248 NA
ATOM     49  C   UNL A   1      42.840  31.217  29.888  1.00  0.00     0.031 C 
ATOM     50  C   UNL A   1      38.579  28.565  32.530  1.00  0.00     0.029 A 
ATOM     51  C   UNL A   1      39.600  29.458  32.209  1.00  0.00     0.049 A 
ATOM     52  H   UNL A   1      39.121  31.302  31.302  1.00  0.00     0.167 HD
ATOM     53  C   UNL A   1      41.918  30.171  31.723  1.00  0.00     0.074 A 
ATOM     54  C   UNL A   1      41.707  30.963  30.528  1.00  0.00     0.031 C 
ATOM     55  C   UNL A   1      41.006  29.559  32.533  1.00  0.00     0.037 A 
BRANCH  42  56
ATOM     56  C   UNL A   1      36.931  30.966  28.848  1.00  0.00     0.058 A 
ATOM     57  C   UNL A   1      37.284  32.319  28.960  1.00  0.00     0.135 A 
ATOM     58  C   UNL A   1      35.593  30.647  28.590  1.00  0.00     0.135 A 
ATOM     59  F   UNL A   1      38.560  32.658  29.215  1.00  0.00    -0.206 F 
ATOM     60  C   UNL A   1      36.338  33.326  28.876  1.00  0.00     0.059 A 
ATOM     61  C   UNL A   1      34.624  31.644  28.493  1.00  0.00     0.059 A 
ATOM     62  F   UNL A   1      35.211  29.365  28.480  1.00  0.00    -0.206 F 
ATOM     63  C   UNL A   1      35.004  32.977  28.664  1.00  0.00     0.060 A 
BRANCH  63  64
ATOM     64  S   UNL A   1      33.779  34.302  28.667  1.00  0.00     0.124 S 
ATOM     65  O   UNL A   1      33.459  34.410  30.087  1.00  0.00    -0.237 OA
ATOM     66  O   UNL A   1      34.536  35.412  28.100  1.00  0.00    -0.237 OA
ATOM     67  O   UNL A   1      32.710  33.777  27.822  1.00  0.00    -0.744 OA
ENDBRANCH  63  64
ENDBRANCH  42  56
BRANCH  43  68
ATOM     68  C   UNL A   1      45.880  30.851  29.129  1.00  0.00     0.058 A 
ATOM     69  C   UNL A   1      47.023  31.446  29.702  1.00  0.00     0.135 A 
ATOM     70  C   UNL A   1      45.633  31.177  27.784  1.00  0.00     0.135 A 
ATOM     71  F   UNL A   1      47.263  31.324  31.018  1.00  0.00    -0.206 F 
ATOM     72  C   UNL A   1      47.952  32.162  28.950  1.00  0.00     0.059 A 
ATOM     73  C   UNL A   1      46.560  31.866  27.000  1.00  0.00     0.059 A 
ATOM     74  F   UNL A   1      44.491  30.812  27.183  1.00  0.00    -0.206 F 
ATOM     75  C   UNL A   1      47.739  32.320  27.584  1.00  0.00     0.060 A 
BRANCH  75  76
ATOM     76  S   UNL A   1      49.054  33.046  26.585  1.00  0.00     0.124 S 
ATOM     77  O   UNL A   1      49.866  31.878  26.257  1.00  0.00    -0.237 OA
ATOM     78  O   UNL A   1      48.299  33.626  25.477  1.00  0.00    -0.237 OA
ATOM     79  O   UNL A   1      49.673  34.011  27.487  1.00  0.00    -0.744 OA
ENDBRANCH  75  76
ENDBRANCH  43  68
BRANCH  55  80
ATOM     80  C   UNL A   1      41.559  28.790  33.688  1.00  0.00     0.058 A 
ATOM     81  C   UNL A   1      41.410  29.282  34.992  1.00  0.00     0.135 A 
ATOM     82  C   UNL A   1      42.156  27.528  33.528  1.00  0.00     0.135 A 
ATOM     83  F   UNL A   1      40.837  30.478  35.204  1.00  0.00    -0.206 F 
ATOM     84  C   UNL A   1      41.797  28.533  36.100  1.00  0.00     0.059 A 
ATOM     85  C   UNL A   1      42.530  26.753  34.624  1.00  0.00     0.059 A 
ATOM     86  F   UNL A   1      42.344  27.008  32.304  1.00  0.00    -0.206 F 
ATOM     87  C   UNL A   1      42.334  27.261  35.907  1.00  0.00     0.060 A 
BRANCH  87  88
ATOM     88  S   UNL A   1      42.690  26.248  37.359  1.00  0.00     0.124 S 
ATOM     89  O   UNL A   1      43.641  27.081  38.088  1.00  0.00    -0.237 OA
ATOM     90  O   UNL A   1      41.372  26.110  37.971  1.00  0.00    -0.237 OA
ATOM     91  O   UNL A   1      43.239  25.018  36.795  1.00  0.00    -0.744 OA
ENDBRANCH  87  88
ENDBRANCH  55  80
ENDBRANCH  29  30
ENDBRANCH   2  24
TORSDOF 13
ENDMDL
MODEL 2
REMARK VINA RESULT:     -12.3      0.743      1.603
REMARK SMILES Cc1onc2c(=O)n(C)nc(C(=O)NCCCNC(=O)c3ccc(-c4c5nc(c(-c6c(F)cc(S(=O)(=O)[O-])cc6F)c6ccc([nH]6)c(-c6c(F)cc(S(=O)(=O)[O-])cc6F)c6nc(c(-c7c(F)cc(S(=O)(=O)[O-])cc7F)c7ccc4[nH]7)C=C6)C=C5)cc3)c12
REMARK SMILES IDX 18 1 19 2 20 3 17 5 16 6 15 7 14 8 12 9 13 10 11 12 1 13
REMARK SMILES IDX 2 14 3 15 87 16 4 17 5 18 6 19 10 20 7 21 8 22 9 23 21 24
REMARK SMILES IDX 22 25 86 26 23 27 85 28 24 29 25 30 26 31 79 32 27 33 84 34
REMARK SMILES IDX 78 35 80 36 28 37 83 38 77 39 76 40 29 42 63 43 42 44 62 45
REMARK SMILES IDX 43 46 46 47 61 48 81 49 44 50 45 51 60 53 82 54 47 55 30 56
REMARK SMILES IDX 31 57 40 58 32 59 33 60 39 61 41 62 34 63 35 64 36 65 37 66
REMARK SMILES IDX 38 67 64 68 65 69 74 70 66 71 67 72 73 73 75 74 68 75 69 76
REMARK SMILES IDX 70 77 71 78 72 79 48 80 49 81 58 82 50 83 51 84 57 85 59 86
REMARK SMILES IDX 52 87 53 88 54 89 55 90 56 91
REMARK H PARENT 18 4 14 11 80 41 46 52
REMARK Flexibility Score: inf
ROOT
ATOM      1  N   UNL A   1      38.711  21.534  26.077  1.00  0.00    -0.352 N 
ATOM      2  C   UNL A   1      39.844  21.947  26.721  1.00  0.00     0.251 C 
ATOM      3  O   UNL A   1      40.585  21.067  27.162  1.00  0.00    -0.269 OA
ATOM      4  H   UNL A   1      38.444  20.611  26.298  1.00  0.00     0.163 HD
ENDROOT
BRANCH   1   5
ATOM      5  C   UNL A   1      37.823  22.188  25.130  1.00  0.00     0.118 C 
BRANCH   5   6
ATOM      6  C   UNL A   1      36.463  22.508  25.785  1.00  0.00     0.042 C 
BRANCH   6   7
ATOM      7  C   UNL A   1      35.819  23.833  25.341  1.00  0.00     0.118 C 
BRANCH   7   8
ATOM      8  N   UNL A   1      35.241  23.735  24.011  1.00  0.00    -0.351 N 
ATOM      9  C   UNL A   1      34.191  24.381  23.397  1.00  0.00     0.272 C 
ATOM     10  O   UNL A   1      33.839  23.974  22.293  1.00  0.00    -0.267 OA
ATOM     11  H   UNL A   1      35.688  23.075  23.433  1.00  0.00     0.163 HD
BRANCH   9  12
ATOM     12  C   UNL A   1      33.454  25.585  24.009  1.00  0.00     0.161 A 
ATOM     13  C   UNL A   1      32.186  22.969  25.947  1.00  0.00     0.091 C 
ATOM     14  C   UNL A   1      32.094  24.442  25.932  1.00  0.00     0.144 A 
ATOM     15  O   UNL A   1      31.315  24.966  26.926  1.00  0.00    -0.360 OA
ATOM     16  C   UNL A   1      32.583  25.475  25.162  1.00  0.00     0.083 A 
ATOM     17  N   UNL A   1      31.249  26.341  26.798  1.00  0.00    -0.074 NA
ATOM     18  C   UNL A   1      32.000  26.626  25.730  1.00  0.00     0.183 A 
ATOM     19  C   UNL A   1      32.192  27.938  25.160  1.00  0.00     0.296 A 
ATOM     20  N   UNL A   1      33.625  26.773  23.486  1.00  0.00    -0.164 NA
ATOM     21  O   UNL A   1      31.688  28.969  25.616  1.00  0.00    -0.265 OA
ATOM     22  N   UNL A   1      32.994  27.910  24.005  1.00  0.00    -0.230 N 
ATOM     23  C   UNL A   1      33.198  29.150  23.286  1.00  0.00     0.178 C 
ENDBRANCH   9  12
ENDBRANCH   7   8
ENDBRANCH   6   7
ENDBRANCH   5   6
ENDBRANCH   1   5
BRANCH   2  24
ATOM     24  C   UNL A   1      40.205  23.368  26.945  1.00  0.00     0.039 A 
ATOM     25  C   UNL A   1      41.489  23.770  26.546  1.00  0.00     0.014 A 
ATOM     26  C   UNL A   1      39.418  24.248  27.691  1.00  0.00     0.014 A 
ATOM     27  C   UNL A   1      41.978  25.037  26.872  1.00  0.00     0.010 A 
ATOM     28  C   UNL A   1      39.911  25.523  28.017  1.00  0.00     0.010 A 
ATOM     29  C   UNL A   1      41.192  25.931  27.607  1.00  0.00    -0.014 A 
BRANCH  29  30
ATOM     30  C   UNL A   1      41.699  27.312  27.794  1.00  0.00     0.031 A 
ATOM     31  C   UNL A   1      40.660  28.382  27.774  1.00  0.00     0.074 A 
ATOM     32  C   UNL A   1      42.882  27.605  28.380  1.00  0.00     0.049 A 
ATOM     33  N   UNL A   1      39.922  28.653  28.811  1.00  0.00    -0.248 NA
ATOM     34  C   UNL A   1      40.219  29.039  26.546  1.00  0.00     0.031 C 
ATOM     35  C   UNL A   1      43.491  26.789  29.436  1.00  0.00     0.029 A 
ATOM     36  N   UNL A   1      43.644  28.755  28.361  1.00  0.00    -0.354 N 
ATOM     37  C   UNL A   1      38.906  29.486  28.387  1.00  0.00     0.074 A 
ATOM     38  C   UNL A   1      39.130  29.699  26.972  1.00  0.00     0.031 C 
ATOM     39  C   UNL A   1      44.416  27.533  30.079  1.00  0.00     0.029 A 
ATOM     40  C   UNL A   1      44.589  28.810  29.388  1.00  0.00     0.049 A 
ATOM     41  H   UNL A   1      43.534  29.466  27.689  1.00  0.00     0.167 HD
ATOM     42  C   UNL A   1      37.946  29.961  29.223  1.00  0.00     0.037 A 
ATOM     43  C   UNL A   1      45.042  29.947  29.990  1.00  0.00     0.037 A 
ATOM     44  C   UNL A   1      38.092  29.600  30.602  1.00  0.00     0.049 A 
ATOM     45  C   UNL A   1      43.788  30.422  30.683  1.00  0.00     0.074 A 
ATOM     46  C   UNL A   1      37.617  28.641  31.470  1.00  0.00     0.029 A 
ATOM     47  N   UNL A   1      38.975  30.336  31.359  1.00  0.00    -0.354 N 
ATOM     48  N   UNL A   1      43.301  29.956  31.803  1.00  0.00    -0.248 NA
ATOM     49  C   UNL A   1      42.849  31.223  29.896  1.00  0.00     0.031 C 
ATOM     50  C   UNL A   1      38.582  28.570  32.526  1.00  0.00     0.029 A 
ATOM     51  C   UNL A   1      39.604  29.463  32.208  1.00  0.00     0.049 A 
ATOM     52  H   UNL A   1      39.126  31.307  31.300  1.00  0.00     0.167 HD
ATOM     53  C   UNL A   1      41.923  30.176  31.728  1.00  0.00     0.074 A 
ATOM     54  C   UNL A   1      41.715  30.968  30.532  1.00  0.00     0.031 C 
ATOM     55  C   UNL A   1      41.009  29.564  32.536  1.00  0.00     0.037 A 
BRANCH  42  56
ATOM     56  C   UNL A   1      36.942  30.970  28.841  1.00  0.00     0.058 A 
ATOM     57  C   UNL A   1      37.291  32.323  28.966  1.00  0.00     0.135 A 
ATOM     58  C   UNL A   1      35.609  30.649  28.568  1.00  0.00     0.135 A 
ATOM     59  F   UNL A   1      38.563  32.665  29.235  1.00  0.00    -0.206 F 
ATOM     60  C   UNL A   1      36.342  33.329  28.880  1.00  0.00     0.059 A 
ATOM     61  C   UNL A   1      34.637  31.644  28.468  1.00  0.00     0.059 A 
ATOM     62  F   UNL A   1      35.231  29.367  28.445  1.00  0.00    -0.206 F 
ATOM     63  C   UNL A   1      35.012  32.977  28.653  1.00  0.00     0.060 A 
BRANCH  63  64
ATOM     64  S   UNL A   1      33.783  34.299  28.653  1.00  0.00     0.124 S 
ATOM     65  O   UNL A   1      32.745  33.742  27.791  1.00  0.00    -0.237 OA
ATOM     66  O   UNL A   1      33.448  34.396  30.069  1.00  0.00    -0.237 OA
ATOM     67  O   UNL A   1      34.510  35.438  28.102  1.00  0.00    -0.744 OA
ENDBRANCH  63  64
ENDBRANCH  42  56
BRANCH  43  68
ATOM     68  C   UNL A   1      45.891  30.857  29.143  1.00  0.00     0.058 A 
ATOM     69  C   UNL A   1      47.064  31.407  29.702  1.00  0.00     0.135 A 
ATOM     70  C   UNL A   1      45.618  31.226  27.815  1.00  0.00     0.135 A 
ATOM     71  F   UNL A   1      47.334  31.243  31.007  1.00  0.00    -0.206 F 
ATOM     72  C   UNL A   1      47.992  32.118  28.944  1.00  0.00     0.059 A 
ATOM     73  C   UNL A   1      46.543  31.912  27.025  1.00  0.00     0.059 A 
ATOM     74  F   UNL A   1      44.452  30.907  27.235  1.00  0.00    -0.206 F 
ATOM     75  C   UNL A   1      47.748  32.318  27.589  1.00  0.00     0.060 A 
BRANCH  75  76
ATOM     76  S   UNL A   1      49.056  33.037  26.575  1.00  0.00     0.124 S 
ATOM     77  O   UNL A   1      48.300  33.615  25.469  1.00  0.00    -0.237 OA
ATOM     78  O   UNL A   1      49.659  33.992  27.502  1.00  0.00    -0.237 OA
ATOM     79  O   UNL A   1      49.892  31.890  26.237  1.00  0.00    -0.744 OA
ENDBRANCH  75  76
ENDBRANCH  43  68
BRANCH  55  80
ATOM     80  C   UNL A   1      41.560  28.795  33.692  1.00  0.00     0.058 A 
ATOM     81  C   UNL A   1      41.401  29.283  34.996  1.00  0.00     0.135 A 
ATOM     82  C   UNL A   1      42.163  27.536  33.533  1.00  0.00     0.135 A 
ATOM     83  F   UNL A   1      40.821  30.476  35.208  1.00  0.00    -0.206 F 
ATOM     84  C   UNL A   1      41.785  28.534  36.105  1.00  0.00     0.059 A 
ATOM     85  C   UNL A   1      42.534  26.761  34.629  1.00  0.00     0.059 A 
ATOM     86  F   UNL A   1      42.359  27.020  32.308  1.00  0.00    -0.206 F 
ATOM     87  C   UNL A   1      42.330  27.264  35.912  1.00  0.00     0.060 A 
BRANCH  87  88
ATOM     88  S   UNL A   1      42.683  26.251  37.363  1.00  0.00     0.124 S 
ATOM     89  O   UNL A   1      41.364  26.120  37.975  1.00  0.00    -0.237 OA
ATOM     90  O   UNL A   1      43.227  25.034  36.767  1.00  0.00    -0.237 OA
ATOM     91  O   UNL A   1      43.645  27.051  38.116  1.00  0.00    -0.744 OA
ENDBRANCH  87  88
ENDBRANCH  55  80
ENDBRANCH  29  30
ENDBRANCH   2  24
TORSDOF 13
ENDMDL
MODEL 3
REMARK VINA RESULT:     -12.1      1.621      2.808
REMARK SMILES Cc1onc2c(=O)n(C)nc(C(=O)NCCCNC(=O)c3ccc(-c4c5nc(c(-c6c(F)cc(S(=O)(=O)[O-])cc6F)c6ccc([nH]6)c(-c6c(F)cc(S(=O)(=O)[O-])cc6F)c6nc(c(-c7c(F)cc(S(=O)(=O)[O-])cc7F)c7ccc4[nH]7)C=C6)C=C5)cc3)c12
REMARK SMILES IDX 18 1 19 2 20 3 17 5 16 6 15 7 14 8 12 9 13 10 11 12 1 13
REMARK SMILES IDX 2 14 3 15 87 16 4 17 5 18 6 19 10 20 7 21 8 22 9 23 21 24
REMARK SMILES IDX 22 25 86 26 23 27 85 28 24 29 25 30 26 31 79 32 27 33 84 34
REMARK SMILES IDX 78 35 80 36 28 37 83 38 77 39 76 40 29 42 63 43 42 44 62 45
REMARK SMILES IDX 43 46 46 47 61 48 81 49 44 50 45 51 60 53 82 54 47 55 30 56
REMARK SMILES IDX 31 57 40 58 32 59 33 60 39 61 41 62 34 63 35 64 36 65 37 66
REMARK SMILES IDX 38 67 64 68 65 69 74 70 66 71 67 72 73 73 75 74 68 75 69 76
REMARK SMILES IDX 70 77 71 78 72 79 48 80 49 81 58 82 50 83 51 84 57 85 59 86
REMARK SMILES IDX 52 87 53 88 54 89 55 90 56 91
REMARK H PARENT 18 4 14 11 80 41 46 52
REMARK Flexibility Score: inf
ROOT
ATOM      1  N   UNL A   1      39.187  21.503  26.572  1.00  0.00    -0.352 N 
ATOM      2  C   UNL A   1      40.329  21.804  27.261  1.00  0.00     0.251 C 
ATOM      3  O   UNL A   1      40.894  20.871  27.833  1.00  0.00    -0.269 OA
ATOM      4  H   UNL A   1      38.765  20.659  26.852  1.00  0.00     0.163 HD
ENDROOT
BRANCH   1   5
ATOM      5  C   UNL A   1      38.473  22.186  25.505  1.00  0.00     0.118 C 
BRANCH   5   6
ATOM      6  C   UNL A   1      37.444  23.179  26.082  1.00  0.00     0.042 C 
BRANCH   6   7
ATOM      7  C   UNL A   1      35.992  22.958  25.623  1.00  0.00     0.118 C 
BRANCH   7   8
ATOM      8  N   UNL A   1      35.104  22.692  26.743  1.00  0.00    -0.351 N 
ATOM      9  C   UNL A   1      33.951  21.952  26.868  1.00  0.00     0.272 C 
ATOM     10  O   UNL A   1      33.331  22.037  27.925  1.00  0.00    -0.267 OA
ATOM     11  H   UNL A   1      35.383  23.131  27.580  1.00  0.00     0.163 HD
BRANCH   9  12
ATOM     12  C   UNL A   1      33.411  21.020  25.769  1.00  0.00     0.161 A 
ATOM     13  C   UNL A   1      32.752  24.154  24.371  1.00  0.00     0.091 C 
ATOM     14  C   UNL A   1      32.653  22.742  23.949  1.00  0.00     0.144 A 
ATOM     15  O   UNL A   1      32.184  22.569  22.676  1.00  0.00    -0.360 OA
ATOM     16  C   UNL A   1      32.901  21.505  24.502  1.00  0.00     0.083 A 
ATOM     17  N   UNL A   1      32.079  21.220  22.393  1.00  0.00    -0.074 NA
ATOM     18  C   UNL A   1      32.497  20.599  23.500  1.00  0.00     0.183 A 
ATOM     19  C   UNL A   1      32.515  19.171  23.711  1.00  0.00     0.296 A 
ATOM     20  N   UNL A   1      33.422  19.725  25.966  1.00  0.00    -0.164 NA
ATOM     21  O   UNL A   1      32.156  18.345  22.866  1.00  0.00    -0.265 OA
ATOM     22  N   UNL A   1      32.959  18.824  24.999  1.00  0.00    -0.230 N 
ATOM     23  C   UNL A   1      32.947  17.424  25.371  1.00  0.00     0.178 C 
ENDBRANCH   9  12
ENDBRANCH   7   8
ENDBRANCH   6   7
ENDBRANCH   5   6
ENDBRANCH   1   5
BRANCH   2  24
ATOM     24  C   UNL A   1      40.894  23.170  27.384  1.00  0.00     0.039 A 
ATOM     25  C   UNL A   1      40.226  24.061  28.240  1.00  0.00     0.014 A 
ATOM     26  C   UNL A   1      41.915  23.652  26.562  1.00  0.00     0.014 A 
ATOM     27  C   UNL A   1      40.580  25.411  28.287  1.00  0.00     0.010 A 
ATOM     28  C   UNL A   1      42.270  25.011  26.612  1.00  0.00     0.010 A 
ATOM     29  C   UNL A   1      41.611  25.901  27.477  1.00  0.00    -0.014 A 
BRANCH  29  30
ATOM     30  C   UNL A   1      42.045  27.305  27.677  1.00  0.00     0.031 A 
ATOM     31  C   UNL A   1      40.954  28.322  27.642  1.00  0.00     0.074 A 
ATOM     32  C   UNL A   1      43.201  27.654  28.285  1.00  0.00     0.049 A 
ATOM     33  N   UNL A   1      40.186  28.551  28.667  1.00  0.00    -0.248 NA
ATOM     34  C   UNL A   1      40.502  28.961  26.409  1.00  0.00     0.031 C 
ATOM     35  C   UNL A   1      43.832  26.864  29.349  1.00  0.00     0.029 A 
ATOM     36  N   UNL A   1      43.905  28.840  28.283  1.00  0.00    -0.354 N 
ATOM     37  C   UNL A   1      39.137  29.334  28.228  1.00  0.00     0.074 A 
ATOM     38  C   UNL A   1      39.374  29.564  26.818  1.00  0.00     0.031 C 
ATOM     39  C   UNL A   1      44.708  27.651  30.010  1.00  0.00     0.029 A 
ATOM     40  C   UNL A   1      44.828  28.938  29.326  1.00  0.00     0.049 A 
ATOM     41  H   UNL A   1      43.772  29.548  27.612  1.00  0.00     0.167 HD
ATOM     42  C   UNL A   1      38.140  29.757  29.049  1.00  0.00     0.037 A 
ATOM     43  C   UNL A   1      45.213  30.094  29.940  1.00  0.00     0.037 A 
ATOM     44  C   UNL A   1      38.280  29.398  30.429  1.00  0.00     0.049 A 
ATOM     45  C   UNL A   1      43.925  30.503  30.613  1.00  0.00     0.074 A 
ATOM     46  C   UNL A   1      37.838  28.413  31.286  1.00  0.00     0.029 A 
ATOM     47  N   UNL A   1      39.111  30.174  31.203  1.00  0.00    -0.354 N 
ATOM     48  N   UNL A   1      43.443  30.009  31.722  1.00  0.00    -0.248 NA
ATOM     49  C   UNL A   1      42.961  31.259  29.811  1.00  0.00     0.031 C 
ATOM     50  C   UNL A   1      38.788  28.385  32.358  1.00  0.00     0.029 A 
ATOM     51  C   UNL A   1      39.769  29.330  32.061  1.00  0.00     0.049 A 
ATOM     52  H   UNL A   1      39.215  31.152  31.151  1.00  0.00     0.167 HD
ATOM     53  C   UNL A   1      42.057  30.160  31.624  1.00  0.00     0.074 A 
ATOM     54  C   UNL A   1      41.831  30.946  30.427  1.00  0.00     0.031 C 
ATOM     55  C   UNL A   1      41.161  29.499  32.414  1.00  0.00     0.037 A 
BRANCH  42  56
ATOM     56  C   UNL A   1      37.094  30.717  28.652  1.00  0.00     0.058 A 
ATOM     57  C   UNL A   1      37.368  32.085  28.799  1.00  0.00     0.135 A 
ATOM     58  C   UNL A   1      35.786  30.329  28.345  1.00  0.00     0.135 A 
ATOM     59  F   UNL A   1      38.614  32.489  29.102  1.00  0.00    -0.206 F 
ATOM     60  C   UNL A   1      36.370  33.040  28.700  1.00  0.00     0.059 A 
ATOM     61  C   UNL A   1      34.766  31.273  28.231  1.00  0.00     0.059 A 
ATOM     62  F   UNL A   1      35.479  29.031  28.200  1.00  0.00    -0.206 F 
ATOM     63  C   UNL A   1      35.065  32.622  28.437  1.00  0.00     0.060 A 
BRANCH  63  64
ATOM     64  S   UNL A   1      33.769  33.878  28.421  1.00  0.00     0.124 S 
ATOM     65  O   UNL A   1      32.734  33.227  27.624  1.00  0.00    -0.237 OA
ATOM     66  O   UNL A   1      33.478  34.026  29.843  1.00  0.00    -0.237 OA
ATOM     67  O   UNL A   1      34.416  35.024  27.792  1.00  0.00    -0.744 OA
ENDBRANCH  63  64
ENDBRANCH  42  56
BRANCH  43  68
ATOM     68  C   UNL A   1      46.031  31.049  29.111  1.00  0.00     0.058 A 
ATOM     69  C   UNL A   1      47.224  31.569  29.653  1.00  0.00     0.135 A 
ATOM     70  C   UNL A   1      45.707  31.488  27.816  1.00  0.00     0.135 A 
ATOM     71  F   UNL A   1      47.544  31.336  30.937  1.00  0.00    -0.206 F 
ATOM     72  C   UNL A   1      48.124  32.321  28.900  1.00  0.00     0.059 A 
ATOM     73  C   UNL A   1      46.602  32.216  27.029  1.00  0.00     0.059 A 
ATOM     74  F   UNL A   1      44.520  31.200  27.265  1.00  0.00    -0.206 F 
ATOM     75  C   UNL A   1      47.828  32.593  27.568  1.00  0.00     0.060 A 
BRANCH  75  76
ATOM     76  S   UNL A   1      49.098  33.366  26.545  1.00  0.00     0.124 S 
ATOM     77  O   UNL A   1      49.734  34.279  27.488  1.00  0.00    -0.237 OA
ATOM     78  O   UNL A   1      49.896  32.211  26.141  1.00  0.00    -0.237 OA
ATOM     79  O   UNL A   1      48.333  33.996  25.473  1.00  0.00    -0.744 OA
ENDBRANCH  75  76
ENDBRANCH  43  68
BRANCH  55  80
ATOM     80  C   UNL A   1      41.729  28.754  33.577  1.00  0.00     0.058 A 
ATOM     81  C   UNL A   1      41.596  29.272  34.872  1.00  0.00     0.135 A 
ATOM     82  C   UNL A   1      42.325  27.490  33.435  1.00  0.00     0.135 A 
ATOM     83  F   UNL A   1      41.024  30.472  35.067  1.00  0.00    -0.206 F 
ATOM     84  C   UNL A   1      41.997  28.546  35.990  1.00  0.00     0.059 A 
ATOM     85  C   UNL A   1      42.713  26.737  34.541  1.00  0.00     0.059 A 
ATOM     86  F   UNL A   1      42.497  26.945  32.219  1.00  0.00    -0.206 F 
ATOM     87  C   UNL A   1      42.533  27.270  35.816  1.00  0.00     0.060 A 
BRANCH  87  88
ATOM     88  S   UNL A   1      42.908  26.287  37.283  1.00  0.00     0.124 S 
ATOM     89  O   UNL A   1      41.584  26.080  37.861  1.00  0.00    -0.237 OA
ATOM     90  O   UNL A   1      43.540  25.103  36.709  1.00  0.00    -0.237 OA
ATOM     91  O   UNL A   1      43.800  27.148  38.055  1.00  0.00    -0.744 OA
ENDBRANCH  87  88
ENDBRANCH  55  80
ENDBRANCH  29  30
ENDBRANCH   2  24
TORSDOF 13
ENDMDL
