MODEL 1
REMARK VINA RESULT:     -11.3      0.000      0.000
REMARK SMILES CSc1nc(N)cc(Nc2cccc(C(=O)NCCCNC(=O)c3ccc(-c4c5nc(c(-c6c(F)cc(S(=O)(=O)[O-])cc6F)c6ccc([nH]6)c(-c6c(F)cc(S(=O)(=O)[O-])cc6F)c6nc(c(-c7c(F)cc(S(=O)(=O)[O-])cc7F)c7ccc4[nH]7)C=C6)C=C5)cc3)c2)n1
REMARK SMILES IDX 19 1 18 2 17 3 15 4 16 5 14 7 10 8 11 9 90 10 12 11 13 12
REMARK SMILES IDX 9 13 8 15 3 16 4 17 91 18 5 19 7 20 2 21 1 22 6 23 20 26
REMARK SMILES IDX 21 27 22 28 23 30 24 31 25 32 89 33 26 34 88 35 27 36 28 37
REMARK SMILES IDX 29 38 82 39 30 40 87 41 81 42 83 43 31 44 86 45 80 46 79 47
REMARK SMILES IDX 32 49 66 50 45 51 65 52 46 53 49 54 64 55 84 56 47 57 48 58
REMARK SMILES IDX 63 60 85 61 50 62 33 63 34 64 43 65 35 66 36 67 42 68 44 69
REMARK SMILES IDX 37 70 38 71 39 72 40 73 41 74 67 75 68 76 77 77 69 78 70 79
REMARK SMILES IDX 76 80 78 81 71 82 72 83 73 84 74 85 75 86 51 87 52 88 61 89
REMARK SMILES IDX 53 90 54 91 60 92 62 93 55 94 56 95 57 96 58 97 59 98
REMARK H PARENT 17 6 9 14 6 24 6 25 21 29 83 48 49 59
REMARK Flexibility Score: inf
ROOT
ATOM      1  C   UNL A   1      35.168  33.229  27.944  1.00  0.00     0.042 C 
ENDROOT
BRANCH   1   2
ATOM      2  C   UNL A   1      35.191  34.712  28.287  1.00  0.00     0.118 C 
BRANCH   2   3
ATOM      3  N   UNL A   1      33.869  35.330  28.302  1.00  0.00    -0.352 N 
ATOM      4  C   UNL A   1      33.080  35.932  29.254  1.00  0.00     0.251 C 
ATOM      5  O   UNL A   1      31.976  36.338  28.883  1.00  0.00    -0.269 OA
ATOM      6  H   UNL A   1      33.439  35.313  27.417  1.00  0.00     0.163 HD
BRANCH   4   7
ATOM      7  C   UNL A   1      33.439  36.081  30.694  1.00  0.00     0.041 A 
ATOM      8  C   UNL A   1      33.941  35.154  32.907  1.00  0.00     0.040 A 
ATOM      9  C   UNL A   1      33.953  36.448  33.433  1.00  0.00     0.026 A 
ATOM     10  C   UNL A   1      33.774  35.017  31.524  1.00  0.00     0.040 A 
ATOM     11  C   UNL A   1      33.760  37.554  32.600  1.00  0.00     0.003 A 
ATOM     12  C   UNL A   1      33.477  37.369  31.243  1.00  0.00     0.014 A 
BRANCH   8  13
ATOM     13  N   UNL A   1      34.145  34.040  33.745  1.00  0.00    -0.340 N 
ATOM     14  H   UNL A   1      33.331  33.662  34.150  1.00  0.00     0.168 HD
BRANCH  13  15
ATOM     15  C   UNL A   1      35.348  33.392  34.086  1.00  0.00     0.137 A 
ATOM     16  C   UNL A   1      37.113  33.091  35.521  1.00  0.00     0.191 A 
ATOM     17  N   UNL A   1      37.695  32.158  34.760  1.00  0.00    -0.206 NA
ATOM     18  N   UNL A   1      35.965  33.707  35.232  1.00  0.00    -0.205 NA
ATOM     19  C   UNL A   1      37.082  31.874  33.609  1.00  0.00     0.130 A 
ATOM     20  C   UNL A   1      35.897  32.467  33.223  1.00  0.00     0.093 A 
BRANCH  16  21
ATOM     21  S   UNL A   1      37.922  33.626  37.006  1.00  0.00    -0.090 SA
ATOM     22  C   UNL A   1      39.339  34.462  36.269  1.00  0.00     0.094 C 
ENDBRANCH  16  21
BRANCH  19  23
ATOM     23  N   UNL A   1      37.664  30.888  32.833  1.00  0.00    -0.383 N 
ATOM     24  H   UNL A   1      37.617  30.943  31.851  1.00  0.00     0.158 HD
ATOM     25  H   UNL A   1      38.125  30.131  33.262  1.00  0.00     0.158 HD
ENDBRANCH  19  23
ENDBRANCH  13  15
ENDBRANCH   8  13
ENDBRANCH   4   7
ENDBRANCH   2   3
ENDBRANCH   1   2
BRANCH   1  26
ATOM     26  C   UNL A   1      34.413  32.378  28.952  1.00  0.00     0.118 C 
BRANCH  26  27
ATOM     27  N   UNL A   1      33.881  31.153  28.364  1.00  0.00    -0.352 N 
ATOM     28  C   UNL A   1      34.510  30.019  27.910  1.00  0.00     0.251 C 
ATOM     29  H   UNL A   1      32.901  31.136  28.275  1.00  0.00     0.163 HD
ATOM     30  O   UNL A   1      33.877  29.209  27.240  1.00  0.00    -0.269 OA
BRANCH  28  31
ATOM     31  C   UNL A   1      35.937  29.768  28.213  1.00  0.00     0.039 A 
ATOM     32  C   UNL A   1      36.295  29.339  29.496  1.00  0.00     0.014 A 
ATOM     33  C   UNL A   1      36.928  29.994  27.258  1.00  0.00     0.014 A 
ATOM     34  C   UNL A   1      37.634  29.076  29.793  1.00  0.00     0.010 A 
ATOM     35  C   UNL A   1      38.245  29.636  27.522  1.00  0.00     0.010 A 
ATOM     36  C   UNL A   1      38.617  29.185  28.797  1.00  0.00    -0.014 A 
BRANCH  36  37
ATOM     37  C   UNL A   1      40.039  28.851  29.064  1.00  0.00     0.031 A 
ATOM     38  C   UNL A   1      40.956  29.887  29.660  1.00  0.00     0.074 A 
ATOM     39  C   UNL A   1      40.519  27.644  28.705  1.00  0.00     0.049 A 
ATOM     40  N   UNL A   1      42.244  29.822  29.881  1.00  0.00    -0.248 NA
ATOM     41  C   UNL A   1      40.352  31.180  30.028  1.00  0.00     0.031 C 
ATOM     42  C   UNL A   1      39.740  26.576  28.072  1.00  0.00     0.029 A 
ATOM     43  N   UNL A   1      41.780  27.113  28.810  1.00  0.00    -0.354 N 
ATOM     44  C   UNL A   1      42.604  31.063  30.396  1.00  0.00     0.074 A 
ATOM     45  C   UNL A   1      41.413  31.882  30.396  1.00  0.00     0.031 C 
ATOM     46  C   UNL A   1      40.532  25.511  27.873  1.00  0.00     0.029 A 
ATOM     47  C   UNL A   1      41.884  25.832  28.320  1.00  0.00     0.049 A 
ATOM     48  H   UNL A   1      42.539  27.603  29.199  1.00  0.00     0.167 HD
ATOM     49  C   UNL A   1      43.811  31.472  30.854  1.00  0.00     0.037 A 
ATOM     50  C   UNL A   1      42.949  25.012  28.234  1.00  0.00     0.037 A 
ATOM     51  C   UNL A   1      44.984  30.638  30.878  1.00  0.00     0.049 A 
ATOM     52  C   UNL A   1      44.280  25.491  28.747  1.00  0.00     0.074 A 
ATOM     53  C   UNL A   1      46.243  30.939  31.368  1.00  0.00     0.029 A 
ATOM     54  N   UNL A   1      45.042  29.339  30.396  1.00  0.00    -0.354 N 
ATOM     55  N   UNL A   1      44.588  26.649  29.283  1.00  0.00    -0.248 NA
ATOM     56  C   UNL A   1      45.406  24.553  28.653  1.00  0.00     0.031 C 
ATOM     57  C   UNL A   1      47.073  29.836  31.143  1.00  0.00     0.029 A 
ATOM     58  C   UNL A   1      46.318  28.828  30.562  1.00  0.00     0.049 A 
ATOM     59  H   UNL A   1      44.286  28.851  29.996  1.00  0.00     0.167 HD
ATOM     60  C   UNL A   1      45.936  26.566  29.616  1.00  0.00     0.074 A 
ATOM     61  C   UNL A   1      46.378  25.240  29.234  1.00  0.00     0.031 C 
ATOM     62  C   UNL A   1      46.736  27.501  30.187  1.00  0.00     0.037 A 
BRANCH  49  63
ATOM     63  C   UNL A   1      43.919  32.877  31.382  1.00  0.00     0.058 A 
ATOM     64  C   UNL A   1      43.758  33.163  32.748  1.00  0.00     0.135 A 
ATOM     65  C   UNL A   1      44.229  33.944  30.524  1.00  0.00     0.135 A 
ATOM     66  F   UNL A   1      43.446  32.185  33.613  1.00  0.00    -0.206 F 
ATOM     67  C   UNL A   1      43.873  34.460  33.240  1.00  0.00     0.059 A 
ATOM     68  C   UNL A   1      44.378  35.245  30.998  1.00  0.00     0.059 A 
ATOM     69  F   UNL A   1      44.392  33.729  29.209  1.00  0.00    -0.206 F 
ATOM     70  C   UNL A   1      44.186  35.495  32.356  1.00  0.00     0.060 A 
BRANCH  70  71
ATOM     71  S   UNL A   1      44.348  37.167  33.015  1.00  0.00     0.124 S 
ATOM     72  O   UNL A   1      44.639  37.930  31.806  1.00  0.00    -0.237 OA
ATOM     73  O   UNL A   1      43.034  37.397  33.608  1.00  0.00    -0.237 OA
ATOM     74  O   UNL A   1      45.450  37.054  33.965  1.00  0.00    -0.744 OA
ENDBRANCH  70  71
ENDBRANCH  49  63
BRANCH  50  75
ATOM     75  C   UNL A   1      42.799  23.646  27.662  1.00  0.00     0.058 A 
ATOM     76  C   UNL A   1      42.540  22.543  28.488  1.00  0.00     0.135 A 
ATOM     77  C   UNL A   1      42.911  23.415  26.282  1.00  0.00     0.135 A 
ATOM     78  F   UNL A   1      42.428  22.711  29.815  1.00  0.00    -0.206 F 
ATOM     79  C   UNL A   1      42.424  21.256  27.974  1.00  0.00     0.059 A 
ATOM     80  C   UNL A   1      42.769  22.141  25.740  1.00  0.00     0.059 A 
ATOM     81  F   UNL A   1      43.137  24.438  25.443  1.00  0.00    -0.206 F 
ATOM     82  C   UNL A   1      42.541  21.065  26.596  1.00  0.00     0.060 A 
BRANCH  82  83
ATOM     83  S   UNL A   1      42.354  19.395  25.934  1.00  0.00     0.124 S 
ATOM     84  O   UNL A   1      40.938  19.377  25.584  1.00  0.00    -0.237 OA
ATOM     85  O   UNL A   1      43.289  19.402  24.815  1.00  0.00    -0.237 OA
ATOM     86  O   UNL A   1      42.738  18.545  27.057  1.00  0.00    -0.744 OA
ENDBRANCH  82  83
ENDBRANCH  50  75
BRANCH  62  87
ATOM     87  C   UNL A   1      48.159  27.110  30.474  1.00  0.00     0.058 A 
ATOM     88  C   UNL A   1      49.202  27.412  29.586  1.00  0.00     0.135 A 
ATOM     89  C   UNL A   1      48.487  26.468  31.680  1.00  0.00     0.135 A 
ATOM     90  F   UNL A   1      48.941  28.020  28.417  1.00  0.00    -0.206 F 
ATOM     91  C   UNL A   1      50.519  27.069  29.871  1.00  0.00     0.059 A 
ATOM     92  C   UNL A   1      49.802  26.142  31.998  1.00  0.00     0.059 A 
ATOM     93  F   UNL A   1      47.528  26.166  32.569  1.00  0.00    -0.206 F 
ATOM     94  C   UNL A   1      50.809  26.434  31.081  1.00  0.00     0.060 A 
BRANCH  94  95
ATOM     95  S   UNL A   1      52.527  26.022  31.451  1.00  0.00     0.124 S 
ATOM     96  O   UNL A   1      52.394  24.672  31.992  1.00  0.00    -0.237 OA
ATOM     97  O   UNL A   1      53.161  26.119  30.141  1.00  0.00    -0.237 OA
ATOM     98  O   UNL A   1      52.924  27.047  32.412  1.00  0.00    -0.744 OA
ENDBRANCH  94  95
ENDBRANCH  62  87
ENDBRANCH  36  37
ENDBRANCH  28  31
ENDBRANCH  26  27
ENDBRANCH   1  26
TORSDOF 17
ENDMDL
MODEL 2
REMARK VINA RESULT:     -11.2      5.930     12.415
REMARK SMILES CSc1nc(N)cc(Nc2cccc(C(=O)NCCCNC(=O)c3ccc(-c4c5nc(c(-c6c(F)cc(S(=O)(=O)[O-])cc6F)c6ccc([nH]6)c(-c6c(F)cc(S(=O)(=O)[O-])cc6F)c6nc(c(-c7c(F)cc(S(=O)(=O)[O-])cc7F)c7ccc4[nH]7)C=C6)C=C5)cc3)c2)n1
REMARK SMILES IDX 19 1 18 2 17 3 15 4 16 5 14 7 10 8 11 9 90 10 12 11 13 12
REMARK SMILES IDX 9 13 8 15 3 16 4 17 91 18 5 19 7 20 2 21 1 22 6 23 20 26
REMARK SMILES IDX 21 27 22 28 23 30 24 31 25 32 89 33 26 34 88 35 27 36 28 37
REMARK SMILES IDX 29 38 82 39 30 40 87 41 81 42 83 43 31 44 86 45 80 46 79 47
REMARK SMILES IDX 32 49 66 50 45 51 65 52 46 53 49 54 64 55 84 56 47 57 48 58
REMARK SMILES IDX 63 60 85 61 50 62 33 63 34 64 43 65 35 66 36 67 42 68 44 69
REMARK SMILES IDX 37 70 38 71 39 72 40 73 41 74 67 75 68 76 77 77 69 78 70 79
REMARK SMILES IDX 76 80 78 81 71 82 72 83 73 84 74 85 75 86 51 87 52 88 61 89
REMARK SMILES IDX 53 90 54 91 60 92 62 93 55 94 56 95 57 96 58 97 59 98
REMARK H PARENT 17 6 9 14 6 24 6 25 21 29 83 48 49 59
REMARK Flexibility Score: inf
ROOT
ATOM      1  C   UNL A   1      39.360  22.551  26.571  1.00  0.00     0.042 C 
ENDROOT
BRANCH   1   2
ATOM      2  C   UNL A   1      38.211  23.475  26.200  1.00  0.00     0.118 C 
BRANCH   2   3
ATOM      3  N   UNL A   1      37.808  23.376  24.800  1.00  0.00    -0.352 N 
ATOM      4  C   UNL A   1      36.613  23.242  24.133  1.00  0.00     0.251 C 
ATOM      5  O   UNL A   1      36.670  23.176  22.902  1.00  0.00    -0.269 OA
ATOM      6  H   UNL A   1      38.576  23.414  24.187  1.00  0.00     0.163 HD
BRANCH   4   7
ATOM      7  C   UNL A   1      35.276  23.123  24.784  1.00  0.00     0.041 A 
ATOM      8  C   UNL A   1      33.365  21.810  25.580  1.00  0.00     0.040 A 
ATOM      9  C   UNL A   1      32.687  22.995  25.870  1.00  0.00     0.026 A 
ATOM     10  C   UNL A   1      34.687  21.912  25.128  1.00  0.00     0.040 A 
ATOM     11  C   UNL A   1      33.304  24.233  25.669  1.00  0.00     0.003 A 
ATOM     12  C   UNL A   1      34.581  24.296  25.103  1.00  0.00     0.014 A 
BRANCH   8  13
ATOM     13  N   UNL A   1      32.747  20.562  25.792  1.00  0.00    -0.340 N 
ATOM     14  H   UNL A   1      32.286  20.461  26.657  1.00  0.00     0.168 HD
BRANCH  13  15
ATOM     15  C   UNL A   1      32.697  19.438  24.946  1.00  0.00     0.137 A 
ATOM     16  C   UNL A   1      32.910  17.176  24.620  1.00  0.00     0.191 A 
ATOM     17  N   UNL A   1      32.623  17.241  23.315  1.00  0.00    -0.206 NA
ATOM     18  N   UNL A   1      32.945  18.221  25.448  1.00  0.00    -0.205 NA
ATOM     19  C   UNL A   1      32.404  18.463  22.824  1.00  0.00     0.130 A 
ATOM     20  C   UNL A   1      32.429  19.602  23.603  1.00  0.00     0.093 A 
BRANCH  16  21
ATOM     21  S   UNL A   1      33.342  15.611  25.334  1.00  0.00    -0.090 SA
ATOM     22  C   UNL A   1      35.136  15.787  25.333  1.00  0.00     0.094 C 
ENDBRANCH  16  21
BRANCH  19  23
ATOM     23  N   UNL A   1      32.077  18.533  21.481  1.00  0.00    -0.383 N 
ATOM     24  H   UNL A   1      32.788  18.564  20.803  1.00  0.00     0.158 HD
ATOM     25  H   UNL A   1      31.132  18.553  21.205  1.00  0.00     0.158 HD
ENDBRANCH  19  23
ENDBRANCH  13  15
ENDBRANCH   8  13
ENDBRANCH   4   7
ENDBRANCH   2   3
ENDBRANCH   1   2
BRANCH   1  26
ATOM     26  C   UNL A   1      40.593  23.279  27.084  1.00  0.00     0.118 C 
BRANCH  26  27
ATOM     27  N   UNL A   1      41.183  24.156  26.078  1.00  0.00    -0.352 N 
ATOM     28  C   UNL A   1      41.403  25.512  26.075  1.00  0.00     0.251 C 
ATOM     29  H   UNL A   1      41.475  23.695  25.258  1.00  0.00     0.163 HD
ATOM     30  O   UNL A   1      41.703  26.068  25.022  1.00  0.00    -0.269 OA
BRANCH  28  31
ATOM     31  C   UNL A   1      41.276  26.306  27.316  1.00  0.00     0.039 A 
ATOM     32  C   UNL A   1      42.227  27.294  27.592  1.00  0.00     0.014 A 
ATOM     33  C   UNL A   1      40.255  26.055  28.233  1.00  0.00     0.014 A 
ATOM     34  C   UNL A   1      42.111  28.068  28.749  1.00  0.00     0.010 A 
ATOM     35  C   UNL A   1      40.081  26.890  29.330  1.00  0.00     0.010 A 
ATOM     36  C   UNL A   1      41.014  27.900  29.609  1.00  0.00    -0.014 A 
BRANCH  36  37
ATOM     37  C   UNL A   1      40.828  28.749  30.813  1.00  0.00     0.031 A 
ATOM     38  C   UNL A   1      39.762  29.813  30.826  1.00  0.00     0.074 A 
ATOM     39  C   UNL A   1      41.663  28.610  31.862  1.00  0.00     0.049 A 
ATOM     40  N   UNL A   1      39.504  30.713  31.739  1.00  0.00    -0.248 NA
ATOM     41  C   UNL A   1      38.888  29.896  29.642  1.00  0.00     0.031 C 
ATOM     42  C   UNL A   1      42.768  27.651  31.945  1.00  0.00     0.029 A 
ATOM     43  N   UNL A   1      41.722  29.285  33.055  1.00  0.00    -0.354 N 
ATOM     44  C   UNL A   1      38.455  31.475  31.235  1.00  0.00     0.074 A 
ATOM     45  C   UNL A   1      38.165  30.972  29.911  1.00  0.00     0.031 C 
ATOM     46  C   UNL A   1      43.374  27.778  33.135  1.00  0.00     0.029 A 
ATOM     47  C   UNL A   1      42.734  28.856  33.883  1.00  0.00     0.049 A 
ATOM     48  H   UNL A   1      41.099  30.007  33.297  1.00  0.00     0.167 HD
ATOM     49  C   UNL A   1      37.775  32.482  31.833  1.00  0.00     0.037 A 
ATOM     50  C   UNL A   1      43.109  29.288  35.103  1.00  0.00     0.037 A 
ATOM     51  C   UNL A   1      38.051  32.956  33.164  1.00  0.00     0.049 A 
ATOM     52  C   UNL A   1      42.340  30.411  35.745  1.00  0.00     0.074 A 
ATOM     53  C   UNL A   1      37.390  33.936  33.883  1.00  0.00     0.029 A 
ATOM     54  N   UNL A   1      39.068  32.479  33.979  1.00  0.00    -0.354 N 
ATOM     55  N   UNL A   1      41.315  31.083  35.275  1.00  0.00    -0.248 NA
ATOM     56  C   UNL A   1      42.772  30.832  37.084  1.00  0.00     0.031 C 
ATOM     57  C   UNL A   1      38.033  34.082  35.116  1.00  0.00     0.029 A 
ATOM     58  C   UNL A   1      39.062  33.155  35.188  1.00  0.00     0.049 A 
ATOM     59  H   UNL A   1      39.699  31.765  33.735  1.00  0.00     0.167 HD
ATOM     60  C   UNL A   1      40.961  31.983  36.274  1.00  0.00     0.074 A 
ATOM     61  C   UNL A   1      41.873  31.760  37.377  1.00  0.00     0.031 C 
ATOM     62  C   UNL A   1      39.971  32.910  36.279  1.00  0.00     0.037 A 
BRANCH  49  63
ATOM     63  C   UNL A   1      36.658  33.129  31.060  1.00  0.00     0.058 A 
ATOM     64  C   UNL A   1      35.312  32.926  31.405  1.00  0.00     0.135 A 
ATOM     65  C   UNL A   1      36.933  33.994  29.989  1.00  0.00     0.135 A 
ATOM     66  F   UNL A   1      34.988  32.097  32.410  1.00  0.00    -0.206 F 
ATOM     67  C   UNL A   1      34.278  33.536  30.700  1.00  0.00     0.059 A 
ATOM     68  C   UNL A   1      35.917  34.638  29.288  1.00  0.00     0.059 A 
ATOM     69  F   UNL A   1      38.202  34.224  29.614  1.00  0.00    -0.206 F 
ATOM     70  C   UNL A   1      34.591  34.393  29.644  1.00  0.00     0.060 A 
BRANCH  70  71
ATOM     71  S   UNL A   1      33.239  35.187  28.752  1.00  0.00     0.124 S 
ATOM     72  O   UNL A   1      32.375  35.613  29.848  1.00  0.00    -0.237 OA
ATOM     73  O   UNL A   1      33.925  36.257  28.034  1.00  0.00    -0.237 OA
ATOM     74  O   UNL A   1      32.707  34.117  27.914  1.00  0.00    -0.744 OA
ENDBRANCH  70  71
ENDBRANCH  49  63
BRANCH  50  75
ATOM     75  C   UNL A   1      44.251  28.644  35.808  1.00  0.00     0.058 A 
ATOM     76  C   UNL A   1      45.567  29.079  35.594  1.00  0.00     0.135 A 
ATOM     77  C   UNL A   1      44.052  27.585  36.707  1.00  0.00     0.135 A 
ATOM     78  F   UNL A   1      45.810  30.086  34.741  1.00  0.00    -0.206 F 
ATOM     79  C   UNL A   1      46.649  28.472  36.223  1.00  0.00     0.059 A 
ATOM     80  C   UNL A   1      45.115  26.980  37.371  1.00  0.00     0.059 A 
ATOM     81  F   UNL A   1      42.810  27.144  36.964  1.00  0.00    -0.206 F 
ATOM     82  C   UNL A   1      46.411  27.421  37.112  1.00  0.00     0.060 A 
BRANCH  82  83
ATOM     83  S   UNL A   1      47.819  26.662  37.951  1.00  0.00     0.124 S 
ATOM     84  O   UNL A   1      48.865  27.651  37.720  1.00  0.00    -0.237 OA
ATOM     85  O   UNL A   1      47.335  26.550  39.322  1.00  0.00    -0.237 OA
ATOM     86  O   UNL A   1      47.983  25.393  37.247  1.00  0.00    -0.744 OA
ENDBRANCH  82  83
ENDBRANCH  50  75
BRANCH  62  87
ATOM     87  C   UNL A   1      39.793  33.724  37.531  1.00  0.00     0.058 A 
ATOM     88  C   UNL A   1      40.525  34.898  37.759  1.00  0.00     0.135 A 
ATOM     89  C   UNL A   1      38.839  33.346  38.491  1.00  0.00     0.135 A 
ATOM     90  F   UNL A   1      41.454  35.299  36.876  1.00  0.00    -0.206 F 
ATOM     91  C   UNL A   1      40.338  35.658  38.909  1.00  0.00     0.059 A 
ATOM     92  C   UNL A   1      38.614  34.108  39.633  1.00  0.00     0.059 A 
ATOM     93  F   UNL A   1      38.104  32.237  38.315  1.00  0.00    -0.206 F 
ATOM     94  C   UNL A   1      39.378  35.254  39.840  1.00  0.00     0.060 A 
BRANCH  94  95
ATOM     95  S   UNL A   1      39.123  36.267  41.312  1.00  0.00     0.124 S 
ATOM     96  O   UNL A   1      38.830  37.571  40.725  1.00  0.00    -0.237 OA
ATOM     97  O   UNL A   1      38.000  35.598  41.961  1.00  0.00    -0.237 OA
ATOM     98  O   UNL A   1      40.397  36.169  42.018  1.00  0.00    -0.744 OA
ENDBRANCH  94  95
ENDBRANCH  62  87
ENDBRANCH  36  37
ENDBRANCH  28  31
ENDBRANCH  26  27
ENDBRANCH   1  26
TORSDOF 17
ENDMDL
MODEL 3
REMARK VINA RESULT:     -11.1      4.488     10.788
REMARK SMILES CSc1nc(N)cc(Nc2cccc(C(=O)NCCCNC(=O)c3ccc(-c4c5nc(c(-c6c(F)cc(S(=O)(=O)[O-])cc6F)c6ccc([nH]6)c(-c6c(F)cc(S(=O)(=O)[O-])cc6F)c6nc(c(-c7c(F)cc(S(=O)(=O)[O-])cc7F)c7ccc4[nH]7)C=C6)C=C5)cc3)c2)n1
REMARK SMILES IDX 19 1 18 2 17 3 15 4 16 5 14 7 10 8 11 9 90 10 12 11 13 12
REMARK SMILES IDX 9 13 8 15 3 16 4 17 91 18 5 19 7 20 2 21 1 22 6 23 20 26
REMARK SMILES IDX 21 27 22 28 23 30 24 31 25 32 89 33 26 34 88 35 27 36 28 37
REMARK SMILES IDX 29 38 82 39 30 40 87 41 81 42 83 43 31 44 86 45 80 46 79 47
REMARK SMILES IDX 32 49 66 50 45 51 65 52 46 53 49 54 64 55 84 56 47 57 48 58
REMARK SMILES IDX 63 60 85 61 50 62 33 63 34 64 43 65 35 66 36 67 42 68 44 69
REMARK SMILES IDX 37 70 38 71 39 72 40 73 41 74 67 75 68 76 77 77 69 78 70 79
REMARK SMILES IDX 76 80 78 81 71 82 72 83 73 84 74 85 75 86 51 87 52 88 61 89
REMARK SMILES IDX 53 90 54 91 60 92 62 93 55 94 56 95 57 96 58 97 59 98
REMARK H PARENT 17 6 9 14 6 24 6 25 21 29 83 48 49 59
REMARK Flexibility Score: inf
ROOT
ATOM      1  C   UNL A   1      34.526  31.315  27.815  1.00  0.00     0.042 C 
ENDROOT
BRANCH   1   2
ATOM      2  C   UNL A   1      34.494  29.828  27.493  1.00  0.00     0.118 C 
BRANCH   2   3
ATOM      3  N   UNL A   1      33.258  29.167  27.901  1.00  0.00    -0.352 N 
ATOM      4  C   UNL A   1      32.390  28.272  27.321  1.00  0.00     0.251 C 
ATOM      5  O   UNL A   1      31.409  27.938  27.992  1.00  0.00    -0.269 OA
ATOM      6  H   UNL A   1      32.981  29.423  28.809  1.00  0.00     0.163 HD
BRANCH   4   7
ATOM      7  C   UNL A   1      32.520  27.723  25.941  1.00  0.00     0.041 A 
ATOM      8  C   UNL A   1      31.761  27.498  23.620  1.00  0.00     0.040 A 
ATOM      9  C   UNL A   1      32.736  26.520  23.409  1.00  0.00     0.026 A 
ATOM     10  C   UNL A   1      31.744  28.140  24.864  1.00  0.00     0.040 A 
ATOM     11  C   UNL A   1      33.628  26.176  24.430  1.00  0.00     0.003 A 
ATOM     12  C   UNL A   1      33.501  26.755  25.696  1.00  0.00     0.014 A 
BRANCH   8  13
ATOM     13  N   UNL A   1      30.869  27.852  22.589  1.00  0.00    -0.340 N 
ATOM     14  H   UNL A   1      31.119  27.539  21.689  1.00  0.00     0.168 HD
BRANCH  13  15
ATOM     15  C   UNL A   1      29.673  28.591  22.663  1.00  0.00     0.137 A 
ATOM     16  C   UNL A   1      28.538  30.575  22.448  1.00  0.00     0.191 A 
ATOM     17  N   UNL A   1      27.363  30.051  22.815  1.00  0.00    -0.206 NA
ATOM     18  N   UNL A   1      29.682  29.894  22.352  1.00  0.00    -0.205 NA
ATOM     19  C   UNL A   1      27.375  28.758  23.146  1.00  0.00     0.130 A 
ATOM     20  C   UNL A   1      28.513  27.978  23.086  1.00  0.00     0.093 A 
BRANCH  16  21
ATOM     21  S   UNL A   1      28.645  32.314  22.114  1.00  0.00    -0.090 SA
ATOM     22  C   UNL A   1      27.888  32.333  20.479  1.00  0.00     0.094 C 
ENDBRANCH  16  21
BRANCH  19  23
ATOM     23  N   UNL A   1      26.157  28.204  23.496  1.00  0.00    -0.383 N 
ATOM     24  H   UNL A   1      26.069  27.229  23.589  1.00  0.00     0.158 HD
ATOM     25  H   UNL A   1      25.379  28.786  23.653  1.00  0.00     0.158 HD
ENDBRANCH  19  23
ENDBRANCH  13  15
ENDBRANCH   8  13
ENDBRANCH   4   7
ENDBRANCH   2   3
ENDBRANCH   1   2
BRANCH   1  26
ATOM     26  C   UNL A   1      35.730  31.738  28.641  1.00  0.00     0.118 C 
BRANCH  26  27
ATOM     27  N   UNL A   1      35.663  31.253  30.017  1.00  0.00    -0.352 N 
ATOM     28  C   UNL A   1      36.486  30.408  30.720  1.00  0.00     0.251 C 
ATOM     29  H   UNL A   1      34.893  31.591  30.530  1.00  0.00     0.163 HD
ATOM     30  O   UNL A   1      36.104  29.958  31.796  1.00  0.00    -0.269 OA
BRANCH  28  31
ATOM     31  C   UNL A   1      37.817  30.031  30.195  1.00  0.00     0.039 A 
ATOM     32  C   UNL A   1      38.024  30.017  28.812  1.00  0.00     0.014 A 
ATOM     33  C   UNL A   1      38.849  29.646  31.052  1.00  0.00     0.014 A 
ATOM     34  C   UNL A   1      39.280  29.684  28.299  1.00  0.00     0.010 A 
ATOM     35  C   UNL A   1      40.124  29.415  30.549  1.00  0.00     0.010 A 
ATOM     36  C   UNL A   1      40.352  29.418  29.165  1.00  0.00    -0.014 A 
BRANCH  36  37
ATOM     37  C   UNL A   1      41.714  29.124  28.652  1.00  0.00     0.031 A 
ATOM     38  C   UNL A   1      42.063  27.730  28.199  1.00  0.00     0.074 A 
ATOM     39  C   UNL A   1      42.653  30.091  28.662  1.00  0.00     0.049 A 
ATOM     40  N   UNL A   1      43.217  27.253  27.809  1.00  0.00    -0.248 NA
ATOM     41  C   UNL A   1      40.979  26.732  28.215  1.00  0.00     0.031 C 
ATOM     42  C   UNL A   1      42.450  31.466  29.126  1.00  0.00     0.029 A 
ATOM     43  N   UNL A   1      43.971  30.064  28.281  1.00  0.00    -0.354 N 
ATOM     44  C   UNL A   1      43.001  25.903  27.551  1.00  0.00     0.074 A 
ATOM     45  C   UNL A   1      41.624  25.623  27.887  1.00  0.00     0.031 C 
ATOM     46  C   UNL A   1      43.590  32.156  28.976  1.00  0.00     0.029 A 
ATOM     47  C   UNL A   1      44.620  31.266  28.448  1.00  0.00     0.049 A 
ATOM     48  H   UNL A   1      44.412  29.261  27.922  1.00  0.00     0.167 HD
ATOM     49  C   UNL A   1      43.865  24.988  27.051  1.00  0.00     0.037 A 
ATOM     50  C   UNL A   1      45.900  31.610  28.209  1.00  0.00     0.037 A 
ATOM     51  C   UNL A   1      45.227  25.283  26.689  1.00  0.00     0.049 A 
ATOM     52  C   UNL A   1      46.841  30.573  27.657  1.00  0.00     0.074 A 
ATOM     53  C   UNL A   1      46.170  24.441  26.128  1.00  0.00     0.029 A 
ATOM     54  N   UNL A   1      45.838  26.518  26.850  1.00  0.00    -0.354 N 
ATOM     55  N   UNL A   1      46.604  29.316  27.366  1.00  0.00    -0.248 NA
ATOM     56  C   UNL A   1      48.221  31.002  27.392  1.00  0.00     0.031 C 
ATOM     57  C   UNL A   1      47.365  25.155  25.988  1.00  0.00     0.029 A 
ATOM     58  C   UNL A   1      47.151  26.458  26.413  1.00  0.00     0.049 A 
ATOM     59  H   UNL A   1      45.402  27.320  27.220  1.00  0.00     0.167 HD
ATOM     60  C   UNL A   1      47.795  28.813  26.856  1.00  0.00     0.074 A 
ATOM     61  C   UNL A   1      48.746  29.906  26.866  1.00  0.00     0.031 C 
ATOM     62  C   UNL A   1      48.079  27.561  26.419  1.00  0.00     0.037 A 
BRANCH  49  63
ATOM     63  C   UNL A   1      43.359  23.585  26.848  1.00  0.00     0.058 A 
ATOM     64  C   UNL A   1      43.097  23.075  25.566  1.00  0.00     0.135 A 
ATOM     65  C   UNL A   1      43.173  22.724  27.943  1.00  0.00     0.135 A 
ATOM     66  F   UNL A   1      43.242  23.857  24.484  1.00  0.00    -0.206 F 
ATOM     67  C   UNL A   1      42.643  21.773  25.377  1.00  0.00     0.059 A 
ATOM     68  C   UNL A   1      42.748  21.409  27.775  1.00  0.00     0.059 A 
ATOM     69  F   UNL A   1      43.407  23.159  29.192  1.00  0.00    -0.206 F 
ATOM     70  C   UNL A   1      42.474  20.946  26.489  1.00  0.00     0.060 A 
BRANCH  70  71
ATOM     71  S   UNL A   1      41.901  19.256  26.224  1.00  0.00     0.124 S 
ATOM     72  O   UNL A   1      42.276  18.619  27.481  1.00  0.00    -0.237 OA
ATOM     73  O   UNL A   1      40.469  19.442  26.010  1.00  0.00    -0.237 OA
ATOM     74  O   UNL A   1      42.654  18.821  25.052  1.00  0.00    -0.744 OA
ENDBRANCH  70  71
ENDBRANCH  49  63
BRANCH  50  75
ATOM     75  C   UNL A   1      46.364  33.001  28.468  1.00  0.00     0.058 A 
ATOM     76  C   UNL A   1      46.293  33.981  27.468  1.00  0.00     0.135 A 
ATOM     77  C   UNL A   1      46.885  33.378  29.716  1.00  0.00     0.135 A 
ATOM     78  F   UNL A   1      45.806  33.670  26.257  1.00  0.00    -0.206 F 
ATOM     79  C   UNL A   1      46.746  35.278  27.683  1.00  0.00     0.059 A 
ATOM     80  C   UNL A   1      47.318  34.677  29.965  1.00  0.00     0.059 A 
ATOM     81  F   UNL A   1      46.956  32.484  30.715  1.00  0.00    -0.206 F 
ATOM     82  C   UNL A   1      47.258  35.617  28.938  1.00  0.00     0.060 A 
BRANCH  82  83
ATOM     83  S   UNL A   1      47.812  37.312  29.219  1.00  0.00     0.124 S 
ATOM     84  O   UNL A   1      49.258  37.140  29.292  1.00  0.00    -0.237 OA
ATOM     85  O   UNL A   1      47.309  38.000  28.035  1.00  0.00    -0.237 OA
ATOM     86  O   UNL A   1      47.155  37.676  30.471  1.00  0.00    -0.744 OA
ENDBRANCH  82  83
ENDBRANCH  50  75
BRANCH  62  87
ATOM     87  C   UNL A   1      49.458  27.314  25.873  1.00  0.00     0.058 A 
ATOM     88  C   UNL A   1      50.533  26.974  26.708  1.00  0.00     0.135 A 
ATOM     89  C   UNL A   1      49.693  27.372  24.490  1.00  0.00     0.135 A 
ATOM     90  F   UNL A   1      50.363  26.912  28.039  1.00  0.00    -0.206 F 
ATOM     91  C   UNL A   1      51.801  26.725  26.194  1.00  0.00     0.059 A 
ATOM     92  C   UNL A   1      50.945  27.097  23.950  1.00  0.00     0.059 A 
ATOM     93  F   UNL A   1      48.695  27.681  23.646  1.00  0.00    -0.206 F 
ATOM     94  C   UNL A   1      51.996  26.788  24.812  1.00  0.00     0.060 A 
BRANCH  94  95
ATOM     95  S   UNL A   1      53.639  26.431  24.155  1.00  0.00     0.124 S 
ATOM     96  O   UNL A   1      54.491  27.178  25.075  1.00  0.00    -0.237 OA
ATOM     97  O   UNL A   1      53.710  24.978  24.263  1.00  0.00    -0.237 OA
ATOM     98  O   UNL A   1      53.580  26.950  22.791  1.00  0.00    -0.744 OA
ENDBRANCH  94  95
ENDBRANCH  62  87
ENDBRANCH  36  37
ENDBRANCH  28  31
ENDBRANCH  26  27
ENDBRANCH   1  26
TORSDOF 17
ENDMDL
