MODEL 1
REMARK VINA RESULT:     -12.6      0.000      0.000
REMARK SMILES Cc1cc(S(=O)(=O)N[C@@H](CO)C(=O)NCCCNC(=O)c2ccc(-c3c4nc(c(-c5c(F)cc(S(=O)(=O)[O-])cc5F)c5ccc([nH]5)c(-c5c(F)cc(S(=O)(=O)[O-])cc5F)c5nc(c(-c6c(F)cc(S(=O)(=O)[O-])cc6F)c6ccc3[nH]6)C=C5)C=C4)cc2)ccc1OC(C)C
REMARK SMILES IDX 15 1 14 2 12 3 13 4 9 6 8 7 5 9 6 10 7 11 4 12 1 13 2 14
REMARK SMILES IDX 3 15 89 16 88 17 87 18 90 19 91 20 92 21 93 22 10 23 11 24
REMARK SMILES IDX 16 26 17 27 18 28 19 29 20 31 21 32 22 33 86 34 23 35 85 36
REMARK SMILES IDX 24 37 25 38 26 39 79 40 27 41 84 42 78 43 80 44 28 45 83 46
REMARK SMILES IDX 77 47 76 48 29 50 63 51 42 52 62 53 43 54 46 55 61 56 81 57
REMARK SMILES IDX 44 58 45 59 60 61 82 62 47 63 30 64 31 65 40 66 32 67 33 68
REMARK SMILES IDX 39 69 41 70 34 71 35 72 36 73 37 74 38 75 64 76 65 77 74 78
REMARK SMILES IDX 66 79 67 80 73 81 75 82 68 83 69 84 70 85 71 86 72 87 48 88
REMARK SMILES IDX 49 89 58 90 50 91 51 92 57 93 59 94 52 95 53 96 54 97 55 98
REMARK SMILES IDX 56 99
REMARK H PARENT 14 5 8 8 11 25 18 30 80 49 46 60
REMARK Flexibility Score: inf
ROOT
ATOM      1  C   UNL A   1      32.515  29.161  25.056  1.00  0.00     0.117 C 
ENDROOT
BRANCH   1   2
ATOM      2  N   UNL A   1      31.439  28.182  25.049  1.00  0.00    -0.355 N 
ATOM      3  C   UNL A   1      30.802  27.620  23.981  1.00  0.00     0.240 C 
ATOM      4  O   UNL A   1      29.950  26.751  24.189  1.00  0.00    -0.273 OA
ATOM      5  H   UNL A   1      31.128  27.884  25.934  1.00  0.00     0.163 HD
BRANCH   3   6
ATOM      6  C   UNL A   1      31.065  28.111  22.550  1.00  0.00     0.184 C 
BRANCH   6   7
ATOM      7  N   UNL A   1      31.438  26.937  21.737  1.00  0.00    -0.196 NA
ATOM      8  H   UNL A   1      30.915  26.156  22.135  1.00  0.00     0.142 HD
BRANCH   7   9
ATOM      9  S   UNL A   1      32.970  26.364  21.518  1.00  0.00     0.241 S 
ATOM     10  O   UNL A   1      33.869  27.485  21.750  1.00  0.00    -0.207 OA
ATOM     11  O   UNL A   1      32.968  25.642  20.277  1.00  0.00    -0.207 OA
BRANCH   9  12
ATOM     12  C   UNL A   1      33.253  25.189  22.806  1.00  0.00     0.083 A 
ATOM     13  C   UNL A   1      32.375  21.558  23.141  1.00  0.00     0.048 C 
ATOM     14  C   UNL A   1      33.016  22.854  23.548  1.00  0.00    -0.008 A 
ATOM     15  C   UNL A   1      32.795  23.887  22.604  1.00  0.00     0.029 A 
ATOM     16  C   UNL A   1      33.771  23.158  24.692  1.00  0.00     0.122 A 
ATOM     17  C   UNL A   1      34.200  24.490  24.883  1.00  0.00     0.048 A 
ATOM     18  C   UNL A   1      33.923  25.510  23.973  1.00  0.00     0.025 A 
BRANCH  16  19
ATOM     19  O   UNL A   1      34.223  22.396  25.723  1.00  0.00    -0.491 OA
BRANCH  19  20
ATOM     20  C   UNL A   1      35.353  21.539  25.734  1.00  0.00     0.167 C 
ATOM     21  C   UNL A   1      35.109  20.233  24.981  1.00  0.00     0.052 C 
ATOM     22  C   UNL A   1      36.667  22.281  25.493  1.00  0.00     0.052 C 
ENDBRANCH  19  20
ENDBRANCH  16  19
ENDBRANCH   9  12
ENDBRANCH   7   9
ENDBRANCH   6   7
BRANCH   6  23
ATOM     23  C   UNL A   1      29.966  29.043  22.016  1.00  0.00     0.186 C 
BRANCH  23  24
ATOM     24  O   UNL A   1      30.398  30.190  21.297  1.00  0.00    -0.394 OA
ATOM     25  H   UNL A   1      30.745  29.918  20.432  1.00  0.00     0.210 HD
ENDBRANCH  23  24
ENDBRANCH   6  23
ENDBRANCH   3   6
ENDBRANCH   1   2
BRANCH   1  26
ATOM     26  C   UNL A   1      33.492  28.954  26.194  1.00  0.00     0.042 C 
BRANCH  26  27
ATOM     27  C   UNL A   1      33.306  29.975  27.288  1.00  0.00     0.118 C 
BRANCH  27  28
ATOM     28  N   UNL A   1      34.145  31.152  27.135  1.00  0.00    -0.352 N 
ATOM     29  C   UNL A   1      35.313  31.471  27.806  1.00  0.00     0.251 C 
ATOM     30  H   UNL A   1      33.844  31.807  26.465  1.00  0.00     0.163 HD
ATOM     31  O   UNL A   1      35.659  32.640  27.934  1.00  0.00    -0.269 OA
BRANCH  29  32
ATOM     32  C   UNL A   1      36.224  30.364  28.183  1.00  0.00     0.039 A 
ATOM     33  C   UNL A   1      36.191  29.925  29.513  1.00  0.00     0.014 A 
ATOM     34  C   UNL A   1      37.307  30.062  27.376  1.00  0.00     0.014 A 
ATOM     35  C   UNL A   1      37.340  29.401  30.090  1.00  0.00     0.010 A 
ATOM     36  C   UNL A   1      38.493  29.786  27.988  1.00  0.00     0.010 A 
ATOM     37  C   UNL A   1      38.506  29.450  29.347  1.00  0.00    -0.014 A 
BRANCH  37  38
ATOM     38  C   UNL A   1      39.819  29.013  29.761  1.00  0.00     0.031 A 
ATOM     39  C   UNL A   1      40.196  27.652  29.316  1.00  0.00     0.074 A 
ATOM     40  C   UNL A   1      40.697  29.993  30.060  1.00  0.00     0.049 A 
ATOM     41  N   UNL A   1      41.344  27.121  29.497  1.00  0.00    -0.248 NA
ATOM     42  C   UNL A   1      39.282  26.773  28.579  1.00  0.00     0.031 C 
ATOM     43  C   UNL A   1      42.143  30.003  29.882  1.00  0.00     0.029 A 
ATOM     44  N   UNL A   1      40.438  31.157  30.788  1.00  0.00    -0.354 N 
ATOM     45  C   UNL A   1      41.436  26.010  28.679  1.00  0.00     0.074 A 
ATOM     46  C   UNL A   1      40.105  25.803  28.175  1.00  0.00     0.031 C 
ATOM     47  C   UNL A   1      42.678  30.932  30.695  1.00  0.00     0.029 A 
ATOM     48  C   UNL A   1      41.600  31.417  31.543  1.00  0.00     0.049 A 
ATOM     49  H   UNL A   1      39.609  31.689  30.777  1.00  0.00     0.167 HD
ATOM     50  C   UNL A   1      42.680  25.504  28.451  1.00  0.00     0.037 A 
ATOM     51  C   UNL A   1      41.565  31.249  32.902  1.00  0.00     0.037 A 
ATOM     52  C   UNL A   1      43.637  26.212  29.297  1.00  0.00     0.049 A 
ATOM     53  C   UNL A   1      42.456  30.117  33.364  1.00  0.00     0.074 A 
ATOM     54  C   UNL A   1      44.467  27.296  29.065  1.00  0.00     0.029 A 
ATOM     55  N   UNL A   1      43.529  26.074  30.674  1.00  0.00    -0.354 N 
ATOM     56  N   UNL A   1      42.768  29.080  32.632  1.00  0.00    -0.248 NA
ATOM     57  C   UNL A   1      43.131  30.109  34.658  1.00  0.00     0.031 C 
ATOM     58  C   UNL A   1      44.800  27.856  30.326  1.00  0.00     0.029 A 
ATOM     59  C   UNL A   1      44.186  27.103  31.314  1.00  0.00     0.049 A 
ATOM     60  H   UNL A   1      43.051  25.344  31.130  1.00  0.00     0.167 HD
ATOM     61  C   UNL A   1      43.672  28.298  33.306  1.00  0.00     0.074 A 
ATOM     62  C   UNL A   1      43.864  28.985  34.569  1.00  0.00     0.031 C 
ATOM     63  C   UNL A   1      44.215  27.165  32.766  1.00  0.00     0.037 A 
BRANCH  50  64
ATOM     64  C   UNL A   1      43.111  24.554  27.353  1.00  0.00     0.058 A 
ATOM     65  C   UNL A   1      43.819  23.378  27.697  1.00  0.00     0.135 A 
ATOM     66  C   UNL A   1      42.911  24.727  25.969  1.00  0.00     0.135 A 
ATOM     67  F   UNL A   1      44.063  23.049  28.973  1.00  0.00    -0.206 F 
ATOM     68  C   UNL A   1      44.325  22.483  26.758  1.00  0.00     0.059 A 
ATOM     69  C   UNL A   1      43.428  23.851  25.004  1.00  0.00     0.059 A 
ATOM     70  F   UNL A   1      42.180  25.732  25.478  1.00  0.00    -0.206 F 
ATOM     71  C   UNL A   1      44.138  22.732  25.409  1.00  0.00     0.060 A 
BRANCH  71  72
ATOM     72  S   UNL A   1      44.817  21.562  24.221  1.00  0.00     0.124 S 
ATOM     73  O   UNL A   1      44.119  20.330  24.577  1.00  0.00    -0.237 OA
ATOM     74  O   UNL A   1      44.437  22.163  22.948  1.00  0.00    -0.237 OA
ATOM     75  O   UNL A   1      46.248  21.571  24.514  1.00  0.00    -0.744 OA
ENDBRANCH  71  72
ENDBRANCH  50  64
BRANCH  51  76
ATOM     76  C   UNL A   1      40.233  31.625  33.475  1.00  0.00     0.058 A 
ATOM     77  C   UNL A   1      39.431  30.561  33.944  1.00  0.00     0.135 A 
ATOM     78  C   UNL A   1      40.020  32.890  34.044  1.00  0.00     0.135 A 
ATOM     79  F   UNL A   1      39.567  29.335  33.410  1.00  0.00    -0.206 F 
ATOM     80  C   UNL A   1      38.633  30.692  35.075  1.00  0.00     0.059 A 
ATOM     81  C   UNL A   1      39.200  33.048  35.166  1.00  0.00     0.059 A 
ATOM     82  F   UNL A   1      40.733  33.947  33.628  1.00  0.00    -0.206 F 
ATOM     83  C   UNL A   1      38.592  31.923  35.724  1.00  0.00     0.060 A 
BRANCH  83  84
ATOM     84  S   UNL A   1      37.925  31.961  37.409  1.00  0.00     0.124 S 
ATOM     85  O   UNL A   1      39.094  32.350  38.190  1.00  0.00    -0.237 OA
ATOM     86  O   UNL A   1      36.881  32.976  37.283  1.00  0.00    -0.237 OA
ATOM     87  O   UNL A   1      37.458  30.594  37.615  1.00  0.00    -0.744 OA
ENDBRANCH  83  84
ENDBRANCH  51  76
BRANCH  63  88
ATOM     88  C   UNL A   1      44.916  26.050  33.518  1.00  0.00     0.058 A 
ATOM     89  C   UNL A   1      46.308  25.870  33.542  1.00  0.00     0.135 A 
ATOM     90  C   UNL A   1      44.188  25.194  34.390  1.00  0.00     0.135 A 
ATOM     91  F   UNL A   1      47.136  26.691  32.883  1.00  0.00    -0.206 F 
ATOM     92  C   UNL A   1      46.921  24.863  34.287  1.00  0.00     0.059 A 
ATOM     93  C   UNL A   1      44.788  24.237  35.202  1.00  0.00     0.059 A 
ATOM     94  F   UNL A   1      42.853  25.260  34.505  1.00  0.00    -0.206 F 
ATOM     95  C   UNL A   1      46.154  24.049  35.112  1.00  0.00     0.060 A 
BRANCH  95  96
ATOM     96  S   UNL A   1      46.953  22.763  36.078  1.00  0.00     0.124 S 
ATOM     97  O   UNL A   1      47.585  21.967  35.030  1.00  0.00    -0.237 OA
ATOM     98  O   UNL A   1      47.864  23.523  36.929  1.00  0.00    -0.237 OA
ATOM     99  O   UNL A   1      45.843  22.122  36.776  1.00  0.00    -0.744 OA
ENDBRANCH  95  96
ENDBRANCH  63  88
ENDBRANCH  37  38
ENDBRANCH  29  32
ENDBRANCH  27  28
ENDBRANCH  26  27
ENDBRANCH   1  26
TORSDOF 20
ENDMDL
MODEL 2
REMARK VINA RESULT:     -12.4      1.398      2.179
REMARK SMILES Cc1cc(S(=O)(=O)N[C@@H](CO)C(=O)NCCCNC(=O)c2ccc(-c3c4nc(c(-c5c(F)cc(S(=O)(=O)[O-])cc5F)c5ccc([nH]5)c(-c5c(F)cc(S(=O)(=O)[O-])cc5F)c5nc(c(-c6c(F)cc(S(=O)(=O)[O-])cc6F)c6ccc3[nH]6)C=C5)C=C4)cc2)ccc1OC(C)C
REMARK SMILES IDX 15 1 14 2 12 3 13 4 9 6 8 7 5 9 6 10 7 11 4 12 1 13 2 14
REMARK SMILES IDX 3 15 89 16 88 17 87 18 90 19 91 20 92 21 93 22 10 23 11 24
REMARK SMILES IDX 16 26 17 27 18 28 19 29 20 31 21 32 22 33 86 34 23 35 85 36
REMARK SMILES IDX 24 37 25 38 26 39 79 40 27 41 84 42 78 43 80 44 28 45 83 46
REMARK SMILES IDX 77 47 76 48 29 50 63 51 42 52 62 53 43 54 46 55 61 56 81 57
REMARK SMILES IDX 44 58 45 59 60 61 82 62 47 63 30 64 31 65 40 66 32 67 33 68
REMARK SMILES IDX 39 69 41 70 34 71 35 72 36 73 37 74 38 75 64 76 65 77 74 78
REMARK SMILES IDX 66 79 67 80 73 81 75 82 68 83 69 84 70 85 71 86 72 87 48 88
REMARK SMILES IDX 49 89 58 90 50 91 51 92 57 93 59 94 52 95 53 96 54 97 55 98
REMARK SMILES IDX 56 99
REMARK H PARENT 14 5 8 8 11 25 18 30 80 49 46 60
REMARK Flexibility Score: inf
ROOT
ATOM      1  C   UNL A   1      32.737  27.857  25.393  1.00  0.00     0.117 C 
ENDROOT
BRANCH   1   2
ATOM      2  N   UNL A   1      31.432  27.244  25.200  1.00  0.00    -0.355 N 
ATOM      3  C   UNL A   1      30.698  27.140  24.055  1.00  0.00     0.240 C 
ATOM      4  O   UNL A   1      29.632  26.519  24.090  1.00  0.00    -0.273 OA
ATOM      5  H   UNL A   1      31.022  26.852  26.005  1.00  0.00     0.163 HD
BRANCH   3   6
ATOM      6  C   UNL A   1      31.132  27.851  22.764  1.00  0.00     0.184 C 
BRANCH   6   7
ATOM      7  N   UNL A   1      31.449  26.809  21.767  1.00  0.00    -0.196 NA
ATOM      8  H   UNL A   1      30.825  26.031  21.984  1.00  0.00     0.142 HD
BRANCH   7   9
ATOM      9  S   UNL A   1      32.930  26.124  21.527  1.00  0.00     0.241 S 
ATOM     10  O   UNL A   1      33.917  27.132  21.884  1.00  0.00    -0.207 OA
ATOM     11  O   UNL A   1      32.902  25.523  20.224  1.00  0.00    -0.207 OA
BRANCH   9  12
ATOM     12  C   UNL A   1      33.071  24.813  22.703  1.00  0.00     0.083 A 
ATOM     13  C   UNL A   1      35.327  24.308  25.656  1.00  0.00     0.048 C 
ATOM     14  C   UNL A   1      34.191  23.980  24.730  1.00  0.00    -0.008 A 
ATOM     15  C   UNL A   1      34.030  24.946  23.706  1.00  0.00     0.029 A 
ATOM     16  C   UNL A   1      33.308  22.888  24.750  1.00  0.00     0.122 A 
ATOM     17  C   UNL A   1      32.363  22.765  23.707  1.00  0.00     0.048 A 
ATOM     18  C   UNL A   1      32.257  23.694  22.672  1.00  0.00     0.025 A 
BRANCH  16  19
ATOM     19  O   UNL A   1      33.142  21.857  25.620  1.00  0.00    -0.491 OA
BRANCH  19  20
ATOM     20  C   UNL A   1      33.835  20.619  25.635  1.00  0.00     0.167 C 
ATOM     21  C   UNL A   1      32.927  19.432  25.321  1.00  0.00     0.052 C 
ATOM     22  C   UNL A   1      35.200  20.691  24.951  1.00  0.00     0.052 C 
ENDBRANCH  19  20
ENDBRANCH  16  19
ENDBRANCH   9  12
ENDBRANCH   7   9
ENDBRANCH   6   7
BRANCH   6  23
ATOM     23  C   UNL A   1      30.186  28.988  22.350  1.00  0.00     0.186 C 
BRANCH  23  24
ATOM     24  O   UNL A   1      30.769  30.072  21.640  1.00  0.00    -0.394 OA
ATOM     25  H   UNL A   1      31.115  30.723  22.271  1.00  0.00     0.210 HD
ENDBRANCH  23  24
ENDBRANCH   6  23
ENDBRANCH   3   6
ENDBRANCH   1   2
BRANCH   1  26
ATOM     26  C   UNL A   1      32.659  29.356  25.593  1.00  0.00     0.042 C 
BRANCH  26  27
ATOM     27  C   UNL A   1      33.211  29.774  26.932  1.00  0.00     0.118 C 
BRANCH  27  28
ATOM     28  N   UNL A   1      33.997  30.997  26.882  1.00  0.00    -0.352 N 
ATOM     29  C   UNL A   1      35.095  31.348  27.649  1.00  0.00     0.251 C 
ATOM     30  H   UNL A   1      33.710  31.661  26.216  1.00  0.00     0.163 HD
ATOM     31  O   UNL A   1      35.368  32.527  27.842  1.00  0.00    -0.269 OA
BRANCH  29  32
ATOM     32  C   UNL A   1      36.034  30.274  28.052  1.00  0.00     0.039 A 
ATOM     33  C   UNL A   1      35.893  29.745  29.342  1.00  0.00     0.014 A 
ATOM     34  C   UNL A   1      37.212  30.093  27.350  1.00  0.00     0.014 A 
ATOM     35  C   UNL A   1      37.009  29.253  30.006  1.00  0.00     0.010 A 
ATOM     36  C   UNL A   1      38.344  29.847  28.067  1.00  0.00     0.010 A 
ATOM     37  C   UNL A   1      38.239  29.421  29.396  1.00  0.00    -0.014 A 
BRANCH  37  38
ATOM     38  C   UNL A   1      39.528  29.037  29.921  1.00  0.00     0.031 A 
ATOM     39  C   UNL A   1      40.065  27.760  29.394  1.00  0.00     0.074 A 
ATOM     40  C   UNL A   1      40.284  30.038  30.419  1.00  0.00     0.049 A 
ATOM     41  N   UNL A   1      41.225  27.295  29.659  1.00  0.00    -0.248 NA
ATOM     42  C   UNL A   1      39.315  26.903  28.470  1.00  0.00     0.031 C 
ATOM     43  C   UNL A   1      41.735  30.170  30.418  1.00  0.00     0.029 A 
ATOM     44  N   UNL A   1      39.848  31.096  31.220  1.00  0.00    -0.354 N 
ATOM     45  C   UNL A   1      41.500  26.288  28.754  1.00  0.00     0.074 A 
ATOM     46  C   UNL A   1      40.257  26.042  28.075  1.00  0.00     0.031 C 
ATOM     47  C   UNL A   1      42.095  31.042  31.377  1.00  0.00     0.029 A 
ATOM     48  C   UNL A   1      40.892  31.356  32.132  1.00  0.00     0.049 A 
ATOM     49  H   UNL A   1      38.985  31.567  31.161  1.00  0.00     0.167 HD
ATOM     50  C   UNL A   1      42.799  25.898  28.629  1.00  0.00     0.037 A 
ATOM     51  C   UNL A   1      40.718  31.042  33.454  1.00  0.00     0.037 A 
ATOM     52  C   UNL A   1      43.593  26.578  29.650  1.00  0.00     0.049 A 
ATOM     53  C   UNL A   1      41.642  29.933  33.907  1.00  0.00     0.074 A 
ATOM     54  C   UNL A   1      44.351  27.736  29.628  1.00  0.00     0.029 A 
ATOM     55  N   UNL A   1      43.342  26.286  30.984  1.00  0.00    -0.354 N 
ATOM     56  N   UNL A   1      42.119  29.005  33.120  1.00  0.00    -0.248 NA
ATOM     57  C   UNL A   1      42.165  29.834  35.266  1.00  0.00     0.031 C 
ATOM     58  C   UNL A   1      44.493  28.180  30.968  1.00  0.00     0.029 A 
ATOM     59  C   UNL A   1      43.836  27.285  31.796  1.00  0.00     0.049 A 
ATOM     60  H   UNL A   1      42.878  25.479  31.305  1.00  0.00     0.167 HD
ATOM     61  C   UNL A   1      43.003  28.220  33.819  1.00  0.00     0.074 A 
ATOM     62  C   UNL A   1      42.993  28.781  35.157  1.00  0.00     0.031 C 
ATOM     63  C   UNL A   1      43.694  27.193  33.240  1.00  0.00     0.037 A 
BRANCH  50  64
ATOM     64  C   UNL A   1      43.428  25.104  27.504  1.00  0.00     0.058 A 
ATOM     65  C   UNL A   1      44.117  23.904  27.807  1.00  0.00     0.135 A 
ATOM     66  C   UNL A   1      43.439  25.449  26.138  1.00  0.00     0.135 A 
ATOM     67  F   UNL A   1      44.172  23.419  29.055  1.00  0.00    -0.206 F 
ATOM     68  C   UNL A   1      44.794  23.145  26.856  1.00  0.00     0.059 A 
ATOM     69  C   UNL A   1      44.129  24.712  25.166  1.00  0.00     0.059 A 
ATOM     70  F   UNL A   1      42.757  26.497  25.666  1.00  0.00    -0.206 F 
ATOM     71  C   UNL A   1      44.808  23.562  25.536  1.00  0.00     0.060 A 
BRANCH  71  72
ATOM     72  S   UNL A   1      45.704  22.565  24.334  1.00  0.00     0.124 S 
ATOM     73  O   UNL A   1      46.647  23.533  23.781  1.00  0.00    -0.237 OA
ATOM     74  O   UNL A   1      46.284  21.522  25.172  1.00  0.00    -0.237 OA
ATOM     75  O   UNL A   1      44.661  22.120  23.414  1.00  0.00    -0.744 OA
ENDBRANCH  71  72
ENDBRANCH  50  64
BRANCH  51  76
ATOM     76  C   UNL A   1      39.303  31.259  33.895  1.00  0.00     0.058 A 
ATOM     77  C   UNL A   1      38.969  32.568  34.306  1.00  0.00     0.135 A 
ATOM     78  C   UNL A   1      38.263  30.451  33.411  1.00  0.00     0.135 A 
ATOM     79  F   UNL A   1      39.919  33.374  34.810  1.00  0.00    -0.206 F 
ATOM     80  C   UNL A   1      37.724  33.124  34.030  1.00  0.00     0.059 A 
ATOM     81  C   UNL A   1      36.996  30.985  33.152  1.00  0.00     0.059 A 
ATOM     82  F   UNL A   1      38.508  29.190  33.025  1.00  0.00    -0.206 F 
ATOM     83  C   UNL A   1      36.774  32.343  33.379  1.00  0.00     0.060 A 
BRANCH  83  84
ATOM     84  S   UNL A   1      35.355  33.194  32.640  1.00  0.00     0.124 S 
ATOM     85  O   UNL A   1      35.994  34.043  31.641  1.00  0.00    -0.237 OA
ATOM     86  O   UNL A   1      34.585  32.067  32.114  1.00  0.00    -0.237 OA
ATOM     87  O   UNL A   1      34.757  33.895  33.771  1.00  0.00    -0.744 OA
ENDBRANCH  83  84
ENDBRANCH  51  76
BRANCH  63  88
ATOM     88  C   UNL A   1      44.396  26.056  33.959  1.00  0.00     0.058 A 
ATOM     89  C   UNL A   1      43.731  25.027  34.643  1.00  0.00     0.135 A 
ATOM     90  C   UNL A   1      45.803  25.883  33.842  1.00  0.00     0.135 A 
ATOM     91  F   UNL A   1      42.394  24.977  34.714  1.00  0.00    -0.206 F 
ATOM     92  C   UNL A   1      44.408  23.969  35.250  1.00  0.00     0.059 A 
ATOM     93  C   UNL A   1      46.488  24.794  34.370  1.00  0.00     0.059 A 
ATOM     94  F   UNL A   1      46.579  26.763  33.192  1.00  0.00    -0.206 F 
ATOM     95  C   UNL A   1      45.787  23.862  35.110  1.00  0.00     0.060 A 
BRANCH  95  96
ATOM     96  S   UNL A   1      46.651  22.489  35.883  1.00  0.00     0.124 S 
ATOM     97  O   UNL A   1      45.789  21.368  35.521  1.00  0.00    -0.237 OA
ATOM     98  O   UNL A   1      47.954  22.521  35.225  1.00  0.00    -0.237 OA
ATOM     99  O   UNL A   1      46.662  22.847  37.298  1.00  0.00    -0.744 OA
ENDBRANCH  95  96
ENDBRANCH  63  88
ENDBRANCH  37  38
ENDBRANCH  29  32
ENDBRANCH  27  28
ENDBRANCH  26  27
ENDBRANCH   1  26
TORSDOF 20
ENDMDL
MODEL 3
REMARK VINA RESULT:     -12.3      1.657      2.455
REMARK SMILES Cc1cc(S(=O)(=O)N[C@@H](CO)C(=O)NCCCNC(=O)c2ccc(-c3c4nc(c(-c5c(F)cc(S(=O)(=O)[O-])cc5F)c5ccc([nH]5)c(-c5c(F)cc(S(=O)(=O)[O-])cc5F)c5nc(c(-c6c(F)cc(S(=O)(=O)[O-])cc6F)c6ccc3[nH]6)C=C5)C=C4)cc2)ccc1OC(C)C
REMARK SMILES IDX 15 1 14 2 12 3 13 4 9 6 8 7 5 9 6 10 7 11 4 12 1 13 2 14
REMARK SMILES IDX 3 15 89 16 88 17 87 18 90 19 91 20 92 21 93 22 10 23 11 24
REMARK SMILES IDX 16 26 17 27 18 28 19 29 20 31 21 32 22 33 86 34 23 35 85 36
REMARK SMILES IDX 24 37 25 38 26 39 79 40 27 41 84 42 78 43 80 44 28 45 83 46
REMARK SMILES IDX 77 47 76 48 29 50 63 51 42 52 62 53 43 54 46 55 61 56 81 57
REMARK SMILES IDX 44 58 45 59 60 61 82 62 47 63 30 64 31 65 40 66 32 67 33 68
REMARK SMILES IDX 39 69 41 70 34 71 35 72 36 73 37 74 38 75 64 76 65 77 74 78
REMARK SMILES IDX 66 79 67 80 73 81 75 82 68 83 69 84 70 85 71 86 72 87 48 88
REMARK SMILES IDX 49 89 58 90 50 91 51 92 57 93 59 94 52 95 53 96 54 97 55 98
REMARK SMILES IDX 56 99
REMARK H PARENT 14 5 8 8 11 25 18 30 80 49 46 60
REMARK Flexibility Score: inf
ROOT
ATOM      1  C   UNL A   1      32.651  29.641  25.163  1.00  0.00     0.117 C 
ENDROOT
BRANCH   1   2
ATOM      2  N   UNL A   1      33.475  29.294  24.016  1.00  0.00    -0.355 N 
ATOM      3  C   UNL A   1      33.151  28.534  22.929  1.00  0.00     0.240 C 
ATOM      4  O   UNL A   1      33.981  28.410  22.024  1.00  0.00    -0.273 OA
ATOM      5  H   UNL A   1      34.391  29.654  24.023  1.00  0.00     0.163 HD
BRANCH   3   6
ATOM      6  C   UNL A   1      31.820  27.770  22.862  1.00  0.00     0.184 C 
BRANCH   6   7
ATOM      7  N   UNL A   1      31.613  27.120  24.171  1.00  0.00    -0.196 NA
ATOM      8  H   UNL A   1      32.456  27.323  24.709  1.00  0.00     0.142 HD
BRANCH   7   9
ATOM      9  S   UNL A   1      31.321  25.514  24.413  1.00  0.00     0.241 S 
ATOM     10  O   UNL A   1      31.063  24.936  23.103  1.00  0.00    -0.207 OA
ATOM     11  O   UNL A   1      30.364  25.424  25.479  1.00  0.00    -0.207 OA
BRANCH   9  12
ATOM     12  C   UNL A   1      32.831  24.816  25.007  1.00  0.00     0.083 A 
ATOM     13  C   UNL A   1      33.564  22.335  27.723  1.00  0.00     0.048 C 
ATOM     14  C   UNL A   1      33.893  23.233  26.565  1.00  0.00    -0.008 A 
ATOM     15  C   UNL A   1      32.750  23.892  26.049  1.00  0.00     0.029 A 
ATOM     16  C   UNL A   1      35.131  23.488  25.955  1.00  0.00     0.122 A 
ATOM     17  C   UNL A   1      35.189  24.447  24.919  1.00  0.00     0.048 A 
ATOM     18  C   UNL A   1      34.063  25.133  24.463  1.00  0.00     0.025 A 
BRANCH  16  19
ATOM     19  O   UNL A   1      36.374  22.971  26.147  1.00  0.00    -0.491 OA
BRANCH  19  20
ATOM     20  C   UNL A   1      37.057  22.036  25.329  1.00  0.00     0.167 C 
ATOM     21  C   UNL A   1      38.511  21.834  25.752  1.00  0.00     0.052 C 
ATOM     22  C   UNL A   1      36.217  20.802  25.004  1.00  0.00     0.052 C 
ENDBRANCH  19  20
ENDBRANCH  16  19
ENDBRANCH   9  12
ENDBRANCH   7   9
ENDBRANCH   6   7
BRANCH   6  23
ATOM     23  C   UNL A   1      30.670  28.605  22.276  1.00  0.00     0.186 C 
BRANCH  23  24
ATOM     24  O   UNL A   1      30.994  29.921  21.849  1.00  0.00    -0.394 OA
ATOM     25  H   UNL A   1      30.936  30.528  22.604  1.00  0.00     0.210 HD
ENDBRANCH  23  24
ENDBRANCH   6  23
ENDBRANCH   3   6
ENDBRANCH   1   2
BRANCH   1  26
ATOM     26  C   UNL A   1      33.201  29.101  26.466  1.00  0.00     0.042 C 
BRANCH  26  27
ATOM     27  C   UNL A   1      33.279  30.169  27.529  1.00  0.00     0.118 C 
BRANCH  27  28
ATOM     28  N   UNL A   1      34.189  31.253  27.198  1.00  0.00    -0.352 N 
ATOM     29  C   UNL A   1      35.449  31.509  27.713  1.00  0.00     0.251 C 
ATOM     30  H   UNL A   1      33.868  31.888  26.518  1.00  0.00     0.163 HD
ATOM     31  O   UNL A   1      35.901  32.647  27.715  1.00  0.00    -0.269 OA
BRANCH  29  32
ATOM     32  C   UNL A   1      36.303  30.351  28.069  1.00  0.00     0.039 A 
ATOM     33  C   UNL A   1      36.111  29.771  29.331  1.00  0.00     0.014 A 
ATOM     34  C   UNL A   1      37.472  30.119  27.366  1.00  0.00     0.014 A 
ATOM     35  C   UNL A   1      37.181  29.167  29.976  1.00  0.00     0.010 A 
ATOM     36  C   UNL A   1      38.576  29.756  28.078  1.00  0.00     0.010 A 
ATOM     37  C   UNL A   1      38.427  29.275  29.383  1.00  0.00    -0.014 A 
BRANCH  37  38
ATOM     38  C   UNL A   1      39.680  28.772  29.897  1.00  0.00     0.031 A 
ATOM     39  C   UNL A   1      40.092  27.453  29.364  1.00  0.00     0.074 A 
ATOM     40  C   UNL A   1      40.528  29.699  30.390  1.00  0.00     0.049 A 
ATOM     41  N   UNL A   1      41.206  26.882  29.619  1.00  0.00    -0.248 NA
ATOM     42  C   UNL A   1      39.259  26.670  28.445  1.00  0.00     0.031 C 
ATOM     43  C   UNL A   1      41.985  29.696  30.377  1.00  0.00     0.029 A 
ATOM     44  N   UNL A   1      40.199  30.791  31.196  1.00  0.00    -0.354 N 
ATOM     45  C   UNL A   1      41.380  25.856  28.711  1.00  0.00     0.074 A 
ATOM     46  C   UNL A   1      40.113  25.727  28.041  1.00  0.00     0.031 C 
ATOM     47  C   UNL A   1      42.432  30.529  31.334  1.00  0.00     0.029 A 
ATOM     48  C   UNL A   1      41.270  30.951  32.099  1.00  0.00     0.049 A 
ATOM     49  H   UNL A   1      39.382  31.339  31.145  1.00  0.00     0.167 HD
ATOM     50  C   UNL A   1      42.637  25.348  28.574  1.00  0.00     0.037 A 
ATOM     51  C   UNL A   1      41.078  30.652  33.422  1.00  0.00     0.037 A 
ATOM     52  C   UNL A   1      43.498  25.949  29.589  1.00  0.00     0.049 A 
ATOM     53  C   UNL A   1      41.899  29.461  33.867  1.00  0.00     0.074 A 
ATOM     54  C   UNL A   1      44.359  27.032  29.562  1.00  0.00     0.029 A 
ATOM     55  N   UNL A   1      43.232  25.679  30.924  1.00  0.00    -0.354 N 
ATOM     56  N   UNL A   1      42.282  28.495  33.074  1.00  0.00    -0.248 NA
ATOM     57  C   UNL A   1      42.422  29.313  35.220  1.00  0.00     0.031 C 
ATOM     58  C   UNL A   1      44.552  27.459  30.901  1.00  0.00     0.029 A 
ATOM     59  C   UNL A   1      43.822  26.627  31.734  1.00  0.00     0.049 A 
ATOM     60  H   UNL A   1      42.698  24.918  31.249  1.00  0.00     0.167 HD
ATOM     61  C   UNL A   1      43.096  27.631  33.764  1.00  0.00     0.074 A 
ATOM     62  C   UNL A   1      43.149  28.187  35.103  1.00  0.00     0.031 C 
ATOM     63  C   UNL A   1      43.685  26.545  33.179  1.00  0.00     0.037 A 
BRANCH  50  64
ATOM     64  C   UNL A   1      43.180  24.501  27.442  1.00  0.00     0.058 A 
ATOM     65  C   UNL A   1      42.841  23.128  27.384  1.00  0.00     0.135 A 
ATOM     66  C   UNL A   1      44.047  24.928  26.418  1.00  0.00     0.135 A 
ATOM     67  F   UNL A   1      42.000  22.570  28.267  1.00  0.00    -0.206 F 
ATOM     68  C   UNL A   1      43.351  22.250  26.431  1.00  0.00     0.059 A 
ATOM     69  C   UNL A   1      44.588  24.060  25.459  1.00  0.00     0.059 A 
ATOM     70  F   UNL A   1      44.391  26.211  26.268  1.00  0.00    -0.206 F 
ATOM     71  C   UNL A   1      44.237  22.719  25.477  1.00  0.00     0.060 A 
BRANCH  71  72
ATOM     72  S   UNL A   1      44.888  21.555  24.268  1.00  0.00     0.124 S 
ATOM     73  O   UNL A   1      44.155  20.336  24.596  1.00  0.00    -0.237 OA
ATOM     74  O   UNL A   1      44.530  22.192  23.006  1.00  0.00    -0.237 OA
ATOM     75  O   UNL A   1      46.318  21.519  24.566  1.00  0.00    -0.744 OA
ENDBRANCH  71  72
ENDBRANCH  50  64
BRANCH  51  76
ATOM     76  C   UNL A   1      39.693  30.998  33.876  1.00  0.00     0.058 A 
ATOM     77  C   UNL A   1      39.445  32.361  34.148  1.00  0.00     0.135 A 
ATOM     78  C   UNL A   1      38.594  30.204  33.513  1.00  0.00     0.135 A 
ATOM     79  F   UNL A   1      40.454  33.160  34.534  1.00  0.00    -0.206 F 
ATOM     80  C   UNL A   1      38.224  32.955  33.847  1.00  0.00     0.059 A 
ATOM     81  C   UNL A   1      37.350  30.779  33.232  1.00  0.00     0.059 A 
ATOM     82  F   UNL A   1      38.757  28.896  33.262  1.00  0.00    -0.206 F 
ATOM     83  C   UNL A   1      37.211  32.164  33.312  1.00  0.00     0.060 A 
BRANCH  83  84
ATOM     84  S   UNL A   1      35.816  33.011  32.523  1.00  0.00     0.124 S 
ATOM     85  O   UNL A   1      36.487  34.060  31.764  1.00  0.00    -0.237 OA
ATOM     86  O   UNL A   1      35.234  31.929  31.730  1.00  0.00    -0.237 OA
ATOM     87  O   UNL A   1      35.016  33.467  33.655  1.00  0.00    -0.744 OA
ENDBRANCH  83  84
ENDBRANCH  51  76
BRANCH  63  88
ATOM     88  C   UNL A   1      44.285  25.347  33.890  1.00  0.00     0.058 A 
ATOM     89  C   UNL A   1      43.538  24.408  34.619  1.00  0.00     0.135 A 
ATOM     90  C   UNL A   1      45.658  25.017  33.722  1.00  0.00     0.135 A 
ATOM     91  F   UNL A   1      42.208  24.509  34.743  1.00  0.00    -0.206 F 
ATOM     92  C   UNL A   1      44.118  23.290  35.218  1.00  0.00     0.059 A 
ATOM     93  C   UNL A   1      46.239  23.865  34.242  1.00  0.00     0.059 A 
ATOM     94  F   UNL A   1      46.500  25.795  33.026  1.00  0.00    -0.206 F 
ATOM     95  C   UNL A   1      45.469  23.028  35.027  1.00  0.00     0.060 A 
BRANCH  95  96
ATOM     96  S   UNL A   1      46.206  21.578  35.790  1.00  0.00     0.124 S 
ATOM     97  O   UNL A   1      46.111  21.919  37.206  1.00  0.00    -0.237 OA
ATOM     98  O   UNL A   1      45.328  20.501  35.341  1.00  0.00    -0.237 OA
ATOM     99  O   UNL A   1      47.555  21.549  35.235  1.00  0.00    -0.744 OA
ENDBRANCH  95  96
ENDBRANCH  63  88
ENDBRANCH  37  38
ENDBRANCH  29  32
ENDBRANCH  27  28
ENDBRANCH  26  27
ENDBRANCH   1  26
TORSDOF 20
ENDMDL
