MODEL 1
REMARK VINA RESULT:     -12.8      0.000      0.000
REMARK SMILES O=C(Cc1ccc(NC(=O)Nc2ccc(Br)cc2)cc1)NCCCNC(=O)c1ccc(-c2c3nc(c(-c4c(F)cc(S(=O)(=O)[O-])cc4F)c4ccc([nH]4)c(-c4c(F)cc(S(=O)(=O)[O-])cc4F)c4nc(c(-c5c(F)cc(S(=O)(=O)[O-])cc5F)c5ccc2[nH]5)C=C4)C=C3)cc1
REMARK SMILES IDX 23 1 22 2 21 3 1 4 2 5 3 7 4 8 5 9 20 10 6 11 19 12 7 13
REMARK SMILES IDX 8 14 9 15 10 17 11 18 12 20 13 21 18 22 14 23 17 24 15 25
REMARK SMILES IDX 16 26 24 27 25 28 26 29 27 31 28 32 29 33 93 34 30 35 92 36
REMARK SMILES IDX 31 37 32 38 33 39 86 40 34 41 91 42 85 43 87 44 35 45 90 46
REMARK SMILES IDX 84 47 83 48 36 50 70 51 49 52 69 53 50 54 53 55 68 56 88 57
REMARK SMILES IDX 51 58 52 59 67 61 89 62 54 63 37 64 38 65 47 66 39 67 40 68
REMARK SMILES IDX 46 69 48 70 41 71 42 72 43 73 44 74 45 75 71 76 72 77 81 78
REMARK SMILES IDX 73 79 74 80 80 81 82 82 75 83 76 84 77 85 78 86 79 87 55 88
REMARK SMILES IDX 56 89 65 90 57 91 58 92 64 93 66 94 59 95 60 96 61 97 62 98
REMARK SMILES IDX 63 99
REMARK H PARENT 21 6 8 16 11 19 25 30 87 49 53 60
REMARK Flexibility Score: inf
ROOT
ATOM      1  C   UNL A   1      41.206  21.763  26.306  1.00  0.00     0.042 C 
ENDROOT
BRANCH   1   2
ATOM      2  C   UNL A   1      39.757  21.286  26.296  1.00  0.00     0.117 C 
BRANCH   2   3
ATOM      3  N   UNL A   1      38.811  22.204  25.686  1.00  0.00    -0.356 N 
ATOM      4  O   UNL A   1      37.523  20.550  24.732  1.00  0.00    -0.275 OA
ATOM      5  C   UNL A   1      37.694  21.735  25.011  1.00  0.00     0.224 C 
ATOM      6  H   UNL A   1      38.965  23.175  25.753  1.00  0.00     0.163 HD
BRANCH   5   7
ATOM      7  C   UNL A   1      36.631  22.783  24.717  1.00  0.00     0.135 C 
BRANCH   7   8
ATOM      8  C   UNL A   1      35.226  22.403  25.149  1.00  0.00    -0.039 A 
ATOM      9  C   UNL A   1      34.874  22.227  26.492  1.00  0.00     0.006 A 
ATOM     10  C   UNL A   1      34.220  22.264  24.177  1.00  0.00     0.006 A 
ATOM     11  C   UNL A   1      33.540  22.062  26.859  1.00  0.00     0.026 A 
ATOM     12  C   UNL A   1      32.881  22.075  24.546  1.00  0.00     0.026 A 
ATOM     13  C   UNL A   1      32.530  22.074  25.895  1.00  0.00     0.042 A 
BRANCH  13  14
ATOM     14  N   UNL A   1      31.168  22.157  26.249  1.00  0.00    -0.308 N 
ATOM     15  C   UNL A   1      30.537  23.155  26.946  1.00  0.00     0.323 C 
ATOM     16  H   UNL A   1      30.599  21.407  25.960  1.00  0.00     0.171 HD
ATOM     17  O   UNL A   1      29.536  22.901  27.616  1.00  0.00    -0.248 OA
ATOM     18  N   UNL A   1      31.026  24.435  26.895  1.00  0.00    -0.308 N 
ATOM     19  H   UNL A   1      30.880  24.987  27.697  1.00  0.00     0.171 HD
BRANCH  18  20
ATOM     20  C   UNL A   1      31.715  25.056  25.833  1.00  0.00     0.042 A 
ATOM     21  C   UNL A   1      31.051  25.238  24.618  1.00  0.00     0.027 A 
ATOM     22  C   UNL A   1      33.018  25.541  25.985  1.00  0.00     0.027 A 
ATOM     23  C   UNL A   1      31.640  26.016  23.615  1.00  0.00     0.018 A 
ATOM     24  C   UNL A   1      33.613  26.304  24.981  1.00  0.00     0.018 A 
ATOM     25  C   UNL A   1      32.906  26.565  23.813  1.00  0.00     0.018 A 
ATOM     26  Br  UNL A   1      33.671  27.698  22.510  1.00  0.00    -0.051 Br
ENDBRANCH  18  20
ENDBRANCH  13  14
ENDBRANCH   7   8
ENDBRANCH   5   7
ENDBRANCH   2   3
ENDBRANCH   1   2
BRANCH   1  27
ATOM     27  C   UNL A   1      41.451  23.171  26.840  1.00  0.00     0.118 C 
BRANCH  27  28
ATOM     28  N   UNL A   1      41.497  24.204  25.814  1.00  0.00    -0.352 N 
ATOM     29  C   UNL A   1      41.556  25.571  25.951  1.00  0.00     0.251 C 
ATOM     30  H   UNL A   1      41.483  23.875  24.885  1.00  0.00     0.163 HD
ATOM     31  O   UNL A   1      41.606  26.276  24.946  1.00  0.00    -0.269 OA
BRANCH  29  32
ATOM     32  C   UNL A   1      41.483  26.192  27.293  1.00  0.00     0.039 A 
ATOM     33  C   UNL A   1      42.611  26.874  27.763  1.00  0.00     0.014 A 
ATOM     34  C   UNL A   1      40.316  26.157  28.059  1.00  0.00     0.014 A 
ATOM     35  C   UNL A   1      42.532  27.613  28.946  1.00  0.00     0.010 A 
ATOM     36  C   UNL A   1      40.226  26.929  29.218  1.00  0.00     0.010 A 
ATOM     37  C   UNL A   1      41.321  27.693  29.651  1.00  0.00    -0.014 A 
BRANCH  37  38
ATOM     38  C   UNL A   1      41.157  28.656  30.772  1.00  0.00     0.031 A 
ATOM     39  C   UNL A   1      41.996  28.556  32.011  1.00  0.00     0.074 A 
ATOM     40  C   UNL A   1      40.182  29.585  30.690  1.00  0.00     0.049 A 
ATOM     41  N   UNL A   1      41.936  29.273  33.104  1.00  0.00    -0.248 NA
ATOM     42  C   UNL A   1      43.023  27.505  32.034  1.00  0.00     0.031 C 
ATOM     43  C   UNL A   1      39.271  29.757  29.556  1.00  0.00     0.029 A 
ATOM     44  N   UNL A   1      39.784  30.550  31.582  1.00  0.00    -0.354 N 
ATOM     45  C   UNL A   1      42.914  28.762  33.948  1.00  0.00     0.074 A 
ATOM     46  C   UNL A   1      43.527  27.649  33.253  1.00  0.00     0.031 C 
ATOM     47  C   UNL A   1      38.430  30.770  29.816  1.00  0.00     0.029 A 
ATOM     48  C   UNL A   1      38.716  31.297  31.145  1.00  0.00     0.049 A 
ATOM     49  H   UNL A   1      40.222  30.693  32.451  1.00  0.00     0.167 HD
ATOM     50  C   UNL A   1      43.274  29.191  35.182  1.00  0.00     0.037 A 
ATOM     51  C   UNL A   1      38.033  32.288  31.750  1.00  0.00     0.037 A 
ATOM     52  C   UNL A   1      42.668  30.305  35.868  1.00  0.00     0.049 A 
ATOM     53  C   UNL A   1      38.440  32.733  33.128  1.00  0.00     0.074 A 
ATOM     54  C   UNL A   1      43.007  30.847  37.095  1.00  0.00     0.029 A 
ATOM     55  N   UNL A   1      41.592  31.040  35.392  1.00  0.00    -0.354 N 
ATOM     56  N   UNL A   1      39.410  32.279  33.884  1.00  0.00    -0.248 NA
ATOM     57  C   UNL A   1      37.661  33.822  33.733  1.00  0.00     0.031 C 
ATOM     58  C   UNL A   1      42.113  31.886  37.379  1.00  0.00     0.029 A 
ATOM     59  C   UNL A   1      41.239  32.014  36.312  1.00  0.00     0.049 A 
ATOM     60  H   UNL A   1      41.144  30.891  34.527  1.00  0.00     0.167 HD
ATOM     61  C   UNL A   1      39.368  33.038  35.047  1.00  0.00     0.074 A 
ATOM     62  C   UNL A   1      38.287  33.988  34.890  1.00  0.00     0.031 C 
ATOM     63  C   UNL A   1      40.158  32.953  36.147  1.00  0.00     0.037 A 
BRANCH  50  64
ATOM     64  C   UNL A   1      44.383  28.451  35.876  1.00  0.00     0.058 A 
ATOM     65  C   UNL A   1      44.118  27.369  36.731  1.00  0.00     0.135 A 
ATOM     66  C   UNL A   1      45.723  28.802  35.657  1.00  0.00     0.135 A 
ATOM     67  F   UNL A   1      42.852  27.001  36.982  1.00  0.00    -0.206 F 
ATOM     68  C   UNL A   1      45.143  26.678  37.366  1.00  0.00     0.059 A 
ATOM     69  C   UNL A   1      46.768  28.111  36.266  1.00  0.00     0.059 A 
ATOM     70  F   UNL A   1      46.030  29.828  34.848  1.00  0.00    -0.206 F 
ATOM     71  C   UNL A   1      46.465  27.059  37.131  1.00  0.00     0.060 A 
BRANCH  71  72
ATOM     72  S   UNL A   1      47.787  26.158  37.968  1.00  0.00     0.124 S 
ATOM     73  O   UNL A   1      47.140  24.877  38.234  1.00  0.00    -0.237 OA
ATOM     74  O   UNL A   1      48.842  26.138  36.959  1.00  0.00    -0.237 OA
ATOM     75  O   UNL A   1      48.066  26.978  39.143  1.00  0.00    -0.744 OA
ENDBRANCH  71  72
ENDBRANCH  50  64
BRANCH  51  76
ATOM     76  C   UNL A   1      36.892  32.934  31.050  1.00  0.00     0.058 A 
ATOM     77  C   UNL A   1      35.569  32.607  31.378  1.00  0.00     0.135 A 
ATOM     78  C   UNL A   1      37.103  33.900  30.054  1.00  0.00     0.135 A 
ATOM     79  F   UNL A   1      35.320  31.684  32.319  1.00  0.00    -0.206 F 
ATOM     80  C   UNL A   1      34.491  33.207  30.735  1.00  0.00     0.059 A 
ATOM     81  C   UNL A   1      36.041  34.529  29.411  1.00  0.00     0.059 A 
ATOM     82  F   UNL A   1      38.352  34.257  29.716  1.00  0.00    -0.206 F 
ATOM     83  C   UNL A   1      34.739  34.169  29.753  1.00  0.00     0.060 A 
BRANCH  83  84
ATOM     84  S   UNL A   1      33.334  34.982  28.962  1.00  0.00     0.124 S 
ATOM     85  O   UNL A   1      32.475  35.262  30.107  1.00  0.00    -0.237 OA
ATOM     86  O   UNL A   1      33.962  36.142  28.335  1.00  0.00    -0.237 OA
ATOM     87  O   UNL A   1      32.842  33.969  28.033  1.00  0.00    -0.744 OA
ENDBRANCH  83  84
ENDBRANCH  51  76
BRANCH  63  88
ATOM     88  C   UNL A   1      39.891  33.923  37.263  1.00  0.00     0.058 A 
ATOM     89  C   UNL A   1      40.427  35.220  37.250  1.00  0.00     0.135 A 
ATOM     90  C   UNL A   1      39.053  33.568  38.333  1.00  0.00     0.135 A 
ATOM     91  F   UNL A   1      41.242  35.605  36.255  1.00  0.00    -0.206 F 
ATOM     92  C   UNL A   1      40.153  36.129  38.269  1.00  0.00     0.059 A 
ATOM     93  C   UNL A   1      38.749  34.468  39.350  1.00  0.00     0.059 A 
ATOM     94  F   UNL A   1      38.511  32.342  38.388  1.00  0.00    -0.206 F 
ATOM     95  C   UNL A   1      39.311  35.743  39.314  1.00  0.00     0.060 A 
BRANCH  95  96
ATOM     96  S   UNL A   1      38.931  36.943  40.608  1.00  0.00     0.124 S 
ATOM     97  O   UNL A   1      38.121  36.144  41.521  1.00  0.00    -0.237 OA
ATOM     98  O   UNL A   1      40.257  37.312  41.094  1.00  0.00    -0.237 OA
ATOM     99  O   UNL A   1      38.217  37.997  39.893  1.00  0.00    -0.744 OA
ENDBRANCH  95  96
ENDBRANCH  63  88
ENDBRANCH  37  38
ENDBRANCH  29  32
ENDBRANCH  27  28
ENDBRANCH   1  27
TORSDOF 16
ENDMDL
MODEL 2
REMARK VINA RESULT:     -12.7      0.455      8.189
REMARK SMILES O=C(Cc1ccc(NC(=O)Nc2ccc(Br)cc2)cc1)NCCCNC(=O)c1ccc(-c2c3nc(c(-c4c(F)cc(S(=O)(=O)[O-])cc4F)c4ccc([nH]4)c(-c4c(F)cc(S(=O)(=O)[O-])cc4F)c4nc(c(-c5c(F)cc(S(=O)(=O)[O-])cc5F)c5ccc2[nH]5)C=C4)C=C3)cc1
REMARK SMILES IDX 23 1 22 2 21 3 1 4 2 5 3 7 4 8 5 9 20 10 6 11 19 12 7 13
REMARK SMILES IDX 8 14 9 15 10 17 11 18 12 20 13 21 18 22 14 23 17 24 15 25
REMARK SMILES IDX 16 26 24 27 25 28 26 29 27 31 28 32 29 33 93 34 30 35 92 36
REMARK SMILES IDX 31 37 32 38 33 39 86 40 34 41 91 42 85 43 87 44 35 45 90 46
REMARK SMILES IDX 84 47 83 48 36 50 70 51 49 52 69 53 50 54 53 55 68 56 88 57
REMARK SMILES IDX 51 58 52 59 67 61 89 62 54 63 37 64 38 65 47 66 39 67 40 68
REMARK SMILES IDX 46 69 48 70 41 71 42 72 43 73 44 74 45 75 71 76 72 77 81 78
REMARK SMILES IDX 73 79 74 80 80 81 82 82 75 83 76 84 77 85 78 86 79 87 55 88
REMARK SMILES IDX 56 89 65 90 57 91 58 92 64 93 66 94 59 95 60 96 61 97 62 98
REMARK SMILES IDX 63 99
REMARK H PARENT 21 6 8 16 11 19 25 30 87 49 53 60
REMARK Flexibility Score: inf
ROOT
ATOM      1  C   UNL A   1      40.146  22.659  27.281  1.00  0.00     0.042 C 
ENDROOT
BRANCH   1   2
ATOM      2  C   UNL A   1      39.399  21.938  26.163  1.00  0.00     0.117 C 
BRANCH   2   3
ATOM      3  N   UNL A   1      38.384  22.730  25.490  1.00  0.00    -0.356 N 
ATOM      4  O   UNL A   1      37.385  20.929  24.460  1.00  0.00    -0.275 OA
ATOM      5  C   UNL A   1      37.383  22.124  24.746  1.00  0.00     0.224 C 
ATOM      6  H   UNL A   1      38.407  23.712  25.565  1.00  0.00     0.163 HD
BRANCH   5   7
ATOM      7  C   UNL A   1      36.215  23.029  24.381  1.00  0.00     0.135 C 
BRANCH   7   8
ATOM      8  C   UNL A   1      34.867  22.571  24.909  1.00  0.00    -0.039 A 
ATOM      9  C   UNL A   1      34.617  22.388  26.274  1.00  0.00     0.006 A 
ATOM     10  C   UNL A   1      33.808  22.364  24.008  1.00  0.00     0.006 A 
ATOM     11  C   UNL A   1      33.323  22.149  26.732  1.00  0.00     0.026 A 
ATOM     12  C   UNL A   1      32.510  22.101  24.469  1.00  0.00     0.026 A 
ATOM     13  C   UNL A   1      32.252  22.093  25.839  1.00  0.00     0.042 A 
BRANCH  13  14
ATOM     14  N   UNL A   1      30.914  22.099  26.284  1.00  0.00    -0.308 N 
ATOM     15  C   UNL A   1      30.273  23.066  27.016  1.00  0.00     0.323 C 
ATOM     16  H   UNL A   1      30.372  21.314  26.038  1.00  0.00     0.171 HD
ATOM     17  O   UNL A   1      29.337  22.760  27.754  1.00  0.00    -0.248 OA
ATOM     18  N   UNL A   1      30.681  24.371  26.924  1.00  0.00    -0.308 N 
ATOM     19  H   UNL A   1      30.557  24.922  27.731  1.00  0.00     0.171 HD
BRANCH  18  20
ATOM     20  C   UNL A   1      31.259  25.021  25.813  1.00  0.00     0.042 A 
ATOM     21  C   UNL A   1      32.550  25.540  25.936  1.00  0.00     0.027 A 
ATOM     22  C   UNL A   1      30.595  25.108  24.585  1.00  0.00     0.027 A 
ATOM     23  C   UNL A   1      33.216  26.019  24.803  1.00  0.00     0.018 A 
ATOM     24  C   UNL A   1      31.253  25.599  23.457  1.00  0.00     0.018 A 
ATOM     25  C   UNL A   1      32.572  26.022  23.566  1.00  0.00     0.018 A 
ATOM     26  Br  UNL A   1      33.491  26.571  22.011  1.00  0.00    -0.051 Br
ENDBRANCH  18  20
ENDBRANCH  13  14
ENDBRANCH   7   8
ENDBRANCH   5   7
ENDBRANCH   2   3
ENDBRANCH   1   2
BRANCH   1  27
ATOM     27  C   UNL A   1      41.518  23.223  26.924  1.00  0.00     0.118 C 
BRANCH  27  28
ATOM     28  N   UNL A   1      41.491  24.285  25.928  1.00  0.00    -0.352 N 
ATOM     29  C   UNL A   1      41.461  25.649  26.104  1.00  0.00     0.251 C 
ATOM     30  H   UNL A   1      41.495  23.983  24.990  1.00  0.00     0.163 HD
ATOM     31  O   UNL A   1      41.460  26.384  25.120  1.00  0.00    -0.269 OA
BRANCH  29  32
ATOM     32  C   UNL A   1      41.353  26.226  27.463  1.00  0.00     0.039 A 
ATOM     33  C   UNL A   1      42.439  26.959  27.954  1.00  0.00     0.014 A 
ATOM     34  C   UNL A   1      40.190  26.100  28.227  1.00  0.00     0.014 A 
ATOM     35  C   UNL A   1      42.318  27.658  29.157  1.00  0.00     0.010 A 
ATOM     36  C   UNL A   1      40.057  26.832  29.408  1.00  0.00     0.010 A 
ATOM     37  C   UNL A   1      41.105  27.646  29.863  1.00  0.00    -0.014 A 
BRANCH  37  38
ATOM     38  C   UNL A   1      40.886  28.564  31.012  1.00  0.00     0.031 A 
ATOM     39  C   UNL A   1      39.845  29.643  30.956  1.00  0.00     0.074 A 
ATOM     40  C   UNL A   1      41.693  28.462  32.087  1.00  0.00     0.049 A 
ATOM     41  N   UNL A   1      39.569  30.565  31.842  1.00  0.00    -0.248 NA
ATOM     42  C   UNL A   1      39.018  29.705  29.743  1.00  0.00     0.031 C 
ATOM     43  C   UNL A   1      42.771  27.482  32.244  1.00  0.00     0.029 A 
ATOM     44  N   UNL A   1      41.744  29.197  33.246  1.00  0.00    -0.354 N 
ATOM     45  C   UNL A   1      38.539  31.322  31.297  1.00  0.00     0.074 A 
ATOM     46  C   UNL A   1      38.265  30.770  29.985  1.00  0.00     0.031 C 
ATOM     47  C   UNL A   1      43.369  27.670  33.432  1.00  0.00     0.029 A 
ATOM     48  C   UNL A   1      42.743  28.802  34.105  1.00  0.00     0.049 A 
ATOM     49  H   UNL A   1      41.125  29.935  33.442  1.00  0.00     0.167 HD
ATOM     50  C   UNL A   1      37.877  32.368  31.845  1.00  0.00     0.037 A 
ATOM     51  C   UNL A   1      43.122  29.302  35.297  1.00  0.00     0.037 A 
ATOM     52  C   UNL A   1      38.146  32.909  33.154  1.00  0.00     0.049 A 
ATOM     53  C   UNL A   1      42.383  30.477  35.875  1.00  0.00     0.074 A 
ATOM     54  C   UNL A   1      37.486  33.930  33.815  1.00  0.00     0.029 A 
ATOM     55  N   UNL A   1      39.161  32.481  33.996  1.00  0.00    -0.354 N 
ATOM     56  N   UNL A   1      41.369  31.138  35.371  1.00  0.00    -0.248 NA
ATOM     57  C   UNL A   1      42.839  30.974  37.180  1.00  0.00     0.031 C 
ATOM     58  C   UNL A   1      38.126  34.146  35.041  1.00  0.00     0.029 A 
ATOM     59  C   UNL A   1      39.162  33.234  35.160  1.00  0.00     0.049 A 
ATOM     60  H   UNL A   1      39.790  31.749  33.797  1.00  0.00     0.167 HD
ATOM     61  C   UNL A   1      41.055  32.117  36.306  1.00  0.00     0.074 A 
ATOM     62  C   UNL A   1      41.978  31.955  37.410  1.00  0.00     0.031 C 
ATOM     63  C   UNL A   1      40.087  33.066  36.251  1.00  0.00     0.037 A 
BRANCH  50  64
ATOM     64  C   UNL A   1      36.787  33.003  31.027  1.00  0.00     0.058 A 
ATOM     65  C   UNL A   1      37.080  33.892  29.981  1.00  0.00     0.135 A 
ATOM     66  C   UNL A   1      35.440  32.692  31.266  1.00  0.00     0.135 A 
ATOM     67  F   UNL A   1      38.352  34.231  29.718  1.00  0.00    -0.206 F 
ATOM     68  C   UNL A   1      36.073  34.473  29.218  1.00  0.00     0.059 A 
ATOM     69  C   UNL A   1      34.416  33.245  30.502  1.00  0.00     0.059 A 
ATOM     70  F   UNL A   1      35.106  31.847  32.254  1.00  0.00    -0.206 F 
ATOM     71  C   UNL A   1      34.743  34.147  29.489  1.00  0.00     0.060 A 
BRANCH  71  72
ATOM     72  S   UNL A   1      33.445  34.913  28.495  1.00  0.00     0.124 S 
ATOM     73  O   UNL A   1      34.214  35.865  27.700  1.00  0.00    -0.237 OA
ATOM     74  O   UNL A   1      32.895  33.776  27.765  1.00  0.00    -0.237 OA
ATOM     75  O   UNL A   1      32.557  35.501  29.493  1.00  0.00    -0.744 OA
ENDBRANCH  71  72
ENDBRANCH  50  64
BRANCH  51  76
ATOM     76  C   UNL A   1      44.259  28.685  36.029  1.00  0.00     0.058 A 
ATOM     77  C   UNL A   1      44.053  27.602  36.894  1.00  0.00     0.135 A 
ATOM     78  C   UNL A   1      45.571  29.155  35.865  1.00  0.00     0.135 A 
ATOM     79  F   UNL A   1      42.814  27.124  37.088  1.00  0.00    -0.206 F 
ATOM     80  C   UNL A   1      45.107  27.010  37.583  1.00  0.00     0.059 A 
ATOM     81  C   UNL A   1      46.645  28.566  36.526  1.00  0.00     0.059 A 
ATOM     82  F   UNL A   1      45.820  30.180  35.035  1.00  0.00    -0.206 F 
ATOM     83  C   UNL A   1      46.400  27.500  37.389  1.00  0.00     0.060 A 
BRANCH  83  84
ATOM     84  S   UNL A   1      47.771  26.691  38.244  1.00  0.00     0.124 S 
ATOM     85  O   UNL A   1      48.644  26.341  37.130  1.00  0.00    -0.237 OA
ATOM     86  O   UNL A   1      48.252  27.749  39.127  1.00  0.00    -0.237 OA
ATOM     87  O   UNL A   1      47.126  25.569  38.920  1.00  0.00    -0.744 OA
ENDBRANCH  83  84
ENDBRANCH  51  76
BRANCH  63  88
ATOM     88  C   UNL A   1      39.967  33.995  37.426  1.00  0.00     0.058 A 
ATOM     89  C   UNL A   1      40.658  35.217  37.467  1.00  0.00     0.135 A 
ATOM     90  C   UNL A   1      39.116  33.684  38.499  1.00  0.00     0.135 A 
ATOM     91  F   UNL A   1      41.492  35.556  36.471  1.00  0.00    -0.206 F 
ATOM     92  C   UNL A   1      40.522  36.091  38.542  1.00  0.00     0.059 A 
ATOM     93  C   UNL A   1      38.949  34.554  39.573  1.00  0.00     0.059 A 
ATOM     94  F   UNL A   1      38.429  32.532  38.504  1.00  0.00    -0.206 F 
ATOM     95  C   UNL A   1      39.663  35.751  39.589  1.00  0.00     0.060 A 
BRANCH  95  96
ATOM     96  S   UNL A   1      39.463  36.912  40.957  1.00  0.00     0.124 S 
ATOM     97  O   UNL A   1      40.849  37.258  41.255  1.00  0.00    -0.237 OA
ATOM     98  O   UNL A   1      38.660  37.972  40.357  1.00  0.00    -0.237 OA
ATOM     99  O   UNL A   1      38.781  36.119  41.976  1.00  0.00    -0.744 OA
ENDBRANCH  95  96
ENDBRANCH  63  88
ENDBRANCH  37  38
ENDBRANCH  29  32
ENDBRANCH  27  28
ENDBRANCH   1  27
TORSDOF 16
ENDMDL
MODEL 3
REMARK VINA RESULT:     -12.5      6.540     11.966
REMARK SMILES O=C(Cc1ccc(NC(=O)Nc2ccc(Br)cc2)cc1)NCCCNC(=O)c1ccc(-c2c3nc(c(-c4c(F)cc(S(=O)(=O)[O-])cc4F)c4ccc([nH]4)c(-c4c(F)cc(S(=O)(=O)[O-])cc4F)c4nc(c(-c5c(F)cc(S(=O)(=O)[O-])cc5F)c5ccc2[nH]5)C=C4)C=C3)cc1
REMARK SMILES IDX 23 1 22 2 21 3 1 4 2 5 3 7 4 8 5 9 20 10 6 11 19 12 7 13
REMARK SMILES IDX 8 14 9 15 10 17 11 18 12 20 13 21 18 22 14 23 17 24 15 25
REMARK SMILES IDX 16 26 24 27 25 28 26 29 27 31 28 32 29 33 93 34 30 35 92 36
REMARK SMILES IDX 31 37 32 38 33 39 86 40 34 41 91 42 85 43 87 44 35 45 90 46
REMARK SMILES IDX 84 47 83 48 36 50 70 51 49 52 69 53 50 54 53 55 68 56 88 57
REMARK SMILES IDX 51 58 52 59 67 61 89 62 54 63 37 64 38 65 47 66 39 67 40 68
REMARK SMILES IDX 46 69 48 70 41 71 42 72 43 73 44 74 45 75 71 76 72 77 81 78
REMARK SMILES IDX 73 79 74 80 80 81 82 82 75 83 76 84 77 85 78 86 79 87 55 88
REMARK SMILES IDX 56 89 65 90 57 91 58 92 64 93 66 94 59 95 60 96 61 97 62 98
REMARK SMILES IDX 63 99
REMARK H PARENT 21 6 8 16 11 19 25 30 87 49 53 60
REMARK Flexibility Score: inf
ROOT
ATOM      1  C   UNL A   1      35.124  32.214  27.704  1.00  0.00     0.042 C 
ENDROOT
BRANCH   1   2
ATOM      2  C   UNL A   1      33.875  31.338  27.722  1.00  0.00     0.117 C 
BRANCH   2   3
ATOM      3  N   UNL A   1      33.980  30.099  26.971  1.00  0.00    -0.356 N 
ATOM      4  O   UNL A   1      32.099  30.483  25.700  1.00  0.00    -0.275 OA
ATOM      5  C   UNL A   1      33.105  29.817  25.934  1.00  0.00     0.224 C 
ATOM      6  H   UNL A   1      34.686  29.451  27.201  1.00  0.00     0.163 HD
BRANCH   5   7
ATOM      7  C   UNL A   1      33.525  28.666  25.030  1.00  0.00     0.135 C 
BRANCH   7   8
ATOM      8  C   UNL A   1      32.907  27.325  25.379  1.00  0.00    -0.039 A 
ATOM      9  C   UNL A   1      33.647  26.279  25.943  1.00  0.00     0.006 A 
ATOM     10  C   UNL A   1      31.530  27.127  25.175  1.00  0.00     0.006 A 
ATOM     11  C   UNL A   1      33.008  25.135  26.418  1.00  0.00     0.026 A 
ATOM     12  C   UNL A   1      30.892  25.965  25.633  1.00  0.00     0.026 A 
ATOM     13  C   UNL A   1      31.620  25.013  26.345  1.00  0.00     0.042 A 
BRANCH  13  14
ATOM     14  N   UNL A   1      30.928  23.993  27.030  1.00  0.00    -0.308 N 
ATOM     15  C   UNL A   1      30.275  22.912  26.497  1.00  0.00     0.323 C 
ATOM     16  H   UNL A   1      30.912  24.066  28.013  1.00  0.00     0.171 HD
ATOM     17  O   UNL A   1      29.322  22.411  27.095  1.00  0.00    -0.248 OA
ATOM     18  N   UNL A   1      30.686  22.393  25.297  1.00  0.00    -0.308 N 
ATOM     19  H   UNL A   1      29.986  21.977  24.742  1.00  0.00     0.171 HD
BRANCH  18  20
ATOM     20  C   UNL A   1      31.989  22.385  24.758  1.00  0.00     0.042 A 
ATOM     21  C   UNL A   1      32.240  23.121  23.598  1.00  0.00     0.027 A 
ATOM     22  C   UNL A   1      33.039  21.706  25.384  1.00  0.00     0.027 A 
ATOM     23  C   UNL A   1      33.556  23.283  23.151  1.00  0.00     0.018 A 
ATOM     24  C   UNL A   1      34.350  21.855  24.932  1.00  0.00     0.018 A 
ATOM     25  C   UNL A   1      34.605  22.670  23.835  1.00  0.00     0.018 A 
ATOM     26  Br  UNL A   1      36.393  22.961  23.303  1.00  0.00    -0.051 Br
ENDBRANCH  18  20
ENDBRANCH  13  14
ENDBRANCH   7   8
ENDBRANCH   5   7
ENDBRANCH   2   3
ENDBRANCH   1   2
BRANCH   1  27
ATOM     27  C   UNL A   1      35.913  32.295  29.008  1.00  0.00     0.118 C 
BRANCH  27  28
ATOM     28  N   UNL A   1      35.664  31.196  29.931  1.00  0.00    -0.352 N 
ATOM     29  C   UNL A   1      36.534  30.245  30.414  1.00  0.00     0.251 C 
ATOM     30  H   UNL A   1      34.738  31.121  30.257  1.00  0.00     0.163 HD
ATOM     31  O   UNL A   1      36.126  29.402  31.208  1.00  0.00    -0.269 OA
BRANCH  29  32
ATOM     32  C   UNL A   1      37.930  30.191  29.923  1.00  0.00     0.039 A 
ATOM     33  C   UNL A   1      38.961  30.334  30.858  1.00  0.00     0.014 A 
ATOM     34  C   UNL A   1      38.231  29.950  28.581  1.00  0.00     0.014 A 
ATOM     35  C   UNL A   1      40.286  30.124  30.469  1.00  0.00     0.010 A 
ATOM     36  C   UNL A   1      39.551  29.700  28.202  1.00  0.00     0.010 A 
ATOM     37  C   UNL A   1      40.584  29.748  29.150  1.00  0.00    -0.014 A 
BRANCH  37  38
ATOM     38  C   UNL A   1      41.951  29.295  28.780  1.00  0.00     0.031 A 
ATOM     39  C   UNL A   1      43.096  30.262  28.705  1.00  0.00     0.074 A 
ATOM     40  C   UNL A   1      42.135  28.004  28.437  1.00  0.00     0.049 A 
ATOM     41  N   UNL A   1      44.332  30.043  28.338  1.00  0.00    -0.248 NA
ATOM     42  C   UNL A   1      42.813  31.656  29.074  1.00  0.00     0.031 C 
ATOM     43  C   UNL A   1      41.092  26.975  28.428  1.00  0.00     0.029 A 
ATOM     44  N   UNL A   1      43.260  27.337  28.016  1.00  0.00    -0.354 N 
ATOM     45  C   UNL A   1      44.979  31.270  28.427  1.00  0.00     0.074 A 
ATOM     46  C   UNL A   1      43.984  32.236  28.849  1.00  0.00     0.031 C 
ATOM     47  C   UNL A   1      41.627  25.808  28.032  1.00  0.00     0.029 A 
ATOM     48  C   UNL A   1      43.038  26.011  27.726  1.00  0.00     0.049 A 
ATOM     49  H   UNL A   1      44.140  27.768  27.930  1.00  0.00     0.167 HD
ATOM     50  C   UNL A   1      46.281  31.559  28.192  1.00  0.00     0.037 A 
ATOM     51  C   UNL A   1      43.874  25.066  27.254  1.00  0.00     0.037 A 
ATOM     52  C   UNL A   1      47.269  30.594  27.781  1.00  0.00     0.049 A 
ATOM     53  C   UNL A   1      45.310  25.417  26.983  1.00  0.00     0.074 A 
ATOM     54  C   UNL A   1      48.625  30.785  27.576  1.00  0.00     0.029 A 
ATOM     55  N   UNL A   1      47.010  29.260  27.502  1.00  0.00    -0.354 N 
ATOM     56  N   UNL A   1      45.917  26.569  27.136  1.00  0.00    -0.248 NA
ATOM     57  C   UNL A   1      46.174  24.342  26.476  1.00  0.00     0.031 C 
ATOM     58  C   UNL A   1      49.178  29.576  27.137  1.00  0.00     0.029 A 
ATOM     59  C   UNL A   1      48.173  28.623  27.103  1.00  0.00     0.049 A 
ATOM     60  H   UNL A   1      46.127  28.829  27.576  1.00  0.00     0.167 HD
ATOM     61  C   UNL A   1      47.237  26.353  26.759  1.00  0.00     0.074 A 
ATOM     62  C   UNL A   1      47.344  24.959  26.384  1.00  0.00     0.031 C 
ATOM     63  C   UNL A   1      48.267  27.235  26.728  1.00  0.00     0.037 A 
BRANCH  50  64
ATOM     64  C   UNL A   1      46.718  32.985  28.376  1.00  0.00     0.058 A 
ATOM     65  C   UNL A   1      47.193  33.452  29.612  1.00  0.00     0.135 A 
ATOM     66  C   UNL A   1      46.696  33.885  27.299  1.00  0.00     0.135 A 
ATOM     67  F   UNL A   1      47.223  32.635  30.677  1.00  0.00    -0.206 F 
ATOM     68  C   UNL A   1      47.605  34.769  29.781  1.00  0.00     0.059 A 
ATOM     69  C   UNL A   1      47.124  35.202  27.439  1.00  0.00     0.059 A 
ATOM     70  F   UNL A   1      46.252  33.488  26.096  1.00  0.00    -0.206 F 
ATOM     71  C   UNL A   1      47.563  35.638  28.689  1.00  0.00     0.060 A 
BRANCH  71  72
ATOM     72  S   UNL A   1      48.095  37.348  28.924  1.00  0.00     0.124 S 
ATOM     73  O   UNL A   1      49.476  37.287  28.455  1.00  0.00    -0.237 OA
ATOM     74  O   UNL A   1      47.168  38.085  28.072  1.00  0.00    -0.237 OA
ATOM     75  O   UNL A   1      47.928  37.562  30.358  1.00  0.00    -0.744 OA
ENDBRANCH  71  72
ENDBRANCH  50  64
BRANCH  51  76
ATOM     76  C   UNL A   1      43.370  23.688  27.015  1.00  0.00     0.058 A 
ATOM     77  C   UNL A   1      43.074  23.247  25.718  1.00  0.00     0.135 A 
ATOM     78  C   UNL A   1      43.192  22.785  28.074  1.00  0.00     0.135 A 
ATOM     79  F   UNL A   1      43.222  24.079  24.676  1.00  0.00    -0.206 F 
ATOM     80  C   UNL A   1      42.607  21.959  25.477  1.00  0.00     0.059 A 
ATOM     81  C   UNL A   1      42.746  21.485  27.856  1.00  0.00     0.059 A 
ATOM     82  F   UNL A   1      43.477  23.156  29.331  1.00  0.00    -0.206 F 
ATOM     83  C   UNL A   1      42.448  21.085  26.554  1.00  0.00     0.060 A 
BRANCH  83  84
ATOM     84  S   UNL A   1      41.894  19.397  26.227  1.00  0.00     0.124 S 
ATOM     85  O   UNL A   1      42.626  19.080  25.007  1.00  0.00    -0.237 OA
ATOM     86  O   UNL A   1      42.323  18.692  27.432  1.00  0.00    -0.237 OA
ATOM     87  O   UNL A   1      40.449  19.543  26.079  1.00  0.00    -0.744 OA
ENDBRANCH  83  84
ENDBRANCH  51  76
BRANCH  63  88
ATOM     88  C   UNL A   1      49.606  26.714  26.286  1.00  0.00     0.058 A 
ATOM     89  C   UNL A   1      50.061  26.887  24.969  1.00  0.00     0.135 A 
ATOM     90  C   UNL A   1      50.462  26.077  27.199  1.00  0.00     0.135 A 
ATOM     91  F   UNL A   1      49.276  27.481  24.055  1.00  0.00    -0.206 F 
ATOM     92  C   UNL A   1      51.314  26.432  24.568  1.00  0.00     0.059 A 
ATOM     93  C   UNL A   1      51.727  25.633  26.824  1.00  0.00     0.059 A 
ATOM     94  F   UNL A   1      50.076  25.892  28.470  1.00  0.00    -0.206 F 
ATOM     95  C   UNL A   1      52.140  25.808  25.504  1.00  0.00     0.060 A 
BRANCH  95  96
ATOM     96  S   UNL A   1      53.779  25.258  24.983  1.00  0.00     0.124 S 
ATOM     97  O   UNL A   1      53.947  25.982  23.728  1.00  0.00    -0.237 OA
ATOM     98  O   UNL A   1      54.625  25.699  26.087  1.00  0.00    -0.237 OA
ATOM     99  O   UNL A   1      53.626  23.811  24.859  1.00  0.00    -0.744 OA
ENDBRANCH  95  96
ENDBRANCH  63  88
ENDBRANCH  37  38
ENDBRANCH  29  32
ENDBRANCH  27  28
ENDBRANCH   1  27
TORSDOF 16
ENDMDL
