MODEL 1
REMARK VINA RESULT:     -12.9      0.000      0.000
REMARK SMILES Cc1nn(C(C)C)cc1-c1cnccc1C(=O)NCCCNC(=O)c1ccc(-c2c3nc(c(-c4c(F)cc(S(=O)(=O)[O-])cc4F)c4ccc([nH]4)c(-c4c(F)cc(S(=O)(=O)[O-])cc4F)c4nc(c(-c5c(F)cc(S(=O)(=O)[O-])cc5F)c5ccc2[nH]5)C=C4)C=C3)cc1
REMARK SMILES IDX 20 1 19 2 18 3 16 4 17 5 15 7 10 8 11 9 12 10 14 11 13 12
REMARK SMILES IDX 9 13 1 14 2 15 3 16 4 17 8 18 5 19 6 20 7 21 21 22 22 23
REMARK SMILES IDX 23 24 24 26 25 27 26 28 90 29 27 30 89 31 28 32 29 33 30 34
REMARK SMILES IDX 83 35 31 36 88 37 82 38 84 39 32 40 87 41 81 42 80 43 33 45
REMARK SMILES IDX 67 46 46 47 66 48 47 49 50 50 65 51 85 52 48 53 49 54 64 56
REMARK SMILES IDX 86 57 51 58 34 59 35 60 44 61 36 62 37 63 43 64 45 65 38 66
REMARK SMILES IDX 39 67 40 68 41 69 42 70 68 71 69 72 78 73 70 74 71 75 77 76
REMARK SMILES IDX 79 77 72 78 73 79 74 80 75 81 76 82 52 83 53 84 62 85 54 86
REMARK SMILES IDX 55 87 61 88 63 89 56 90 57 91 58 92 59 93 60 94
REMARK H PARENT 18 6 22 25 84 44 50 55
REMARK Flexibility Score: inf
ROOT
ATOM      1  C   UNL A   1      33.542  29.334  26.256  1.00  0.00     0.042 C 
ENDROOT
BRANCH   1   2
ATOM      2  C   UNL A   1      32.082  29.082  25.952  1.00  0.00     0.118 C 
BRANCH   2   3
ATOM      3  N   UNL A   1      31.404  27.896  26.384  1.00  0.00    -0.352 N 
ATOM      4  C   UNL A   1      31.549  26.645  25.810  1.00  0.00     0.252 C 
ATOM      5  O   UNL A   1      31.143  25.663  26.431  1.00  0.00    -0.269 OA
ATOM      6  H   UNL A   1      30.789  27.977  27.149  1.00  0.00     0.163 HD
BRANCH   4   7
ATOM      7  C   UNL A   1      32.040  26.432  24.404  1.00  0.00     0.050 A 
ATOM      8  C   UNL A   1      31.549  26.954  23.191  1.00  0.00     0.016 A 
ATOM      9  C   UNL A   1      32.193  26.542  22.020  1.00  0.00     0.120 A 
ATOM     10  N   UNL A   1      33.255  25.705  21.960  1.00  0.00    -0.264 NA
ATOM     11  C   UNL A   1      33.162  25.581  24.355  1.00  0.00     0.034 A 
ATOM     12  C   UNL A   1      33.721  25.248  23.135  1.00  0.00     0.112 A 
BRANCH   8  13
ATOM     13  C   UNL A   1      30.410  27.835  23.005  1.00  0.00     0.025 A 
ATOM     14  C   UNL A   1      28.393  26.422  23.946  1.00  0.00     0.069 C 
ATOM     15  C   UNL A   1      29.028  27.612  23.311  1.00  0.00     0.067 A 
ATOM     16  N   UNL A   1      28.300  28.712  23.090  1.00  0.00    -0.177 NA
ATOM     17  N   UNL A   1      29.174  29.611  22.594  1.00  0.00    -0.269 N 
ATOM     18  C   UNL A   1      30.457  29.125  22.521  1.00  0.00     0.118 A 
BRANCH  17  19
ATOM     19  C   UNL A   1      28.738  30.975  22.298  1.00  0.00     0.101 C 
ATOM     20  C   UNL A   1      28.125  31.114  20.902  1.00  0.00     0.033 C 
ATOM     21  C   UNL A   1      27.726  31.457  23.326  1.00  0.00     0.033 C 
ENDBRANCH  17  19
ENDBRANCH   8  13
ENDBRANCH   4   7
ENDBRANCH   2   3
ENDBRANCH   1   2
BRANCH   1  22
ATOM     22  C   UNL A   1      33.783  30.166  27.494  1.00  0.00     0.118 C 
BRANCH  22  23
ATOM     23  N   UNL A   1      34.368  31.493  27.240  1.00  0.00    -0.352 N 
ATOM     24  C   UNL A   1      35.567  32.034  27.729  1.00  0.00     0.251 C 
ATOM     25  H   UNL A   1      33.847  32.081  26.646  1.00  0.00     0.163 HD
ATOM     26  O   UNL A   1      35.884  33.184  27.608  1.00  0.00    -0.269 OA
BRANCH  24  27
ATOM     27  C   UNL A   1      36.458  31.094  28.423  1.00  0.00     0.039 A 
ATOM     28  C   UNL A   1      36.627  29.781  27.974  1.00  0.00     0.014 A 
ATOM     29  C   UNL A   1      37.304  31.677  29.343  1.00  0.00     0.014 A 
ATOM     30  C   UNL A   1      37.779  29.109  28.358  1.00  0.00     0.010 A 
ATOM     31  C   UNL A   1      38.547  31.142  29.441  1.00  0.00     0.010 A 
ATOM     32  C   UNL A   1      38.763  29.826  29.048  1.00  0.00    -0.014 A 
BRANCH  32  33
ATOM     33  C   UNL A   1      40.094  29.300  29.289  1.00  0.00     0.031 A 
ATOM     34  C   UNL A   1      40.422  29.053  30.716  1.00  0.00     0.074 A 
ATOM     35  C   UNL A   1      40.836  28.798  28.278  1.00  0.00     0.049 A 
ATOM     36  N   UNL A   1      41.183  29.764  31.479  1.00  0.00    -0.248 NA
ATOM     37  C   UNL A   1      39.680  28.006  31.437  1.00  0.00     0.031 C 
ATOM     38  C   UNL A   1      40.480  28.654  26.856  1.00  0.00     0.029 A 
ATOM     39  N   UNL A   1      42.034  28.174  28.340  1.00  0.00    -0.354 N 
ATOM     40  C   UNL A   1      41.241  29.080  32.690  1.00  0.00     0.074 A 
ATOM     41  C   UNL A   1      40.107  28.194  32.689  1.00  0.00     0.031 C 
ATOM     42  C   UNL A   1      41.306  27.766  26.268  1.00  0.00     0.029 A 
ATOM     43  C   UNL A   1      42.371  27.459  27.199  1.00  0.00     0.049 A 
ATOM     44  H   UNL A   1      42.619  28.223  29.130  1.00  0.00     0.167 HD
ATOM     45  C   UNL A   1      42.378  29.077  33.442  1.00  0.00     0.037 A 
ATOM     46  C   UNL A   1      43.453  26.664  27.041  1.00  0.00     0.037 A 
ATOM     47  C   UNL A   1      43.313  30.069  32.955  1.00  0.00     0.049 A 
ATOM     48  C   UNL A   1      44.441  27.096  28.069  1.00  0.00     0.074 A 
ATOM     49  C   UNL A   1      43.256  31.434  32.741  1.00  0.00     0.029 A 
ATOM     50  N   UNL A   1      44.375  29.620  32.203  1.00  0.00    -0.354 N 
ATOM     51  N   UNL A   1      44.998  28.279  28.083  1.00  0.00    -0.248 NA
ATOM     52  C   UNL A   1      44.449  26.397  29.345  1.00  0.00     0.031 C 
ATOM     53  C   UNL A   1      43.956  31.645  31.514  1.00  0.00     0.029 A 
ATOM     54  C   UNL A   1      44.479  30.420  31.092  1.00  0.00     0.049 A 
ATOM     55  H   UNL A   1      44.958  28.856  32.423  1.00  0.00     0.167 HD
ATOM     56  C   UNL A   1      45.028  28.649  29.421  1.00  0.00     0.074 A 
ATOM     57  C   UNL A   1      44.783  27.407  30.155  1.00  0.00     0.031 C 
ATOM     58  C   UNL A   1      44.948  29.962  29.797  1.00  0.00     0.037 A 
BRANCH  45  59
ATOM     59  C   UNL A   1      42.820  27.945  34.349  1.00  0.00     0.058 A 
ATOM     60  C   UNL A   1      42.943  28.186  35.734  1.00  0.00     0.135 A 
ATOM     61  C   UNL A   1      43.376  26.726  33.900  1.00  0.00     0.135 A 
ATOM     62  F   UNL A   1      42.453  29.313  36.277  1.00  0.00    -0.206 F 
ATOM     63  C   UNL A   1      43.634  27.326  36.589  1.00  0.00     0.059 A 
ATOM     64  C   UNL A   1      44.016  25.825  34.744  1.00  0.00     0.059 A 
ATOM     65  F   UNL A   1      43.419  26.385  32.608  1.00  0.00    -0.206 F 
ATOM     66  C   UNL A   1      44.182  26.155  36.077  1.00  0.00     0.060 A 
BRANCH  66  67
ATOM     67  S   UNL A   1      45.170  25.095  37.146  1.00  0.00     0.124 S 
ATOM     68  O   UNL A   1      44.566  25.357  38.447  1.00  0.00    -0.237 OA
ATOM     69  O   UNL A   1      44.920  23.774  36.578  1.00  0.00    -0.237 OA
ATOM     70  O   UNL A   1      46.525  25.604  36.962  1.00  0.00    -0.744 OA
ENDBRANCH  66  67
ENDBRANCH  45  59
BRANCH  46  71
ATOM     71  C   UNL A   1      43.521  25.373  26.311  1.00  0.00     0.058 A 
ATOM     72  C   UNL A   1      44.485  25.173  25.309  1.00  0.00     0.135 A 
ATOM     73  C   UNL A   1      42.842  24.220  26.761  1.00  0.00     0.135 A 
ATOM     74  F   UNL A   1      45.177  26.215  24.824  1.00  0.00    -0.206 F 
ATOM     75  C   UNL A   1      44.818  23.899  24.840  1.00  0.00     0.059 A 
ATOM     76  C   UNL A   1      43.146  22.941  26.296  1.00  0.00     0.059 A 
ATOM     77  F   UNL A   1      41.927  24.285  27.739  1.00  0.00    -0.206 F 
ATOM     78  C   UNL A   1      44.162  22.786  25.364  1.00  0.00     0.060 A 
BRANCH  78  79
ATOM     79  S   UNL A   1      44.746  21.129  24.933  1.00  0.00     0.124 S 
ATOM     80  O   UNL A   1      46.112  21.149  25.444  1.00  0.00    -0.237 OA
ATOM     81  O   UNL A   1      43.806  20.276  25.653  1.00  0.00    -0.237 OA
ATOM     82  O   UNL A   1      44.621  21.095  23.478  1.00  0.00    -0.744 OA
ENDBRANCH  78  79
ENDBRANCH  46  71
BRANCH  58  83
ATOM     83  C   UNL A   1      45.153  31.021  28.735  1.00  0.00     0.058 A 
ATOM     84  C   UNL A   1      44.144  31.522  27.892  1.00  0.00     0.135 A 
ATOM     85  C   UNL A   1      46.405  31.649  28.657  1.00  0.00     0.135 A 
ATOM     86  F   UNL A   1      42.888  31.068  27.971  1.00  0.00    -0.206 F 
ATOM     87  C   UNL A   1      44.380  32.552  26.979  1.00  0.00     0.059 A 
ATOM     88  C   UNL A   1      46.656  32.702  27.777  1.00  0.00     0.059 A 
ATOM     89  F   UNL A   1      47.397  31.272  29.479  1.00  0.00    -0.206 F 
ATOM     90  C   UNL A   1      45.643  33.134  26.924  1.00  0.00     0.060 A 
BRANCH  90  91
ATOM     91  S   UNL A   1      45.937  34.494  25.773  1.00  0.00     0.124 S 
ATOM     92  O   UNL A   1      44.986  34.201  24.706  1.00  0.00    -0.237 OA
ATOM     93  O   UNL A   1      45.638  35.670  26.584  1.00  0.00    -0.237 OA
ATOM     94  O   UNL A   1      47.345  34.338  25.414  1.00  0.00    -0.744 OA
ENDBRANCH  90  91
ENDBRANCH  58  83
ENDBRANCH  32  33
ENDBRANCH  24  27
ENDBRANCH  22  23
ENDBRANCH   1  22
TORSDOF 15
ENDMDL
MODEL 2
REMARK VINA RESULT:     -12.8      3.776      9.790
REMARK SMILES Cc1nn(C(C)C)cc1-c1cnccc1C(=O)NCCCNC(=O)c1ccc(-c2c3nc(c(-c4c(F)cc(S(=O)(=O)[O-])cc4F)c4ccc([nH]4)c(-c4c(F)cc(S(=O)(=O)[O-])cc4F)c4nc(c(-c5c(F)cc(S(=O)(=O)[O-])cc5F)c5ccc2[nH]5)C=C4)C=C3)cc1
REMARK SMILES IDX 20 1 19 2 18 3 16 4 17 5 15 7 10 8 11 9 12 10 14 11 13 12
REMARK SMILES IDX 9 13 1 14 2 15 3 16 4 17 8 18 5 19 6 20 7 21 21 22 22 23
REMARK SMILES IDX 23 24 24 26 25 27 26 28 90 29 27 30 89 31 28 32 29 33 30 34
REMARK SMILES IDX 83 35 31 36 88 37 82 38 84 39 32 40 87 41 81 42 80 43 33 45
REMARK SMILES IDX 67 46 46 47 66 48 47 49 50 50 65 51 85 52 48 53 49 54 64 56
REMARK SMILES IDX 86 57 51 58 34 59 35 60 44 61 36 62 37 63 43 64 45 65 38 66
REMARK SMILES IDX 39 67 40 68 41 69 42 70 68 71 69 72 78 73 70 74 71 75 77 76
REMARK SMILES IDX 79 77 72 78 73 79 74 80 75 81 76 82 52 83 53 84 62 85 54 86
REMARK SMILES IDX 55 87 61 88 63 89 56 90 57 91 58 92 59 93 60 94
REMARK H PARENT 18 6 22 25 84 44 50 55
REMARK Flexibility Score: inf
ROOT
ATOM      1  C   UNL A   1      38.326  23.816  26.275  1.00  0.00     0.042 C 
ENDROOT
BRANCH   1   2
ATOM      2  C   UNL A   1      37.631  22.573  25.763  1.00  0.00     0.118 C 
BRANCH   2   3
ATOM      3  N   UNL A   1      37.288  22.404  24.382  1.00  0.00    -0.352 N 
ATOM      4  C   UNL A   1      36.165  22.936  23.773  1.00  0.00     0.252 C 
ATOM      5  O   UNL A   1      36.121  22.962  22.543  1.00  0.00    -0.269 OA
ATOM      6  H   UNL A   1      37.898  21.867  23.825  1.00  0.00     0.163 HD
BRANCH   4   7
ATOM      7  C   UNL A   1      34.932  23.349  24.527  1.00  0.00     0.050 A 
ATOM      8  C   UNL A   1      33.782  22.602  24.849  1.00  0.00     0.016 A 
ATOM      9  C   UNL A   1      32.764  23.274  25.534  1.00  0.00     0.120 A 
ATOM     10  N   UNL A   1      32.803  24.567  25.929  1.00  0.00    -0.264 NA
ATOM     11  C   UNL A   1      34.993  24.690  24.957  1.00  0.00     0.034 A 
ATOM     12  C   UNL A   1      33.925  25.246  25.636  1.00  0.00     0.112 A 
BRANCH   8  13
ATOM     13  C   UNL A   1      33.501  21.219  24.504  1.00  0.00     0.025 A 
ATOM     14  C   UNL A   1      31.905  21.430  22.417  1.00  0.00     0.069 C 
ATOM     15  C   UNL A   1      32.673  20.693  23.461  1.00  0.00     0.067 A 
ATOM     16  N   UNL A   1      32.757  19.359  23.402  1.00  0.00    -0.177 NA
ATOM     17  N   UNL A   1      33.573  19.020  24.421  1.00  0.00    -0.269 N 
ATOM     18  C   UNL A   1      34.042  20.108  25.116  1.00  0.00     0.118 A 
BRANCH  17  19
ATOM     19  C   UNL A   1      33.956  17.624  24.623  1.00  0.00     0.101 C 
ATOM     20  C   UNL A   1      32.975  16.860  25.516  1.00  0.00     0.033 C 
ATOM     21  C   UNL A   1      34.074  16.894  23.293  1.00  0.00     0.033 C 
ENDBRANCH  17  19
ENDBRANCH   8  13
ENDBRANCH   4   7
ENDBRANCH   2   3
ENDBRANCH   1   2
BRANCH   1  22
ATOM     22  C   UNL A   1      39.469  23.540  27.225  1.00  0.00     0.118 C 
BRANCH  22  23
ATOM     23  N   UNL A   1      40.556  22.724  26.659  1.00  0.00    -0.352 N 
ATOM     24  C   UNL A   1      41.801  23.142  26.164  1.00  0.00     0.251 C 
ATOM     25  H   UNL A   1      40.387  21.755  26.623  1.00  0.00     0.163 HD
ATOM     26  O   UNL A   1      42.559  22.431  25.565  1.00  0.00    -0.269 OA
BRANCH  24  27
ATOM     27  C   UNL A   1      42.156  24.545  26.420  1.00  0.00     0.039 A 
ATOM     28  C   UNL A   1      41.552  25.590  25.717  1.00  0.00     0.014 A 
ATOM     29  C   UNL A   1      42.889  24.750  27.571  1.00  0.00     0.014 A 
ATOM     30  C   UNL A   1      41.570  26.853  26.294  1.00  0.00     0.010 A 
ATOM     31  C   UNL A   1      42.622  25.888  28.259  1.00  0.00     0.010 A 
ATOM     32  C   UNL A   1      42.060  26.976  27.600  1.00  0.00    -0.014 A 
BRANCH  32  33
ATOM     33  C   UNL A   1      41.909  28.188  28.384  1.00  0.00     0.031 A 
ATOM     34  C   UNL A   1      42.961  29.212  28.163  1.00  0.00     0.074 A 
ATOM     35  C   UNL A   1      40.749  28.465  29.018  1.00  0.00     0.049 A 
ATOM     36  N   UNL A   1      43.945  29.507  28.946  1.00  0.00    -0.248 NA
ATOM     37  C   UNL A   1      43.045  29.860  26.844  1.00  0.00     0.031 C 
ATOM     38  C   UNL A   1      39.493  27.695  29.022  1.00  0.00     0.029 A 
ATOM     39  N   UNL A   1      40.403  29.586  29.690  1.00  0.00    -0.354 N 
ATOM     40  C   UNL A   1      44.593  30.580  28.341  1.00  0.00     0.074 A 
ATOM     41  C   UNL A   1      44.178  30.559  26.964  1.00  0.00     0.031 C 
ATOM     42  C   UNL A   1      38.478  28.484  29.426  1.00  0.00     0.029 A 
ATOM     43  C   UNL A   1      39.040  29.724  29.917  1.00  0.00     0.049 A 
ATOM     44  H   UNL A   1      41.063  30.250  29.994  1.00  0.00     0.167 HD
ATOM     45  C   UNL A   1      45.164  31.567  29.089  1.00  0.00     0.037 A 
ATOM     46  C   UNL A   1      38.422  30.794  30.466  1.00  0.00     0.037 A 
ATOM     47  C   UNL A   1      45.238  31.175  30.480  1.00  0.00     0.049 A 
ATOM     48  C   UNL A   1      39.467  31.530  31.231  1.00  0.00     0.074 A 
ATOM     49  C   UNL A   1      45.793  30.106  31.160  1.00  0.00     0.029 A 
ATOM     50  N   UNL A   1      44.306  31.716  31.338  1.00  0.00    -0.354 N 
ATOM     51  N   UNL A   1      40.085  31.034  32.272  1.00  0.00    -0.248 NA
ATOM     52  C   UNL A   1      40.165  32.616  30.562  1.00  0.00     0.031 C 
ATOM     53  C   UNL A   1      44.836  29.770  32.165  1.00  0.00     0.029 A 
ATOM     54  C   UNL A   1      43.795  30.700  32.107  1.00  0.00     0.049 A 
ATOM     55  H   UNL A   1      44.050  32.666  31.390  1.00  0.00     0.167 HD
ATOM     56  C   UNL A   1      41.408  31.429  32.129  1.00  0.00     0.074 A 
ATOM     57  C   UNL A   1      41.372  32.492  31.124  1.00  0.00     0.031 C 
ATOM     58  C   UNL A   1      42.434  30.662  32.610  1.00  0.00     0.037 A 
BRANCH  45  59
ATOM     59  C   UNL A   1      45.297  33.016  28.663  1.00  0.00     0.058 A 
ATOM     60  C   UNL A   1      46.567  33.629  28.706  1.00  0.00     0.135 A 
ATOM     61  C   UNL A   1      44.210  33.899  28.470  1.00  0.00     0.135 A 
ATOM     62  F   UNL A   1      47.675  32.891  28.887  1.00  0.00    -0.206 F 
ATOM     63  C   UNL A   1      46.737  35.013  28.645  1.00  0.00     0.059 A 
ATOM     64  C   UNL A   1      44.362  35.276  28.346  1.00  0.00     0.059 A 
ATOM     65  F   UNL A   1      42.937  33.493  28.490  1.00  0.00    -0.206 F 
ATOM     66  C   UNL A   1      45.622  35.829  28.482  1.00  0.00     0.060 A 
BRANCH  66  67
ATOM     67  S   UNL A   1      45.818  37.618  28.514  1.00  0.00     0.124 S 
ATOM     68  O   UNL A   1      47.102  37.778  27.841  1.00  0.00    -0.237 OA
ATOM     69  O   UNL A   1      44.645  38.065  27.771  1.00  0.00    -0.237 OA
ATOM     70  O   UNL A   1      45.808  37.931  29.939  1.00  0.00    -0.744 OA
ENDBRANCH  66  67
ENDBRANCH  45  59
BRANCH  46  71
ATOM     71  C   UNL A   1      37.111  31.371  30.079  1.00  0.00     0.058 A 
ATOM     72  C   UNL A   1      36.282  31.966  31.045  1.00  0.00     0.135 A 
ATOM     73  C   UNL A   1      36.764  31.608  28.730  1.00  0.00     0.135 A 
ATOM     74  F   UNL A   1      36.540  31.793  32.349  1.00  0.00    -0.206 F 
ATOM     75  C   UNL A   1      35.225  32.813  30.699  1.00  0.00     0.059 A 
ATOM     76  C   UNL A   1      35.704  32.435  28.362  1.00  0.00     0.059 A 
ATOM     77  F   UNL A   1      37.503  31.120  27.723  1.00  0.00    -0.206 F 
ATOM     78  C   UNL A   1      34.964  33.065  29.353  1.00  0.00     0.060 A 
BRANCH  78  79
ATOM     79  S   UNL A   1      33.753  34.332  28.907  1.00  0.00     0.124 S 
ATOM     80  O   UNL A   1      34.603  35.377  28.346  1.00  0.00    -0.237 OA
ATOM     81  O   UNL A   1      32.902  33.623  27.957  1.00  0.00    -0.237 OA
ATOM     82  O   UNL A   1      33.119  34.657  30.182  1.00  0.00    -0.744 OA
ENDBRANCH  78  79
ENDBRANCH  46  71
BRANCH  58  83
ATOM     83  C   UNL A   1      42.097  29.548  33.578  1.00  0.00     0.058 A 
ATOM     84  C   UNL A   1      41.801  28.223  33.209  1.00  0.00     0.135 A 
ATOM     85  C   UNL A   1      42.208  29.807  34.952  1.00  0.00     0.135 A 
ATOM     86  F   UNL A   1      41.786  27.850  31.925  1.00  0.00    -0.206 F 
ATOM     87  C   UNL A   1      41.568  27.221  34.154  1.00  0.00     0.059 A 
ATOM     88  C   UNL A   1      42.013  28.816  35.915  1.00  0.00     0.059 A 
ATOM     89  F   UNL A   1      42.556  31.031  35.379  1.00  0.00    -0.206 F 
ATOM     90  C   UNL A   1      41.671  27.528  35.508  1.00  0.00     0.060 A 
BRANCH  90  91
ATOM     91  S   UNL A   1      41.411  26.224  36.729  1.00  0.00     0.124 S 
ATOM     92  O   UNL A   1      40.444  26.839  37.631  1.00  0.00    -0.237 OA
ATOM     93  O   UNL A   1      40.907  25.121  35.916  1.00  0.00    -0.237 OA
ATOM     94  O   UNL A   1      42.743  26.013  37.292  1.00  0.00    -0.744 OA
ENDBRANCH  90  91
ENDBRANCH  58  83
ENDBRANCH  32  33
ENDBRANCH  24  27
ENDBRANCH  22  23
ENDBRANCH   1  22
TORSDOF 15
ENDMDL
MODEL 3
REMARK VINA RESULT:     -12.8      1.139      2.639
REMARK SMILES Cc1nn(C(C)C)cc1-c1cnccc1C(=O)NCCCNC(=O)c1ccc(-c2c3nc(c(-c4c(F)cc(S(=O)(=O)[O-])cc4F)c4ccc([nH]4)c(-c4c(F)cc(S(=O)(=O)[O-])cc4F)c4nc(c(-c5c(F)cc(S(=O)(=O)[O-])cc5F)c5ccc2[nH]5)C=C4)C=C3)cc1
REMARK SMILES IDX 20 1 19 2 18 3 16 4 17 5 15 7 10 8 11 9 12 10 14 11 13 12
REMARK SMILES IDX 9 13 1 14 2 15 3 16 4 17 8 18 5 19 6 20 7 21 21 22 22 23
REMARK SMILES IDX 23 24 24 26 25 27 26 28 90 29 27 30 89 31 28 32 29 33 30 34
REMARK SMILES IDX 83 35 31 36 88 37 82 38 84 39 32 40 87 41 81 42 80 43 33 45
REMARK SMILES IDX 67 46 46 47 66 48 47 49 50 50 65 51 85 52 48 53 49 54 64 56
REMARK SMILES IDX 86 57 51 58 34 59 35 60 44 61 36 62 37 63 43 64 45 65 38 66
REMARK SMILES IDX 39 67 40 68 41 69 42 70 68 71 69 72 78 73 70 74 71 75 77 76
REMARK SMILES IDX 79 77 72 78 73 79 74 80 75 81 76 82 52 83 53 84 62 85 54 86
REMARK SMILES IDX 55 87 61 88 63 89 56 90 57 91 58 92 59 93 60 94
REMARK H PARENT 18 6 22 25 84 44 50 55
REMARK Flexibility Score: inf
ROOT
ATOM      1  C   UNL A   1      32.323  29.973  27.224  1.00  0.00     0.042 C 
ENDROOT
BRANCH   1   2
ATOM      2  C   UNL A   1      31.750  30.051  25.825  1.00  0.00     0.118 C 
BRANCH   2   3
ATOM      3  N   UNL A   1      32.432  29.506  24.689  1.00  0.00    -0.352 N 
ATOM      4  C   UNL A   1      31.822  29.126  23.506  1.00  0.00     0.252 C 
ATOM      5  O   UNL A   1      32.529  28.940  22.515  1.00  0.00    -0.269 OA
ATOM      6  H   UNL A   1      33.408  29.393  24.755  1.00  0.00     0.163 HD
BRANCH   4   7
ATOM      7  C   UNL A   1      30.362  28.784  23.400  1.00  0.00     0.050 A 
ATOM      8  C   UNL A   1      29.702  27.568  23.661  1.00  0.00     0.016 A 
ATOM      9  C   UNL A   1      28.322  27.536  23.432  1.00  0.00     0.120 A 
ATOM     10  N   UNL A   1      27.573  28.578  23.002  1.00  0.00    -0.264 NA
ATOM     11  C   UNL A   1      29.586  29.883  22.977  1.00  0.00     0.034 A 
ATOM     12  C   UNL A   1      28.224  29.734  22.791  1.00  0.00     0.112 A 
BRANCH   8  13
ATOM     13  C   UNL A   1      30.296  26.315  24.094  1.00  0.00     0.025 A 
ATOM     14  C   UNL A   1      31.793  25.616  22.040  1.00  0.00     0.069 C 
ATOM     15  C   UNL A   1      31.193  25.445  23.394  1.00  0.00     0.067 A 
ATOM     16  N   UNL A   1      31.599  24.438  24.175  1.00  0.00    -0.177 NA
ATOM     17  N   UNL A   1      30.936  24.614  25.336  1.00  0.00    -0.269 N 
ATOM     18  C   UNL A   1      30.135  25.730  25.331  1.00  0.00     0.118 A 
BRANCH  17  19
ATOM     19  C   UNL A   1      31.190  23.725  26.469  1.00  0.00     0.101 C 
ATOM     20  C   UNL A   1      29.920  23.046  26.990  1.00  0.00     0.033 C 
ATOM     21  C   UNL A   1      32.202  22.651  26.102  1.00  0.00     0.033 C 
ENDBRANCH  17  19
ENDBRANCH   8  13
ENDBRANCH   4   7
ENDBRANCH   2   3
ENDBRANCH   1   2
BRANCH   1  22
ATOM     22  C   UNL A   1      33.830  30.070  27.283  1.00  0.00     0.118 C 
BRANCH  22  23
ATOM     23  N   UNL A   1      34.365  31.433  27.121  1.00  0.00    -0.352 N 
ATOM     24  C   UNL A   1      35.504  32.005  27.708  1.00  0.00     0.251 C 
ATOM     25  H   UNL A   1      33.855  32.022  26.520  1.00  0.00     0.163 HD
ATOM     26  O   UNL A   1      35.773  33.172  27.655  1.00  0.00    -0.269 OA
BRANCH  24  27
ATOM     27  C   UNL A   1      36.394  31.076  28.419  1.00  0.00     0.039 A 
ATOM     28  C   UNL A   1      36.557  29.754  27.996  1.00  0.00     0.014 A 
ATOM     29  C   UNL A   1      37.245  31.676  29.324  1.00  0.00     0.014 A 
ATOM     30  C   UNL A   1      37.708  29.086  28.392  1.00  0.00     0.010 A 
ATOM     31  C   UNL A   1      38.487  31.138  29.429  1.00  0.00     0.010 A 
ATOM     32  C   UNL A   1      38.697  29.814  29.063  1.00  0.00    -0.014 A 
BRANCH  32  33
ATOM     33  C   UNL A   1      40.027  29.288  29.311  1.00  0.00     0.031 A 
ATOM     34  C   UNL A   1      40.351  29.051  30.741  1.00  0.00     0.074 A 
ATOM     35  C   UNL A   1      40.771  28.780  28.305  1.00  0.00     0.049 A 
ATOM     36  N   UNL A   1      41.111  29.766  31.501  1.00  0.00    -0.248 NA
ATOM     37  C   UNL A   1      39.606  28.009  31.466  1.00  0.00     0.031 C 
ATOM     38  C   UNL A   1      40.419  28.626  26.883  1.00  0.00     0.029 A 
ATOM     39  N   UNL A   1      41.968  28.155  28.375  1.00  0.00    -0.354 N 
ATOM     40  C   UNL A   1      41.164  29.089  32.716  1.00  0.00     0.074 A 
ATOM     41  C   UNL A   1      40.030  28.205  32.719  1.00  0.00     0.031 C 
ATOM     42  C   UNL A   1      41.246  27.734  26.304  1.00  0.00     0.029 A 
ATOM     43  C   UNL A   1      42.308  27.432  27.240  1.00  0.00     0.049 A 
ATOM     44  H   UNL A   1      42.551  28.208  29.166  1.00  0.00     0.167 HD
ATOM     45  C   UNL A   1      42.300  29.091  33.471  1.00  0.00     0.037 A 
ATOM     46  C   UNL A   1      43.390  26.635  27.089  1.00  0.00     0.037 A 
ATOM     47  C   UNL A   1      43.237  30.079  32.981  1.00  0.00     0.049 A 
ATOM     48  C   UNL A   1      44.375  27.073  28.116  1.00  0.00     0.074 A 
ATOM     49  C   UNL A   1      43.182  31.442  32.757  1.00  0.00     0.029 A 
ATOM     50  N   UNL A   1      44.301  29.624  32.234  1.00  0.00    -0.354 N 
ATOM     51  N   UNL A   1      44.934  28.256  28.125  1.00  0.00    -0.248 NA
ATOM     52  C   UNL A   1      44.380  26.383  29.397  1.00  0.00     0.031 C 
ATOM     53  C   UNL A   1      43.885  31.645  31.531  1.00  0.00     0.029 A 
ATOM     54  C   UNL A   1      44.408  30.417  31.118  1.00  0.00     0.049 A 
ATOM     55  H   UNL A   1      44.883  28.861  32.460  1.00  0.00     0.167 HD
ATOM     56  C   UNL A   1      44.959  28.634  29.461  1.00  0.00     0.074 A 
ATOM     57  C   UNL A   1      44.712  27.397  30.202  1.00  0.00     0.031 C 
ATOM     58  C   UNL A   1      44.880  29.950  29.828  1.00  0.00     0.037 A 
BRANCH  45  59
ATOM     59  C   UNL A   1      42.739  27.965  34.387  1.00  0.00     0.058 A 
ATOM     60  C   UNL A   1      42.866  28.217  35.769  1.00  0.00     0.135 A 
ATOM     61  C   UNL A   1      43.288  26.739  33.947  1.00  0.00     0.135 A 
ATOM     62  F   UNL A   1      42.383  29.351  36.304  1.00  0.00    -0.206 F 
ATOM     63  C   UNL A   1      43.555  27.360  36.630  1.00  0.00     0.059 A 
ATOM     64  C   UNL A   1      43.925  25.842  34.797  1.00  0.00     0.059 A 
ATOM     65  F   UNL A   1      43.326  26.386  32.658  1.00  0.00    -0.206 F 
ATOM     66  C   UNL A   1      44.097  26.182  36.127  1.00  0.00     0.060 A 
BRANCH  66  67
ATOM     67  S   UNL A   1      45.081  25.126  37.202  1.00  0.00     0.124 S 
ATOM     68  O   UNL A   1      44.492  25.414  38.505  1.00  0.00    -0.237 OA
ATOM     69  O   UNL A   1      44.813  23.800  36.655  1.00  0.00    -0.237 OA
ATOM     70  O   UNL A   1      46.441  25.618  37.001  1.00  0.00    -0.744 OA
ENDBRANCH  66  67
ENDBRANCH  45  59
BRANCH  46  71
ATOM     71  C   UNL A   1      43.458  25.339  26.367  1.00  0.00     0.058 A 
ATOM     72  C   UNL A   1      44.382  25.154  25.325  1.00  0.00     0.135 A 
ATOM     73  C   UNL A   1      42.831  24.173  26.857  1.00  0.00     0.135 A 
ATOM     74  F   UNL A   1      45.024  26.209  24.801  1.00  0.00    -0.206 F 
ATOM     75  C   UNL A   1      44.726  23.885  24.853  1.00  0.00     0.059 A 
ATOM     76  C   UNL A   1      43.146  22.899  26.390  1.00  0.00     0.059 A 
ATOM     77  F   UNL A   1      41.958  24.225  27.876  1.00  0.00    -0.206 F 
ATOM     78  C   UNL A   1      44.123  22.760  25.415  1.00  0.00     0.060 A 
BRANCH  78  79
ATOM     79  S   UNL A   1      44.730  21.115  24.972  1.00  0.00     0.124 S 
ATOM     80  O   UNL A   1      46.069  21.122  25.551  1.00  0.00    -0.237 OA
ATOM     81  O   UNL A   1      43.757  20.244  25.623  1.00  0.00    -0.237 OA
ATOM     82  O   UNL A   1      44.679  21.117  23.512  1.00  0.00    -0.744 OA
ENDBRANCH  78  79
ENDBRANCH  46  71
BRANCH  58  83
ATOM     83  C   UNL A   1      45.088  31.001  28.759  1.00  0.00     0.058 A 
ATOM     84  C   UNL A   1      44.066  31.566  27.974  1.00  0.00     0.135 A 
ATOM     85  C   UNL A   1      46.369  31.557  28.615  1.00  0.00     0.135 A 
ATOM     86  F   UNL A   1      42.793  31.184  28.119  1.00  0.00    -0.206 F 
ATOM     87  C   UNL A   1      44.312  32.586  27.052  1.00  0.00     0.059 A 
ATOM     88  C   UNL A   1      46.633  32.599  27.726  1.00  0.00     0.059 A 
ATOM     89  F   UNL A   1      47.381  31.118  29.381  1.00  0.00    -0.206 F 
ATOM     90  C   UNL A   1      45.603  33.094  26.931  1.00  0.00     0.060 A 
BRANCH  90  91
ATOM     91  S   UNL A   1      45.913  34.441  25.769  1.00  0.00     0.124 S 
ATOM     92  O   UNL A   1      47.339  34.289  25.499  1.00  0.00    -0.237 OA
ATOM     93  O   UNL A   1      45.020  34.119  24.660  1.00  0.00    -0.237 OA
ATOM     94  O   UNL A   1      45.545  35.635  26.526  1.00  0.00    -0.744 OA
ENDBRANCH  90  91
ENDBRANCH  58  83
ENDBRANCH  32  33
ENDBRANCH  24  27
ENDBRANCH  22  23
ENDBRANCH   1  22
TORSDOF 15
ENDMDL
