MODEL 1
REMARK VINA RESULT:     -11.4      0.000      0.000
REMARK SMILES O=C(C[N@@H+]1C[C@@]2([N+](=O)[O-])CC=C(Cl)[C@@]([N+](=O)[O-])(C1)C2)NCCCNC(=O)c1ccc(-c2c3nc(c(-c4c(F)cc(S(=O)(=O)[O-])cc4F)c4ccc([nH]4)c(-c4c(F)cc(S(=O)(=O)[O-])cc4F)c4nc(c(-c5c(F)cc(S(=O)(=O)[O-])cc5F)c5ccc2[nH]5)C=C4)C=C3)cc1
REMARK SMILES IDX 22 1 21 2 20 3 1 4 2 5 3 7 4 8 5 9 18 10 6 12 14 13 10 14
REMARK SMILES IDX 19 15 12 16 11 17 13 18 7 19 8 20 9 21 15 22 16 23 17 24
REMARK SMILES IDX 23 25 24 26 25 27 26 29 27 30 28 31 92 32 29 33 91 34 30 35
REMARK SMILES IDX 31 36 32 37 85 38 33 39 90 40 84 41 86 42 34 43 89 44 83 45
REMARK SMILES IDX 82 46 35 48 69 49 48 50 68 51 49 52 52 53 67 54 87 55 50 56
REMARK SMILES IDX 51 57 66 59 88 60 53 61 36 62 37 63 46 64 38 65 39 66 45 67
REMARK SMILES IDX 47 68 40 69 41 70 42 71 43 72 44 73 70 74 71 75 80 76 72 77
REMARK SMILES IDX 73 78 79 79 81 80 74 81 75 82 76 83 77 84 78 85 54 86 55 87
REMARK SMILES IDX 64 88 56 89 57 90 63 91 65 92 58 93 59 94 60 95 61 96 62 97
REMARK H PARENT 20 6 4 11 24 28 86 47 52 58
REMARK Flexibility Score: inf
ROOT
ATOM      1  C   UNL A   1      32.225  28.177  26.354  1.00  0.00     0.042 C 
ENDROOT
BRANCH   1   2
ATOM      2  C   UNL A   1      32.490  28.111  24.857  1.00  0.00     0.118 C 
BRANCH   2   3
ATOM      3  N   UNL A   1      33.158  26.888  24.461  1.00  0.00    -0.351 N 
ATOM      4  O   UNL A   1      31.870  26.495  22.592  1.00  0.00    -0.269 OA
ATOM      5  C   UNL A   1      32.833  26.216  23.299  1.00  0.00     0.275 C 
ATOM      6  H   UNL A   1      33.868  26.524  25.039  1.00  0.00     0.163 HD
BRANCH   5   7
ATOM      7  C   UNL A   1      33.861  25.141  22.917  1.00  0.00     0.363 C 
BRANCH   7   8
ATOM      8  N   UNL A   1      33.877  24.059  23.927  1.00  0.00    -0.315 N 
ATOM      9  C   UNL A   1      35.256  23.717  24.327  1.00  0.00     0.350 C 
ATOM     10  C   UNL A   1      33.103  22.856  23.519  1.00  0.00     0.356 C 
ATOM     11  H   UNL A   1      33.397  24.427  24.747  1.00  0.00     0.348 HD
ATOM     12  C   UNL A   1      35.303  22.608  25.406  1.00  0.00     0.280 C 
ATOM     13  C   UNL A   1      33.110  21.759  24.614  1.00  0.00     0.311 C 
ATOM     14  C   UNL A   1      34.681  23.026  26.767  1.00  0.00     0.121 C 
ATOM     15  C   UNL A   1      34.576  21.356  24.886  1.00  0.00     0.191 C 
ATOM     16  C   UNL A   1      32.456  22.284  25.882  1.00  0.00     0.097 C 
ATOM     17  C   UNL A   1      33.181  22.862  26.855  1.00  0.00     0.004 C 
ATOM     18  Cl  UNL A   1      30.732  22.260  26.017  1.00  0.00    -0.081 Cl
BRANCH  12  19
ATOM     19  N   UNL A   1      36.779  22.304  25.616  1.00  0.00     0.032 N 
ATOM     20  O   UNL A   1      37.497  23.214  26.050  1.00  0.00    -0.264 OA
ATOM     21  O   UNL A   1      37.183  21.182  25.287  1.00  0.00    -0.264 OA
ENDBRANCH  12  19
BRANCH  13  22
ATOM     22  N   UNL A   1      32.376  20.519  24.116  1.00  0.00     0.038 N 
ATOM     23  O   UNL A   1      32.104  20.453  22.908  1.00  0.00    -0.263 OA
ATOM     24  O   UNL A   1      32.129  19.634  24.948  1.00  0.00    -0.263 OA
ENDBRANCH  13  22
ENDBRANCH   7   8
ENDBRANCH   5   7
ENDBRANCH   2   3
ENDBRANCH   1   2
BRANCH   1  25
ATOM     25  C   UNL A   1      33.424  28.580  27.209  1.00  0.00     0.118 C 
BRANCH  25  26
ATOM     26  N   UNL A   1      33.412  29.974  27.625  1.00  0.00    -0.352 N 
ATOM     27  C   UNL A   1      34.421  30.702  28.217  1.00  0.00     0.251 C 
ATOM     28  H   UNL A   1      32.573  30.462  27.461  1.00  0.00     0.163 HD
ATOM     29  O   UNL A   1      34.208  31.842  28.618  1.00  0.00    -0.269 OA
BRANCH  27  30
ATOM     30  C   UNL A   1      35.752  30.084  28.409  1.00  0.00     0.039 A 
ATOM     31  C   UNL A   1      36.644  30.058  27.335  1.00  0.00     0.014 A 
ATOM     32  C   UNL A   1      36.136  29.580  29.656  1.00  0.00     0.014 A 
ATOM     33  C   UNL A   1      37.954  29.616  27.536  1.00  0.00     0.010 A 
ATOM     34  C   UNL A   1      37.459  29.200  29.869  1.00  0.00     0.010 A 
ATOM     35  C   UNL A   1      38.387  29.234  28.817  1.00  0.00    -0.014 A 
BRANCH  35  36
ATOM     36  C   UNL A   1      39.812  28.912  29.087  1.00  0.00     0.031 A 
ATOM     37  C   UNL A   1      40.742  29.962  29.629  1.00  0.00     0.074 A 
ATOM     38  C   UNL A   1      40.289  27.692  28.764  1.00  0.00     0.049 A 
ATOM     39  N   UNL A   1      42.033  29.897  29.828  1.00  0.00    -0.248 NA
ATOM     40  C   UNL A   1      40.147  31.265  29.964  1.00  0.00     0.031 C 
ATOM     41  C   UNL A   1      39.501  26.600  28.188  1.00  0.00     0.029 A 
ATOM     42  N   UNL A   1      41.557  27.171  28.856  1.00  0.00    -0.354 N 
ATOM     43  C   UNL A   1      42.408  31.149  30.299  1.00  0.00     0.074 A 
ATOM     44  C   UNL A   1      41.214  31.968  30.313  1.00  0.00     0.031 C 
ATOM     45  C   UNL A   1      40.298  25.537  27.992  1.00  0.00     0.029 A 
ATOM     46  C   UNL A   1      41.659  25.882  28.390  1.00  0.00     0.049 A 
ATOM     47  H   UNL A   1      42.320  27.674  29.221  1.00  0.00     0.167 HD
ATOM     48  C   UNL A   1      43.631  31.573  30.699  1.00  0.00     0.037 A 
ATOM     49  C   UNL A   1      42.730  25.071  28.278  1.00  0.00     0.037 A 
ATOM     50  C   UNL A   1      44.812  30.748  30.707  1.00  0.00     0.049 A 
ATOM     51  C   UNL A   1      44.078  25.565  28.724  1.00  0.00     0.074 A 
ATOM     52  C   UNL A   1      46.081  31.068  31.158  1.00  0.00     0.029 A 
ATOM     53  N   UNL A   1      44.871  29.442  30.244  1.00  0.00    -0.354 N 
ATOM     54  N   UNL A   1      44.402  26.735  29.222  1.00  0.00    -0.248 NA
ATOM     55  C   UNL A   1      45.206  24.632  28.592  1.00  0.00     0.031 C 
ATOM     56  C   UNL A   1      46.917  29.969  30.930  1.00  0.00     0.029 A 
ATOM     57  C   UNL A   1      46.160  28.950  30.375  1.00  0.00     0.049 A 
ATOM     58  H   UNL A   1      44.109  28.938  29.875  1.00  0.00     0.167 HD
ATOM     59  C   UNL A   1      45.767  26.672  29.480  1.00  0.00     0.074 A 
ATOM     60  C   UNL A   1      46.205  25.346  29.095  1.00  0.00     0.031 C 
ATOM     61  C   UNL A   1      46.583  27.628  29.988  1.00  0.00     0.037 A 
BRANCH  48  62
ATOM     62  C   UNL A   1      43.755  32.996  31.166  1.00  0.00     0.058 A 
ATOM     63  C   UNL A   1      43.627  33.338  32.522  1.00  0.00     0.135 A 
ATOM     64  C   UNL A   1      44.036  34.026  30.254  1.00  0.00     0.135 A 
ATOM     65  F   UNL A   1      43.343  32.394  33.433  1.00  0.00    -0.206 F 
ATOM     66  C   UNL A   1      43.745  34.654  32.954  1.00  0.00     0.059 A 
ATOM     67  C   UNL A   1      44.183  35.346  30.667  1.00  0.00     0.059 A 
ATOM     68  F   UNL A   1      44.169  33.754  28.946  1.00  0.00    -0.206 F 
ATOM     69  C   UNL A   1      44.021  35.653  32.018  1.00  0.00     0.060 A 
BRANCH  69  70
ATOM     70  S   UNL A   1      44.168  37.357  32.593  1.00  0.00     0.124 S 
ATOM     71  O   UNL A   1      43.999  38.099  31.347  1.00  0.00    -0.237 OA
ATOM     72  O   UNL A   1      43.069  37.463  33.547  1.00  0.00    -0.237 OA
ATOM     73  O   UNL A   1      45.506  37.406  33.175  1.00  0.00    -0.744 OA
ENDBRANCH  69  70
ENDBRANCH  48  62
BRANCH  49  74
ATOM     74  C   UNL A   1      42.567  23.698  27.729  1.00  0.00     0.058 A 
ATOM     75  C   UNL A   1      42.564  23.474  26.344  1.00  0.00     0.135 A 
ATOM     76  C   UNL A   1      42.428  22.587  28.573  1.00  0.00     0.135 A 
ATOM     77  F   UNL A   1      42.687  24.508  25.498  1.00  0.00    -0.206 F 
ATOM     78  C   UNL A   1      42.415  22.197  25.815  1.00  0.00     0.059 A 
ATOM     79  C   UNL A   1      42.300  21.297  28.068  1.00  0.00     0.059 A 
ATOM     80  F   UNL A   1      42.441  22.748  29.905  1.00  0.00    -0.206 F 
ATOM     81  C   UNL A   1      42.286  21.113  26.685  1.00  0.00     0.060 A 
BRANCH  81  82
ATOM     82  S   UNL A   1      42.146  19.453  25.989  1.00  0.00     0.124 S 
ATOM     83  O   UNL A   1      42.662  18.634  27.079  1.00  0.00    -0.237 OA
ATOM     84  O   UNL A   1      40.713  19.347  25.731  1.00  0.00    -0.237 OA
ATOM     85  O   UNL A   1      42.986  19.521  24.796  1.00  0.00    -0.744 OA
ENDBRANCH  81  82
ENDBRANCH  49  74
BRANCH  61  86
ATOM     86  C   UNL A   1      48.030  27.272  30.176  1.00  0.00     0.058 A 
ATOM     87  C   UNL A   1      48.972  27.468  29.154  1.00  0.00     0.135 A 
ATOM     88  C   UNL A   1      48.490  26.781  31.409  1.00  0.00     0.135 A 
ATOM     89  F   UNL A   1      48.582  27.926  27.954  1.00  0.00    -0.206 F 
ATOM     90  C   UNL A   1      50.319  27.174  29.342  1.00  0.00     0.059 A 
ATOM     91  C   UNL A   1      49.836  26.502  31.626  1.00  0.00     0.059 A 
ATOM     92  F   UNL A   1      47.631  26.584  32.420  1.00  0.00    -0.206 F 
ATOM     93  C   UNL A   1      50.742  26.693  30.584  1.00  0.00     0.060 A 
BRANCH  93  94
ATOM     94  S   UNL A   1      52.498  26.355  30.830  1.00  0.00     0.124 S 
ATOM     95  O   UNL A   1      52.975  26.267  29.454  1.00  0.00    -0.237 OA
ATOM     96  O   UNL A   1      52.941  27.526  31.581  1.00  0.00    -0.237 OA
ATOM     97  O   UNL A   1      52.500  25.101  31.577  1.00  0.00    -0.744 OA
ENDBRANCH  93  94
ENDBRANCH  61  86
ENDBRANCH  35  36
ENDBRANCH  27  30
ENDBRANCH  25  26
ENDBRANCH   1  25
TORSDOF 16
ENDMDL
MODEL 2
REMARK VINA RESULT:     -11.4      1.079      2.380
REMARK SMILES O=C(C[N@@H+]1C[C@@]2([N+](=O)[O-])CC=C(Cl)[C@@]([N+](=O)[O-])(C1)C2)NCCCNC(=O)c1ccc(-c2c3nc(c(-c4c(F)cc(S(=O)(=O)[O-])cc4F)c4ccc([nH]4)c(-c4c(F)cc(S(=O)(=O)[O-])cc4F)c4nc(c(-c5c(F)cc(S(=O)(=O)[O-])cc5F)c5ccc2[nH]5)C=C4)C=C3)cc1
REMARK SMILES IDX 22 1 21 2 20 3 1 4 2 5 3 7 4 8 5 9 18 10 6 12 14 13 10 14
REMARK SMILES IDX 19 15 12 16 11 17 13 18 7 19 8 20 9 21 15 22 16 23 17 24
REMARK SMILES IDX 23 25 24 26 25 27 26 29 27 30 28 31 92 32 29 33 91 34 30 35
REMARK SMILES IDX 31 36 32 37 85 38 33 39 90 40 84 41 86 42 34 43 89 44 83 45
REMARK SMILES IDX 82 46 35 48 69 49 48 50 68 51 49 52 52 53 67 54 87 55 50 56
REMARK SMILES IDX 51 57 66 59 88 60 53 61 36 62 37 63 46 64 38 65 39 66 45 67
REMARK SMILES IDX 47 68 40 69 41 70 42 71 43 72 44 73 70 74 71 75 80 76 72 77
REMARK SMILES IDX 73 78 79 79 81 80 74 81 75 82 76 83 77 84 78 85 54 86 55 87
REMARK SMILES IDX 64 88 56 89 57 90 63 91 65 92 58 93 59 94 60 95 61 96 62 97
REMARK H PARENT 20 6 4 11 24 28 86 47 52 58
REMARK Flexibility Score: inf
ROOT
ATOM      1  C   UNL A   1      32.090  27.942  27.086  1.00  0.00     0.042 C 
ENDROOT
BRANCH   1   2
ATOM      2  C   UNL A   1      31.985  26.895  25.988  1.00  0.00     0.118 C 
BRANCH   2   3
ATOM      3  N   UNL A   1      32.127  25.543  26.488  1.00  0.00    -0.351 N 
ATOM      4  O   UNL A   1      29.884  25.022  26.433  1.00  0.00    -0.269 OA
ATOM      5  C   UNL A   1      31.052  24.683  26.597  1.00  0.00     0.275 C 
ATOM      6  H   UNL A   1      33.020  25.227  26.759  1.00  0.00     0.163 HD
BRANCH   5   7
ATOM      7  C   UNL A   1      31.469  23.226  26.843  1.00  0.00     0.363 C 
BRANCH   7   8
ATOM      8  N   UNL A   1      32.216  22.698  25.678  1.00  0.00    -0.315 N 
ATOM      9  C   UNL A   1      31.926  21.269  25.455  1.00  0.00     0.350 C 
ATOM     10  C   UNL A   1      33.678  22.965  25.742  1.00  0.00     0.356 C 
ATOM     11  H   UNL A   1      31.880  23.215  24.866  1.00  0.00     0.348 HD
ATOM     12  C   UNL A   1      32.671  20.697  24.224  1.00  0.00     0.280 C 
ATOM     13  C   UNL A   1      34.423  22.434  24.491  1.00  0.00     0.311 C 
ATOM     14  C   UNL A   1      32.222  21.318  22.872  1.00  0.00     0.121 C 
ATOM     15  C   UNL A   1      34.185  20.911  24.396  1.00  0.00     0.191 C 
ATOM     16  C   UNL A   1      33.910  23.134  23.243  1.00  0.00     0.097 C 
ATOM     17  C   UNL A   1      32.905  22.617  22.514  1.00  0.00     0.004 C 
ATOM     18  Cl  UNL A   1      34.540  24.690  22.826  1.00  0.00    -0.081 Cl
BRANCH  12  19
ATOM     19  N   UNL A   1      32.352  19.210  24.209  1.00  0.00     0.032 N 
ATOM     20  O   UNL A   1      32.133  18.657  25.295  1.00  0.00    -0.264 OA
ATOM     21  O   UNL A   1      32.386  18.630  23.116  1.00  0.00    -0.264 OA
ENDBRANCH  12  19
BRANCH  13  22
ATOM     22  N   UNL A   1      35.924  22.657  24.642  1.00  0.00     0.038 N 
ATOM     23  O   UNL A   1      36.320  23.268  25.645  1.00  0.00    -0.263 OA
ATOM     24  O   UNL A   1      36.659  22.178  23.767  1.00  0.00    -0.263 OA
ENDBRANCH  13  22
ENDBRANCH   7   8
ENDBRANCH   5   7
ENDBRANCH   2   3
ENDBRANCH   1   2
BRANCH   1  25
ATOM     25  C   UNL A   1      33.480  28.542  27.282  1.00  0.00     0.118 C 
BRANCH  25  26
ATOM     26  N   UNL A   1      33.471  29.943  27.673  1.00  0.00    -0.352 N 
ATOM     27  C   UNL A   1      34.486  30.684  28.238  1.00  0.00     0.251 C 
ATOM     28  H   UNL A   1      32.628  30.426  27.512  1.00  0.00     0.163 HD
ATOM     29  O   UNL A   1      34.276  31.831  28.621  1.00  0.00    -0.269 OA
BRANCH  27  30
ATOM     30  C   UNL A   1      35.821  30.074  28.422  1.00  0.00     0.039 A 
ATOM     31  C   UNL A   1      36.713  30.067  27.347  1.00  0.00     0.014 A 
ATOM     32  C   UNL A   1      36.209  29.556  29.662  1.00  0.00     0.014 A 
ATOM     33  C   UNL A   1      38.027  29.632  27.542  1.00  0.00     0.010 A 
ATOM     34  C   UNL A   1      37.535  29.183  29.870  1.00  0.00     0.010 A 
ATOM     35  C   UNL A   1      38.462  29.237  28.818  1.00  0.00    -0.014 A 
BRANCH  35  36
ATOM     36  C   UNL A   1      39.890  28.921  29.084  1.00  0.00     0.031 A 
ATOM     37  C   UNL A   1      40.815  29.975  29.625  1.00  0.00     0.074 A 
ATOM     38  C   UNL A   1      40.372  27.705  28.756  1.00  0.00     0.049 A 
ATOM     39  N   UNL A   1      42.108  29.916  29.822  1.00  0.00    -0.248 NA
ATOM     40  C   UNL A   1      40.214  31.274  29.966  1.00  0.00     0.031 C 
ATOM     41  C   UNL A   1      39.588  26.610  28.179  1.00  0.00     0.029 A 
ATOM     42  N   UNL A   1      41.643  27.190  28.843  1.00  0.00    -0.354 N 
ATOM     43  C   UNL A   1      42.477  31.169  30.295  1.00  0.00     0.074 A 
ATOM     44  C   UNL A   1      41.279  31.981  30.314  1.00  0.00     0.031 C 
ATOM     45  C   UNL A   1      40.390  25.552  27.979  1.00  0.00     0.029 A 
ATOM     46  C   UNL A   1      41.750  25.903  28.373  1.00  0.00     0.049 A 
ATOM     47  H   UNL A   1      42.404  27.696  29.208  1.00  0.00     0.167 HD
ATOM     48  C   UNL A   1      43.699  31.598  30.693  1.00  0.00     0.037 A 
ATOM     49  C   UNL A   1      42.825  25.098  28.258  1.00  0.00     0.037 A 
ATOM     50  C   UNL A   1      44.884  30.779  30.696  1.00  0.00     0.049 A 
ATOM     51  C   UNL A   1      44.172  25.598  28.701  1.00  0.00     0.074 A 
ATOM     52  C   UNL A   1      46.153  31.105  31.144  1.00  0.00     0.029 A 
ATOM     53  N   UNL A   1      44.949  29.474  30.229  1.00  0.00    -0.354 N 
ATOM     54  N   UNL A   1      44.492  26.767  29.201  1.00  0.00    -0.248 NA
ATOM     55  C   UNL A   1      45.305  24.671  28.564  1.00  0.00     0.031 C 
ATOM     56  C   UNL A   1      46.993  30.010  30.912  1.00  0.00     0.029 A 
ATOM     57  C   UNL A   1      46.240  28.989  30.355  1.00  0.00     0.049 A 
ATOM     58  H   UNL A   1      44.189  28.968  29.861  1.00  0.00     0.167 HD
ATOM     59  C   UNL A   1      45.857  26.711  29.456  1.00  0.00     0.074 A 
ATOM     60  C   UNL A   1      46.301  25.389  29.066  1.00  0.00     0.031 C 
ATOM     61  C   UNL A   1      46.669  27.670  29.964  1.00  0.00     0.037 A 
BRANCH  48  62
ATOM     62  C   UNL A   1      43.817  33.020  31.163  1.00  0.00     0.058 A 
ATOM     63  C   UNL A   1      43.662  33.361  32.517  1.00  0.00     0.135 A 
ATOM     64  C   UNL A   1      44.119  34.050  30.258  1.00  0.00     0.135 A 
ATOM     65  F   UNL A   1      43.358  32.417  33.421  1.00  0.00    -0.206 F 
ATOM     66  C   UNL A   1      43.775  34.677  32.952  1.00  0.00     0.059 A 
ATOM     67  C   UNL A   1      44.261  35.370  30.675  1.00  0.00     0.059 A 
ATOM     68  F   UNL A   1      44.278  33.779  28.953  1.00  0.00    -0.206 F 
ATOM     69  C   UNL A   1      44.071  35.676  32.023  1.00  0.00     0.060 A 
BRANCH  69  70
ATOM     70  S   UNL A   1      44.211  37.380  32.601  1.00  0.00     0.124 S 
ATOM     71  O   UNL A   1      43.195  37.414  33.649  1.00  0.00    -0.237 OA
ATOM     72  O   UNL A   1      45.595  37.443  33.060  1.00  0.00    -0.237 OA
ATOM     73  O   UNL A   1      43.912  38.169  31.411  1.00  0.00    -0.744 OA
ENDBRANCH  69  70
ENDBRANCH  48  62
BRANCH  49  74
ATOM     74  C   UNL A   1      42.668  23.726  27.705  1.00  0.00     0.058 A 
ATOM     75  C   UNL A   1      42.452  22.629  28.552  1.00  0.00     0.135 A 
ATOM     76  C   UNL A   1      42.715  23.487  26.323  1.00  0.00     0.135 A 
ATOM     77  F   UNL A   1      42.407  22.809  29.881  1.00  0.00    -0.206 F 
ATOM     78  C   UNL A   1      42.301  21.342  28.051  1.00  0.00     0.059 A 
ATOM     79  C   UNL A   1      42.544  22.211  25.796  1.00  0.00     0.059 A 
ATOM     80  F   UNL A   1      42.904  24.506  25.470  1.00  0.00    -0.206 F 
ATOM     81  C   UNL A   1      42.346  21.142  26.670  1.00  0.00     0.060 A 
BRANCH  81  82
ATOM     82  S   UNL A   1      42.096  19.474  26.025  1.00  0.00     0.124 S 
ATOM     83  O   UNL A   1      40.646  19.433  25.874  1.00  0.00    -0.237 OA
ATOM     84  O   UNL A   1      42.868  19.504  24.786  1.00  0.00    -0.237 OA
ATOM     85  O   UNL A   1      42.648  18.624  27.077  1.00  0.00    -0.744 OA
ENDBRANCH  81  82
ENDBRANCH  49  74
BRANCH  61  86
ATOM     86  C   UNL A   1      48.119  27.321  30.148  1.00  0.00     0.058 A 
ATOM     87  C   UNL A   1      49.052  27.495  29.114  1.00  0.00     0.135 A 
ATOM     88  C   UNL A   1      48.590  26.859  31.388  1.00  0.00     0.135 A 
ATOM     89  F   UNL A   1      48.650  27.926  27.907  1.00  0.00    -0.206 F 
ATOM     90  C   UNL A   1      50.400  27.208  29.297  1.00  0.00     0.059 A 
ATOM     91  C   UNL A   1      49.938  26.588  31.599  1.00  0.00     0.059 A 
ATOM     92  F   UNL A   1      47.740  26.684  32.410  1.00  0.00    -0.206 F 
ATOM     93  C   UNL A   1      50.835  26.757  30.545  1.00  0.00     0.060 A 
BRANCH  93  94
ATOM     94  S   UNL A   1      52.593  26.427  30.783  1.00  0.00     0.124 S 
ATOM     95  O   UNL A   1      52.559  25.179  31.537  1.00  0.00    -0.237 OA
ATOM     96  O   UNL A   1      53.083  26.326  29.412  1.00  0.00    -0.237 OA
ATOM     97  O   UNL A   1      53.060  27.596  31.524  1.00  0.00    -0.744 OA
ENDBRANCH  93  94
ENDBRANCH  61  86
ENDBRANCH  35  36
ENDBRANCH  27  30
ENDBRANCH  25  26
ENDBRANCH   1  25
TORSDOF 16
ENDMDL
MODEL 3
REMARK VINA RESULT:     -11.3      2.810      3.670
REMARK SMILES O=C(C[N@@H+]1C[C@@]2([N+](=O)[O-])CC=C(Cl)[C@@]([N+](=O)[O-])(C1)C2)NCCCNC(=O)c1ccc(-c2c3nc(c(-c4c(F)cc(S(=O)(=O)[O-])cc4F)c4ccc([nH]4)c(-c4c(F)cc(S(=O)(=O)[O-])cc4F)c4nc(c(-c5c(F)cc(S(=O)(=O)[O-])cc5F)c5ccc2[nH]5)C=C4)C=C3)cc1
REMARK SMILES IDX 22 1 21 2 20 3 1 4 2 5 3 7 4 8 5 9 18 10 6 12 14 13 10 14
REMARK SMILES IDX 19 15 12 16 11 17 13 18 7 19 8 20 9 21 15 22 16 23 17 24
REMARK SMILES IDX 23 25 24 26 25 27 26 29 27 30 28 31 92 32 29 33 91 34 30 35
REMARK SMILES IDX 31 36 32 37 85 38 33 39 90 40 84 41 86 42 34 43 89 44 83 45
REMARK SMILES IDX 82 46 35 48 69 49 48 50 68 51 49 52 52 53 67 54 87 55 50 56
REMARK SMILES IDX 51 57 66 59 88 60 53 61 36 62 37 63 46 64 38 65 39 66 45 67
REMARK SMILES IDX 47 68 40 69 41 70 42 71 43 72 44 73 70 74 71 75 80 76 72 77
REMARK SMILES IDX 73 78 79 79 81 80 74 81 75 82 76 83 77 84 78 85 54 86 55 87
REMARK SMILES IDX 64 88 56 89 57 90 63 91 65 92 58 93 59 94 60 95 61 96 62 97
REMARK H PARENT 20 6 4 11 24 28 86 47 52 58
REMARK Flexibility Score: inf
ROOT
ATOM      1  C   UNL A   1      34.850  29.316  27.309  1.00  0.00     0.042 C 
ENDROOT
BRANCH   1   2
ATOM      2  C   UNL A   1      33.417  29.639  26.916  1.00  0.00     0.118 C 
BRANCH   2   3
ATOM      3  N   UNL A   1      32.773  28.551  26.208  1.00  0.00    -0.351 N 
ATOM      4  O   UNL A   1      31.433  27.877  27.955  1.00  0.00    -0.269 OA
ATOM      5  C   UNL A   1      31.764  27.799  26.776  1.00  0.00     0.275 C 
ATOM      6  H   UNL A   1      33.065  28.340  25.291  1.00  0.00     0.163 HD
BRANCH   5   7
ATOM      7  C   UNL A   1      31.019  26.923  25.758  1.00  0.00     0.363 C 
BRANCH   7   8
ATOM      8  N   UNL A   1      31.818  25.722  25.427  1.00  0.00    -0.315 N 
ATOM      9  C   UNL A   1      32.312  25.771  24.038  1.00  0.00     0.350 C 
ATOM     10  C   UNL A   1      31.115  24.444  25.721  1.00  0.00     0.356 C 
ATOM     11  H   UNL A   1      32.626  25.737  26.047  1.00  0.00     0.348 HD
ATOM     12  C   UNL A   1      33.177  24.540  23.672  1.00  0.00     0.280 C 
ATOM     13  C   UNL A   1      31.993  23.208  25.398  1.00  0.00     0.311 C 
ATOM     14  C   UNL A   1      34.507  24.445  24.470  1.00  0.00     0.121 C 
ATOM     15  C   UNL A   1      32.363  23.255  23.900  1.00  0.00     0.191 C 
ATOM     16  C   UNL A   1      33.247  23.221  26.259  1.00  0.00     0.097 C 
ATOM     17  C   UNL A   1      34.386  23.790  25.826  1.00  0.00     0.004 C 
ATOM     18  Cl  UNL A   1      33.170  22.611  27.876  1.00  0.00    -0.081 Cl
BRANCH  12  19
ATOM     19  N   UNL A   1      33.505  24.695  22.194  1.00  0.00     0.032 N 
ATOM     20  O   UNL A   1      33.811  25.824  21.789  1.00  0.00    -0.264 OA
ATOM     21  O   UNL A   1      33.391  23.694  21.477  1.00  0.00    -0.264 OA
ENDBRANCH  12  19
BRANCH  13  22
ATOM     22  N   UNL A   1      31.202  21.928  25.638  1.00  0.00     0.038 N 
ATOM     23  O   UNL A   1      30.111  22.021  26.220  1.00  0.00    -0.263 OA
ATOM     24  O   UNL A   1      31.683  20.873  25.200  1.00  0.00    -0.263 OA
ENDBRANCH  13  22
ENDBRANCH   7   8
ENDBRANCH   5   7
ENDBRANCH   2   3
ENDBRANCH   1   2
BRANCH   1  25
ATOM     25  C   UNL A   1      35.591  30.433  28.040  1.00  0.00     0.118 C 
BRANCH  25  26
ATOM     26  N   UNL A   1      35.452  30.387  29.488  1.00  0.00    -0.352 N 
ATOM     27  C   UNL A   1      36.428  30.184  30.438  1.00  0.00     0.251 C 
ATOM     28  H   UNL A   1      34.540  30.520  29.834  1.00  0.00     0.163 HD
ATOM     29  O   UNL A   1      36.124  30.053  31.620  1.00  0.00    -0.269 OA
BRANCH  27  30
ATOM     30  C   UNL A   1      37.844  30.078  30.021  1.00  0.00     0.039 A 
ATOM     31  C   UNL A   1      38.829  29.961  31.003  1.00  0.00     0.014 A 
ATOM     32  C   UNL A   1      38.192  30.043  28.667  1.00  0.00     0.014 A 
ATOM     33  C   UNL A   1      40.153  29.711  30.629  1.00  0.00     0.010 A 
ATOM     34  C   UNL A   1      39.498  29.730  28.298  1.00  0.00     0.010 A 
ATOM     35  C   UNL A   1      40.488  29.541  29.275  1.00  0.00    -0.014 A 
BRANCH  35  36
ATOM     36  C   UNL A   1      41.852  29.119  28.864  1.00  0.00     0.031 A 
ATOM     37  C   UNL A   1      42.965  30.124  28.769  1.00  0.00     0.074 A 
ATOM     38  C   UNL A   1      42.066  27.840  28.492  1.00  0.00     0.049 A 
ATOM     39  N   UNL A   1      44.187  29.963  28.330  1.00  0.00    -0.248 NA
ATOM     40  C   UNL A   1      42.656  31.497  29.198  1.00  0.00     0.031 C 
ATOM     41  C   UNL A   1      41.058  26.777  28.494  1.00  0.00     0.029 A 
ATOM     42  N   UNL A   1      43.198  27.219  28.023  1.00  0.00    -0.354 N 
ATOM     43  C   UNL A   1      44.789  31.213  28.417  1.00  0.00     0.074 A 
ATOM     44  C   UNL A   1      43.784  32.130  28.910  1.00  0.00     0.031 C 
ATOM     45  C   UNL A   1      41.620  25.636  28.062  1.00  0.00     0.029 A 
ATOM     46  C   UNL A   1      43.014  25.892  27.715  1.00  0.00     0.049 A 
ATOM     47  H   UNL A   1      44.061  27.682  27.918  1.00  0.00     0.167 HD
ATOM     48  C   UNL A   1      46.067  31.559  28.131  1.00  0.00     0.037 A 
ATOM     49  C   UNL A   1      43.865  24.984  27.197  1.00  0.00     0.037 A 
ATOM     50  C   UNL A   1      47.072  30.638  27.665  1.00  0.00     0.049 A 
ATOM     51  C   UNL A   1      45.276  25.394  26.881  1.00  0.00     0.074 A 
ATOM     52  C   UNL A   1      48.411  30.882  27.412  1.00  0.00     0.029 A 
ATOM     53  N   UNL A   1      46.850  29.298  27.382  1.00  0.00    -0.354 N 
ATOM     54  N   UNL A   1      45.845  26.567  27.026  1.00  0.00    -0.248 NA
ATOM     55  C   UNL A   1      46.163  24.359  26.331  1.00  0.00     0.031 C 
ATOM     56  C   UNL A   1      48.989  29.699  26.938  1.00  0.00     0.029 A 
ATOM     57  C   UNL A   1      48.021  28.708  26.934  1.00  0.00     0.049 A 
ATOM     58  H   UNL A   1      45.987  28.834  27.484  1.00  0.00     0.167 HD
ATOM     59  C   UNL A   1      47.159  26.407  26.603  1.00  0.00     0.074 A 
ATOM     60  C   UNL A   1      47.306  25.021  26.208  1.00  0.00     0.031 C 
ATOM     61  C   UNL A   1      48.154  27.326  26.545  1.00  0.00     0.037 A 
BRANCH  48  62
ATOM     62  C   UNL A   1      46.455  32.999  28.315  1.00  0.00     0.058 A 
ATOM     63  C   UNL A   1      46.960  33.473  29.537  1.00  0.00     0.135 A 
ATOM     64  C   UNL A   1      46.351  33.910  27.252  1.00  0.00     0.135 A 
ATOM     65  F   UNL A   1      47.066  32.647  30.590  1.00  0.00    -0.206 F 
ATOM     66  C   UNL A   1      47.322  34.805  29.706  1.00  0.00     0.059 A 
ATOM     67  C   UNL A   1      46.730  35.241  27.392  1.00  0.00     0.059 A 
ATOM     68  F   UNL A   1      45.875  33.509  26.062  1.00  0.00    -0.206 F 
ATOM     69  C   UNL A   1      47.200  35.683  28.628  1.00  0.00     0.060 A 
BRANCH  69  70
ATOM     70  S   UNL A   1      47.670  37.409  28.863  1.00  0.00     0.124 S 
ATOM     71  O   UNL A   1      48.161  37.760  27.534  1.00  0.00    -0.237 OA
ATOM     72  O   UNL A   1      46.408  38.028  29.256  1.00  0.00    -0.237 OA
ATOM     73  O   UNL A   1      48.685  37.346  29.910  1.00  0.00    -0.744 OA
ENDBRANCH  69  70
ENDBRANCH  48  62
BRANCH  49  74
ATOM     74  C   UNL A   1      43.405  23.591  26.953  1.00  0.00     0.058 A 
ATOM     75  C   UNL A   1      43.132  23.141  25.652  1.00  0.00     0.135 A 
ATOM     76  C   UNL A   1      43.244  22.681  28.009  1.00  0.00     0.135 A 
ATOM     77  F   UNL A   1      43.265  23.979  24.613  1.00  0.00    -0.206 F 
ATOM     78  C   UNL A   1      42.704  21.842  25.408  1.00  0.00     0.059 A 
ATOM     79  C   UNL A   1      42.839  21.370  27.786  1.00  0.00     0.059 A 
ATOM     80  F   UNL A   1      43.508  23.059  29.269  1.00  0.00    -0.206 F 
ATOM     81  C   UNL A   1      42.562  20.961  26.482  1.00  0.00     0.060 A 
BRANCH  81  82
ATOM     82  S   UNL A   1      42.056  19.259  26.148  1.00  0.00     0.124 S 
ATOM     83  O   UNL A   1      40.624  19.418  25.928  1.00  0.00    -0.237 OA
ATOM     84  O   UNL A   1      42.852  18.927  24.970  1.00  0.00    -0.237 OA
ATOM     85  O   UNL A   1      42.435  18.554  27.370  1.00  0.00    -0.744 OA
ENDBRANCH  81  82
ENDBRANCH  49  74
BRANCH  61  86
ATOM     86  C   UNL A   1      49.496  26.863  26.054  1.00  0.00     0.058 A 
ATOM     87  C   UNL A   1      49.914  27.092  24.735  1.00  0.00     0.135 A 
ATOM     88  C   UNL A   1      50.395  26.230  26.928  1.00  0.00     0.135 A 
ATOM     89  F   UNL A   1      49.088  27.686  23.858  1.00  0.00    -0.206 F 
ATOM     90  C   UNL A   1      51.172  26.696  24.292  1.00  0.00     0.059 A 
ATOM     91  C   UNL A   1      51.666  25.846  26.513  1.00  0.00     0.059 A 
ATOM     92  F   UNL A   1      50.046  25.994  28.202  1.00  0.00    -0.206 F 
ATOM     93  C   UNL A   1      52.043  26.075  25.190  1.00  0.00     0.060 A 
BRANCH  93  94
ATOM     94  S   UNL A   1      53.687  25.603  24.616  1.00  0.00     0.124 S 
ATOM     95  O   UNL A   1      53.604  25.919  23.194  1.00  0.00    -0.237 OA
ATOM     96  O   UNL A   1      54.556  26.469  25.408  1.00  0.00    -0.237 OA
ATOM     97  O   UNL A   1      53.765  24.182  24.941  1.00  0.00    -0.744 OA
ENDBRANCH  93  94
ENDBRANCH  61  86
ENDBRANCH  35  36
ENDBRANCH  27  30
ENDBRANCH  25  26
ENDBRANCH   1  25
TORSDOF 16
ENDMDL
