MODEL 1
REMARK VINA RESULT:     -12.3      0.000      0.000
REMARK SMILES O=C(Nc1cccc(F)c1)N[C@@H]1C=C[C@@H](C(=O)NCCCNC(=O)c2ccc(-c3c4nc(c(-c5c(F)cc(S(=O)(=O)[O-])cc5F)c5ccc([nH]5)c(-c5c(F)cc(S(=O)(=O)[O-])cc5F)c5nc(c(-c6c(F)cc(S(=O)(=O)[O-])cc6F)c6ccc3[nH]6)C=C5)C=C4)cc2)C1
REMARK SMILES IDX 20 1 19 2 18 3 16 4 17 5 15 7 12 8 13 9 91 10 14 11 11 12
REMARK SMILES IDX 1 13 2 14 3 15 4 18 5 19 10 20 6 21 8 22 7 23 9 24 21 25
REMARK SMILES IDX 22 26 23 27 24 29 25 30 26 31 90 32 27 33 89 34 28 35 29 36
REMARK SMILES IDX 30 37 83 38 31 39 88 40 82 41 84 42 32 43 87 44 81 45 80 46
REMARK SMILES IDX 33 48 67 49 46 50 66 51 47 52 50 53 65 54 85 55 48 56 49 57
REMARK SMILES IDX 64 59 86 60 51 61 34 62 35 63 44 64 36 65 37 66 43 67 45 68
REMARK SMILES IDX 38 69 39 70 40 71 41 72 42 73 68 74 69 75 78 76 70 77 71 78
REMARK SMILES IDX 77 79 79 80 72 81 73 82 74 83 75 84 76 85 52 86 53 87 62 88
REMARK SMILES IDX 54 89 55 90 61 91 63 92 56 93 57 94 58 95 59 96 60 97
REMARK H PARENT 18 6 3 16 11 17 22 28 84 47 50 58
REMARK Flexibility Score: inf
ROOT
ATOM      1  C   UNL A   1      34.016  28.069  25.865  1.00  0.00     0.042 C 
ENDROOT
BRANCH   1   2
ATOM      2  C   UNL A   1      32.912  27.551  24.950  1.00  0.00     0.117 C 
BRANCH   2   3
ATOM      3  N   UNL A   1      33.319  27.515  23.557  1.00  0.00    -0.356 N 
ATOM      4  C   UNL A   1      33.468  26.477  22.689  1.00  0.00     0.227 C 
ATOM      5  O   UNL A   1      33.780  26.765  21.528  1.00  0.00    -0.274 OA
ATOM      6  H   UNL A   1      33.524  28.397  23.172  1.00  0.00     0.163 HD
BRANCH   4   7
ATOM      7  C   UNL A   1      33.247  25.020  23.093  1.00  0.00     0.103 C 
ATOM      8  C   UNL A   1      33.337  23.699  25.149  1.00  0.00     0.107 C 
ATOM      9  C   UNL A   1      31.932  24.029  24.770  1.00  0.00    -0.006 C 
ATOM     10  C   UNL A   1      34.206  24.498  24.169  1.00  0.00     0.047 C 
ATOM     11  C   UNL A   1      31.877  24.762  23.652  1.00  0.00    -0.016 C 
BRANCH   8  12
ATOM     12  N   UNL A   1      33.513  22.268  25.141  1.00  0.00    -0.332 N 
ATOM     13  O   UNL A   1      35.328  22.057  26.534  1.00  0.00    -0.248 OA
ATOM     14  C   UNL A   1      34.483  21.564  25.794  1.00  0.00     0.319 C 
ATOM     15  N   UNL A   1      34.382  20.204  25.704  1.00  0.00    -0.308 N 
ATOM     16  H   UNL A   1      34.776  19.704  26.455  1.00  0.00     0.171 HD
ATOM     17  H   UNL A   1      32.868  21.745  24.611  1.00  0.00     0.165 HD
BRANCH  15  18
ATOM     18  C   UNL A   1      33.802  19.414  24.701  1.00  0.00     0.045 A 
ATOM     19  C   UNL A   1      32.691  19.841  23.963  1.00  0.00     0.026 A 
ATOM     20  C   UNL A   1      34.399  18.190  24.402  1.00  0.00     0.065 A 
ATOM     21  C   UNL A   1      32.150  19.028  22.963  1.00  0.00     0.005 A 
ATOM     22  C   UNL A   1      33.839  17.378  23.422  1.00  0.00     0.125 A 
ATOM     23  C   UNL A   1      32.720  17.784  22.702  1.00  0.00     0.039 A 
ATOM     24  F   UNL A   1      34.385  16.183  23.168  1.00  0.00    -0.207 F 
ENDBRANCH  15  18
ENDBRANCH   8  12
ENDBRANCH   4   7
ENDBRANCH   2   3
ENDBRANCH   1   2
BRANCH   1  25
ATOM     25  C   UNL A   1      33.546  28.382  27.279  1.00  0.00     0.118 C 
BRANCH  25  26
ATOM     26  N   UNL A   1      33.542  29.811  27.559  1.00  0.00    -0.352 N 
ATOM     27  C   UNL A   1      34.511  30.598  28.129  1.00  0.00     0.251 C 
ATOM     28  H   UNL A   1      32.719  30.286  27.299  1.00  0.00     0.163 HD
ATOM     29  O   UNL A   1      34.233  31.743  28.482  1.00  0.00    -0.269 OA
BRANCH  27  30
ATOM     30  C   UNL A   1      35.875  30.066  28.339  1.00  0.00     0.039 A 
ATOM     31  C   UNL A   1      36.792  30.118  27.286  1.00  0.00     0.014 A 
ATOM     32  C   UNL A   1      36.248  29.513  29.567  1.00  0.00     0.014 A 
ATOM     33  C   UNL A   1      38.106  29.686  27.492  1.00  0.00     0.010 A 
ATOM     34  C   UNL A   1      37.576  29.167  29.795  1.00  0.00     0.010 A 
ATOM     35  C   UNL A   1      38.520  29.249  28.761  1.00  0.00    -0.014 A 
BRANCH  35  36
ATOM     36  C   UNL A   1      39.935  28.889  29.035  1.00  0.00     0.031 A 
ATOM     37  C   UNL A   1      40.875  29.911  29.615  1.00  0.00     0.074 A 
ATOM     38  C   UNL A   1      40.389  27.667  28.692  1.00  0.00     0.049 A 
ATOM     39  N   UNL A   1      42.161  29.817  29.831  1.00  0.00    -0.248 NA
ATOM     40  C   UNL A   1      40.299  31.216  29.979  1.00  0.00     0.031 C 
ATOM     41  C   UNL A   1      39.581  26.605  28.088  1.00  0.00     0.029 A 
ATOM     42  N   UNL A   1      41.641  27.113  28.790  1.00  0.00    -0.354 N 
ATOM     43  C   UNL A   1      42.551  31.049  30.343  1.00  0.00     0.074 A 
ATOM     44  C   UNL A   1      41.376  31.892  30.357  1.00  0.00     0.031 C 
ATOM     45  C   UNL A   1      40.350  25.522  27.895  1.00  0.00     0.029 A 
ATOM     46  C   UNL A   1      41.716  25.826  28.311  1.00  0.00     0.049 A 
ATOM     47  H   UNL A   1      42.414  27.591  29.169  1.00  0.00     0.167 HD
ATOM     48  C   UNL A   1      43.771  31.431  30.786  1.00  0.00     0.037 A 
ATOM     49  C   UNL A   1      42.767  24.987  28.203  1.00  0.00     0.037 A 
ATOM     50  C   UNL A   1      44.929  30.576  30.791  1.00  0.00     0.049 A 
ATOM     51  C   UNL A   1      44.119  25.446  28.675  1.00  0.00     0.074 A 
ATOM     52  C   UNL A   1      46.198  30.855  31.267  1.00  0.00     0.029 A 
ATOM     53  N   UNL A   1      44.963  29.280  30.297  1.00  0.00    -0.354 N 
ATOM     54  N   UNL A   1      44.459  26.598  29.204  1.00  0.00    -0.248 NA
ATOM     55  C   UNL A   1      45.233  24.498  28.535  1.00  0.00     0.031 C 
ATOM     56  C   UNL A   1      47.012  29.749  31.013  1.00  0.00     0.029 A 
ATOM     57  C   UNL A   1      46.239  28.757  30.432  1.00  0.00     0.049 A 
ATOM     58  H   UNL A   1      44.195  28.803  29.908  1.00  0.00     0.167 HD
ATOM     59  C   UNL A   1      45.817  26.504  29.482  1.00  0.00     0.074 A 
ATOM     60  C   UNL A   1      46.237  25.180  29.073  1.00  0.00     0.031 C 
ATOM     61  C   UNL A   1      46.641  27.433  30.027  1.00  0.00     0.037 A 
BRANCH  48  62
ATOM     62  C   UNL A   1      43.925  32.831  31.316  1.00  0.00     0.058 A 
ATOM     63  C   UNL A   1      44.334  33.874  30.471  1.00  0.00     0.135 A 
ATOM     64  C   UNL A   1      43.744  33.126  32.677  1.00  0.00     0.135 A 
ATOM     65  F   UNL A   1      44.516  33.651  29.159  1.00  0.00    -0.206 F 
ATOM     66  C   UNL A   1      44.578  35.155  30.958  1.00  0.00     0.059 A 
ATOM     67  C   UNL A   1      43.954  34.405  33.182  1.00  0.00     0.059 A 
ATOM     68  F   UNL A   1      43.333  32.169  33.526  1.00  0.00    -0.206 F 
ATOM     69  C   UNL A   1      44.387  35.409  32.317  1.00  0.00     0.060 A 
BRANCH  69  70
ATOM     70  S   UNL A   1      44.690  37.080  32.931  1.00  0.00     0.124 S 
ATOM     71  O   UNL A   1      43.519  37.798  32.440  1.00  0.00    -0.237 OA
ATOM     72  O   UNL A   1      44.748  36.868  34.374  1.00  0.00    -0.237 OA
ATOM     73  O   UNL A   1      45.959  37.445  32.308  1.00  0.00    -0.744 OA
ENDBRANCH  69  70
ENDBRANCH  48  62
BRANCH  49  74
ATOM     74  C   UNL A   1      42.567  23.624  27.642  1.00  0.00     0.058 A 
ATOM     75  C   UNL A   1      42.368  22.513  28.475  1.00  0.00     0.135 A 
ATOM     76  C   UNL A   1      42.617  23.402  26.257  1.00  0.00     0.135 A 
ATOM     77  F   UNL A   1      42.324  22.667  29.807  1.00  0.00    -0.206 F 
ATOM     78  C   UNL A   1      42.258  21.225  27.959  1.00  0.00     0.059 A 
ATOM     79  C   UNL A   1      42.481  22.126  25.715  1.00  0.00     0.059 A 
ATOM     80  F   UNL A   1      42.792  24.434  25.419  1.00  0.00    -0.206 F 
ATOM     81  C   UNL A   1      42.321  21.042  26.577  1.00  0.00     0.060 A 
BRANCH  81  82
ATOM     82  S   UNL A   1      42.202  19.360  25.932  1.00  0.00     0.124 S 
ATOM     83  O   UNL A   1      42.681  18.578  27.067  1.00  0.00    -0.237 OA
ATOM     84  O   UNL A   1      40.776  19.247  25.640  1.00  0.00    -0.237 OA
ATOM     85  O   UNL A   1      43.080  19.381  24.767  1.00  0.00    -0.744 OA
ENDBRANCH  81  82
ENDBRANCH  49  74
BRANCH  61  86
ATOM     86  C   UNL A   1      48.083  27.060  30.239  1.00  0.00     0.058 A 
ATOM     87  C   UNL A   1      48.477  26.383  31.405  1.00  0.00     0.135 A 
ATOM     88  C   UNL A   1      49.086  27.464  29.344  1.00  0.00     0.135 A 
ATOM     89  F   UNL A   1      47.558  25.977  32.295  1.00  0.00    -0.206 F 
ATOM     90  C   UNL A   1      49.817  26.150  31.692  1.00  0.00     0.059 A 
ATOM     91  C   UNL A   1      50.432  27.216  29.598  1.00  0.00     0.059 A 
ATOM     92  F   UNL A   1      48.761  28.104  28.210  1.00  0.00    -0.206 F 
ATOM     93  C   UNL A   1      50.788  26.576  30.786  1.00  0.00     0.060 A 
BRANCH  93  94
ATOM     94  S   UNL A   1      52.523  26.280  31.185  1.00  0.00     0.124 S 
ATOM     95  O   UNL A   1      52.902  27.534  31.826  1.00  0.00    -0.237 OA
ATOM     96  O   UNL A   1      52.442  25.117  32.063  1.00  0.00    -0.237 OA
ATOM     97  O   UNL A   1      53.134  26.031  29.883  1.00  0.00    -0.744 OA
ENDBRANCH  93  94
ENDBRANCH  61  86
ENDBRANCH  35  36
ENDBRANCH  27  30
ENDBRANCH  25  26
ENDBRANCH   1  25
TORSDOF 15
ENDMDL
MODEL 2
REMARK VINA RESULT:     -12.1      5.083     10.352
REMARK SMILES O=C(Nc1cccc(F)c1)N[C@@H]1C=C[C@@H](C(=O)NCCCNC(=O)c2ccc(-c3c4nc(c(-c5c(F)cc(S(=O)(=O)[O-])cc5F)c5ccc([nH]5)c(-c5c(F)cc(S(=O)(=O)[O-])cc5F)c5nc(c(-c6c(F)cc(S(=O)(=O)[O-])cc6F)c6ccc3[nH]6)C=C5)C=C4)cc2)C1
REMARK SMILES IDX 20 1 19 2 18 3 16 4 17 5 15 7 12 8 13 9 91 10 14 11 11 12
REMARK SMILES IDX 1 13 2 14 3 15 4 18 5 19 10 20 6 21 8 22 7 23 9 24 21 25
REMARK SMILES IDX 22 26 23 27 24 29 25 30 26 31 90 32 27 33 89 34 28 35 29 36
REMARK SMILES IDX 30 37 83 38 31 39 88 40 82 41 84 42 32 43 87 44 81 45 80 46
REMARK SMILES IDX 33 48 67 49 46 50 66 51 47 52 50 53 65 54 85 55 48 56 49 57
REMARK SMILES IDX 64 59 86 60 51 61 34 62 35 63 44 64 36 65 37 66 43 67 45 68
REMARK SMILES IDX 38 69 39 70 40 71 41 72 42 73 68 74 69 75 78 76 70 77 71 78
REMARK SMILES IDX 77 79 79 80 72 81 73 82 74 83 75 84 76 85 52 86 53 87 62 88
REMARK SMILES IDX 54 89 55 90 61 91 63 92 56 93 57 94 58 95 59 96 60 97
REMARK H PARENT 18 6 3 16 11 17 22 28 84 47 50 58
REMARK Flexibility Score: inf
ROOT
ATOM      1  C   UNL A   1      41.009  21.755  27.349  1.00  0.00     0.042 C 
ENDROOT
BRANCH   1   2
ATOM      2  C   UNL A   1      39.896  21.918  26.320  1.00  0.00     0.117 C 
BRANCH   2   3
ATOM      3  N   UNL A   1      39.143  23.145  26.509  1.00  0.00    -0.356 N 
ATOM      4  C   UNL A   1      37.872  23.484  26.158  1.00  0.00     0.227 C 
ATOM      5  O   UNL A   1      37.480  24.603  26.507  1.00  0.00    -0.274 OA
ATOM      6  H   UNL A   1      39.639  23.857  26.973  1.00  0.00     0.163 HD
BRANCH   4   7
ATOM      7  C   UNL A   1      36.945  22.545  25.388  1.00  0.00     0.103 C 
ATOM      8  C   UNL A   1      34.629  22.563  24.600  1.00  0.00     0.107 C 
ATOM      9  C   UNL A   1      35.587  22.867  23.497  1.00  0.00    -0.006 C 
ATOM     10  C   UNL A   1      35.489  22.538  25.871  1.00  0.00     0.047 C 
ATOM     11  C   UNL A   1      36.855  22.870  23.925  1.00  0.00    -0.016 C 
BRANCH   8  12
ATOM     12  N   UNL A   1      33.909  21.353  24.292  1.00  0.00    -0.332 N 
ATOM     13  O   UNL A   1      31.827  22.207  23.825  1.00  0.00    -0.248 OA
ATOM     14  C   UNL A   1      32.589  21.255  23.958  1.00  0.00     0.319 C 
ATOM     15  N   UNL A   1      32.161  20.002  23.619  1.00  0.00    -0.308 N 
ATOM     16  H   UNL A   1      31.390  19.974  23.008  1.00  0.00     0.171 HD
ATOM     17  H   UNL A   1      34.421  20.512  24.323  1.00  0.00     0.165 HD
BRANCH  15  18
ATOM     18  C   UNL A   1      32.657  18.750  24.012  1.00  0.00     0.045 A 
ATOM     19  C   UNL A   1      32.465  18.243  25.303  1.00  0.00     0.026 A 
ATOM     20  C   UNL A   1      33.309  17.974  23.055  1.00  0.00     0.065 A 
ATOM     21  C   UNL A   1      32.965  16.985  25.650  1.00  0.00     0.005 A 
ATOM     22  C   UNL A   1      33.823  16.734  23.418  1.00  0.00     0.125 A 
ATOM     23  C   UNL A   1      33.661  16.234  24.705  1.00  0.00     0.039 A 
ATOM     24  F   UNL A   1      34.490  16.009  22.511  1.00  0.00    -0.207 F 
ENDBRANCH  15  18
ENDBRANCH   8  12
ENDBRANCH   4   7
ENDBRANCH   2   3
ENDBRANCH   1   2
BRANCH   1  25
ATOM     25  C   UNL A   1      41.893  22.986  27.498  1.00  0.00     0.118 C 
BRANCH  25  26
ATOM     26  N   UNL A   1      41.877  23.828  26.311  1.00  0.00    -0.352 N 
ATOM     27  C   UNL A   1      41.606  25.168  26.187  1.00  0.00     0.251 C 
ATOM     28  H   UNL A   1      42.094  23.368  25.468  1.00  0.00     0.163 HD
ATOM     29  O   UNL A   1      41.428  25.651  25.070  1.00  0.00    -0.269 OA
BRANCH  27  30
ATOM     30  C   UNL A   1      41.508  26.023  27.390  1.00  0.00     0.039 A 
ATOM     31  C   UNL A   1      42.470  27.014  27.599  1.00  0.00     0.014 A 
ATOM     32  C   UNL A   1      40.474  25.845  28.313  1.00  0.00     0.014 A 
ATOM     33  C   UNL A   1      42.349  27.876  28.692  1.00  0.00     0.010 A 
ATOM     34  C   UNL A   1      40.306  26.758  29.349  1.00  0.00     0.010 A 
ATOM     35  C   UNL A   1      41.241  27.784  29.551  1.00  0.00    -0.014 A 
BRANCH  35  36
ATOM     36  C   UNL A   1      41.031  28.756  30.654  1.00  0.00     0.031 A 
ATOM     37  C   UNL A   1      41.861  28.667  31.906  1.00  0.00     0.074 A 
ATOM     38  C   UNL A   1      40.043  29.668  30.558  1.00  0.00     0.049 A 
ATOM     39  N   UNL A   1      41.760  29.358  33.012  1.00  0.00    -0.248 NA
ATOM     40  C   UNL A   1      42.931  27.655  31.927  1.00  0.00     0.031 C 
ATOM     41  C   UNL A   1      39.149  29.826  29.410  1.00  0.00     0.029 A 
ATOM     42  N   UNL A   1      39.617  30.628  31.442  1.00  0.00    -0.354 N 
ATOM     43  C   UNL A   1      42.740  28.860  33.862  1.00  0.00     0.074 A 
ATOM     44  C   UNL A   1      43.391  27.773  33.165  1.00  0.00     0.031 C 
ATOM     45  C   UNL A   1      38.299  30.838  29.648  1.00  0.00     0.029 A 
ATOM     46  C   UNL A   1      38.552  31.368  30.985  1.00  0.00     0.049 A 
ATOM     47  H   UNL A   1      40.035  30.774  32.322  1.00  0.00     0.167 HD
ATOM     48  C   UNL A   1      43.081  29.288  35.099  1.00  0.00     0.037 A 
ATOM     49  C   UNL A   1      37.846  32.353  31.578  1.00  0.00     0.037 A 
ATOM     50  C   UNL A   1      42.442  30.387  35.775  1.00  0.00     0.049 A 
ATOM     51  C   UNL A   1      38.225  32.791  32.965  1.00  0.00     0.074 A 
ATOM     52  C   UNL A   1      42.751  30.929  37.010  1.00  0.00     0.029 A 
ATOM     53  N   UNL A   1      41.367  31.110  35.278  1.00  0.00    -0.354 N 
ATOM     54  N   UNL A   1      39.189  32.342  33.735  1.00  0.00    -0.248 NA
ATOM     55  C   UNL A   1      37.425  33.865  33.570  1.00  0.00     0.031 C 
ATOM     56  C   UNL A   1      41.830  31.944  37.283  1.00  0.00     0.029 A 
ATOM     57  C   UNL A   1      40.983  32.075  36.194  1.00  0.00     0.049 A 
ATOM     58  H   UNL A   1      40.940  30.959  34.403  1.00  0.00     0.167 HD
ATOM     59  C   UNL A   1      39.126  33.094  34.902  1.00  0.00     0.074 A 
ATOM     60  C   UNL A   1      38.037  34.034  34.735  1.00  0.00     0.031 C 
ATOM     61  C   UNL A   1      39.901  33.011  36.011  1.00  0.00     0.037 A 
BRANCH  48  62
ATOM     62  C   UNL A   1      44.204  28.581  35.809  1.00  0.00     0.058 A 
ATOM     63  C   UNL A   1      43.937  27.520  36.688  1.00  0.00     0.135 A 
ATOM     64  C   UNL A   1      45.537  29.003  35.678  1.00  0.00     0.135 A 
ATOM     65  F   UNL A   1      42.683  27.070  36.846  1.00  0.00    -0.206 F 
ATOM     66  C   UNL A   1      44.949  26.915  37.429  1.00  0.00     0.059 A 
ATOM     67  C   UNL A   1      46.568  28.395  36.387  1.00  0.00     0.059 A 
ATOM     68  F   UNL A   1      45.850  30.000  34.835  1.00  0.00    -0.206 F 
ATOM     69  C   UNL A   1      46.262  27.362  37.273  1.00  0.00     0.060 A 
BRANCH  69  70
ATOM     70  S   UNL A   1      47.565  26.556  38.227  1.00  0.00     0.124 S 
ATOM     71  O   UNL A   1      46.880  25.372  38.732  1.00  0.00    -0.237 OA
ATOM     72  O   UNL A   1      48.584  26.318  37.210  1.00  0.00    -0.237 OA
ATOM     73  O   UNL A   1      47.917  27.556  39.232  1.00  0.00    -0.744 OA
ENDBRANCH  69  70
ENDBRANCH  48  62
BRANCH  49  74
ATOM     74  C   UNL A   1      36.723  32.998  30.845  1.00  0.00     0.058 A 
ATOM     75  C   UNL A   1      36.958  33.915  29.810  1.00  0.00     0.135 A 
ATOM     76  C   UNL A   1      35.390  32.741  31.200  1.00  0.00     0.135 A 
ATOM     77  F   UNL A   1      38.214  34.206  29.438  1.00  0.00    -0.206 F 
ATOM     78  C   UNL A   1      35.914  34.579  29.173  1.00  0.00     0.059 A 
ATOM     79  C   UNL A   1      34.326  33.372  30.559  1.00  0.00     0.059 A 
ATOM     80  F   UNL A   1      35.114  31.863  32.175  1.00  0.00    -0.206 F 
ATOM     81  C   UNL A   1      34.601  34.304  29.559  1.00  0.00     0.060 A 
BRANCH  81  82
ATOM     82  S   UNL A   1      33.264  35.197  28.737  1.00  0.00     0.124 S 
ATOM     83  O   UNL A   1      34.008  36.176  27.951  1.00  0.00    -0.237 OA
ATOM     84  O   UNL A   1      32.612  34.136  27.978  1.00  0.00    -0.237 OA
ATOM     85  O   UNL A   1      32.489  35.741  29.847  1.00  0.00    -0.744 OA
ENDBRANCH  81  82
ENDBRANCH  49  74
BRANCH  61  86
ATOM     86  C   UNL A   1      39.627  33.970  37.138  1.00  0.00     0.058 A 
ATOM     87  C   UNL A   1      40.201  35.252  37.133  1.00  0.00     0.135 A 
ATOM     88  C   UNL A   1      38.888  33.586  38.267  1.00  0.00     0.135 A 
ATOM     89  F   UNL A   1      40.920  35.668  36.079  1.00  0.00    -0.206 F 
ATOM     90  C   UNL A   1      40.080  36.106  38.224  1.00  0.00     0.059 A 
ATOM     91  C   UNL A   1      38.730  34.436  39.358  1.00  0.00     0.059 A 
ATOM     92  F   UNL A   1      38.310  32.376  38.315  1.00  0.00    -0.206 F 
ATOM     93  C   UNL A   1      39.348  35.687  39.335  1.00  0.00     0.060 A 
BRANCH  93  94
ATOM     94  S   UNL A   1      39.216  36.802  40.747  1.00  0.00     0.124 S 
ATOM     95  O   UNL A   1      38.540  37.953  40.157  1.00  0.00    -0.237 OA
ATOM     96  O   UNL A   1      38.425  36.015  41.687  1.00  0.00    -0.237 OA
ATOM     97  O   UNL A   1      40.605  37.023  41.138  1.00  0.00    -0.744 OA
ENDBRANCH  93  94
ENDBRANCH  61  86
ENDBRANCH  35  36
ENDBRANCH  27  30
ENDBRANCH  25  26
ENDBRANCH   1  25
TORSDOF 15
ENDMDL
MODEL 3
REMARK VINA RESULT:     -12.1      3.610      8.261
REMARK SMILES O=C(Nc1cccc(F)c1)N[C@@H]1C=C[C@@H](C(=O)NCCCNC(=O)c2ccc(-c3c4nc(c(-c5c(F)cc(S(=O)(=O)[O-])cc5F)c5ccc([nH]5)c(-c5c(F)cc(S(=O)(=O)[O-])cc5F)c5nc(c(-c6c(F)cc(S(=O)(=O)[O-])cc6F)c6ccc3[nH]6)C=C5)C=C4)cc2)C1
REMARK SMILES IDX 20 1 19 2 18 3 16 4 17 5 15 7 12 8 13 9 91 10 14 11 11 12
REMARK SMILES IDX 1 13 2 14 3 15 4 18 5 19 10 20 6 21 8 22 7 23 9 24 21 25
REMARK SMILES IDX 22 26 23 27 24 29 25 30 26 31 90 32 27 33 89 34 28 35 29 36
REMARK SMILES IDX 30 37 83 38 31 39 88 40 82 41 84 42 32 43 87 44 81 45 80 46
REMARK SMILES IDX 33 48 67 49 46 50 66 51 47 52 50 53 65 54 85 55 48 56 49 57
REMARK SMILES IDX 64 59 86 60 51 61 34 62 35 63 44 64 36 65 37 66 43 67 45 68
REMARK SMILES IDX 38 69 39 70 40 71 41 72 42 73 68 74 69 75 78 76 70 77 71 78
REMARK SMILES IDX 77 79 79 80 72 81 73 82 74 83 75 84 76 85 52 86 53 87 62 88
REMARK SMILES IDX 54 89 55 90 61 91 63 92 56 93 57 94 58 95 59 96 60 97
REMARK H PARENT 18 6 3 16 11 17 22 28 84 47 50 58
REMARK Flexibility Score: inf
ROOT
ATOM      1  C   UNL A   1      37.742  20.665  24.938  1.00  0.00     0.042 C 
ENDROOT
BRANCH   1   2
ATOM      2  C   UNL A   1      36.450  21.337  25.388  1.00  0.00     0.117 C 
BRANCH   2   3
ATOM      3  N   UNL A   1      35.298  20.463  25.261  1.00  0.00    -0.356 N 
ATOM      4  C   UNL A   1      34.003  20.722  24.930  1.00  0.00     0.227 C 
ATOM      5  O   UNL A   1      33.246  19.748  24.849  1.00  0.00    -0.274 OA
ATOM      6  H   UNL A   1      35.486  19.515  25.449  1.00  0.00     0.163 HD
BRANCH   4   7
ATOM      7  C   UNL A   1      33.485  22.131  24.647  1.00  0.00     0.103 C 
ATOM      8  C   UNL A   1      32.456  23.317  22.771  1.00  0.00     0.107 C 
ATOM      9  C   UNL A   1      31.443  22.920  23.791  1.00  0.00    -0.006 C 
ATOM     10  C   UNL A   1      33.758  22.644  23.227  1.00  0.00     0.047 C 
ATOM     11  C   UNL A   1      31.998  22.259  24.814  1.00  0.00    -0.016 C 
BRANCH   8  12
ATOM     12  N   UNL A   1      32.485  24.754  22.656  1.00  0.00    -0.332 N 
ATOM     13  O   UNL A   1      33.271  24.992  20.510  1.00  0.00    -0.248 OA
ATOM     14  C   UNL A   1      32.901  25.475  21.575  1.00  0.00     0.319 C 
ATOM     15  N   UNL A   1      32.745  26.829  21.678  1.00  0.00    -0.308 N 
ATOM     16  H   UNL A   1      32.639  27.305  20.822  1.00  0.00     0.171 HD
ATOM     17  H   UNL A   1      32.172  25.267  23.437  1.00  0.00     0.165 HD
BRANCH  15  18
ATOM     18  C   UNL A   1      32.712  27.643  22.820  1.00  0.00     0.045 A 
ATOM     19  C   UNL A   1      33.813  27.773  23.676  1.00  0.00     0.026 A 
ATOM     20  C   UNL A   1      31.556  28.383  23.065  1.00  0.00     0.065 A 
ATOM     21  C   UNL A   1      33.742  28.603  24.798  1.00  0.00     0.005 A 
ATOM     22  C   UNL A   1      31.489  29.188  24.197  1.00  0.00     0.125 A 
ATOM     23  C   UNL A   1      32.568  29.303  25.066  1.00  0.00     0.039 A 
ATOM     24  F   UNL A   1      30.362  29.863  24.456  1.00  0.00    -0.207 F 
ENDBRANCH  15  18
ENDBRANCH   8  12
ENDBRANCH   4   7
ENDBRANCH   2   3
ENDBRANCH   1   2
BRANCH   1  25
ATOM     25  C   UNL A   1      38.933  20.956  25.840  1.00  0.00     0.118 C 
BRANCH  25  26
ATOM     26  N   UNL A   1      39.821  19.809  25.973  1.00  0.00    -0.352 N 
ATOM     27  C   UNL A   1      41.185  19.766  26.120  1.00  0.00     0.251 C 
ATOM     28  H   UNL A   1      39.376  18.931  25.955  1.00  0.00     0.163 HD
ATOM     29  O   UNL A   1      41.775  18.695  25.995  1.00  0.00    -0.269 OA
BRANCH  27  30
ATOM     30  C   UNL A   1      41.943  21.003  26.406  1.00  0.00     0.039 A 
ATOM     31  C   UNL A   1      42.284  21.850  25.349  1.00  0.00     0.014 A 
ATOM     32  C   UNL A   1      42.323  21.326  27.712  1.00  0.00     0.014 A 
ATOM     33  C   UNL A   1      42.936  23.057  25.612  1.00  0.00     0.010 A 
ATOM     34  C   UNL A   1      42.892  22.566  27.981  1.00  0.00     0.010 A 
ATOM     35  C   UNL A   1      43.205  23.446  26.935  1.00  0.00    -0.014 A 
BRANCH  35  36
ATOM     36  C   UNL A   1      43.798  24.771  27.250  1.00  0.00     0.031 A 
ATOM     37  C   UNL A   1      42.927  25.885  27.765  1.00  0.00     0.074 A 
ATOM     38  C   UNL A   1      45.105  24.992  27.001  1.00  0.00     0.049 A 
ATOM     39  N   UNL A   1      43.238  27.132  28.002  1.00  0.00    -0.248 NA
ATOM     40  C   UNL A   1      41.515  25.559  28.028  1.00  0.00     0.031 C 
ATOM     41  C   UNL A   1      46.041  24.002  26.466  1.00  0.00     0.029 A 
ATOM     42  N   UNL A   1      45.870  26.121  27.153  1.00  0.00    -0.354 N 
ATOM     43  C   UNL A   1      42.065  27.742  28.429  1.00  0.00     0.074 A 
ATOM     44  C   UNL A   1      41.023  26.742  28.369  1.00  0.00     0.031 C 
ATOM     45  C   UNL A   1      47.259  24.558  26.360  1.00  0.00     0.029 A 
ATOM     46  C   UNL A   1      47.180  25.958  26.768  1.00  0.00     0.049 A 
ATOM     47  H   UNL A   1      45.515  26.970  27.504  1.00  0.00     0.167 HD
ATOM     48  C   UNL A   1      41.882  29.013  28.856  1.00  0.00     0.037 A 
ATOM     49  C   UNL A   1      48.203  26.837  26.733  1.00  0.00     0.037 A 
ATOM     50  C   UNL A   1      42.932  29.994  28.935  1.00  0.00     0.049 A 
ATOM     51  C   UNL A   1      47.967  28.251  27.186  1.00  0.00     0.074 A 
ATOM     52  C   UNL A   1      42.857  31.294  29.405  1.00  0.00     0.029 A 
ATOM     53  N   UNL A   1      44.245  29.789  28.537  1.00  0.00    -0.354 N 
ATOM     54  N   UNL A   1      46.862  28.798  27.634  1.00  0.00    -0.248 NA
ATOM     55  C   UNL A   1      49.111  29.172  27.127  1.00  0.00     0.031 C 
ATOM     56  C   UNL A   1      44.109  31.890  29.240  1.00  0.00     0.029 A 
ATOM     57  C   UNL A   1      44.982  30.947  28.723  1.00  0.00     0.049 A 
ATOM     58  H   UNL A   1      44.600  28.945  28.174  1.00  0.00     0.167 HD
ATOM     59  C   UNL A   1      47.183  30.116  27.933  1.00  0.00     0.074 A 
ATOM     60  C   UNL A   1      48.588  30.285  27.625  1.00  0.00     0.031 C 
ATOM     61  C   UNL A   1      46.383  31.098  28.419  1.00  0.00     0.037 A 
BRANCH  48  62
ATOM     62  C   UNL A   1      40.499  29.423  29.286  1.00  0.00     0.058 A 
ATOM     63  C   UNL A   1      39.491  29.641  28.334  1.00  0.00     0.135 A 
ATOM     64  C   UNL A   1      40.193  29.675  30.633  1.00  0.00     0.135 A 
ATOM     65  F   UNL A   1      39.726  29.410  27.033  1.00  0.00    -0.206 F 
ATOM     66  C   UNL A   1      38.234  30.115  28.700  1.00  0.00     0.059 A 
ATOM     67  C   UNL A   1      38.935  30.121  31.025  1.00  0.00     0.059 A 
ATOM     68  F   UNL A   1      41.115  29.463  31.587  1.00  0.00    -0.206 F 
ATOM     69  C   UNL A   1      37.967  30.354  30.048  1.00  0.00     0.060 A 
BRANCH  69  70
ATOM     70  S   UNL A   1      36.326  30.951  30.508  1.00  0.00     0.124 S 
ATOM     71  O   UNL A   1      35.607  30.860  29.243  1.00  0.00    -0.237 OA
ATOM     72  O   UNL A   1      35.931  29.993  31.536  1.00  0.00    -0.237 OA
ATOM     73  O   UNL A   1      36.581  32.305  30.991  1.00  0.00    -0.744 OA
ENDBRANCH  69  70
ENDBRANCH  48  62
BRANCH  49  74
ATOM     74  C   UNL A   1      49.544  26.388  26.269  1.00  0.00     0.058 A 
ATOM     75  C   UNL A   1      50.384  25.624  27.092  1.00  0.00     0.135 A 
ATOM     76  C   UNL A   1      50.028  26.757  25.004  1.00  0.00     0.135 A 
ATOM     77  F   UNL A   1      49.976  25.254  28.316  1.00  0.00    -0.206 F 
ATOM     78  C   UNL A   1      51.668  25.268  26.693  1.00  0.00     0.059 A 
ATOM     79  C   UNL A   1      51.299  26.389  24.571  1.00  0.00     0.059 A 
ATOM     80  F   UNL A   1      49.257  27.477  24.176  1.00  0.00    -0.206 F 
ATOM     81  C   UNL A   1      52.119  25.660  25.432  1.00  0.00     0.060 A 
BRANCH  81  82
ATOM     82  S   UNL A   1      53.798  25.209  24.946  1.00  0.00     0.124 S 
ATOM     83  O   UNL A   1      53.672  23.766  24.767  1.00  0.00    -0.237 OA
ATOM     84  O   UNL A   1      53.980  25.986  23.724  1.00  0.00    -0.237 OA
ATOM     85  O   UNL A   1      54.605  25.634  26.084  1.00  0.00    -0.744 OA
ENDBRANCH  81  82
ENDBRANCH  49  74
BRANCH  61  86
ATOM     86  C   UNL A   1      46.998  32.448  28.673  1.00  0.00     0.058 A 
ATOM     87  C   UNL A   1      47.495  32.773  29.946  1.00  0.00     0.135 A 
ATOM     88  C   UNL A   1      46.998  33.452  27.693  1.00  0.00     0.135 A 
ATOM     89  F   UNL A   1      47.514  31.850  30.921  1.00  0.00    -0.206 F 
ATOM     90  C   UNL A   1      47.939  34.055  30.248  1.00  0.00     0.059 A 
ATOM     91  C   UNL A   1      47.466  34.735  27.964  1.00  0.00     0.059 A 
ATOM     92  F   UNL A   1      46.546  33.189  26.457  1.00  0.00    -0.206 F 
ATOM     93  C   UNL A   1      47.914  35.032  29.252  1.00  0.00     0.060 A 
BRANCH  93  94
ATOM     94  S   UNL A   1      48.479  36.695  29.666  1.00  0.00     0.124 S 
ATOM     95  O   UNL A   1      47.762  36.954  30.910  1.00  0.00    -0.237 OA
ATOM     96  O   UNL A   1      49.921  36.506  29.792  1.00  0.00    -0.237 OA
ATOM     97  O   UNL A   1      48.056  37.494  28.521  1.00  0.00    -0.744 OA
ENDBRANCH  93  94
ENDBRANCH  61  86
ENDBRANCH  35  36
ENDBRANCH  27  30
ENDBRANCH  25  26
ENDBRANCH   1  25
TORSDOF 15
ENDMDL
