MODEL 1
REMARK VINA RESULT:     -12.9      0.000      0.000
REMARK SMILES Cc1cccc2nc(C(=O)NCC(=O)NCCCNC(=O)c3ccc(-c4c5nc(c(-c6c(F)cc(S(=O)(=O)[O-])cc6F)c6ccc([nH]6)c(-c6c(F)cc(S(=O)(=O)[O-])cc6F)c6nc(c(-c7c(F)cc(S(=O)(=O)[O-])cc7F)c7ccc4[nH]7)C=C6)C=C5)cc3)cn12
REMARK SMILES IDX 17 1 16 2 15 3 13 4 14 5 12 7 11 8 9 9 10 10 8 12 1 13 2 14
REMARK SMILES IDX 3 15 89 16 4 17 6 18 88 19 5 20 7 21 18 22 19 23 20 24 21 26
REMARK SMILES IDX 22 27 23 28 87 29 24 30 86 31 25 32 26 33 27 34 80 35 28 36
REMARK SMILES IDX 85 37 79 38 81 39 29 40 84 41 78 42 77 43 30 45 64 46 43 47
REMARK SMILES IDX 63 48 44 49 47 50 62 51 82 52 45 53 46 54 61 56 83 57 48 58
REMARK SMILES IDX 31 59 32 60 41 61 33 62 34 63 40 64 42 65 35 66 36 67 37 68
REMARK SMILES IDX 38 69 39 70 65 71 66 72 75 73 67 74 68 75 74 76 76 77 69 78
REMARK SMILES IDX 70 79 71 80 72 81 73 82 49 83 50 84 59 85 51 86 52 87 58 88
REMARK SMILES IDX 60 89 53 90 54 91 55 92 56 93 57 94
REMARK H PARENT 15 6 11 11 19 25 81 44 47 55
REMARK Flexibility Score: inf
ROOT
ATOM      1  C   UNL A   1      36.936  22.121  24.657  1.00  0.00     0.042 C 
ENDROOT
BRANCH   1   2
ATOM      2  C   UNL A   1      35.758  21.331  25.230  1.00  0.00     0.117 C 
BRANCH   2   3
ATOM      3  N   UNL A   1      35.339  21.809  26.532  1.00  0.00    -0.355 N 
ATOM      4  C   UNL A   1      34.096  22.176  26.959  1.00  0.00     0.239 C 
ATOM      5  O   UNL A   1      33.937  22.369  28.167  1.00  0.00    -0.273 OA
ATOM      6  H   UNL A   1      36.054  21.879  27.206  1.00  0.00     0.163 HD
BRANCH   4   7
ATOM      7  C   UNL A   1      32.901  22.212  26.000  1.00  0.00     0.216 C 
BRANCH   7   8
ATOM      8  N   UNL A   1      31.603  22.328  26.652  1.00  0.00    -0.342 N 
ATOM      9  C   UNL A   1      30.731  23.379  26.766  1.00  0.00     0.271 C 
ATOM     10  O   UNL A   1      29.675  23.182  27.380  1.00  0.00    -0.267 OA
ATOM     11  H   UNL A   1      31.296  21.502  27.090  1.00  0.00     0.164 HD
BRANCH   9  12
ATOM     12  C   UNL A   1      31.061  24.709  26.240  1.00  0.00     0.147 A 
ATOM     13  C   UNL A   1      31.113  26.755  22.353  1.00  0.00     0.065 C 
ATOM     14  C   UNL A   1      31.316  27.286  23.738  1.00  0.00     0.021 A 
ATOM     15  C   UNL A   1      31.531  28.597  23.980  1.00  0.00     0.022 A 
ATOM     16  N   UNL A   1      31.274  26.412  24.840  1.00  0.00    -0.304 N 
ATOM     17  C   UNL A   1      31.710  29.062  25.345  1.00  0.00     0.006 A 
ATOM     18  C   UNL A   1      31.453  26.829  26.155  1.00  0.00     0.137 A 
ATOM     19  C   UNL A   1      31.039  25.060  24.901  1.00  0.00     0.127 A 
ATOM     20  C   UNL A   1      31.674  28.213  26.387  1.00  0.00     0.048 A 
ATOM     21  N   UNL A   1      31.359  25.825  26.998  1.00  0.00    -0.223 NA
ENDBRANCH   9  12
ENDBRANCH   7   8
ENDBRANCH   4   7
ENDBRANCH   2   3
ENDBRANCH   1   2
BRANCH   1  22
ATOM     22  C   UNL A   1      37.763  22.761  25.761  1.00  0.00     0.118 C 
BRANCH  22  23
ATOM     23  N   UNL A   1      38.893  21.920  26.154  1.00  0.00    -0.352 N 
ATOM     24  C   UNL A   1      40.140  22.294  26.601  1.00  0.00     0.251 C 
ATOM     25  H   UNL A   1      38.740  20.949  26.091  1.00  0.00     0.163 HD
ATOM     26  O   UNL A   1      41.065  21.489  26.555  1.00  0.00    -0.269 OA
BRANCH  24  27
ATOM     27  C   UNL A   1      40.355  23.650  27.139  1.00  0.00     0.039 A 
ATOM     28  C   UNL A   1      39.456  24.679  26.843  1.00  0.00     0.014 A 
ATOM     29  C   UNL A   1      41.496  23.909  27.901  1.00  0.00     0.014 A 
ATOM     30  C   UNL A   1      39.693  25.952  27.354  1.00  0.00     0.010 A 
ATOM     31  C   UNL A   1      41.669  25.129  28.506  1.00  0.00     0.010 A 
ATOM     32  C   UNL A   1      40.801  26.163  28.188  1.00  0.00    -0.014 A 
BRANCH  32  33
ATOM     33  C   UNL A   1      40.996  27.438  28.859  1.00  0.00     0.031 A 
ATOM     34  C   UNL A   1      42.064  28.263  28.241  1.00  0.00     0.074 A 
ATOM     35  C   UNL A   1      40.154  27.918  29.798  1.00  0.00     0.049 A 
ATOM     36  N   UNL A   1      43.255  28.459  28.697  1.00  0.00    -0.248 NA
ATOM     37  C   UNL A   1      41.866  28.760  26.869  1.00  0.00     0.031 C 
ATOM     38  C   UNL A   1      38.889  27.344  30.266  1.00  0.00     0.029 A 
ATOM     39  N   UNL A   1      40.215  29.091  30.482  1.00  0.00    -0.354 N 
ATOM     40  C   UNL A   1      43.854  29.342  27.807  1.00  0.00     0.074 A 
ATOM     41  C   UNL A   1      43.065  29.285  26.605  1.00  0.00     0.031 C 
ATOM     42  C   UNL A   1      38.207  28.270  30.979  1.00  0.00     0.029 A 
ATOM     43  C   UNL A   1      39.044  29.445  31.148  1.00  0.00     0.049 A 
ATOM     44  H   UNL A   1      41.026  29.649  30.504  1.00  0.00     0.167 HD
ATOM     45  C   UNL A   1      44.764  30.256  28.246  1.00  0.00     0.037 A 
ATOM     46  C   UNL A   1      38.786  30.631  31.765  1.00  0.00     0.037 A 
ATOM     47  C   UNL A   1      45.216  29.927  29.578  1.00  0.00     0.049 A 
ATOM     48  C   UNL A   1      40.109  31.253  32.053  1.00  0.00     0.074 A 
ATOM     49  C   UNL A   1      45.802  28.817  30.159  1.00  0.00     0.029 A 
ATOM     50  N   UNL A   1      44.706  30.667  30.621  1.00  0.00    -0.354 N 
ATOM     51  N   UNL A   1      40.972  30.753  32.897  1.00  0.00    -0.248 NA
ATOM     52  C   UNL A   1      40.666  32.140  31.044  1.00  0.00     0.031 C 
ATOM     53  C   UNL A   1      45.185  28.701  31.439  1.00  0.00     0.029 A 
ATOM     54  C   UNL A   1      44.329  29.791  31.605  1.00  0.00     0.049 A 
ATOM     55  H   UNL A   1      44.626  31.648  30.653  1.00  0.00     0.167 HD
ATOM     56  C   UNL A   1      42.201  30.895  32.270  1.00  0.00     0.074 A 
ATOM     57  C   UNL A   1      41.959  31.823  31.165  1.00  0.00     0.031 C 
ATOM     58  C   UNL A   1      43.228  30.026  32.515  1.00  0.00     0.037 A 
BRANCH  45  59
ATOM     59  C   UNL A   1      44.929  31.648  27.676  1.00  0.00     0.058 A 
ATOM     60  C   UNL A   1      46.140  31.973  27.028  1.00  0.00     0.135 A 
ATOM     61  C   UNL A   1      44.097  32.746  27.989  1.00  0.00     0.135 A 
ATOM     62  F   UNL A   1      47.008  31.010  26.678  1.00  0.00    -0.206 F 
ATOM     63  C   UNL A   1      46.538  33.290  26.803  1.00  0.00     0.059 A 
ATOM     64  C   UNL A   1      44.450  34.063  27.721  1.00  0.00     0.059 A 
ATOM     65  F   UNL A   1      42.945  32.615  28.655  1.00  0.00    -0.206 F 
ATOM     66  C   UNL A   1      45.691  34.329  27.169  1.00  0.00     0.060 A 
BRANCH  66  67
ATOM     67  S   UNL A   1      46.245  36.029  26.972  1.00  0.00     0.124 S 
ATOM     68  O   UNL A   1      46.994  35.947  25.724  1.00  0.00    -0.237 OA
ATOM     69  O   UNL A   1      44.977  36.749  26.912  1.00  0.00    -0.237 OA
ATOM     70  O   UNL A   1      47.038  36.265  28.174  1.00  0.00    -0.744 OA
ENDBRANCH  66  67
ENDBRANCH  45  59
BRANCH  46  71
ATOM     71  C   UNL A   1      37.512  31.409  31.794  1.00  0.00     0.058 A 
ATOM     72  C   UNL A   1      36.861  31.701  33.011  1.00  0.00     0.135 A 
ATOM     73  C   UNL A   1      37.060  32.134  30.672  1.00  0.00     0.135 A 
ATOM     74  F   UNL A   1      37.227  31.072  34.138  1.00  0.00    -0.206 F 
ATOM     75  C   UNL A   1      35.877  32.692  33.120  1.00  0.00     0.059 A 
ATOM     76  C   UNL A   1      36.075  33.119  30.755  1.00  0.00     0.059 A 
ATOM     77  F   UNL A   1      37.630  31.973  29.468  1.00  0.00    -0.206 F 
ATOM     78  C   UNL A   1      35.508  33.417  31.987  1.00  0.00     0.060 A 
BRANCH  78  79
ATOM     79  S   UNL A   1      34.378  34.823  32.152  1.00  0.00     0.124 S 
ATOM     80  O   UNL A   1      35.198  35.789  32.872  1.00  0.00    -0.237 OA
ATOM     81  O   UNL A   1      34.085  35.147  30.759  1.00  0.00    -0.237 OA
ATOM     82  O   UNL A   1      33.257  34.269  32.907  1.00  0.00    -0.744 OA
ENDBRANCH  78  79
ENDBRANCH  46  71
BRANCH  58  83
ATOM     83  C   UNL A   1      43.126  29.090  33.693  1.00  0.00     0.058 A 
ATOM     84  C   UNL A   1      43.430  29.436  35.023  1.00  0.00     0.135 A 
ATOM     85  C   UNL A   1      42.512  27.847  33.481  1.00  0.00     0.135 A 
ATOM     86  F   UNL A   1      43.928  30.642  35.327  1.00  0.00    -0.206 F 
ATOM     87  C   UNL A   1      43.158  28.570  36.087  1.00  0.00     0.059 A 
ATOM     88  C   UNL A   1      42.204  26.983  34.527  1.00  0.00     0.059 A 
ATOM     89  F   UNL A   1      42.145  27.482  32.241  1.00  0.00    -0.206 F 
ATOM     90  C   UNL A   1      42.538  27.347  35.829  1.00  0.00     0.060 A 
BRANCH  90  91
ATOM     91  S   UNL A   1      42.113  26.263  37.209  1.00  0.00     0.124 S 
ATOM     92  O   UNL A   1      43.138  26.596  38.191  1.00  0.00    -0.237 OA
ATOM     93  O   UNL A   1      40.756  26.689  37.539  1.00  0.00    -0.237 OA
ATOM     94  O   UNL A   1      42.212  24.922  36.635  1.00  0.00    -0.744 OA
ENDBRANCH  90  91
ENDBRANCH  58  83
ENDBRANCH  32  33
ENDBRANCH  24  27
ENDBRANCH  22  23
ENDBRANCH   1  22
TORSDOF 15
ENDMDL
MODEL 2
REMARK VINA RESULT:     -12.8      3.638      5.588
REMARK SMILES Cc1cccc2nc(C(=O)NCC(=O)NCCCNC(=O)c3ccc(-c4c5nc(c(-c6c(F)cc(S(=O)(=O)[O-])cc6F)c6ccc([nH]6)c(-c6c(F)cc(S(=O)(=O)[O-])cc6F)c6nc(c(-c7c(F)cc(S(=O)(=O)[O-])cc7F)c7ccc4[nH]7)C=C6)C=C5)cc3)cn12
REMARK SMILES IDX 17 1 16 2 15 3 13 4 14 5 12 7 11 8 9 9 10 10 8 12 1 13 2 14
REMARK SMILES IDX 3 15 89 16 4 17 6 18 88 19 5 20 7 21 18 22 19 23 20 24 21 26
REMARK SMILES IDX 22 27 23 28 87 29 24 30 86 31 25 32 26 33 27 34 80 35 28 36
REMARK SMILES IDX 85 37 79 38 81 39 29 40 84 41 78 42 77 43 30 45 64 46 43 47
REMARK SMILES IDX 63 48 44 49 47 50 62 51 82 52 45 53 46 54 61 56 83 57 48 58
REMARK SMILES IDX 31 59 32 60 41 61 33 62 34 63 40 64 42 65 35 66 36 67 37 68
REMARK SMILES IDX 38 69 39 70 65 71 66 72 75 73 67 74 68 75 74 76 76 77 69 78
REMARK SMILES IDX 70 79 71 80 72 81 73 82 49 83 50 84 59 85 51 86 52 87 58 88
REMARK SMILES IDX 60 89 53 90 54 91 55 92 56 93 57 94
REMARK H PARENT 15 6 11 11 19 25 81 44 47 55
REMARK Flexibility Score: inf
ROOT
ATOM      1  C   UNL A   1      46.506  23.158  24.986  1.00  0.00     0.042 C 
ENDROOT
BRANCH   1   2
ATOM      2  C   UNL A   1      46.022  21.876  25.667  1.00  0.00     0.117 C 
BRANCH   2   3
ATOM      3  N   UNL A   1      46.255  20.690  24.868  1.00  0.00    -0.355 N 
ATOM      4  C   UNL A   1      45.375  19.723  24.480  1.00  0.00     0.239 C 
ATOM      5  O   UNL A   1      45.754  18.903  23.640  1.00  0.00    -0.273 OA
ATOM      6  H   UNL A   1      47.183  20.564  24.560  1.00  0.00     0.163 HD
BRANCH   4   7
ATOM      7  C   UNL A   1      43.919  19.729  24.960  1.00  0.00     0.216 C 
BRANCH   7   8
ATOM      8  N   UNL A   1      43.695  19.050  26.230  1.00  0.00    -0.342 N 
ATOM      9  C   UNL A   1      42.570  18.900  26.998  1.00  0.00     0.271 C 
ATOM     10  O   UNL A   1      42.675  18.250  28.045  1.00  0.00    -0.267 OA
ATOM     11  H   UNL A   1      44.498  18.621  26.605  1.00  0.00     0.164 HD
BRANCH   9  12
ATOM     12  C   UNL A   1      41.301  19.540  26.631  1.00  0.00     0.147 A 
ATOM     13  C   UNL A   1      39.348  23.440  27.156  1.00  0.00     0.065 C 
ATOM     14  C   UNL A   1      38.949  22.250  26.339  1.00  0.00     0.021 A 
ATOM     15  C   UNL A   1      37.843  22.250  25.563  1.00  0.00     0.022 A 
ATOM     16  N   UNL A   1      39.742  21.089  26.353  1.00  0.00    -0.304 N 
ATOM     17  C   UNL A   1      37.507  21.073  24.780  1.00  0.00     0.006 A 
ATOM     18  C   UNL A   1      39.438  19.944  25.622  1.00  0.00     0.137 A 
ATOM     19  C   UNL A   1      40.922  20.819  27.004  1.00  0.00     0.127 A 
ATOM     20  C   UNL A   1      38.273  19.968  24.810  1.00  0.00     0.048 A 
ATOM     21  N   UNL A   1      40.338  19.004  25.798  1.00  0.00    -0.223 NA
ENDBRANCH   9  12
ENDBRANCH   7   8
ENDBRANCH   4   7
ENDBRANCH   2   3
ENDBRANCH   1   2
BRANCH   1  22
ATOM     22  C   UNL A   1      45.359  24.130  24.757  1.00  0.00     0.118 C 
BRANCH  22  23
ATOM     23  N   UNL A   1      44.106  23.436  24.465  1.00  0.00    -0.352 N 
ATOM     24  C   UNL A   1      42.898  23.512  25.121  1.00  0.00     0.251 C 
ATOM     25  H   UNL A   1      44.129  22.828  23.691  1.00  0.00     0.163 HD
ATOM     26  O   UNL A   1      42.067  22.623  24.965  1.00  0.00    -0.269 OA
BRANCH  24  27
ATOM     27  C   UNL A   1      42.604  24.663  25.997  1.00  0.00     0.039 A 
ATOM     28  C   UNL A   1      43.057  24.677  27.320  1.00  0.00     0.014 A 
ATOM     29  C   UNL A   1      41.822  25.710  25.508  1.00  0.00     0.014 A 
ATOM     30  C   UNL A   1      42.753  25.770  28.126  1.00  0.00     0.010 A 
ATOM     31  C   UNL A   1      41.622  26.841  26.260  1.00  0.00     0.010 A 
ATOM     32  C   UNL A   1      42.037  26.848  27.583  1.00  0.00    -0.014 A 
BRANCH  32  33
ATOM     33  C   UNL A   1      41.832  28.066  28.349  1.00  0.00     0.031 A 
ATOM     34  C   UNL A   1      42.921  29.059  28.165  1.00  0.00     0.074 A 
ATOM     35  C   UNL A   1      40.677  28.360  28.981  1.00  0.00     0.049 A 
ATOM     36  N   UNL A   1      43.865  29.339  29.000  1.00  0.00    -0.248 NA
ATOM     37  C   UNL A   1      43.110  29.659  26.834  1.00  0.00     0.031 C 
ATOM     38  C   UNL A   1      39.417  27.609  28.971  1.00  0.00     0.029 A 
ATOM     39  N   UNL A   1      40.356  29.463  29.708  1.00  0.00    -0.354 N 
ATOM     40  C   UNL A   1      44.594  30.363  28.407  1.00  0.00     0.074 A 
ATOM     41  C   UNL A   1      44.249  30.334  27.011  1.00  0.00     0.031 C 
ATOM     42  C   UNL A   1      38.425  28.383  29.467  1.00  0.00     0.029 A 
ATOM     43  C   UNL A   1      38.997  29.622  29.966  1.00  0.00     0.049 A 
ATOM     44  H   UNL A   1      41.034  30.102  30.028  1.00  0.00     0.167 HD
ATOM     45  C   UNL A   1      45.182  31.325  29.171  1.00  0.00     0.037 A 
ATOM     46  C   UNL A   1      38.397  30.708  30.526  1.00  0.00     0.037 A 
ATOM     47  C   UNL A   1      45.222  30.922  30.559  1.00  0.00     0.049 A 
ATOM     48  C   UNL A   1      39.460  31.441  31.269  1.00  0.00     0.074 A 
ATOM     49  C   UNL A   1      45.733  29.833  31.240  1.00  0.00     0.029 A 
ATOM     50  N   UNL A   1      44.309  31.499  31.411  1.00  0.00    -0.354 N 
ATOM     51  N   UNL A   1      40.065  30.960  32.323  1.00  0.00    -0.248 NA
ATOM     52  C   UNL A   1      40.188  32.476  30.552  1.00  0.00     0.031 C 
ATOM     53  C   UNL A   1      44.758  29.529  32.235  1.00  0.00     0.029 A 
ATOM     54  C   UNL A   1      43.756  30.498  32.167  1.00  0.00     0.049 A 
ATOM     55  H   UNL A   1      44.091  32.458  31.468  1.00  0.00     0.167 HD
ATOM     56  C   UNL A   1      41.400  31.294  32.148  1.00  0.00     0.074 A 
ATOM     57  C   UNL A   1      41.403  32.292  31.077  1.00  0.00     0.031 C 
ATOM     58  C   UNL A   1      42.399  30.523  32.671  1.00  0.00     0.037 A 
BRANCH  45  59
ATOM     59  C   UNL A   1      45.334  32.775  28.765  1.00  0.00     0.058 A 
ATOM     60  C   UNL A   1      46.603  33.380  28.883  1.00  0.00     0.135 A 
ATOM     61  C   UNL A   1      44.257  33.664  28.552  1.00  0.00     0.135 A 
ATOM     62  F   UNL A   1      47.701  32.633  29.081  1.00  0.00    -0.206 F 
ATOM     63  C   UNL A   1      46.774  34.763  28.893  1.00  0.00     0.059 A 
ATOM     64  C   UNL A   1      44.414  35.044  28.501  1.00  0.00     0.059 A 
ATOM     65  F   UNL A   1      42.985  33.257  28.478  1.00  0.00    -0.206 F 
ATOM     66  C   UNL A   1      45.669  35.587  28.718  1.00  0.00     0.060 A 
BRANCH  66  67
ATOM     67  S   UNL A   1      45.871  37.371  28.830  1.00  0.00     0.124 S 
ATOM     68  O   UNL A   1      47.293  37.520  28.541  1.00  0.00    -0.237 OA
ATOM     69  O   UNL A   1      44.954  37.840  27.796  1.00  0.00    -0.237 OA
ATOM     70  O   UNL A   1      45.469  37.668  30.201  1.00  0.00    -0.744 OA
ENDBRANCH  66  67
ENDBRANCH  45  59
BRANCH  46  71
ATOM     71  C   UNL A   1      37.089  31.337  30.174  1.00  0.00     0.058 A 
ATOM     72  C   UNL A   1      36.221  31.827  31.171  1.00  0.00     0.135 A 
ATOM     73  C   UNL A   1      36.790  31.736  28.855  1.00  0.00     0.135 A 
ATOM     74  F   UNL A   1      36.429  31.512  32.458  1.00  0.00    -0.206 F 
ATOM     75  C   UNL A   1      35.170  32.710  30.887  1.00  0.00     0.059 A 
ATOM     76  C   UNL A   1      35.743  32.607  28.547  1.00  0.00     0.059 A 
ATOM     77  F   UNL A   1      37.567  31.366  27.826  1.00  0.00    -0.206 F 
ATOM     78  C   UNL A   1      34.955  33.116  29.571  1.00  0.00     0.060 A 
BRANCH  78  79
ATOM     79  S   UNL A   1      33.724  34.397  29.218  1.00  0.00     0.124 S 
ATOM     80  O   UNL A   1      34.534  35.431  28.585  1.00  0.00    -0.237 OA
ATOM     81  O   UNL A   1      32.791  33.694  28.345  1.00  0.00    -0.237 OA
ATOM     82  O   UNL A   1      33.201  34.737  30.539  1.00  0.00    -0.744 OA
ENDBRANCH  78  79
ENDBRANCH  46  71
BRANCH  58  83
ATOM     83  C   UNL A   1      42.050  29.475  33.697  1.00  0.00     0.058 A 
ATOM     84  C   UNL A   1      41.638  28.163  33.397  1.00  0.00     0.135 A 
ATOM     85  C   UNL A   1      42.331  29.764  35.040  1.00  0.00     0.135 A 
ATOM     86  F   UNL A   1      41.442  27.772  32.131  1.00  0.00    -0.206 F 
ATOM     87  C   UNL A   1      41.487  27.195  34.395  1.00  0.00     0.059 A 
ATOM     88  C   UNL A   1      42.218  28.808  36.045  1.00  0.00     0.059 A 
ATOM     89  F   UNL A   1      42.783  30.982  35.384  1.00  0.00    -0.206 F 
ATOM     90  C   UNL A   1      41.788  27.526  35.717  1.00  0.00     0.060 A 
BRANCH  90  91
ATOM     91  S   UNL A   1      41.672  26.256  36.995  1.00  0.00     0.124 S 
ATOM     92  O   UNL A   1      41.820  25.027  36.223  1.00  0.00    -0.237 OA
ATOM     93  O   UNL A   1      42.789  26.590  37.875  1.00  0.00    -0.237 OA
ATOM     94  O   UNL A   1      40.348  26.471  37.575  1.00  0.00    -0.744 OA
ENDBRANCH  90  91
ENDBRANCH  58  83
ENDBRANCH  32  33
ENDBRANCH  24  27
ENDBRANCH  22  23
ENDBRANCH   1  22
TORSDOF 15
ENDMDL
MODEL 3
REMARK VINA RESULT:     -12.8      1.100      1.605
REMARK SMILES Cc1cccc2nc(C(=O)NCC(=O)NCCCNC(=O)c3ccc(-c4c5nc(c(-c6c(F)cc(S(=O)(=O)[O-])cc6F)c6ccc([nH]6)c(-c6c(F)cc(S(=O)(=O)[O-])cc6F)c6nc(c(-c7c(F)cc(S(=O)(=O)[O-])cc7F)c7ccc4[nH]7)C=C6)C=C5)cc3)cn12
REMARK SMILES IDX 17 1 16 2 15 3 13 4 14 5 12 7 11 8 9 9 10 10 8 12 1 13 2 14
REMARK SMILES IDX 3 15 89 16 4 17 6 18 88 19 5 20 7 21 18 22 19 23 20 24 21 26
REMARK SMILES IDX 22 27 23 28 87 29 24 30 86 31 25 32 26 33 27 34 80 35 28 36
REMARK SMILES IDX 85 37 79 38 81 39 29 40 84 41 78 42 77 43 30 45 64 46 43 47
REMARK SMILES IDX 63 48 44 49 47 50 62 51 82 52 45 53 46 54 61 56 83 57 48 58
REMARK SMILES IDX 31 59 32 60 41 61 33 62 34 63 40 64 42 65 35 66 36 67 37 68
REMARK SMILES IDX 38 69 39 70 65 71 66 72 75 73 67 74 68 75 74 76 76 77 69 78
REMARK SMILES IDX 70 79 71 80 72 81 73 82 49 83 50 84 59 85 51 86 52 87 58 88
REMARK SMILES IDX 60 89 53 90 54 91 55 92 56 93 57 94
REMARK H PARENT 15 6 11 11 19 25 81 44 47 55
REMARK Flexibility Score: inf
ROOT
ATOM      1  C   UNL A   1      35.776  22.622  25.211  1.00  0.00     0.042 C 
ENDROOT
BRANCH   1   2
ATOM      2  C   UNL A   1      35.054  22.084  26.449  1.00  0.00     0.117 C 
BRANCH   2   3
ATOM      3  N   UNL A   1      34.417  20.804  26.219  1.00  0.00    -0.355 N 
ATOM      4  C   UNL A   1      33.215  20.529  25.634  1.00  0.00     0.239 C 
ATOM      5  O   UNL A   1      32.959  19.352  25.372  1.00  0.00    -0.273 OA
ATOM      6  H   UNL A   1      34.923  20.018  26.530  1.00  0.00     0.163 HD
BRANCH   4   7
ATOM      7  C   UNL A   1      32.269  21.651  25.188  1.00  0.00     0.216 C 
BRANCH   7   8
ATOM      8  N   UNL A   1      31.268  22.030  26.176  1.00  0.00    -0.342 N 
ATOM      9  C   UNL A   1      30.795  23.254  26.571  1.00  0.00     0.271 C 
ATOM     10  O   UNL A   1      29.917  23.273  27.443  1.00  0.00    -0.267 OA
ATOM     11  H   UNL A   1      30.856  21.269  26.646  1.00  0.00     0.164 HD
BRANCH   9  12
ATOM     12  C   UNL A   1      31.352  24.501  26.033  1.00  0.00     0.147 A 
ATOM     13  C   UNL A   1      29.966  27.937  23.673  1.00  0.00     0.065 C 
ATOM     14  C   UNL A   1      31.264  27.699  24.382  1.00  0.00     0.021 A 
ATOM     15  C   UNL A   1      32.249  28.623  24.406  1.00  0.00     0.022 A 
ATOM     16  N   UNL A   1      31.482  26.487  25.062  1.00  0.00    -0.304 N 
ATOM     17  C   UNL A   1      33.484  28.347  25.119  1.00  0.00     0.006 A 
ATOM     18  C   UNL A   1      32.659  26.192  25.744  1.00  0.00     0.137 A 
ATOM     19  C   UNL A   1      30.661  25.400  25.239  1.00  0.00     0.127 A 
ATOM     20  C   UNL A   1      33.680  27.180  25.760  1.00  0.00     0.048 A 
ATOM     21  N   UNL A   1      32.610  25.004  26.302  1.00  0.00    -0.223 NA
ENDBRANCH   9  12
ENDBRANCH   7   8
ENDBRANCH   4   7
ENDBRANCH   2   3
ENDBRANCH   1   2
BRANCH   1  22
ATOM     22  C   UNL A   1      37.151  23.166  25.566  1.00  0.00     0.118 C 
BRANCH  22  23
ATOM     23  N   UNL A   1      38.010  22.139  26.153  1.00  0.00    -0.352 N 
ATOM     24  C   UNL A   1      39.252  22.272  26.732  1.00  0.00     0.251 C 
ATOM     25  H   UNL A   1      37.649  21.222  26.132  1.00  0.00     0.163 HD
ATOM     26  O   UNL A   1      39.970  21.285  26.857  1.00  0.00    -0.269 OA
BRANCH  24  27
ATOM     27  C   UNL A   1      39.707  23.592  27.206  1.00  0.00     0.039 A 
ATOM     28  C   UNL A   1      38.871  24.709  27.102  1.00  0.00     0.014 A 
ATOM     29  C   UNL A   1      41.003  23.728  27.709  1.00  0.00     0.014 A 
ATOM     30  C   UNL A   1      39.333  25.944  27.545  1.00  0.00     0.010 A 
ATOM     31  C   UNL A   1      41.418  24.915  28.257  1.00  0.00     0.010 A 
ATOM     32  C   UNL A   1      40.608  26.033  28.125  1.00  0.00    -0.014 A 
BRANCH  32  33
ATOM     33  C   UNL A   1      41.063  27.272  28.734  1.00  0.00     0.031 A 
ATOM     34  C   UNL A   1      42.252  27.850  28.058  1.00  0.00     0.074 A 
ATOM     35  C   UNL A   1      40.357  27.943  29.668  1.00  0.00     0.049 A 
ATOM     36  N   UNL A   1      43.471  27.830  28.480  1.00  0.00    -0.248 NA
ATOM     37  C   UNL A   1      42.113  28.320  26.669  1.00  0.00     0.031 C 
ATOM     38  C   UNL A   1      39.019  27.644  30.187  1.00  0.00     0.029 A 
ATOM     39  N   UNL A   1      40.662  29.109  30.297  1.00  0.00    -0.354 N 
ATOM     40  C   UNL A   1      44.203  28.544  27.538  1.00  0.00     0.074 A 
ATOM     41  C   UNL A   1      43.383  28.592  26.357  1.00  0.00     0.031 C 
ATOM     42  C   UNL A   1      38.549  28.712  30.872  1.00  0.00     0.029 A 
ATOM     43  C   UNL A   1      39.601  29.709  30.970  1.00  0.00     0.049 A 
ATOM     44  H   UNL A   1      41.566  29.501  30.277  1.00  0.00     0.167 HD
ATOM     45  C   UNL A   1      45.283  29.282  27.917  1.00  0.00     0.037 A 
ATOM     46  C   UNL A   1      39.594  30.947  31.538  1.00  0.00     0.037 A 
ATOM     47  C   UNL A   1      45.703  28.925  29.253  1.00  0.00     0.049 A 
ATOM     48  C   UNL A   1      41.019  31.312  31.770  1.00  0.00     0.074 A 
ATOM     49  C   UNL A   1      46.081  27.748  29.871  1.00  0.00     0.029 A 
ATOM     50  N   UNL A   1      45.374  29.791  30.271  1.00  0.00    -0.354 N 
ATOM     51  N   UNL A   1      41.794  30.689  32.618  1.00  0.00    -0.248 NA
ATOM     52  C   UNL A   1      41.707  32.034  30.712  1.00  0.00     0.031 C 
ATOM     53  C   UNL A   1      45.490  27.805  31.167  1.00  0.00     0.029 A 
ATOM     54  C   UNL A   1      44.865  29.046  31.302  1.00  0.00     0.049 A 
ATOM     55  H   UNL A   1      45.485  30.770  30.261  1.00  0.00     0.167 HD
ATOM     56  C   UNL A   1      43.009  30.565  31.960  1.00  0.00     0.074 A 
ATOM     57  C   UNL A   1      42.918  31.478  30.820  1.00  0.00     0.031 C 
ATOM     58  C   UNL A   1      43.856  29.525  32.223  1.00  0.00     0.037 A 
BRANCH  45  59
ATOM     59  C   UNL A   1      45.697  30.592  27.282  1.00  0.00     0.058 A 
ATOM     60  C   UNL A   1      47.059  30.791  26.971  1.00  0.00     0.135 A 
ATOM     61  C   UNL A   1      44.891  31.751  27.238  1.00  0.00     0.135 A 
ATOM     62  F   UNL A   1      47.919  29.760  26.974  1.00  0.00    -0.206 F 
ATOM     63  C   UNL A   1      47.596  32.056  26.737  1.00  0.00     0.059 A 
ATOM     64  C   UNL A   1      45.396  33.014  26.951  1.00  0.00     0.059 A 
ATOM     65  F   UNL A   1      43.594  31.744  27.564  1.00  0.00    -0.206 F 
ATOM     66  C   UNL A   1      46.757  33.164  26.746  1.00  0.00     0.060 A 
BRANCH  66  67
ATOM     67  S   UNL A   1      47.462  34.806  26.545  1.00  0.00     0.124 S 
ATOM     68  O   UNL A   1      47.831  34.792  25.134  1.00  0.00    -0.237 OA
ATOM     69  O   UNL A   1      46.334  35.660  26.905  1.00  0.00    -0.237 OA
ATOM     70  O   UNL A   1      48.573  34.812  27.491  1.00  0.00    -0.744 OA
ENDBRANCH  66  67
ENDBRANCH  45  59
BRANCH  46  71
ATOM     71  C   UNL A   1      38.494  31.957  31.559  1.00  0.00     0.058 A 
ATOM     72  C   UNL A   1      37.877  32.391  30.368  1.00  0.00     0.135 A 
ATOM     73  C   UNL A   1      37.826  32.299  32.752  1.00  0.00     0.135 A 
ATOM     74  F   UNL A   1      38.430  32.105  29.180  1.00  0.00    -0.206 F 
ATOM     75  C   UNL A   1      36.645  33.060  30.358  1.00  0.00     0.059 A 
ATOM     76  C   UNL A   1      36.603  32.973  32.768  1.00  0.00     0.059 A 
ATOM     77  F   UNL A   1      38.295  31.907  33.946  1.00  0.00    -0.206 F 
ATOM     78  C   UNL A   1      36.001  33.323  31.567  1.00  0.00     0.060 A 
BRANCH  78  79
ATOM     79  S   UNL A   1      34.327  34.016  31.557  1.00  0.00     0.124 S 
ATOM     80  O   UNL A   1      33.905  33.770  30.183  1.00  0.00    -0.237 OA
ATOM     81  O   UNL A   1      33.659  33.220  32.582  1.00  0.00    -0.237 OA
ATOM     82  O   UNL A   1      34.540  35.419  31.903  1.00  0.00    -0.744 OA
ENDBRANCH  78  79
ENDBRANCH  46  71
BRANCH  58  83
ATOM     83  C   UNL A   1      43.610  28.675  33.443  1.00  0.00     0.058 A 
ATOM     84  C   UNL A   1      44.011  29.009  34.750  1.00  0.00     0.135 A 
ATOM     85  C   UNL A   1      42.765  27.565  33.300  1.00  0.00     0.135 A 
ATOM     86  F   UNL A   1      44.738  30.109  34.990  1.00  0.00    -0.206 F 
ATOM     87  C   UNL A   1      43.609  28.256  35.857  1.00  0.00     0.059 A 
ATOM     88  C   UNL A   1      42.328  26.819  34.390  1.00  0.00     0.059 A 
ATOM     89  F   UNL A   1      42.301  27.226  32.085  1.00  0.00    -0.206 F 
ATOM     90  C   UNL A   1      42.760  27.164  35.667  1.00  0.00     0.060 A 
BRANCH  90  91
ATOM     91  S   UNL A   1      42.175  26.239  37.102  1.00  0.00     0.124 S 
ATOM     92  O   UNL A   1      42.121  24.875  36.589  1.00  0.00    -0.237 OA
ATOM     93  O   UNL A   1      43.213  26.503  38.094  1.00  0.00    -0.237 OA
ATOM     94  O   UNL A   1      40.877  26.845  37.395  1.00  0.00    -0.744 OA
ENDBRANCH  90  91
ENDBRANCH  58  83
ENDBRANCH  32  33
ENDBRANCH  24  27
ENDBRANCH  22  23
ENDBRANCH   1  22
TORSDOF 15
ENDMDL
