MODEL 1
REMARK VINA RESULT:     -12.8      0.000      0.000
REMARK SMILES Cc1ccccc1[C@@H](C)NS(=O)(=O)CC(=O)NCCCNC(=O)c1ccc(-c2c3nc(c(-c4c(F)cc(S(=O)(=O)[O-])cc4F)c4ccc([nH]4)c(-c4c(F)cc(S(=O)(=O)[O-])cc4F)c4nc(c(-c5c(F)cc(S(=O)(=O)[O-])cc5F)c5ccc2[nH]5)C=C4)C=C3)cc1
REMARK SMILES IDX 18 1 17 2 15 3 16 4 14 6 11 7 12 8 13 9 10 10 8 12 9 13 7 14
REMARK SMILES IDX 1 15 2 16 3 17 4 18 6 19 5 20 19 21 20 22 21 23 22 24 23 26
REMARK SMILES IDX 24 27 25 28 89 29 26 30 88 31 27 32 28 33 29 34 82 35 30 36
REMARK SMILES IDX 87 37 81 38 83 39 31 40 86 41 80 42 79 43 32 45 66 46 45 47
REMARK SMILES IDX 65 48 46 49 49 50 64 51 84 52 47 53 48 54 63 56 85 57 50 58
REMARK SMILES IDX 33 59 34 60 43 61 35 62 36 63 42 64 44 65 37 66 38 67 39 68
REMARK SMILES IDX 40 69 41 70 67 71 68 72 77 73 69 74 70 75 76 76 78 77 71 78
REMARK SMILES IDX 72 79 73 80 74 81 75 82 51 83 52 84 61 85 53 86 54 87 60 88
REMARK SMILES IDX 62 89 55 90 56 91 57 92 58 93 59 94
REMARK H PARENT 17 5 10 11 21 25 83 44 49 55
REMARK Flexibility Score: inf
ROOT
ATOM      1  C   UNL A   1      33.138  29.175  25.476  1.00  0.00     0.117 C 
ENDROOT
BRANCH   1   2
ATOM      2  N   UNL A   1      32.203  28.087  25.750  1.00  0.00    -0.355 N 
ATOM      3  C   UNL A   1      31.690  27.172  24.875  1.00  0.00     0.236 C 
ATOM      4  O   UNL A   1      30.726  26.490  25.236  1.00  0.00    -0.274 OA
ATOM      5  H   UNL A   1      31.904  28.003  26.684  1.00  0.00     0.163 HD
BRANCH   3   6
ATOM      6  C   UNL A   1      32.362  26.903  23.570  1.00  0.00     0.253 C 
BRANCH   6   7
ATOM      7  S   UNL A   1      33.003  25.261  23.370  1.00  0.00     0.221 S 
ATOM      8  O   UNL A   1      34.005  25.323  22.337  1.00  0.00    -0.212 OA
ATOM      9  O   UNL A   1      31.898  24.331  23.207  1.00  0.00    -0.212 OA
BRANCH   7  10
ATOM     10  N   UNL A   1      33.741  24.829  24.790  1.00  0.00    -0.208 NA
ATOM     11  H   UNL A   1      34.682  25.223  24.751  1.00  0.00     0.141 HD
BRANCH  10  12
ATOM     12  C   UNL A   1      33.902  23.430  25.202  1.00  0.00     0.096 C 
ATOM     13  C   UNL A   1      33.288  23.214  26.591  1.00  0.00     0.031 C 
BRANCH  12  14
ATOM     14  C   UNL A   1      35.372  23.005  25.266  1.00  0.00    -0.027 A 
ATOM     15  C   UNL A   1      34.884  20.501  24.858  1.00  0.00     0.044 C 
ATOM     16  C   UNL A   1      35.791  21.658  25.182  1.00  0.00    -0.046 A 
ATOM     17  C   UNL A   1      37.134  21.337  25.466  1.00  0.00     0.004 A 
ATOM     18  C   UNL A   1      38.066  22.322  25.782  1.00  0.00     0.000 A 
ATOM     19  C   UNL A   1      36.348  23.992  25.537  1.00  0.00     0.005 A 
ATOM     20  C   UNL A   1      37.678  23.654  25.796  1.00  0.00     0.000 A 
ENDBRANCH  12  14
ENDBRANCH  10  12
ENDBRANCH   7  10
ENDBRANCH   6   7
ENDBRANCH   3   6
ENDBRANCH   1   2
BRANCH   1  21
ATOM     21  C   UNL A   1      33.525  29.868  26.772  1.00  0.00     0.042 C 
BRANCH  21  22
ATOM     22  C   UNL A   1      34.900  29.487  27.273  1.00  0.00     0.118 C 
BRANCH  22  23
ATOM     23  N   UNL A   1      35.787  30.632  27.399  1.00  0.00    -0.352 N 
ATOM     24  C   UNL A   1      36.942  30.710  28.161  1.00  0.00     0.251 C 
ATOM     25  H   UNL A   1      35.542  31.437  26.889  1.00  0.00     0.163 HD
ATOM     26  O   UNL A   1      37.365  31.748  28.651  1.00  0.00    -0.269 OA
BRANCH  24  27
ATOM     27  C   UNL A   1      37.765  29.488  28.190  1.00  0.00     0.039 A 
ATOM     28  C   UNL A   1      37.747  28.749  29.382  1.00  0.00     0.014 A 
ATOM     29  C   UNL A   1      38.793  29.357  27.266  1.00  0.00     0.014 A 
ATOM     30  C   UNL A   1      38.878  28.041  29.750  1.00  0.00     0.010 A 
ATOM     31  C   UNL A   1      39.970  28.826  27.710  1.00  0.00     0.010 A 
ATOM     32  C   UNL A   1      40.009  28.191  28.957  1.00  0.00    -0.014 A 
BRANCH  32  33
ATOM     33  C   UNL A   1      41.294  27.604  29.245  1.00  0.00     0.031 A 
ATOM     34  C   UNL A   1      41.462  26.206  28.821  1.00  0.00     0.074 A 
ATOM     35  C   UNL A   1      42.286  28.423  29.646  1.00  0.00     0.049 A 
ATOM     36  N   UNL A   1      42.371  25.414  29.252  1.00  0.00    -0.248 NA
ATOM     37  C   UNL A   1      40.549  25.561  27.877  1.00  0.00     0.031 C 
ATOM     38  C   UNL A   1      43.721  28.179  29.657  1.00  0.00     0.029 A 
ATOM     39  N   UNL A   1      42.138  29.635  30.326  1.00  0.00    -0.354 N 
ATOM     40  C   UNL A   1      42.388  24.318  28.414  1.00  0.00     0.074 A 
ATOM     41  C   UNL A   1      41.158  24.393  27.672  1.00  0.00     0.031 C 
ATOM     42  C   UNL A   1      44.293  29.014  30.545  1.00  0.00     0.029 A 
ATOM     43  C   UNL A   1      43.214  29.714  31.231  1.00  0.00     0.049 A 
ATOM     44  H   UNL A   1      41.424  30.302  30.198  1.00  0.00     0.167 HD
ATOM     45  C   UNL A   1      43.543  23.598  28.335  1.00  0.00     0.037 A 
ATOM     46  C   UNL A   1      42.958  29.619  32.571  1.00  0.00     0.037 A 
ATOM     47  C   UNL A   1      44.493  24.119  29.322  1.00  0.00     0.049 A 
ATOM     48  C   UNL A   1      43.515  28.342  33.167  1.00  0.00     0.074 A 
ATOM     49  C   UNL A   1      45.534  25.027  29.216  1.00  0.00     0.029 A 
ATOM     50  N   UNL A   1      44.176  24.039  30.675  1.00  0.00    -0.354 N 
ATOM     51  N   UNL A   1      43.741  27.250  32.485  1.00  0.00    -0.248 NA
ATOM     52  C   UNL A   1      43.937  28.226  34.559  1.00  0.00     0.031 C 
ATOM     53  C   UNL A   1      45.778  25.562  30.509  1.00  0.00     0.029 A 
ATOM     54  C   UNL A   1      44.899  24.967  31.400  1.00  0.00     0.049 A 
ATOM     55  H   UNL A   1      43.526  23.409  31.061  1.00  0.00     0.167 HD
ATOM     56  C   UNL A   1      44.339  26.315  33.293  1.00  0.00     0.074 A 
ATOM     57  C   UNL A   1      44.441  26.979  34.580  1.00  0.00     0.031 C 
ATOM     58  C   UNL A   1      44.724  25.081  32.842  1.00  0.00     0.037 A 
BRANCH  45  59
ATOM     59  C   UNL A   1      43.939  22.667  27.202  1.00  0.00     0.058 A 
ATOM     60  C   UNL A   1      43.117  21.560  26.890  1.00  0.00     0.135 A 
ATOM     61  C   UNL A   1      45.111  22.751  26.421  1.00  0.00     0.135 A 
ATOM     62  F   UNL A   1      41.939  21.365  27.498  1.00  0.00    -0.206 F 
ATOM     63  C   UNL A   1      43.456  20.593  25.941  1.00  0.00     0.059 A 
ATOM     64  C   UNL A   1      45.487  21.781  25.485  1.00  0.00     0.059 A 
ATOM     65  F   UNL A   1      45.935  23.801  26.482  1.00  0.00    -0.206 F 
ATOM     66  C   UNL A   1      44.653  20.701  25.251  1.00  0.00     0.060 A 
BRANCH  66  67
ATOM     67  S   UNL A   1      45.067  19.450  24.026  1.00  0.00     0.124 S 
ATOM     68  O   UNL A   1      44.483  20.010  22.810  1.00  0.00    -0.237 OA
ATOM     69  O   UNL A   1      46.525  19.438  24.084  1.00  0.00    -0.237 OA
ATOM     70  O   UNL A   1      44.412  18.247  24.530  1.00  0.00    -0.744 OA
ENDBRANCH  66  67
ENDBRANCH  45  59
BRANCH  46  71
ATOM     71  C   UNL A   1      41.681  30.309  32.946  1.00  0.00     0.058 A 
ATOM     72  C   UNL A   1      40.556  29.487  33.181  1.00  0.00     0.135 A 
ATOM     73  C   UNL A   1      41.670  31.584  33.530  1.00  0.00     0.135 A 
ATOM     74  F   UNL A   1      40.499  28.261  32.633  1.00  0.00    -0.206 F 
ATOM     75  C   UNL A   1      39.560  29.836  34.091  1.00  0.00     0.059 A 
ATOM     76  C   UNL A   1      40.669  31.961  34.436  1.00  0.00     0.059 A 
ATOM     77  F   UNL A   1      42.700  32.422  33.343  1.00  0.00    -0.206 F 
ATOM     78  C   UNL A   1      39.662  31.050  34.763  1.00  0.00     0.060 A 
BRANCH  78  79
ATOM     79  S   UNL A   1      38.549  31.342  36.162  1.00  0.00     0.124 S 
ATOM     80  O   UNL A   1      38.252  29.982  36.599  1.00  0.00    -0.237 OA
ATOM     81  O   UNL A   1      39.387  32.127  37.072  1.00  0.00    -0.237 OA
ATOM     82  O   UNL A   1      37.439  32.069  35.562  1.00  0.00    -0.744 OA
ENDBRANCH  78  79
ENDBRANCH  46  71
BRANCH  58  83
ATOM     83  C   UNL A   1      45.081  23.886  33.706  1.00  0.00     0.058 A 
ATOM     84  C   UNL A   1      44.200  22.833  34.000  1.00  0.00     0.135 A 
ATOM     85  C   UNL A   1      46.416  23.695  34.156  1.00  0.00     0.135 A 
ATOM     86  F   UNL A   1      42.950  22.806  33.519  1.00  0.00    -0.206 F 
ATOM     87  C   UNL A   1      44.579  21.731  34.766  1.00  0.00     0.059 A 
ATOM     88  C   UNL A   1      46.835  22.565  34.849  1.00  0.00     0.059 A 
ATOM     89  F   UNL A   1      47.380  24.598  33.927  1.00  0.00    -0.206 F 
ATOM     90  C   UNL A   1      45.897  21.607  35.190  1.00  0.00     0.060 A 
BRANCH  90  91
ATOM     91  S   UNL A   1      46.383  20.176  36.164  1.00  0.00     0.124 S 
ATOM     92  O   UNL A   1      45.759  19.093  35.412  1.00  0.00    -0.237 OA
ATOM     93  O   UNL A   1      47.841  20.231  36.101  1.00  0.00    -0.237 OA
ATOM     94  O   UNL A   1      45.809  20.449  37.477  1.00  0.00    -0.744 OA
ENDBRANCH  90  91
ENDBRANCH  58  83
ENDBRANCH  32  33
ENDBRANCH  24  27
ENDBRANCH  22  23
ENDBRANCH  21  22
ENDBRANCH   1  21
TORSDOF 17
ENDMDL
MODEL 2
REMARK VINA RESULT:     -12.4      5.100     11.613
REMARK SMILES Cc1ccccc1[C@@H](C)NS(=O)(=O)CC(=O)NCCCNC(=O)c1ccc(-c2c3nc(c(-c4c(F)cc(S(=O)(=O)[O-])cc4F)c4ccc([nH]4)c(-c4c(F)cc(S(=O)(=O)[O-])cc4F)c4nc(c(-c5c(F)cc(S(=O)(=O)[O-])cc5F)c5ccc2[nH]5)C=C4)C=C3)cc1
REMARK SMILES IDX 18 1 17 2 15 3 16 4 14 6 11 7 12 8 13 9 10 10 8 12 9 13 7 14
REMARK SMILES IDX 1 15 2 16 3 17 4 18 6 19 5 20 19 21 20 22 21 23 22 24 23 26
REMARK SMILES IDX 24 27 25 28 89 29 26 30 88 31 27 32 28 33 29 34 82 35 30 36
REMARK SMILES IDX 87 37 81 38 83 39 31 40 86 41 80 42 79 43 32 45 66 46 45 47
REMARK SMILES IDX 65 48 46 49 49 50 64 51 84 52 47 53 48 54 63 56 85 57 50 58
REMARK SMILES IDX 33 59 34 60 43 61 35 62 36 63 42 64 44 65 37 66 38 67 39 68
REMARK SMILES IDX 40 69 41 70 67 71 68 72 77 73 69 74 70 75 76 76 78 77 71 78
REMARK SMILES IDX 72 79 73 80 74 81 75 82 51 83 52 84 61 85 53 86 54 87 60 88
REMARK SMILES IDX 62 89 55 90 56 91 57 92 58 93 59 94
REMARK H PARENT 17 5 10 11 21 25 83 44 49 55
REMARK Flexibility Score: inf
ROOT
ATOM      1  C   UNL A   1      36.136  22.477  24.920  1.00  0.00     0.117 C 
ENDROOT
BRANCH   1   2
ATOM      2  N   UNL A   1      35.369  21.702  25.891  1.00  0.00    -0.355 N 
ATOM      3  C   UNL A   1      34.398  22.139  26.747  1.00  0.00     0.236 C 
ATOM      4  O   UNL A   1      34.042  21.393  27.664  1.00  0.00    -0.274 OA
ATOM      5  H   UNL A   1      35.578  20.741  25.934  1.00  0.00     0.163 HD
BRANCH   3   6
ATOM      6  C   UNL A   1      33.687  23.428  26.500  1.00  0.00     0.253 C 
BRANCH   6   7
ATOM      7  S   UNL A   1      31.940  23.289  26.221  1.00  0.00     0.221 S 
ATOM      8  O   UNL A   1      31.288  23.610  27.464  1.00  0.00    -0.212 OA
ATOM      9  O   UNL A   1      31.655  22.005  25.601  1.00  0.00    -0.212 OA
BRANCH   7  10
ATOM     10  N   UNL A   1      31.515  24.430  25.096  1.00  0.00    -0.208 NA
ATOM     11  H   UNL A   1      32.386  24.746  24.670  1.00  0.00     0.141 HD
BRANCH  10  12
ATOM     12  C   UNL A   1      30.769  25.644  25.448  1.00  0.00     0.096 C 
ATOM     13  C   UNL A   1      29.978  26.149  24.234  1.00  0.00     0.031 C 
BRANCH  12  14
ATOM     14  C   UNL A   1      31.687  26.778  25.916  1.00  0.00    -0.027 A 
ATOM     15  C   UNL A   1      33.506  26.322  24.138  1.00  0.00     0.044 C 
ATOM     16  C   UNL A   1      32.961  27.021  25.355  1.00  0.00    -0.046 A 
ATOM     17  C   UNL A   1      33.826  27.939  25.986  1.00  0.00     0.004 A 
ATOM     18  C   UNL A   1      33.434  28.645  27.121  1.00  0.00     0.000 A 
ATOM     19  C   UNL A   1      31.294  27.544  27.038  1.00  0.00     0.005 A 
ATOM     20  C   UNL A   1      32.158  28.463  27.636  1.00  0.00     0.000 A 
ENDBRANCH  12  14
ENDBRANCH  10  12
ENDBRANCH   7  10
ENDBRANCH   6   7
ENDBRANCH   3   6
ENDBRANCH   1   2
BRANCH   1  21
ATOM     21  C   UNL A   1      37.594  22.545  25.343  1.00  0.00     0.042 C 
BRANCH  21  22
ATOM     22  C   UNL A   1      37.914  23.735  26.218  1.00  0.00     0.118 C 
BRANCH  22  23
ATOM     23  N   UNL A   1      38.958  23.453  27.189  1.00  0.00    -0.352 N 
ATOM     24  C   UNL A   1      39.935  24.326  27.640  1.00  0.00     0.251 C 
ATOM     25  H   UNL A   1      38.974  22.544  27.567  1.00  0.00     0.163 HD
ATOM     26  O   UNL A   1      41.042  23.972  28.019  1.00  0.00    -0.269 OA
BRANCH  24  27
ATOM     27  C   UNL A   1      39.497  25.720  27.832  1.00  0.00     0.039 A 
ATOM     28  C   UNL A   1      40.023  26.670  26.944  1.00  0.00     0.014 A 
ATOM     29  C   UNL A   1      38.966  26.087  29.061  1.00  0.00     0.014 A 
ATOM     30  C   UNL A   1      40.220  27.966  27.387  1.00  0.00     0.010 A 
ATOM     31  C   UNL A   1      39.332  27.302  29.564  1.00  0.00     0.010 A 
ATOM     32  C   UNL A   1      39.975  28.224  28.730  1.00  0.00    -0.014 A 
BRANCH  32  33
ATOM     33  C   UNL A   1      40.215  29.490  29.377  1.00  0.00     0.031 A 
ATOM     34  C   UNL A   1      39.140  30.485  29.246  1.00  0.00     0.074 A 
ATOM     35  C   UNL A   1      41.260  29.577  30.224  1.00  0.00     0.049 A 
ATOM     36  N   UNL A   1      39.274  31.740  29.454  1.00  0.00    -0.248 NA
ATOM     37  C   UNL A   1      37.792  30.124  28.804  1.00  0.00     0.031 C 
ATOM     38  C   UNL A   1      41.519  30.575  31.251  1.00  0.00     0.029 A 
ATOM     39  N   UNL A   1      42.435  28.822  30.174  1.00  0.00    -0.354 N 
ATOM     40  C   UNL A   1      38.006  32.280  29.526  1.00  0.00     0.074 A 
ATOM     41  C   UNL A   1      37.137  31.271  28.981  1.00  0.00     0.031 C 
ATOM     42  C   UNL A   1      42.838  30.581  31.523  1.00  0.00     0.029 A 
ATOM     43  C   UNL A   1      43.476  29.685  30.566  1.00  0.00     0.049 A 
ATOM     44  H   UNL A   1      42.519  27.875  29.915  1.00  0.00     0.167 HD
ATOM     45  C   UNL A   1      37.851  33.444  30.217  1.00  0.00     0.037 A 
ATOM     46  C   UNL A   1      44.396  30.076  29.633  1.00  0.00     0.037 A 
ATOM     47  C   UNL A   1      39.172  33.933  30.622  1.00  0.00     0.049 A 
ATOM     48  C   UNL A   1      44.290  31.554  29.314  1.00  0.00     0.074 A 
ATOM     49  C   UNL A   1      39.884  33.806  31.803  1.00  0.00     0.029 A 
ATOM     50  N   UNL A   1      40.093  34.283  29.640  1.00  0.00    -0.354 N 
ATOM     51  N   UNL A   1      43.202  32.262  29.469  1.00  0.00    -0.248 NA
ATOM     52  C   UNL A   1      45.423  32.362  28.875  1.00  0.00     0.031 C 
ATOM     53  C   UNL A   1      41.260  33.992  31.503  1.00  0.00     0.029 A 
ATOM     54  C   UNL A   1      41.380  34.249  30.146  1.00  0.00     0.049 A 
ATOM     55  H   UNL A   1      39.862  34.521  28.713  1.00  0.00     0.167 HD
ATOM     56  C   UNL A   1      43.464  33.580  29.188  1.00  0.00     0.074 A 
ATOM     57  C   UNL A   1      44.870  33.587  28.825  1.00  0.00     0.031 C 
ATOM     58  C   UNL A   1      42.519  34.565  29.295  1.00  0.00     0.037 A 
BRANCH  45  59
ATOM     59  C   UNL A   1      36.549  33.972  30.795  1.00  0.00     0.058 A 
ATOM     60  C   UNL A   1      35.499  34.344  29.924  1.00  0.00     0.135 A 
ATOM     61  C   UNL A   1      36.268  34.193  32.160  1.00  0.00     0.135 A 
ATOM     62  F   UNL A   1      35.580  34.146  28.601  1.00  0.00    -0.206 F 
ATOM     63  C   UNL A   1      34.313  34.939  30.358  1.00  0.00     0.059 A 
ATOM     64  C   UNL A   1      35.100  34.813  32.619  1.00  0.00     0.059 A 
ATOM     65  F   UNL A   1      37.084  33.778  33.132  1.00  0.00    -0.206 F 
ATOM     66  C   UNL A   1      34.125  35.186  31.709  1.00  0.00     0.060 A 
BRANCH  66  67
ATOM     67  S   UNL A   1      32.585  35.944  32.249  1.00  0.00     0.124 S 
ATOM     68  O   UNL A   1      31.824  34.788  32.715  1.00  0.00    -0.237 OA
ATOM     69  O   UNL A   1      33.046  36.862  33.286  1.00  0.00    -0.237 OA
ATOM     70  O   UNL A   1      32.072  36.577  31.038  1.00  0.00    -0.744 OA
ENDBRANCH  66  67
ENDBRANCH  45  59
BRANCH  46  71
ATOM     71  C   UNL A   1      44.733  28.968  28.682  1.00  0.00     0.058 A 
ATOM     72  C   UNL A   1      44.180  29.051  27.385  1.00  0.00     0.135 A 
ATOM     73  C   UNL A   1      45.885  28.184  28.833  1.00  0.00     0.135 A 
ATOM     74  F   UNL A   1      43.065  29.771  27.178  1.00  0.00    -0.206 F 
ATOM     75  C   UNL A   1      44.834  28.536  26.266  1.00  0.00     0.059 A 
ATOM     76  C   UNL A   1      46.549  27.644  27.723  1.00  0.00     0.059 A 
ATOM     77  F   UNL A   1      46.461  28.053  30.037  1.00  0.00    -0.206 F 
ATOM     78  C   UNL A   1      46.053  27.891  26.440  1.00  0.00     0.060 A 
BRANCH  78  79
ATOM     79  S   UNL A   1      47.037  27.519  24.965  1.00  0.00     0.124 S 
ATOM     80  O   UNL A   1      48.398  27.683  25.463  1.00  0.00    -0.237 OA
ATOM     81  O   UNL A   1      46.640  26.142  24.660  1.00  0.00    -0.237 OA
ATOM     82  O   UNL A   1      46.590  28.518  24.004  1.00  0.00    -0.744 OA
ENDBRANCH  78  79
ENDBRANCH  46  71
BRANCH  58  83
ATOM     83  C   UNL A   1      42.614  35.961  28.709  1.00  0.00     0.058 A 
ATOM     84  C   UNL A   1      41.901  36.391  27.578  1.00  0.00     0.135 A 
ATOM     85  C   UNL A   1      43.340  36.979  29.383  1.00  0.00     0.135 A 
ATOM     86  F   UNL A   1      41.061  35.578  26.924  1.00  0.00    -0.206 F 
ATOM     87  C   UNL A   1      41.984  37.696  27.092  1.00  0.00     0.059 A 
ATOM     88  C   UNL A   1      43.368  38.304  28.963  1.00  0.00     0.059 A 
ATOM     89  F   UNL A   1      44.047  36.732  30.496  1.00  0.00    -0.206 F 
ATOM     90  C   UNL A   1      42.723  38.645  27.788  1.00  0.00     0.060 A 
BRANCH  90  91
ATOM     91  S   UNL A   1      42.813  40.328  27.166  1.00  0.00     0.124 S 
ATOM     92  O   UNL A   1      41.589  40.407  26.376  1.00  0.00    -0.237 OA
ATOM     93  O   UNL A   1      42.827  41.119  28.393  1.00  0.00    -0.237 OA
ATOM     94  O   UNL A   1      44.058  40.343  26.406  1.00  0.00    -0.744 OA
ENDBRANCH  90  91
ENDBRANCH  58  83
ENDBRANCH  32  33
ENDBRANCH  24  27
ENDBRANCH  22  23
ENDBRANCH  21  22
ENDBRANCH   1  21
TORSDOF 17
ENDMDL
MODEL 3
REMARK VINA RESULT:     -12.4      4.386     10.883
REMARK SMILES Cc1ccccc1[C@@H](C)NS(=O)(=O)CC(=O)NCCCNC(=O)c1ccc(-c2c3nc(c(-c4c(F)cc(S(=O)(=O)[O-])cc4F)c4ccc([nH]4)c(-c4c(F)cc(S(=O)(=O)[O-])cc4F)c4nc(c(-c5c(F)cc(S(=O)(=O)[O-])cc5F)c5ccc2[nH]5)C=C4)C=C3)cc1
REMARK SMILES IDX 18 1 17 2 15 3 16 4 14 6 11 7 12 8 13 9 10 10 8 12 9 13 7 14
REMARK SMILES IDX 1 15 2 16 3 17 4 18 6 19 5 20 19 21 20 22 21 23 22 24 23 26
REMARK SMILES IDX 24 27 25 28 89 29 26 30 88 31 27 32 28 33 29 34 82 35 30 36
REMARK SMILES IDX 87 37 81 38 83 39 31 40 86 41 80 42 79 43 32 45 66 46 45 47
REMARK SMILES IDX 65 48 46 49 49 50 64 51 84 52 47 53 48 54 63 56 85 57 50 58
REMARK SMILES IDX 33 59 34 60 43 61 35 62 36 63 42 64 44 65 37 66 38 67 39 68
REMARK SMILES IDX 40 69 41 70 67 71 68 72 77 73 69 74 70 75 76 76 78 77 71 78
REMARK SMILES IDX 72 79 73 80 74 81 75 82 51 83 52 84 61 85 53 86 54 87 60 88
REMARK SMILES IDX 62 89 55 90 56 91 57 92 58 93 59 94
REMARK H PARENT 17 5 10 11 21 25 83 44 49 55
REMARK Flexibility Score: inf
ROOT
ATOM      1  C   UNL A   1      35.736  20.965  25.140  1.00  0.00     0.117 C 
ENDROOT
BRANCH   1   2
ATOM      2  N   UNL A   1      35.433  21.454  26.483  1.00  0.00    -0.355 N 
ATOM      3  C   UNL A   1      34.264  21.988  26.946  1.00  0.00     0.236 C 
ATOM      4  O   UNL A   1      34.275  22.574  28.032  1.00  0.00    -0.274 OA
ATOM      5  H   UNL A   1      36.166  21.391  27.138  1.00  0.00     0.163 HD
BRANCH   3   6
ATOM      6  C   UNL A   1      32.979  21.750  26.226  1.00  0.00     0.253 C 
BRANCH   6   7
ATOM      7  S   UNL A   1      31.850  23.120  26.217  1.00  0.00     0.221 S 
ATOM      8  O   UNL A   1      31.009  22.980  27.378  1.00  0.00    -0.212 OA
ATOM      9  O   UNL A   1      31.217  23.210  24.912  1.00  0.00    -0.212 OA
BRANCH   7  10
ATOM     10  N   UNL A   1      32.739  24.510  26.378  1.00  0.00    -0.208 NA
ATOM     11  H   UNL A   1      32.257  25.074  27.078  1.00  0.00     0.141 HD
BRANCH  10  12
ATOM     12  C   UNL A   1      33.011  25.407  25.249  1.00  0.00     0.096 C 
ATOM     13  C   UNL A   1      34.458  25.230  24.771  1.00  0.00     0.031 C 
BRANCH  12  14
ATOM     14  C   UNL A   1      32.812  26.881  25.613  1.00  0.00    -0.027 A 
ATOM     15  C   UNL A   1      30.469  27.047  24.537  1.00  0.00     0.044 C 
ATOM     16  C   UNL A   1      31.681  27.629  25.214  1.00  0.00    -0.046 A 
ATOM     17  C   UNL A   1      31.680  29.026  25.403  1.00  0.00     0.004 A 
ATOM     18  C   UNL A   1      32.747  29.678  26.015  1.00  0.00     0.000 A 
ATOM     19  C   UNL A   1      33.860  27.559  26.278  1.00  0.00     0.005 A 
ATOM     20  C   UNL A   1      33.830  28.941  26.474  1.00  0.00     0.000 A 
ENDBRANCH  12  14
ENDBRANCH  10  12
ENDBRANCH   7  10
ENDBRANCH   6   7
ENDBRANCH   3   6
ENDBRANCH   1   2
BRANCH   1  21
ATOM     21  C   UNL A   1      37.134  21.399  24.732  1.00  0.00     0.042 C 
BRANCH  21  22
ATOM     22  C   UNL A   1      37.693  22.515  25.585  1.00  0.00     0.118 C 
BRANCH  22  23
ATOM     23  N   UNL A   1      38.883  22.117  26.320  1.00  0.00    -0.352 N 
ATOM     24  C   UNL A   1      39.998  22.895  26.583  1.00  0.00     0.251 C 
ATOM     25  H   UNL A   1      38.897  21.197  26.669  1.00  0.00     0.163 HD
ATOM     26  O   UNL A   1      41.126  22.442  26.724  1.00  0.00    -0.269 OA
BRANCH  24  27
ATOM     27  C   UNL A   1      39.726  24.311  26.887  1.00  0.00     0.039 A 
ATOM     28  C   UNL A   1      40.487  25.260  26.189  1.00  0.00     0.014 A 
ATOM     29  C   UNL A   1      39.085  24.623  28.079  1.00  0.00     0.014 A 
ATOM     30  C   UNL A   1      40.790  26.462  26.805  1.00  0.00     0.010 A 
ATOM     31  C   UNL A   1      39.536  25.715  28.765  1.00  0.00     0.010 A 
ATOM     32  C   UNL A   1      40.401  26.613  28.130  1.00  0.00    -0.014 A 
BRANCH  32  33
ATOM     33  C   UNL A   1      40.715  27.758  28.949  1.00  0.00     0.031 A 
ATOM     34  C   UNL A   1      39.737  28.855  28.909  1.00  0.00     0.074 A 
ATOM     35  C   UNL A   1      41.720  27.640  29.840  1.00  0.00     0.049 A 
ATOM     36  N   UNL A   1      39.968  30.056  29.287  1.00  0.00    -0.248 NA
ATOM     37  C   UNL A   1      38.388  28.679  28.370  1.00  0.00     0.031 C 
ATOM     38  C   UNL A   1      42.010  28.468  31.000  1.00  0.00     0.029 A 
ATOM     39  N   UNL A   1      42.827  26.793  29.736  1.00  0.00    -0.354 N 
ATOM     40  C   UNL A   1      38.748  30.695  29.381  1.00  0.00     0.074 A 
ATOM     41  C   UNL A   1      37.825  29.849  28.673  1.00  0.00     0.031 C 
ATOM     42  C   UNL A   1      43.309  28.319  31.321  1.00  0.00     0.029 A 
ATOM     43  C   UNL A   1      43.916  27.499  30.280  1.00  0.00     0.049 A 
ATOM     44  H   UNL A   1      42.843  25.884  29.357  1.00  0.00     0.167 HD
ATOM     45  C   UNL A   1      38.658  31.770  30.214  1.00  0.00     0.037 A 
ATOM     46  C   UNL A   1      44.913  27.922  29.444  1.00  0.00     0.037 A 
ATOM     47  C   UNL A   1      39.993  32.080  30.731  1.00  0.00     0.049 A 
ATOM     48  C   UNL A   1      44.949  29.432  29.320  1.00  0.00     0.074 A 
ATOM     49  C   UNL A   1      40.632  31.737  31.912  1.00  0.00     0.029 A 
ATOM     50  N   UNL A   1      40.990  32.469  29.842  1.00  0.00    -0.354 N 
ATOM     51  N   UNL A   1      43.919  30.210  29.525  1.00  0.00    -0.248 NA
ATOM     52  C   UNL A   1      46.168  30.183  29.037  1.00  0.00     0.031 C 
ATOM     53  C   UNL A   1      42.031  31.834  31.693  1.00  0.00     0.029 A 
ATOM     54  C   UNL A   1      42.242  32.252  30.389  1.00  0.00     0.049 A 
ATOM     55  H   UNL A   1      40.827  32.844  28.947  1.00  0.00     0.167 HD
ATOM     56  C   UNL A   1      44.307  31.524  29.432  1.00  0.00     0.074 A 
ATOM     57  C   UNL A   1      45.726  31.450  29.129  1.00  0.00     0.031 C 
ATOM     58  C   UNL A   1      43.446  32.569  29.633  1.00  0.00     0.037 A 
BRANCH  45  59
ATOM     59  C   UNL A   1      37.378  32.336  30.806  1.00  0.00     0.058 A 
ATOM     60  C   UNL A   1      36.821  33.517  30.262  1.00  0.00     0.135 A 
ATOM     61  C   UNL A   1      36.673  31.827  31.917  1.00  0.00     0.135 A 
ATOM     62  F   UNL A   1      37.334  34.097  29.169  1.00  0.00    -0.206 F 
ATOM     63  C   UNL A   1      35.712  34.167  30.809  1.00  0.00     0.059 A 
ATOM     64  C   UNL A   1      35.578  32.474  32.501  1.00  0.00     0.059 A 
ATOM     65  F   UNL A   1      36.973  30.650  32.473  1.00  0.00    -0.206 F 
ATOM     66  C   UNL A   1      35.103  33.648  31.940  1.00  0.00     0.060 A 
BRANCH  66  67
ATOM     67  S   UNL A   1      33.670  34.495  32.623  1.00  0.00     0.124 S 
ATOM     68  O   UNL A   1      32.952  33.402  33.273  1.00  0.00    -0.237 OA
ATOM     69  O   UNL A   1      34.290  35.469  33.515  1.00  0.00    -0.237 OA
ATOM     70  O   UNL A   1      33.012  35.056  31.447  1.00  0.00    -0.744 OA
ENDBRANCH  66  67
ENDBRANCH  45  59
BRANCH  46  71
ATOM     71  C   UNL A   1      45.202  26.920  28.368  1.00  0.00     0.058 A 
ATOM     72  C   UNL A   1      44.745  27.231  27.068  1.00  0.00     0.135 A 
ATOM     73  C   UNL A   1      46.260  26.006  28.469  1.00  0.00     0.135 A 
ATOM     74  F   UNL A   1      43.721  28.085  26.906  1.00  0.00    -0.206 F 
ATOM     75  C   UNL A   1      45.418  26.802  25.924  1.00  0.00     0.059 A 
ATOM     76  C   UNL A   1      46.940  25.550  27.330  1.00  0.00     0.059 A 
ATOM     77  F   UNL A   1      46.740  25.658  29.671  1.00  0.00    -0.206 F 
ATOM     78  C   UNL A   1      46.555  26.015  26.070  1.00  0.00     0.060 A 
BRANCH  78  79
ATOM     79  S   UNL A   1      47.591  25.739  24.610  1.00  0.00     0.124 S 
ATOM     80  O   UNL A   1      47.116  24.440  24.146  1.00  0.00    -0.237 OA
ATOM     81  O   UNL A   1      47.244  26.879  23.758  1.00  0.00    -0.237 OA
ATOM     82  O   UNL A   1      48.943  25.761  25.151  1.00  0.00    -0.744 OA
ENDBRANCH  78  79
ENDBRANCH  46  71
BRANCH  58  83
ATOM     83  C   UNL A   1      43.688  34.015  29.242  1.00  0.00     0.058 A 
ATOM     84  C   UNL A   1      43.768  34.470  27.916  1.00  0.00     0.135 A 
ATOM     85  C   UNL A   1      43.704  35.037  30.229  1.00  0.00     0.135 A 
ATOM     86  F   UNL A   1      43.624  33.639  26.875  1.00  0.00    -0.206 F 
ATOM     87  C   UNL A   1      43.953  35.815  27.595  1.00  0.00     0.059 A 
ATOM     88  C   UNL A   1      43.802  36.390  29.927  1.00  0.00     0.059 A 
ATOM     89  F   UNL A   1      43.606  34.764  31.538  1.00  0.00    -0.206 F 
ATOM     90  C   UNL A   1      43.972  36.768  28.607  1.00  0.00     0.060 A 
BRANCH  90  91
ATOM     91  S   UNL A   1      44.195  38.501  28.187  1.00  0.00     0.124 S 
ATOM     92  O   UNL A   1      44.409  38.421  26.746  1.00  0.00    -0.237 OA
ATOM     93  O   UNL A   1      42.929  39.094  28.607  1.00  0.00    -0.237 OA
ATOM     94  O   UNL A   1      45.356  38.896  28.978  1.00  0.00    -0.744 OA
ENDBRANCH  90  91
ENDBRANCH  58  83
ENDBRANCH  32  33
ENDBRANCH  24  27
ENDBRANCH  22  23
ENDBRANCH  21  22
ENDBRANCH   1  21
TORSDOF 17
ENDMDL
