MODEL 1
REMARK VINA RESULT:     -13.3      0.000      0.000
REMARK SMILES O=C(NCCCNC(=O)c1ccc(N2CNC(c3ccccc3)=[NH+]C2=S)cc1)c1ccc(-c2c3nc(c(-c4c(F)cc(S(=O)(=O)[O-])cc4F)c4ccc([nH]4)c(-c4c(F)cc(S(=O)(=O)[O-])cc4F)c4nc(c(-c5c(F)cc(S(=O)(=O)[O-])cc5F)c5ccc2[nH]5)C=C4)C=C3)cc1
REMARK SMILES IDX 4 1 3 2 1 3 2 4 29 6 30 7 94 8 31 9 93 10 32 11 33 12 34 13
REMARK SMILES IDX 87 14 35 15 92 16 86 17 88 18 36 19 91 20 85 21 84 22 37 24
REMARK SMILES IDX 71 25 50 26 70 27 51 28 54 29 69 30 89 31 52 32 53 33 68 35
REMARK SMILES IDX 90 36 55 37 38 38 39 39 48 40 40 41 41 42 47 43 49 44 42 45
REMARK SMILES IDX 43 46 44 47 45 48 46 49 72 50 73 51 82 52 74 53 75 54 81 55
REMARK SMILES IDX 83 56 76 57 77 58 78 59 79 60 80 61 56 62 57 63 66 64 58 65
REMARK SMILES IDX 59 66 65 67 67 68 60 69 61 70 62 71 63 72 64 73 5 74 6 75
REMARK SMILES IDX 7 76 8 77 9 79 10 80 11 81 28 82 12 83 27 84 13 85 14 86
REMARK SMILES IDX 15 87 25 88 16 89 24 90 26 91 17 92 18 95 19 96 23 97 20 98
REMARK SMILES IDX 22 99 21 100
REMARK H PARENT 3 5 88 23 54 34 7 78 16 93 24 94
REMARK Flexibility Score: inf
ROOT
ATOM      1  C   UNL A   1      40.135  23.274  27.063  1.00  0.00     0.118 C 
ENDROOT
BRANCH   1   2
ATOM      2  N   UNL A   1      40.894  24.021  26.067  1.00  0.00    -0.352 N 
ATOM      3  O   UNL A   1      41.758  25.810  25.013  1.00  0.00    -0.269 OA
ATOM      4  C   UNL A   1      41.261  25.346  26.037  1.00  0.00     0.251 C 
ATOM      5  H   UNL A   1      41.190  23.492  25.291  1.00  0.00     0.163 HD
BRANCH   4   6
ATOM      6  C   UNL A   1      41.044  26.215  27.217  1.00  0.00     0.039 A 
ATOM      7  C   UNL A   1      41.840  27.341  27.428  1.00  0.00     0.014 A 
ATOM      8  C   UNL A   1      40.012  25.917  28.113  1.00  0.00     0.014 A 
ATOM      9  C   UNL A   1      41.722  28.059  28.611  1.00  0.00     0.010 A 
ATOM     10  C   UNL A   1      39.823  26.708  29.252  1.00  0.00     0.010 A 
ATOM     11  C   UNL A   1      40.698  27.769  29.527  1.00  0.00    -0.014 A 
BRANCH  11  12
ATOM     12  C   UNL A   1      40.535  28.650  30.713  1.00  0.00     0.031 A 
ATOM     13  C   UNL A   1      41.450  28.548  31.902  1.00  0.00     0.074 A 
ATOM     14  C   UNL A   1      39.579  29.600  30.671  1.00  0.00     0.049 A 
ATOM     15  N   UNL A   1      41.476  29.289  32.982  1.00  0.00    -0.248 NA
ATOM     16  C   UNL A   1      42.460  27.478  31.889  1.00  0.00     0.031 C 
ATOM     17  C   UNL A   1      38.615  29.776  29.579  1.00  0.00     0.029 A 
ATOM     18  N   UNL A   1      39.277  30.615  31.541  1.00  0.00    -0.354 N 
ATOM     19  C   UNL A   1      42.490  28.771  33.780  1.00  0.00     0.074 A 
ATOM     20  C   UNL A   1      43.041  27.635  33.072  1.00  0.00     0.031 C 
ATOM     21  C   UNL A   1      37.877  30.869  29.812  1.00  0.00     0.029 A 
ATOM     22  C   UNL A   1      38.267  31.436  31.097  1.00  0.00     0.049 A 
ATOM     23  H   UNL A   1      39.738  30.744  32.401  1.00  0.00     0.167 HD
ATOM     24  C   UNL A   1      42.924  29.211  34.986  1.00  0.00     0.037 A 
ATOM     25  C   UNL A   1      37.706  32.521  31.662  1.00  0.00     0.037 A 
ATOM     26  C   UNL A   1      42.381  30.356  35.674  1.00  0.00     0.049 A 
ATOM     27  C   UNL A   1      38.216  32.990  32.993  1.00  0.00     0.074 A 
ATOM     28  C   UNL A   1      42.765  30.890  36.893  1.00  0.00     0.029 A 
ATOM     29  N   UNL A   1      41.344  31.148  35.204  1.00  0.00    -0.354 N 
ATOM     30  N   UNL A   1      39.185  32.491  33.724  1.00  0.00    -0.248 NA
ATOM     31  C   UNL A   1      37.557  34.163  33.579  1.00  0.00     0.031 C 
ATOM     32  C   UNL A   1      41.940  31.986  37.173  1.00  0.00     0.029 A 
ATOM     33  C   UNL A   1      41.067  32.157  36.113  1.00  0.00     0.049 A 
ATOM     34  H   UNL A   1      40.873  31.013  34.349  1.00  0.00     0.167 HD
ATOM     35  C   UNL A   1      39.249  33.290  34.858  1.00  0.00     0.074 A 
ATOM     36  C   UNL A   1      38.246  34.324  34.700  1.00  0.00     0.031 C 
ATOM     37  C   UNL A   1      40.057  33.170  35.941  1.00  0.00     0.037 A 
BRANCH  24  38
ATOM     38  C   UNL A   1      44.042  28.457  35.651  1.00  0.00     0.058 A 
ATOM     39  C   UNL A   1      45.387  28.790  35.430  1.00  0.00     0.135 A 
ATOM     40  C   UNL A   1      43.765  27.441  36.580  1.00  0.00     0.135 A 
ATOM     41  F   UNL A   1      45.710  29.743  34.542  1.00  0.00    -0.206 F 
ATOM     42  C   UNL A   1      46.419  28.137  36.100  1.00  0.00     0.059 A 
ATOM     43  C   UNL A   1      44.779  26.788  37.277  1.00  0.00     0.059 A 
ATOM     44  F   UNL A   1      42.495  27.083  36.830  1.00  0.00    -0.206 F 
ATOM     45  C   UNL A   1      46.104  27.139  37.024  1.00  0.00     0.060 A 
BRANCH  45  46
ATOM     46  S   UNL A   1      47.451  26.325  37.911  1.00  0.00     0.124 S 
ATOM     47  O   UNL A   1      46.761  25.831  39.098  1.00  0.00    -0.237 OA
ATOM     48  O   UNL A   1      47.883  25.307  36.959  1.00  0.00    -0.237 OA
ATOM     49  O   UNL A   1      48.406  27.405  38.145  1.00  0.00    -0.744 OA
ENDBRANCH  45  46
ENDBRANCH  24  38
BRANCH  25  50
ATOM     50  C   UNL A   1      36.588  33.219  30.978  1.00  0.00     0.058 A 
ATOM     51  C   UNL A   1      35.266  33.092  31.428  1.00  0.00     0.135 A 
ATOM     52  C   UNL A   1      36.824  34.040  29.864  1.00  0.00     0.135 A 
ATOM     53  F   UNL A   1      34.991  32.317  32.489  1.00  0.00    -0.206 F 
ATOM     54  C   UNL A   1      34.214  33.736  30.786  1.00  0.00     0.059 A 
ATOM     55  C   UNL A   1      35.794  34.715  29.223  1.00  0.00     0.059 A 
ATOM     56  F   UNL A   1      38.075  34.211  29.408  1.00  0.00    -0.206 F 
ATOM     57  C   UNL A   1      34.489  34.545  29.682  1.00  0.00     0.060 A 
BRANCH  57  58
ATOM     58  S   UNL A   1      33.127  35.408  28.869  1.00  0.00     0.124 S 
ATOM     59  O   UNL A   1      32.501  34.325  28.120  1.00  0.00    -0.237 OA
ATOM     60  O   UNL A   1      32.366  35.926  30.002  1.00  0.00    -0.237 OA
ATOM     61  O   UNL A   1      33.808  36.421  28.067  1.00  0.00    -0.744 OA
ENDBRANCH  57  58
ENDBRANCH  25  50
BRANCH  37  62
ATOM     62  C   UNL A   1      39.881  34.190  37.028  1.00  0.00     0.058 A 
ATOM     63  C   UNL A   1      39.147  33.901  38.188  1.00  0.00     0.135 A 
ATOM     64  C   UNL A   1      40.453  35.467  36.910  1.00  0.00     0.135 A 
ATOM     65  F   UNL A   1      38.573  32.698  38.343  1.00  0.00    -0.206 F 
ATOM     66  C   UNL A   1      38.954  34.856  39.180  1.00  0.00     0.059 A 
ATOM     67  C   UNL A   1      40.293  36.429  37.902  1.00  0.00     0.059 A 
ATOM     68  F   UNL A   1      41.171  35.788  35.823  1.00  0.00    -0.206 F 
ATOM     69  C   UNL A   1      39.527  36.120  39.025  1.00  0.00     0.060 A 
BRANCH  69  70
ATOM     70  S   UNL A   1      39.271  37.353  40.318  1.00  0.00     0.124 S 
ATOM     71  O   UNL A   1      38.496  36.597  41.295  1.00  0.00    -0.237 OA
ATOM     72  O   UNL A   1      40.637  37.686  40.712  1.00  0.00    -0.237 OA
ATOM     73  O   UNL A   1      38.549  38.419  39.630  1.00  0.00    -0.744 OA
ENDBRANCH  69  70
ENDBRANCH  37  62
ENDBRANCH  11  12
ENDBRANCH   4   6
ENDBRANCH   1   2
BRANCH   1  74
ATOM     74  C   UNL A   1      39.393  22.084  26.476  1.00  0.00     0.042 C 
BRANCH  74  75
ATOM     75  C   UNL A   1      38.133  22.455  25.707  1.00  0.00     0.118 C 
BRANCH  75  76
ATOM     76  N   UNL A   1      37.360  21.288  25.299  1.00  0.00    -0.352 N 
ATOM     77  C   UNL A   1      36.030  21.187  24.975  1.00  0.00     0.251 C 
ATOM     78  H   UNL A   1      37.869  20.446  25.246  1.00  0.00     0.163 HD
ATOM     79  O   UNL A   1      35.508  20.088  24.815  1.00  0.00    -0.269 OA
BRANCH  77  80
ATOM     80  C   UNL A   1      35.221  22.409  24.820  1.00  0.00     0.040 A 
ATOM     81  C   UNL A   1      35.280  23.121  23.623  1.00  0.00     0.017 A 
ATOM     82  C   UNL A   1      34.406  22.853  25.863  1.00  0.00     0.017 A 
ATOM     83  C   UNL A   1      34.436  24.219  23.431  1.00  0.00     0.044 A 
ATOM     84  C   UNL A   1      33.556  23.940  25.663  1.00  0.00     0.044 A 
ATOM     85  C   UNL A   1      33.525  24.604  24.426  1.00  0.00     0.103 A 
BRANCH  85  86
ATOM     86  N   UNL A   1      32.578  25.651  24.200  1.00  0.00    -0.219 N 
ATOM     87  C   UNL A   1      31.762  25.540  23.014  1.00  0.00     0.405 C 
ATOM     88  C   UNL A   1      32.591  26.889  24.873  1.00  0.00     0.297 C 
ATOM     89  N   UNL A   1      30.553  26.279  23.184  1.00  0.00    -0.274 N 
ATOM     90  N   UNL A   1      31.616  27.810  24.570  1.00  0.00    -0.236 N 
ATOM     91  S   UNL A   1      33.779  27.378  25.986  1.00  0.00    -0.005 S 
ATOM     92  C   UNL A   1      30.632  27.490  23.799  1.00  0.00     0.229 C 
ATOM     93  H   UNL A   1      29.691  25.924  22.867  1.00  0.00     0.260 HD
ATOM     94  H   UNL A   1      31.669  28.721  24.942  1.00  0.00     0.268 HD
BRANCH  92  95
ATOM     95  C   UNL A   1      29.584  28.514  23.546  1.00  0.00     0.047 A 
ATOM     96  C   UNL A   1      29.920  29.869  23.646  1.00  0.00     0.015 A 
ATOM     97  C   UNL A   1      28.282  28.133  23.210  1.00  0.00     0.015 A 
ATOM     98  C   UNL A   1      28.956  30.843  23.397  1.00  0.00     0.001 A 
ATOM     99  C   UNL A   1      27.316  29.113  22.974  1.00  0.00     0.001 A 
ATOM    100  C   UNL A   1      27.654  30.465  23.064  1.00  0.00     0.000 A 
ENDBRANCH  92  95
ENDBRANCH  85  86
ENDBRANCH  77  80
ENDBRANCH  75  76
ENDBRANCH  74  75
ENDBRANCH   1  74
TORSDOF 15
ENDMDL
MODEL 2
REMARK VINA RESULT:     -13.3      6.814     12.474
REMARK SMILES O=C(NCCCNC(=O)c1ccc(N2CNC(c3ccccc3)=[NH+]C2=S)cc1)c1ccc(-c2c3nc(c(-c4c(F)cc(S(=O)(=O)[O-])cc4F)c4ccc([nH]4)c(-c4c(F)cc(S(=O)(=O)[O-])cc4F)c4nc(c(-c5c(F)cc(S(=O)(=O)[O-])cc5F)c5ccc2[nH]5)C=C4)C=C3)cc1
REMARK SMILES IDX 4 1 3 2 1 3 2 4 29 6 30 7 94 8 31 9 93 10 32 11 33 12 34 13
REMARK SMILES IDX 87 14 35 15 92 16 86 17 88 18 36 19 91 20 85 21 84 22 37 24
REMARK SMILES IDX 71 25 50 26 70 27 51 28 54 29 69 30 89 31 52 32 53 33 68 35
REMARK SMILES IDX 90 36 55 37 38 38 39 39 48 40 40 41 41 42 47 43 49 44 42 45
REMARK SMILES IDX 43 46 44 47 45 48 46 49 72 50 73 51 82 52 74 53 75 54 81 55
REMARK SMILES IDX 83 56 76 57 77 58 78 59 79 60 80 61 56 62 57 63 66 64 58 65
REMARK SMILES IDX 59 66 65 67 67 68 60 69 61 70 62 71 63 72 64 73 5 74 6 75
REMARK SMILES IDX 7 76 8 77 9 79 10 80 11 81 28 82 12 83 27 84 13 85 14 86
REMARK SMILES IDX 15 87 25 88 16 89 24 90 26 91 17 92 18 95 19 96 23 97 20 98
REMARK SMILES IDX 22 99 21 100
REMARK H PARENT 3 5 88 23 54 34 7 78 16 93 24 94
REMARK Flexibility Score: inf
ROOT
ATOM      1  C   UNL A   1      35.434  30.207  27.800  1.00  0.00     0.118 C 
ENDROOT
BRANCH   1   2
ATOM      2  N   UNL A   1      35.461  30.234  29.258  1.00  0.00    -0.352 N 
ATOM      3  O   UNL A   1      36.203  29.815  31.338  1.00  0.00    -0.269 OA
ATOM      4  C   UNL A   1      36.455  29.872  30.136  1.00  0.00     0.251 C 
ATOM      5  H   UNL A   1      34.635  30.563  29.679  1.00  0.00     0.163 HD
BRANCH   4   6
ATOM      6  C   UNL A   1      37.810  29.534  29.644  1.00  0.00     0.039 A 
ATOM      7  C   UNL A   1      38.774  29.018  30.511  1.00  0.00     0.014 A 
ATOM      8  C   UNL A   1      38.116  29.709  28.291  1.00  0.00     0.014 A 
ATOM      9  C   UNL A   1      40.080  28.845  30.068  1.00  0.00     0.010 A 
ATOM     10  C   UNL A   1      39.405  29.429  27.822  1.00  0.00     0.010 A 
ATOM     11  C   UNL A   1      40.408  29.024  28.714  1.00  0.00    -0.014 A 
BRANCH  11  12
ATOM     12  C   UNL A   1      41.789  28.701  28.270  1.00  0.00     0.031 A 
ATOM     13  C   UNL A   1      42.884  29.731  28.288  1.00  0.00     0.074 A 
ATOM     14  C   UNL A   1      42.058  27.429  27.909  1.00  0.00     0.049 A 
ATOM     15  N   UNL A   1      44.152  29.584  27.993  1.00  0.00    -0.248 NA
ATOM     16  C   UNL A   1      42.517  31.102  28.676  1.00  0.00     0.031 C 
ATOM     17  C   UNL A   1      41.066  26.351  27.828  1.00  0.00     0.029 A 
ATOM     18  N   UNL A   1      43.237  26.816  27.577  1.00  0.00    -0.354 N 
ATOM     19  C   UNL A   1      44.731  30.838  28.147  1.00  0.00     0.074 A 
ATOM     20  C   UNL A   1      43.671  31.744  28.537  1.00  0.00     0.031 C 
ATOM     21  C   UNL A   1      41.687  25.200  27.536  1.00  0.00     0.029 A 
ATOM     22  C   UNL A   1      43.108  25.466  27.345  1.00  0.00     0.049 A 
ATOM     23  H   UNL A   1      44.095  27.295  27.511  1.00  0.00     0.167 HD
ATOM     24  C   UNL A   1      46.028  31.195  27.987  1.00  0.00     0.037 A 
ATOM     25  C   UNL A   1      44.025  24.542  27.007  1.00  0.00     0.037 A 
ATOM     26  C   UNL A   1      47.081  30.282  27.616  1.00  0.00     0.049 A 
ATOM     27  C   UNL A   1      45.456  24.968  26.846  1.00  0.00     0.074 A 
ATOM     28  C   UNL A   1      48.430  30.545  27.444  1.00  0.00     0.029 A 
ATOM     29  N   UNL A   1      46.907  28.928  27.367  1.00  0.00    -0.354 N 
ATOM     30  N   UNL A   1      45.982  26.158  27.009  1.00  0.00    -0.248 NA
ATOM     31  C   UNL A   1      46.415  23.929  26.453  1.00  0.00     0.031 C 
ATOM     32  C   UNL A   1      49.065  29.358  27.061  1.00  0.00     0.029 A 
ATOM     33  C   UNL A   1      48.120  28.347  27.031  1.00  0.00     0.049 A 
ATOM     34  H   UNL A   1      46.047  28.449  27.421  1.00  0.00     0.167 HD
ATOM     35  C   UNL A   1      47.335  26.011  26.735  1.00  0.00     0.074 A 
ATOM     36  C   UNL A   1      47.552  24.610  26.431  1.00  0.00     0.031 C 
ATOM     37  C   UNL A   1      48.311  26.953  26.722  1.00  0.00     0.037 A 
BRANCH  24  38
ATOM     38  C   UNL A   1      46.395  32.637  28.205  1.00  0.00     0.058 A 
ATOM     39  C   UNL A   1      46.890  33.091  29.438  1.00  0.00     0.135 A 
ATOM     40  C   UNL A   1      46.326  33.561  27.149  1.00  0.00     0.135 A 
ATOM     41  F   UNL A   1      46.965  32.255  30.485  1.00  0.00    -0.206 F 
ATOM     42  C   UNL A   1      47.295  34.411  29.619  1.00  0.00     0.059 A 
ATOM     43  C   UNL A   1      46.744  34.880  27.301  1.00  0.00     0.059 A 
ATOM     44  F   UNL A   1      45.860  33.179  25.949  1.00  0.00    -0.206 F 
ATOM     45  C   UNL A   1      47.221  35.298  28.542  1.00  0.00     0.060 A 
BRANCH  45  46
ATOM     46  S   UNL A   1      47.783  36.998  28.782  1.00  0.00     0.124 S 
ATOM     47  O   UNL A   1      48.930  37.055  27.882  1.00  0.00    -0.237 OA
ATOM     48  O   UNL A   1      46.617  37.774  28.373  1.00  0.00    -0.237 OA
ATOM     49  O   UNL A   1      48.100  37.054  30.206  1.00  0.00    -0.744 OA
ENDBRANCH  45  46
ENDBRANCH  24  38
BRANCH  25  50
ATOM     50  C   UNL A   1      43.611  23.135  26.777  1.00  0.00     0.058 A 
ATOM     51  C   UNL A   1      43.582  22.586  25.487  1.00  0.00     0.135 A 
ATOM     52  C   UNL A   1      43.248  22.307  27.850  1.00  0.00     0.135 A 
ATOM     53  F   UNL A   1      43.920  23.339  24.430  1.00  0.00    -0.206 F 
ATOM     54  C   UNL A   1      43.186  21.271  25.266  1.00  0.00     0.059 A 
ATOM     55  C   UNL A   1      42.876  20.982  27.657  1.00  0.00     0.059 A 
ATOM     56  F   UNL A   1      43.280  22.780  29.106  1.00  0.00    -0.206 F 
ATOM     57  C   UNL A   1      42.833  20.478  26.359  1.00  0.00     0.060 A 
BRANCH  57  58
ATOM     58  S   UNL A   1      42.352  18.760  26.074  1.00  0.00     0.124 S 
ATOM     59  O   UNL A   1      42.591  18.170  27.386  1.00  0.00    -0.237 OA
ATOM     60  O   UNL A   1      40.955  18.889  25.675  1.00  0.00    -0.237 OA
ATOM     61  O   UNL A   1      43.262  18.334  25.014  1.00  0.00    -0.744 OA
ENDBRANCH  57  58
ENDBRANCH  25  50
BRANCH  37  62
ATOM     62  C   UNL A   1      49.694  26.486  26.371  1.00  0.00     0.058 A 
ATOM     63  C   UNL A   1      50.526  25.885  27.328  1.00  0.00     0.135 A 
ATOM     64  C   UNL A   1      50.191  26.639  25.068  1.00  0.00     0.135 A 
ATOM     65  F   UNL A   1      50.099  25.726  28.590  1.00  0.00    -0.206 F 
ATOM     66  C   UNL A   1      51.819  25.484  27.015  1.00  0.00     0.059 A 
ATOM     67  C   UNL A   1      51.474  26.222  24.726  1.00  0.00     0.059 A 
ATOM     68  F   UNL A   1      49.430  27.200  24.115  1.00  0.00    -0.206 F 
ATOM     69  C   UNL A   1      52.286  25.662  25.710  1.00  0.00     0.060 A 
BRANCH  69  70
ATOM     70  S   UNL A   1      53.967  25.138  25.312  1.00  0.00     0.124 S 
ATOM     71  O   UNL A   1      54.661  25.396  26.568  1.00  0.00    -0.237 OA
ATOM     72  O   UNL A   1      53.785  23.731  24.965  1.00  0.00    -0.237 OA
ATOM     73  O   UNL A   1      54.336  26.006  24.198  1.00  0.00    -0.744 OA
ENDBRANCH  69  70
ENDBRANCH  37  62
ENDBRANCH  11  12
ENDBRANCH   4   6
ENDBRANCH   1   2
BRANCH   1  74
ATOM     74  C   UNL A   1      34.817  28.936  27.239  1.00  0.00     0.042 C 
BRANCH  74  75
ATOM     75  C   UNL A   1      33.317  28.819  27.468  1.00  0.00     0.118 C 
BRANCH  75  76
ATOM     76  N   UNL A   1      32.542  29.098  26.266  1.00  0.00    -0.352 N 
ATOM     77  C   UNL A   1      32.167  28.255  25.250  1.00  0.00     0.251 C 
ATOM     78  H   UNL A   1      32.241  30.031  26.168  1.00  0.00     0.163 HD
ATOM     79  O   UNL A   1      31.656  28.698  24.226  1.00  0.00    -0.269 OA
BRANCH  77  80
ATOM     80  C   UNL A   1      32.381  26.803  25.388  1.00  0.00     0.040 A 
ATOM     81  C   UNL A   1      31.412  26.026  26.021  1.00  0.00     0.017 A 
ATOM     82  C   UNL A   1      33.546  26.212  24.897  1.00  0.00     0.017 A 
ATOM     83  C   UNL A   1      31.561  24.635  26.060  1.00  0.00     0.044 A 
ATOM     84  C   UNL A   1      33.684  24.824  24.926  1.00  0.00     0.044 A 
ATOM     85  C   UNL A   1      32.669  24.017  25.463  1.00  0.00     0.103 A 
BRANCH  85  86
ATOM     86  N   UNL A   1      32.776  22.593  25.395  1.00  0.00    -0.219 N 
ATOM     87  C   UNL A   1      32.021  21.936  24.354  1.00  0.00     0.405 C 
ATOM     88  C   UNL A   1      33.313  21.790  26.422  1.00  0.00     0.297 C 
ATOM     89  N   UNL A   1      32.614  20.675  24.046  1.00  0.00    -0.274 N 
ATOM     90  N   UNL A   1      33.368  20.429  26.228  1.00  0.00    -0.236 N 
ATOM     91  S   UNL A   1      33.831  22.365  27.935  1.00  0.00    -0.005 S 
ATOM     92  C   UNL A   1      33.073  19.920  25.080  1.00  0.00     0.229 C 
ATOM     93  H   UNL A   1      32.687  20.362  23.115  1.00  0.00     0.260 HD
ATOM     94  H   UNL A   1      33.634  19.839  26.971  1.00  0.00     0.268 HD
BRANCH  92  95
ATOM     95  C   UNL A   1      33.197  18.448  24.919  1.00  0.00     0.047 A 
ATOM     96  C   UNL A   1      33.907  17.941  23.825  1.00  0.00     0.015 A 
ATOM     97  C   UNL A   1      32.618  17.579  25.848  1.00  0.00     0.015 A 
ATOM     98  C   UNL A   1      34.047  16.564  23.665  1.00  0.00     0.001 A 
ATOM     99  C   UNL A   1      32.750  16.199  25.677  1.00  0.00     0.001 A 
ATOM    100  C   UNL A   1      33.467  15.694  24.590  1.00  0.00     0.000 A 
ENDBRANCH  92  95
ENDBRANCH  85  86
ENDBRANCH  77  80
ENDBRANCH  75  76
ENDBRANCH  74  75
ENDBRANCH   1  74
TORSDOF 15
ENDMDL
MODEL 3
REMARK VINA RESULT:     -13.3      0.624      1.303
REMARK SMILES O=C(NCCCNC(=O)c1ccc(N2CNC(c3ccccc3)=[NH+]C2=S)cc1)c1ccc(-c2c3nc(c(-c4c(F)cc(S(=O)(=O)[O-])cc4F)c4ccc([nH]4)c(-c4c(F)cc(S(=O)(=O)[O-])cc4F)c4nc(c(-c5c(F)cc(S(=O)(=O)[O-])cc5F)c5ccc2[nH]5)C=C4)C=C3)cc1
REMARK SMILES IDX 4 1 3 2 1 3 2 4 29 6 30 7 94 8 31 9 93 10 32 11 33 12 34 13
REMARK SMILES IDX 87 14 35 15 92 16 86 17 88 18 36 19 91 20 85 21 84 22 37 24
REMARK SMILES IDX 71 25 50 26 70 27 51 28 54 29 69 30 89 31 52 32 53 33 68 35
REMARK SMILES IDX 90 36 55 37 38 38 39 39 48 40 40 41 41 42 47 43 49 44 42 45
REMARK SMILES IDX 43 46 44 47 45 48 46 49 72 50 73 51 82 52 74 53 75 54 81 55
REMARK SMILES IDX 83 56 76 57 77 58 78 59 79 60 80 61 56 62 57 63 66 64 58 65
REMARK SMILES IDX 59 66 65 67 67 68 60 69 61 70 62 71 63 72 64 73 5 74 6 75
REMARK SMILES IDX 7 76 8 77 9 79 10 80 11 81 28 82 12 83 27 84 13 85 14 86
REMARK SMILES IDX 15 87 25 88 16 89 24 90 26 91 17 92 18 95 19 96 23 97 20 98
REMARK SMILES IDX 22 99 21 100
REMARK H PARENT 3 5 88 23 54 34 7 78 16 93 24 94
REMARK Flexibility Score: inf
ROOT
ATOM      1  C   UNL A   1      40.268  23.343  27.081  1.00  0.00     0.118 C 
ENDROOT
BRANCH   1   2
ATOM      2  N   UNL A   1      40.964  24.134  26.072  1.00  0.00    -0.352 N 
ATOM      3  O   UNL A   1      41.710  25.970  25.012  1.00  0.00    -0.269 OA
ATOM      4  C   UNL A   1      41.262  25.475  26.044  1.00  0.00     0.251 C 
ATOM      5  H   UNL A   1      41.267  23.625  25.286  1.00  0.00     0.163 HD
BRANCH   4   6
ATOM      6  C   UNL A   1      41.031  26.325  27.234  1.00  0.00     0.039 A 
ATOM      7  C   UNL A   1      41.799  27.468  27.454  1.00  0.00     0.014 A 
ATOM      8  C   UNL A   1      40.011  25.991  28.132  1.00  0.00     0.014 A 
ATOM      9  C   UNL A   1      41.670  28.170  28.647  1.00  0.00     0.010 A 
ATOM     10  C   UNL A   1      39.808  26.765  29.281  1.00  0.00     0.010 A 
ATOM     11  C   UNL A   1      40.658  27.844  29.565  1.00  0.00    -0.014 A 
BRANCH  11  12
ATOM     12  C   UNL A   1      40.480  28.707  30.761  1.00  0.00     0.031 A 
ATOM     13  C   UNL A   1      41.381  28.588  31.960  1.00  0.00     0.074 A 
ATOM     14  C   UNL A   1      39.523  29.656  30.722  1.00  0.00     0.049 A 
ATOM     15  N   UNL A   1      41.392  29.313  33.050  1.00  0.00    -0.248 NA
ATOM     16  C   UNL A   1      42.392  27.520  31.942  1.00  0.00     0.031 C 
ATOM     17  C   UNL A   1      38.572  29.847  29.621  1.00  0.00     0.029 A 
ATOM     18  N   UNL A   1      39.209  30.658  31.603  1.00  0.00    -0.354 N 
ATOM     19  C   UNL A   1      42.398  28.785  33.853  1.00  0.00     0.074 A 
ATOM     20  C   UNL A   1      42.959  27.660  33.135  1.00  0.00     0.031 C 
ATOM     21  C   UNL A   1      37.829  30.935  29.861  1.00  0.00     0.029 A 
ATOM     22  C   UNL A   1      38.203  31.484  31.159  1.00  0.00     0.049 A 
ATOM     23  H   UNL A   1      39.660  30.775  32.471  1.00  0.00     0.167 HD
ATOM     24  C   UNL A   1      42.817  29.208  35.070  1.00  0.00     0.037 A 
ATOM     25  C   UNL A   1      37.634  32.560  31.733  1.00  0.00     0.037 A 
ATOM     26  C   UNL A   1      42.264  30.341  35.769  1.00  0.00     0.049 A 
ATOM     27  C   UNL A   1      38.128  33.009  33.077  1.00  0.00     0.074 A 
ATOM     28  C   UNL A   1      42.632  30.858  37.000  1.00  0.00     0.029 A 
ATOM     29  N   UNL A   1      41.231  31.138  35.298  1.00  0.00    -0.354 N 
ATOM     30  N   UNL A   1      39.088  32.501  33.812  1.00  0.00    -0.248 NA
ATOM     31  C   UNL A   1      37.460  34.172  33.673  1.00  0.00     0.031 C 
ATOM     32  C   UNL A   1      41.802  31.948  37.287  1.00  0.00     0.029 A 
ATOM     33  C   UNL A   1      40.942  32.134  36.218  1.00  0.00     0.049 A 
ATOM     34  H   UNL A   1      40.771  31.016  34.435  1.00  0.00     0.167 HD
ATOM     35  C   UNL A   1      39.138  33.282  34.959  1.00  0.00     0.074 A 
ATOM     36  C   UNL A   1      38.135  34.317  34.804  1.00  0.00     0.031 C 
ATOM     37  C   UNL A   1      39.932  33.148  36.050  1.00  0.00     0.037 A 
BRANCH  24  38
ATOM     38  C   UNL A   1      43.928  28.445  35.737  1.00  0.00     0.058 A 
ATOM     39  C   UNL A   1      45.275  28.788  35.542  1.00  0.00     0.135 A 
ATOM     40  C   UNL A   1      43.641  27.410  36.643  1.00  0.00     0.135 A 
ATOM     41  F   UNL A   1      45.607  29.759  34.678  1.00  0.00    -0.206 F 
ATOM     42  C   UNL A   1      46.300  28.126  36.215  1.00  0.00     0.059 A 
ATOM     43  C   UNL A   1      44.647  26.748  37.342  1.00  0.00     0.059 A 
ATOM     44  F   UNL A   1      42.370  27.042  36.866  1.00  0.00    -0.206 F 
ATOM     45  C   UNL A   1      45.975  27.109  37.115  1.00  0.00     0.060 A 
BRANCH  45  46
ATOM     46  S   UNL A   1      47.312  26.283  38.006  1.00  0.00     0.124 S 
ATOM     47  O   UNL A   1      47.406  25.019  37.283  1.00  0.00    -0.237 OA
ATOM     48  O   UNL A   1      48.429  27.203  37.821  1.00  0.00    -0.237 OA
ATOM     49  O   UNL A   1      46.803  26.188  39.372  1.00  0.00    -0.744 OA
ENDBRANCH  45  46
ENDBRANCH  24  38
BRANCH  25  50
ATOM     50  C   UNL A   1      36.523  33.266  31.047  1.00  0.00     0.058 A 
ATOM     51  C   UNL A   1      35.197  33.140  31.487  1.00  0.00     0.135 A 
ATOM     52  C   UNL A   1      36.769  34.094  29.940  1.00  0.00     0.135 A 
ATOM     53  F   UNL A   1      34.912  32.359  32.540  1.00  0.00    -0.206 F 
ATOM     54  C   UNL A   1      34.152  33.792  30.842  1.00  0.00     0.059 A 
ATOM     55  C   UNL A   1      35.746  34.777  29.297  1.00  0.00     0.059 A 
ATOM     56  F   UNL A   1      38.024  34.263  29.494  1.00  0.00    -0.206 F 
ATOM     57  C   UNL A   1      34.437  34.608  29.745  1.00  0.00     0.060 A 
BRANCH  57  58
ATOM     58  S   UNL A   1      33.084  35.482  28.930  1.00  0.00     0.124 S 
ATOM     59  O   UNL A   1      32.487  34.416  28.133  1.00  0.00    -0.237 OA
ATOM     60  O   UNL A   1      32.292  35.956  30.060  1.00  0.00    -0.237 OA
ATOM     61  O   UNL A   1      33.771  36.526  28.175  1.00  0.00    -0.744 OA
ENDBRANCH  57  58
ENDBRANCH  25  50
BRANCH  37  62
ATOM     62  C   UNL A   1      39.742  34.151  37.149  1.00  0.00     0.058 A 
ATOM     63  C   UNL A   1      40.310  35.433  37.074  1.00  0.00     0.135 A 
ATOM     64  C   UNL A   1      38.986  33.831  38.287  1.00  0.00     0.135 A 
ATOM     65  F   UNL A   1      41.049  35.783  36.011  1.00  0.00    -0.206 F 
ATOM     66  C   UNL A   1      40.164  36.352  38.107  1.00  0.00     0.059 A 
ATOM     67  C   UNL A   1      38.806  34.744  39.322  1.00  0.00     0.059 A 
ATOM     68  F   UNL A   1      38.416  32.621  38.402  1.00  0.00    -0.206 F 
ATOM     69  C   UNL A   1      39.415  35.995  39.230  1.00  0.00     0.060 A 
BRANCH  69  70
ATOM     70  S   UNL A   1      39.231  37.195  40.567  1.00  0.00     0.124 S 
ATOM     71  O   UNL A   1      40.611  37.619  40.773  1.00  0.00    -0.237 OA
ATOM     72  O   UNL A   1      38.342  38.191  39.976  1.00  0.00    -0.237 OA
ATOM     73  O   UNL A   1      38.645  36.407  41.648  1.00  0.00    -0.744 OA
ENDBRANCH  69  70
ENDBRANCH  37  62
ENDBRANCH  11  12
ENDBRANCH   4   6
ENDBRANCH   1   2
BRANCH   1  74
ATOM     74  C   UNL A   1      39.571  22.122  26.503  1.00  0.00     0.042 C 
BRANCH  74  75
ATOM     75  C   UNL A   1      38.288  22.438  25.747  1.00  0.00     0.118 C 
BRANCH  75  76
ATOM     76  N   UNL A   1      37.567  21.239  25.338  1.00  0.00    -0.352 N 
ATOM     77  C   UNL A   1      36.242  21.079  25.018  1.00  0.00     0.251 C 
ATOM     78  H   UNL A   1      38.113  20.421  25.281  1.00  0.00     0.163 HD
ATOM     79  O   UNL A   1      35.769  19.958  24.856  1.00  0.00    -0.269 OA
BRANCH  77  80
ATOM     80  C   UNL A   1      35.378  22.264  24.868  1.00  0.00     0.040 A 
ATOM     81  C   UNL A   1      35.329  22.924  23.641  1.00  0.00     0.017 A 
ATOM     82  C   UNL A   1      34.620  22.725  25.946  1.00  0.00     0.017 A 
ATOM     83  C   UNL A   1      34.433  23.983  23.463  1.00  0.00     0.044 A 
ATOM     84  C   UNL A   1      33.718  23.772  25.760  1.00  0.00     0.044 A 
ATOM     85  C   UNL A   1      33.578  24.379  24.502  1.00  0.00     0.103 A 
BRANCH  85  86
ATOM     86  N   UNL A   1      32.578  25.381  24.298  1.00  0.00    -0.219 N 
ATOM     87  C   UNL A   1      32.780  26.643  24.968  1.00  0.00     0.405 C 
ATOM     88  C   UNL A   1      31.305  25.126  23.749  1.00  0.00     0.297 C 
ATOM     89  N   UNL A   1      32.073  27.676  24.281  1.00  0.00    -0.274 N 
ATOM     90  N   UNL A   1      30.434  26.180  23.597  1.00  0.00    -0.236 N 
ATOM     91  S   UNL A   1      30.717  23.587  23.329  1.00  0.00    -0.005 S 
ATOM     92  C   UNL A   1      30.829  27.389  23.813  1.00  0.00     0.229 C 
ATOM     93  H   UNL A   1      32.473  28.567  24.151  1.00  0.00     0.260 HD
ATOM     94  H   UNL A   1      29.504  26.011  23.322  1.00  0.00     0.268 HD
BRANCH  92  95
ATOM     95  C   UNL A   1      29.856  28.490  23.585  1.00  0.00     0.047 A 
ATOM     96  C   UNL A   1      30.228  29.802  23.900  1.00  0.00     0.015 A 
ATOM     97  C   UNL A   1      28.588  28.223  23.061  1.00  0.00     0.015 A 
ATOM     98  C   UNL A   1      29.335  30.849  23.680  1.00  0.00     0.001 A 
ATOM     99  C   UNL A   1      27.693  29.274  22.854  1.00  0.00     0.001 A 
ATOM    100  C   UNL A   1      28.067  30.584  23.159  1.00  0.00     0.000 A 
ENDBRANCH  92  95
ENDBRANCH  85  86
ENDBRANCH  77  80
ENDBRANCH  75  76
ENDBRANCH  74  75
ENDBRANCH   1  74
TORSDOF 15
ENDMDL
