MODEL 1
REMARK VINA RESULT:     -12.3      0.000      0.000
REMARK SMILES O=C(NCCCNC(=O)c1cccnc1SCC(=O)c1ccccc1Cl)c1ccc(-c2c3nc(c(-c4c(F)cc(S(=O)(=O)[O-])cc4F)c4ccc([nH]4)c(-c4c(F)cc(S(=O)(=O)[O-])cc4F)c4nc(c(-c5c(F)cc(S(=O)(=O)[O-])cc5F)c5ccc2[nH]5)C=C4)C=C3)cc1
REMARK SMILES IDX 5 1 4 2 3 3 1 4 2 5 27 7 28 8 92 9 29 10 91 11 30 12 31 13
REMARK SMILES IDX 32 14 85 15 33 16 90 17 84 18 86 19 34 20 89 21 83 22 82 23
REMARK SMILES IDX 35 25 69 26 48 27 68 28 49 29 52 30 67 31 87 32 50 33 51 34
REMARK SMILES IDX 66 36 88 37 53 38 36 39 37 40 46 41 38 42 39 43 45 44 47 45
REMARK SMILES IDX 40 46 41 47 42 48 43 49 44 50 70 51 71 52 80 53 72 54 73 55
REMARK SMILES IDX 79 56 81 57 74 58 75 59 76 60 77 61 78 62 54 63 55 64 64 65
REMARK SMILES IDX 56 66 57 67 63 68 65 69 58 70 59 71 60 72 61 73 62 74 6 75
REMARK SMILES IDX 7 76 8 77 9 79 10 80 11 81 15 82 12 83 14 84 13 85 16 86
REMARK SMILES IDX 17 87 18 88 19 89 20 90 21 91 25 92 22 93 24 94 26 95 23 96
REMARK H PARENT 3 6 86 24 52 35 7 78
REMARK Flexibility Score: inf
ROOT
ATOM      1  C   UNL A   1      37.219  23.685  25.418  1.00  0.00     0.042 C 
ENDROOT
BRANCH   1   2
ATOM      2  C   UNL A   1      38.215  24.060  26.508  1.00  0.00     0.118 C 
BRANCH   2   3
ATOM      3  N   UNL A   1      39.580  24.205  26.014  1.00  0.00    -0.352 N 
ATOM      4  O   UNL A   1      41.602  25.104  25.653  1.00  0.00    -0.269 OA
ATOM      5  C   UNL A   1      40.596  25.065  26.359  1.00  0.00     0.251 C 
ATOM      6  H   UNL A   1      39.819  23.570  25.301  1.00  0.00     0.163 HD
BRANCH   5   7
ATOM      7  C   UNL A   1      40.494  25.953  27.540  1.00  0.00     0.039 A 
ATOM      8  C   UNL A   1      39.604  25.683  28.575  1.00  0.00     0.014 A 
ATOM      9  C   UNL A   1      41.358  27.051  27.645  1.00  0.00     0.014 A 
ATOM     10  C   UNL A   1      39.450  26.592  29.616  1.00  0.00     0.010 A 
ATOM     11  C   UNL A   1      41.278  27.910  28.750  1.00  0.00     0.010 A 
ATOM     12  C   UNL A   1      40.294  27.709  29.727  1.00  0.00    -0.014 A 
BRANCH  12  13
ATOM     13  C   UNL A   1      40.144  28.597  30.911  1.00  0.00     0.031 A 
ATOM     14  C   UNL A   1      41.082  28.506  32.083  1.00  0.00     0.074 A 
ATOM     15  C   UNL A   1      39.195  29.555  30.878  1.00  0.00     0.049 A 
ATOM     16  N   UNL A   1      41.153  29.278  33.139  1.00  0.00    -0.248 NA
ATOM     17  C   UNL A   1      42.059  27.407  32.083  1.00  0.00     0.031 C 
ATOM     18  C   UNL A   1      38.201  29.717  29.812  1.00  0.00     0.029 A 
ATOM     19  N   UNL A   1      38.935  30.595  31.731  1.00  0.00    -0.354 N 
ATOM     20  C   UNL A   1      42.166  28.754  33.932  1.00  0.00     0.074 A 
ATOM     21  C   UNL A   1      42.667  27.580  33.250  1.00  0.00     0.031 C 
ATOM     22  C   UNL A   1      37.493  30.832  30.034  1.00  0.00     0.029 A 
ATOM     23  C   UNL A   1      37.945  31.438  31.282  1.00  0.00     0.049 A 
ATOM     24  H   UNL A   1      39.410  30.726  32.584  1.00  0.00     0.167 HD
ATOM     25  C   UNL A   1      42.642  29.215  35.115  1.00  0.00     0.037 A 
ATOM     26  C   UNL A   1      37.458  32.577  31.808  1.00  0.00     0.037 A 
ATOM     27  C   UNL A   1      42.152  30.394  35.782  1.00  0.00     0.049 A 
ATOM     28  C   UNL A   1      38.040  33.094  33.089  1.00  0.00     0.074 A 
ATOM     29  C   UNL A   1      42.565  30.940  36.986  1.00  0.00     0.029 A 
ATOM     30  N   UNL A   1      41.148  31.220  35.297  1.00  0.00    -0.354 N 
ATOM     31  N   UNL A   1      39.001  32.583  33.821  1.00  0.00    -0.248 NA
ATOM     32  C   UNL A   1      37.472  34.341  33.620  1.00  0.00     0.031 C 
ATOM     33  C   UNL A   1      41.798  32.085  37.237  1.00  0.00     0.029 A 
ATOM     34  C   UNL A   1      40.928  32.268  36.176  1.00  0.00     0.049 A 
ATOM     35  H   UNL A   1      40.663  31.080  34.451  1.00  0.00     0.167 HD
ATOM     36  C   UNL A   1      39.145  33.437  34.905  1.00  0.00     0.074 A 
ATOM     37  C   UNL A   1      38.200  34.520  34.714  1.00  0.00     0.031 C 
ATOM     38  C   UNL A   1      39.973  33.327  35.973  1.00  0.00     0.037 A 
BRANCH  25  39
ATOM     39  C   UNL A   1      43.751  28.440  35.769  1.00  0.00     0.058 A 
ATOM     40  C   UNL A   1      43.482  27.372  36.640  1.00  0.00     0.135 A 
ATOM     41  C   UNL A   1      45.094  28.736  35.492  1.00  0.00     0.135 A 
ATOM     42  F   UNL A   1      42.215  27.058  36.953  1.00  0.00    -0.206 F 
ATOM     43  C   UNL A   1      44.507  26.635  37.225  1.00  0.00     0.059 A 
ATOM     44  C   UNL A   1      46.136  28.001  36.051  1.00  0.00     0.059 A 
ATOM     45  F   UNL A   1      45.406  29.749  34.667  1.00  0.00    -0.206 F 
ATOM     46  C   UNL A   1      45.832  26.959  36.927  1.00  0.00     0.060 A 
BRANCH  46  47
ATOM     47  S   UNL A   1      47.154  25.990  37.685  1.00  0.00     0.124 S 
ATOM     48  O   UNL A   1      48.309  26.857  37.471  1.00  0.00    -0.237 OA
ATOM     49  O   UNL A   1      46.702  25.868  39.068  1.00  0.00    -0.237 OA
ATOM     50  O   UNL A   1      47.148  24.749  36.917  1.00  0.00    -0.744 OA
ENDBRANCH  46  47
ENDBRANCH  25  39
BRANCH  26  51
ATOM     51  C   UNL A   1      36.363  33.299  31.112  1.00  0.00     0.058 A 
ATOM     52  C   UNL A   1      35.063  33.327  31.636  1.00  0.00     0.135 A 
ATOM     53  C   UNL A   1      36.608  34.005  29.925  1.00  0.00     0.135 A 
ATOM     54  F   UNL A   1      34.781  32.664  32.768  1.00  0.00    -0.206 F 
ATOM     55  C   UNL A   1      34.039  34.024  31.002  1.00  0.00     0.059 A 
ATOM     56  C   UNL A   1      35.608  34.729  29.286  1.00  0.00     0.059 A 
ATOM     57  F   UNL A   1      37.842  34.023  29.396  1.00  0.00    -0.206 F 
ATOM     58  C   UNL A   1      34.323  34.724  29.828  1.00  0.00     0.060 A 
BRANCH  58  59
ATOM     59  S   UNL A   1      33.012  35.686  29.039  1.00  0.00     0.124 S 
ATOM     60  O   UNL A   1      32.390  34.682  28.184  1.00  0.00    -0.237 OA
ATOM     61  O   UNL A   1      32.221  36.133  30.181  1.00  0.00    -0.237 OA
ATOM     62  O   UNL A   1      33.748  36.740  28.349  1.00  0.00    -0.744 OA
ENDBRANCH  58  59
ENDBRANCH  26  51
BRANCH  38  63
ATOM     63  C   UNL A   1      39.877  34.404  37.012  1.00  0.00     0.058 A 
ATOM     64  C   UNL A   1      39.068  34.246  38.149  1.00  0.00     0.135 A 
ATOM     65  C   UNL A   1      40.597  35.600  36.876  1.00  0.00     0.135 A 
ATOM     66  F   UNL A   1      38.355  33.121  38.318  1.00  0.00    -0.206 F 
ATOM     67  C   UNL A   1      38.950  35.251  39.100  1.00  0.00     0.059 A 
ATOM     68  C   UNL A   1      40.510  36.612  37.826  1.00  0.00     0.059 A 
ATOM     69  F   UNL A   1      41.390  35.794  35.811  1.00  0.00    -0.206 F 
ATOM     70  C   UNL A   1      39.668  36.436  38.926  1.00  0.00     0.060 A 
BRANCH  70  71
ATOM     71  S   UNL A   1      39.512  37.741  40.163  1.00  0.00     0.124 S 
ATOM     72  O   UNL A   1      40.866  38.284  40.187  1.00  0.00    -0.237 OA
ATOM     73  O   UNL A   1      38.491  38.609  39.582  1.00  0.00    -0.237 OA
ATOM     74  O   UNL A   1      39.100  37.019  41.363  1.00  0.00    -0.744 OA
ENDBRANCH  70  71
ENDBRANCH  38  63
ENDBRANCH  12  13
ENDBRANCH   5   7
ENDBRANCH   2   3
ENDBRANCH   1   2
BRANCH   1  75
ATOM     75  C   UNL A   1      36.516  22.359  25.654  1.00  0.00     0.118 C 
BRANCH  75  76
ATOM     76  N   UNL A   1      35.560  22.393  26.751  1.00  0.00    -0.352 N 
ATOM     77  C   UNL A   1      34.277  21.919  26.773  1.00  0.00     0.254 C 
ATOM     78  H   UNL A   1      35.878  22.810  27.583  1.00  0.00     0.163 HD
ATOM     79  O   UNL A   1      33.719  21.650  27.832  1.00  0.00    -0.269 OA
BRANCH  77  80
ATOM     80  C   UNL A   1      33.611  21.548  25.538  1.00  0.00     0.072 A 
ATOM     81  C   UNL A   1      33.612  20.163  25.280  1.00  0.00     0.018 A 
ATOM     82  C   UNL A   1      32.952  22.415  24.673  1.00  0.00     0.109 A 
ATOM     83  C   UNL A   1      33.015  19.669  24.134  1.00  0.00     0.021 A 
ATOM     84  N   UNL A   1      32.391  21.911  23.533  1.00  0.00    -0.249 NA
ATOM     85  C   UNL A   1      32.429  20.582  23.288  1.00  0.00     0.112 A 
BRANCH  82  86
ATOM     86  S   UNL A   1      32.660  24.168  24.709  1.00  0.00    -0.097 SA
BRANCH  86  87
ATOM     87  C   UNL A   1      30.920  24.550  24.863  1.00  0.00     0.157 C 
BRANCH  87  88
ATOM     88  C   UNL A   1      30.365  25.741  25.609  1.00  0.00     0.174 C 
ATOM     89  O   UNL A   1      29.559  25.509  26.525  1.00  0.00    -0.293 OA
BRANCH  88  90
ATOM     90  C   UNL A   1      30.973  27.111  25.660  1.00  0.00     0.037 A 
ATOM     91  C   UNL A   1      31.467  27.460  26.942  1.00  0.00     0.013 A 
ATOM     92  C   UNL A   1      30.979  28.106  24.679  1.00  0.00     0.051 A 
ATOM     93  C   UNL A   1      31.951  28.737  27.233  1.00  0.00     0.001 A 
ATOM     94  C   UNL A   1      31.508  29.381  24.967  1.00  0.00     0.021 A 
ATOM     95  Cl  UNL A   1      30.248  27.990  23.133  1.00  0.00    -0.084 Cl
ATOM     96  C   UNL A   1      31.980  29.700  26.237  1.00  0.00     0.002 A 
ENDBRANCH  88  90
ENDBRANCH  87  88
ENDBRANCH  86  87
ENDBRANCH  82  86
ENDBRANCH  77  80
ENDBRANCH  75  76
ENDBRANCH   1  75
TORSDOF 17
ENDMDL
MODEL 2
REMARK VINA RESULT:     -12.1      5.146      9.686
REMARK SMILES O=C(NCCCNC(=O)c1cccnc1SCC(=O)c1ccccc1Cl)c1ccc(-c2c3nc(c(-c4c(F)cc(S(=O)(=O)[O-])cc4F)c4ccc([nH]4)c(-c4c(F)cc(S(=O)(=O)[O-])cc4F)c4nc(c(-c5c(F)cc(S(=O)(=O)[O-])cc5F)c5ccc2[nH]5)C=C4)C=C3)cc1
REMARK SMILES IDX 5 1 4 2 3 3 1 4 2 5 27 7 28 8 92 9 29 10 91 11 30 12 31 13
REMARK SMILES IDX 32 14 85 15 33 16 90 17 84 18 86 19 34 20 89 21 83 22 82 23
REMARK SMILES IDX 35 25 69 26 48 27 68 28 49 29 52 30 67 31 87 32 50 33 51 34
REMARK SMILES IDX 66 36 88 37 53 38 36 39 37 40 46 41 38 42 39 43 45 44 47 45
REMARK SMILES IDX 40 46 41 47 42 48 43 49 44 50 70 51 71 52 80 53 72 54 73 55
REMARK SMILES IDX 79 56 81 57 74 58 75 59 76 60 77 61 78 62 54 63 55 64 64 65
REMARK SMILES IDX 56 66 57 67 63 68 65 69 58 70 59 71 60 72 61 73 62 74 6 75
REMARK SMILES IDX 7 76 8 77 9 79 10 80 11 81 15 82 12 83 14 84 13 85 16 86
REMARK SMILES IDX 17 87 18 88 19 89 20 90 21 91 25 92 22 93 24 94 26 95 23 96
REMARK H PARENT 3 6 86 24 52 35 7 78
REMARK Flexibility Score: inf
ROOT
ATOM      1  C   UNL A   1      32.484  27.445  27.069  1.00  0.00     0.042 C 
ENDROOT
BRANCH   1   2
ATOM      2  C   UNL A   1      33.780  28.237  26.949  1.00  0.00     0.118 C 
BRANCH   2   3
ATOM      3  N   UNL A   1      33.651  29.622  27.389  1.00  0.00    -0.352 N 
ATOM      4  O   UNL A   1      34.084  31.531  28.482  1.00  0.00    -0.269 OA
ATOM      5  C   UNL A   1      34.510  30.456  28.064  1.00  0.00     0.251 C 
ATOM      6  H   UNL A   1      32.788  30.036  27.160  1.00  0.00     0.163 HD
BRANCH   5   7
ATOM      7  C   UNL A   1      35.920  30.079  28.316  1.00  0.00     0.039 A 
ATOM      8  C   UNL A   1      36.343  29.651  29.571  1.00  0.00     0.014 A 
ATOM      9  C   UNL A   1      36.831  30.092  27.251  1.00  0.00     0.014 A 
ATOM     10  C   UNL A   1      37.692  29.412  29.807  1.00  0.00     0.010 A 
ATOM     11  C   UNL A   1      38.172  29.745  27.465  1.00  0.00     0.010 A 
ATOM     12  C   UNL A   1      38.623  29.440  28.755  1.00  0.00    -0.014 A 
BRANCH  12  13
ATOM     13  C   UNL A   1      40.037  29.085  29.050  1.00  0.00     0.031 A 
ATOM     14  C   UNL A   1      40.606  27.746  28.668  1.00  0.00     0.074 A 
ATOM     15  C   UNL A   1      40.834  30.027  29.594  1.00  0.00     0.049 A 
ATOM     16  N   UNL A   1      41.843  27.326  28.756  1.00  0.00    -0.248 NA
ATOM     17  C   UNL A   1      39.673  26.745  28.130  1.00  0.00     0.031 C 
ATOM     18  C   UNL A   1      40.387  31.350  30.043  1.00  0.00     0.029 A 
ATOM     19  N   UNL A   1      42.186  30.042  29.822  1.00  0.00    -0.354 N 
ATOM     20  C   UNL A   1      41.837  26.013  28.300  1.00  0.00     0.074 A 
ATOM     21  C   UNL A   1      40.466  25.695  27.959  1.00  0.00     0.031 C 
ATOM     22  C   UNL A   1      41.452  32.072  30.419  1.00  0.00     0.029 A 
ATOM     23  C   UNL A   1      42.650  31.251  30.287  1.00  0.00     0.049 A 
ATOM     24  H   UNL A   1      42.768  29.263  29.669  1.00  0.00     0.167 HD
ATOM     25  C   UNL A   1      42.878  25.156  28.166  1.00  0.00     0.037 A 
ATOM     26  C   UNL A   1      43.901  31.659  30.569  1.00  0.00     0.037 A 
ATOM     27  C   UNL A   1      44.244  25.483  28.490  1.00  0.00     0.049 A 
ATOM     28  C   UNL A   1      45.042  30.709  30.362  1.00  0.00     0.074 A 
ATOM     29  C   UNL A   1      45.369  24.681  28.395  1.00  0.00     0.029 A 
ATOM     30  N   UNL A   1      44.673  26.715  28.959  1.00  0.00    -0.354 N 
ATOM     31  N   UNL A   1      45.012  29.472  29.925  1.00  0.00    -0.248 NA
ATOM     32  C   UNL A   1      46.386  31.205  30.684  1.00  0.00     0.031 C 
ATOM     33  C   UNL A   1      46.477  25.424  28.824  1.00  0.00     0.029 A 
ATOM     34  C   UNL A   1      46.045  26.697  29.159  1.00  0.00     0.049 A 
ATOM     35  H   UNL A   1      44.089  27.491  29.126  1.00  0.00     0.167 HD
ATOM     36  C   UNL A   1      46.330  29.037  29.934  1.00  0.00     0.074 A 
ATOM     37  C   UNL A   1      47.137  30.155  30.380  1.00  0.00     0.031 C 
ATOM     38  C   UNL A   1      46.827  27.817  29.617  1.00  0.00     0.037 A 
BRANCH  25  39
ATOM     39  C   UNL A   1      42.584  23.776  27.650  1.00  0.00     0.058 A 
ATOM     40  C   UNL A   1      42.525  23.506  26.273  1.00  0.00     0.135 A 
ATOM     41  C   UNL A   1      42.401  22.702  28.536  1.00  0.00     0.135 A 
ATOM     42  F   UNL A   1      42.675  24.500  25.383  1.00  0.00    -0.206 F 
ATOM     43  C   UNL A   1      42.281  22.223  25.793  1.00  0.00     0.059 A 
ATOM     44  C   UNL A   1      42.174  21.407  28.079  1.00  0.00     0.059 A 
ATOM     45  F   UNL A   1      42.446  22.906  29.862  1.00  0.00    -0.206 F 
ATOM     46  C   UNL A   1      42.103  21.180  26.704  1.00  0.00     0.060 A 
BRANCH  46  47
ATOM     47  S   UNL A   1      41.795  19.518  26.069  1.00  0.00     0.124 S 
ATOM     48  O   UNL A   1      42.695  19.474  24.921  1.00  0.00    -0.237 OA
ATOM     49  O   UNL A   1      42.170  18.673  27.200  1.00  0.00    -0.237 OA
ATOM     50  O   UNL A   1      40.371  19.535  25.751  1.00  0.00    -0.744 OA
ENDBRANCH  46  47
ENDBRANCH  25  39
BRANCH  26  51
ATOM     51  C   UNL A   1      44.127  33.037  31.074  1.00  0.00     0.058 A 
ATOM     52  C   UNL A   1      44.436  34.089  30.201  1.00  0.00     0.135 A 
ATOM     53  C   UNL A   1      44.003  33.332  32.440  1.00  0.00     0.135 A 
ATOM     54  F   UNL A   1      44.567  33.855  28.886  1.00  0.00    -0.206 F 
ATOM     55  C   UNL A   1      44.622  35.388  30.665  1.00  0.00     0.059 A 
ATOM     56  C   UNL A   1      44.160  34.625  32.925  1.00  0.00     0.059 A 
ATOM     57  F   UNL A   1      43.689  32.360  33.312  1.00  0.00    -0.206 F 
ATOM     58  C   UNL A   1      44.480  35.645  32.030  1.00  0.00     0.060 A 
BRANCH  58  59
ATOM     59  S   UNL A   1      44.655  37.342  32.627  1.00  0.00     0.124 S 
ATOM     60  O   UNL A   1      44.223  37.207  34.013  1.00  0.00    -0.237 OA
ATOM     61  O   UNL A   1      46.076  37.602  32.422  1.00  0.00    -0.237 OA
ATOM     62  O   UNL A   1      43.758  38.092  31.753  1.00  0.00    -0.744 OA
ENDBRANCH  58  59
ENDBRANCH  26  51
BRANCH  38  63
ATOM     63  C   UNL A   1      48.309  27.637  29.756  1.00  0.00     0.058 A 
ATOM     64  C   UNL A   1      48.876  27.188  30.960  1.00  0.00     0.135 A 
ATOM     65  C   UNL A   1      49.169  27.911  28.682  1.00  0.00     0.135 A 
ATOM     66  F   UNL A   1      48.093  26.920  32.016  1.00  0.00    -0.206 F 
ATOM     67  C   UNL A   1      50.251  27.049  31.105  1.00  0.00     0.059 A 
ATOM     68  C   UNL A   1      50.547  27.760  28.800  1.00  0.00     0.059 A 
ATOM     69  F   UNL A   1      48.674  28.334  27.510  1.00  0.00    -0.206 F 
ATOM     70  C   UNL A   1      51.080  27.346  30.022  1.00  0.00     0.060 A 
BRANCH  70  71
ATOM     71  S   UNL A   1      52.865  27.165  30.215  1.00  0.00     0.124 S 
ATOM     72  O   UNL A   1      53.199  28.363  30.979  1.00  0.00    -0.237 OA
ATOM     73  O   UNL A   1      52.981  25.901  30.937  1.00  0.00    -0.237 OA
ATOM     74  O   UNL A   1      53.352  27.139  28.839  1.00  0.00    -0.744 OA
ENDBRANCH  70  71
ENDBRANCH  38  63
ENDBRANCH  12  13
ENDBRANCH   5   7
ENDBRANCH   2   3
ENDBRANCH   1   2
BRANCH   1  75
ATOM     75  C   UNL A   1      32.481  26.143  26.287  1.00  0.00     0.118 C 
BRANCH  75  76
ATOM     76  N   UNL A   1      31.333  25.294  26.571  1.00  0.00    -0.352 N 
ATOM     77  C   UNL A   1      31.302  23.937  26.739  1.00  0.00     0.254 C 
ATOM     78  H   UNL A   1      30.469  25.757  26.653  1.00  0.00     0.163 HD
ATOM     79  O   UNL A   1      30.385  23.395  27.347  1.00  0.00    -0.269 OA
BRANCH  77  80
ATOM     80  C   UNL A   1      32.445  23.125  26.363  1.00  0.00     0.072 A 
ATOM     81  C   UNL A   1      33.167  22.611  27.457  1.00  0.00     0.018 A 
ATOM     82  C   UNL A   1      32.815  22.787  25.066  1.00  0.00     0.109 A 
ATOM     83  C   UNL A   1      34.284  21.822  27.244  1.00  0.00     0.021 A 
ATOM     84  N   UNL A   1      33.937  22.030  24.876  1.00  0.00    -0.249 NA
ATOM     85  C   UNL A   1      34.634  21.570  25.939  1.00  0.00     0.112 A 
BRANCH  82  86
ATOM     86  S   UNL A   1      32.115  23.155  23.474  1.00  0.00    -0.097 SA
BRANCH  86  87
ATOM     87  C   UNL A   1      33.264  24.044  22.431  1.00  0.00     0.157 C 
BRANCH  87  88
ATOM     88  C   UNL A   1      33.067  25.465  21.954  1.00  0.00     0.174 C 
ATOM     89  O   UNL A   1      33.221  25.680  20.740  1.00  0.00    -0.293 OA
BRANCH  88  90
ATOM     90  C   UNL A   1      32.312  26.540  22.675  1.00  0.00     0.037 A 
ATOM     91  C   UNL A   1      30.948  26.221  22.894  1.00  0.00     0.013 A 
ATOM     92  C   UNL A   1      32.728  27.830  23.014  1.00  0.00     0.051 A 
ATOM     93  C   UNL A   1      30.043  27.139  23.430  1.00  0.00     0.001 A 
ATOM     94  C   UNL A   1      31.820  28.739  23.594  1.00  0.00     0.021 A 
ATOM     95  Cl  UNL A   1      34.259  28.513  22.652  1.00  0.00    -0.084 Cl
ATOM     96  C   UNL A   1      30.484  28.402  23.791  1.00  0.00     0.002 A 
ENDBRANCH  88  90
ENDBRANCH  87  88
ENDBRANCH  86  87
ENDBRANCH  82  86
ENDBRANCH  77  80
ENDBRANCH  75  76
ENDBRANCH   1  75
TORSDOF 17
ENDMDL
MODEL 3
REMARK VINA RESULT:     -12.1      1.047      2.065
REMARK SMILES O=C(NCCCNC(=O)c1cccnc1SCC(=O)c1ccccc1Cl)c1ccc(-c2c3nc(c(-c4c(F)cc(S(=O)(=O)[O-])cc4F)c4ccc([nH]4)c(-c4c(F)cc(S(=O)(=O)[O-])cc4F)c4nc(c(-c5c(F)cc(S(=O)(=O)[O-])cc5F)c5ccc2[nH]5)C=C4)C=C3)cc1
REMARK SMILES IDX 5 1 4 2 3 3 1 4 2 5 27 7 28 8 92 9 29 10 91 11 30 12 31 13
REMARK SMILES IDX 32 14 85 15 33 16 90 17 84 18 86 19 34 20 89 21 83 22 82 23
REMARK SMILES IDX 35 25 69 26 48 27 68 28 49 29 52 30 67 31 87 32 50 33 51 34
REMARK SMILES IDX 66 36 88 37 53 38 36 39 37 40 46 41 38 42 39 43 45 44 47 45
REMARK SMILES IDX 40 46 41 47 42 48 43 49 44 50 70 51 71 52 80 53 72 54 73 55
REMARK SMILES IDX 79 56 81 57 74 58 75 59 76 60 77 61 78 62 54 63 55 64 64 65
REMARK SMILES IDX 56 66 57 67 63 68 65 69 58 70 59 71 60 72 61 73 62 74 6 75
REMARK SMILES IDX 7 76 8 77 9 79 10 80 11 81 15 82 12 83 14 84 13 85 16 86
REMARK SMILES IDX 17 87 18 88 19 89 20 90 21 91 25 92 22 93 24 94 26 95 23 96
REMARK H PARENT 3 6 86 24 52 35 7 78
REMARK Flexibility Score: inf
ROOT
ATOM      1  C   UNL A   1      37.283  23.591  25.444  1.00  0.00     0.042 C 
ENDROOT
BRANCH   1   2
ATOM      2  C   UNL A   1      38.271  24.063  26.504  1.00  0.00     0.118 C 
BRANCH   2   3
ATOM      3  N   UNL A   1      39.625  24.242  25.990  1.00  0.00    -0.352 N 
ATOM      4  O   UNL A   1      41.619  25.189  25.601  1.00  0.00    -0.269 OA
ATOM      5  C   UNL A   1      40.625  25.124  26.322  1.00  0.00     0.251 C 
ATOM      6  H   UNL A   1      39.867  23.614  25.272  1.00  0.00     0.163 HD
BRANCH   5   7
ATOM      7  C   UNL A   1      40.520  26.008  27.506  1.00  0.00     0.039 A 
ATOM      8  C   UNL A   1      39.681  25.694  28.572  1.00  0.00     0.014 A 
ATOM      9  C   UNL A   1      41.332  27.147  27.584  1.00  0.00     0.014 A 
ATOM     10  C   UNL A   1      39.517  26.596  29.618  1.00  0.00     0.010 A 
ATOM     11  C   UNL A   1      41.248  28.001  28.691  1.00  0.00     0.010 A 
ATOM     12  C   UNL A   1      40.309  27.753  29.701  1.00  0.00    -0.014 A 
BRANCH  12  13
ATOM     13  C   UNL A   1      40.156  28.633  30.890  1.00  0.00     0.031 A 
ATOM     14  C   UNL A   1      41.083  28.525  32.071  1.00  0.00     0.074 A 
ATOM     15  C   UNL A   1      39.216  29.599  30.856  1.00  0.00     0.049 A 
ATOM     16  N   UNL A   1      41.151  29.289  33.132  1.00  0.00    -0.248 NA
ATOM     17  C   UNL A   1      42.050  27.417  32.071  1.00  0.00     0.031 C 
ATOM     18  C   UNL A   1      38.233  29.778  29.782  1.00  0.00     0.029 A 
ATOM     19  N   UNL A   1      38.958  30.636  31.715  1.00  0.00    -0.354 N 
ATOM     20  C   UNL A   1      42.152  28.749  33.931  1.00  0.00     0.074 A 
ATOM     21  C   UNL A   1      42.649  27.576  33.244  1.00  0.00     0.031 C 
ATOM     22  C   UNL A   1      37.533  30.898  30.007  1.00  0.00     0.029 A 
ATOM     23  C   UNL A   1      37.979  31.491  31.264  1.00  0.00     0.049 A 
ATOM     24  H   UNL A   1      39.426  30.756  32.573  1.00  0.00     0.167 HD
ATOM     25  C   UNL A   1      42.621  29.197  35.121  1.00  0.00     0.037 A 
ATOM     26  C   UNL A   1      37.497  32.629  31.794  1.00  0.00     0.037 A 
ATOM     27  C   UNL A   1      42.136  30.376  35.793  1.00  0.00     0.049 A 
ATOM     28  C   UNL A   1      38.072  33.132  33.084  1.00  0.00     0.074 A 
ATOM     29  C   UNL A   1      42.543  30.908  37.005  1.00  0.00     0.029 A 
ATOM     30  N   UNL A   1      41.144  31.213  35.305  1.00  0.00    -0.354 N 
ATOM     31  N   UNL A   1      39.022  32.606  33.821  1.00  0.00    -0.248 NA
ATOM     32  C   UNL A   1      37.511  34.380  33.619  1.00  0.00     0.031 C 
ATOM     33  C   UNL A   1      41.784  32.058  37.257  1.00  0.00     0.029 A 
ATOM     34  C   UNL A   1      40.925  32.258  36.190  1.00  0.00     0.049 A 
ATOM     35  H   UNL A   1      40.665  31.085  34.454  1.00  0.00     0.167 HD
ATOM     36  C   UNL A   1      39.163  33.451  34.912  1.00  0.00     0.074 A 
ATOM     37  C   UNL A   1      38.230  34.544  34.721  1.00  0.00     0.031 C 
ATOM     38  C   UNL A   1      39.981  33.327  35.987  1.00  0.00     0.037 A 
BRANCH  25  39
ATOM     39  C   UNL A   1      43.718  28.407  35.780  1.00  0.00     0.058 A 
ATOM     40  C   UNL A   1      45.071  28.678  35.522  1.00  0.00     0.135 A 
ATOM     41  C   UNL A   1      43.416  27.401  36.710  1.00  0.00     0.135 A 
ATOM     42  F   UNL A   1      45.413  29.619  34.628  1.00  0.00    -0.206 F 
ATOM     43  C   UNL A   1      46.087  27.967  36.153  1.00  0.00     0.059 A 
ATOM     44  C   UNL A   1      44.417  26.689  37.366  1.00  0.00     0.059 A 
ATOM     45  F   UNL A   1      42.138  27.101  36.991  1.00  0.00    -0.206 F 
ATOM     46  C   UNL A   1      45.750  26.972  37.072  1.00  0.00     0.060 A 
BRANCH  46  47
ATOM     47  S   UNL A   1      47.078  26.062  37.890  1.00  0.00     0.124 S 
ATOM     48  O   UNL A   1      46.426  24.787  38.173  1.00  0.00    -0.237 OA
ATOM     49  O   UNL A   1      48.116  26.026  36.864  1.00  0.00    -0.237 OA
ATOM     50  O   UNL A   1      47.385  26.884  39.056  1.00  0.00    -0.744 OA
ENDBRANCH  46  47
ENDBRANCH  25  39
BRANCH  26  51
ATOM     51  C   UNL A   1      36.415  33.366  31.093  1.00  0.00     0.058 A 
ATOM     52  C   UNL A   1      36.666  34.075  29.910  1.00  0.00     0.135 A 
ATOM     53  C   UNL A   1      35.098  33.343  31.578  1.00  0.00     0.135 A 
ATOM     54  F   UNL A   1      37.910  34.127  29.410  1.00  0.00    -0.206 F 
ATOM     55  C   UNL A   1      35.651  34.744  29.234  1.00  0.00     0.059 A 
ATOM     56  C   UNL A   1      34.062  33.984  30.908  1.00  0.00     0.059 A 
ATOM     57  F   UNL A   1      34.806  32.661  32.697  1.00  0.00    -0.206 F 
ATOM     58  C   UNL A   1      34.351  34.691  29.742  1.00  0.00     0.060 A 
BRANCH  58  59
ATOM     59  S   UNL A   1      33.018  35.501  28.830  1.00  0.00     0.124 S 
ATOM     60  O   UNL A   1      33.757  36.486  28.049  1.00  0.00    -0.237 OA
ATOM     61  O   UNL A   1      32.434  34.395  28.078  1.00  0.00    -0.237 OA
ATOM     62  O   UNL A   1      32.172  36.038  29.892  1.00  0.00    -0.744 OA
ENDBRANCH  58  59
ENDBRANCH  26  51
BRANCH  38  63
ATOM     63  C   UNL A   1      39.885  34.396  37.033  1.00  0.00     0.058 A 
ATOM     64  C   UNL A   1      40.621  35.587  36.924  1.00  0.00     0.135 A 
ATOM     65  C   UNL A   1      39.052  34.235  38.150  1.00  0.00     0.135 A 
ATOM     66  F   UNL A   1      41.436  35.783  35.876  1.00  0.00    -0.206 F 
ATOM     67  C   UNL A   1      40.560  36.569  37.905  1.00  0.00     0.059 A 
ATOM     68  C   UNL A   1      38.960  35.214  39.135  1.00  0.00     0.059 A 
ATOM     69  F   UNL A   1      38.323  33.118  38.294  1.00  0.00    -0.206 F 
ATOM     70  C   UNL A   1      39.733  36.369  39.012  1.00  0.00     0.060 A 
BRANCH  70  71
ATOM     71  S   UNL A   1      39.657  37.647  40.285  1.00  0.00     0.124 S 
ATOM     72  O   UNL A   1      39.000  36.934  41.375  1.00  0.00    -0.237 OA
ATOM     73  O   UNL A   1      41.066  37.969  40.497  1.00  0.00    -0.237 OA
ATOM     74  O   UNL A   1      38.869  38.702  39.657  1.00  0.00    -0.744 OA
ENDBRANCH  70  71
ENDBRANCH  38  63
ENDBRANCH  12  13
ENDBRANCH   5   7
ENDBRANCH   2   3
ENDBRANCH   1   2
BRANCH   1  75
ATOM     75  C   UNL A   1      36.787  22.171  25.653  1.00  0.00     0.118 C 
BRANCH  75  76
ATOM     76  N   UNL A   1      35.795  22.050  26.711  1.00  0.00    -0.352 N 
ATOM     77  C   UNL A   1      34.437  21.943  26.593  1.00  0.00     0.254 C 
ATOM     78  H   UNL A   1      36.147  22.044  27.630  1.00  0.00     0.163 HD
ATOM     79  O   UNL A   1      33.758  21.463  27.495  1.00  0.00    -0.269 OA
BRANCH  77  80
ATOM     80  C   UNL A   1      33.786  22.226  25.327  1.00  0.00     0.072 A 
ATOM     81  C   UNL A   1      33.310  21.080  24.659  1.00  0.00     0.018 A 
ATOM     82  C   UNL A   1      33.559  23.487  24.788  1.00  0.00     0.109 A 
ATOM     83  C   UNL A   1      32.672  21.202  23.438  1.00  0.00     0.021 A 
ATOM     84  N   UNL A   1      32.951  23.584  23.568  1.00  0.00    -0.249 NA
ATOM     85  C   UNL A   1      32.527  22.471  22.929  1.00  0.00     0.112 A 
BRANCH  82  86
ATOM     86  S   UNL A   1      33.916  25.130  25.365  1.00  0.00    -0.097 SA
BRANCH  86  87
ATOM     87  C   UNL A   1      33.176  26.378  24.320  1.00  0.00     0.157 C 
BRANCH  87  88
ATOM     88  C   UNL A   1      33.647  27.811  24.229  1.00  0.00     0.174 C 
ATOM     89  O   UNL A   1      34.001  28.221  23.112  1.00  0.00    -0.293 OA
BRANCH  88  90
ATOM     90  C   UNL A   1      33.347  28.902  25.214  1.00  0.00     0.037 A 
ATOM     91  C   UNL A   1      34.327  29.028  26.229  1.00  0.00     0.013 A 
ATOM     92  C   UNL A   1      32.193  29.680  25.338  1.00  0.00     0.051 A 
ATOM     93  C   UNL A   1      34.171  29.893  27.315  1.00  0.00     0.001 A 
ATOM     94  C   UNL A   1      32.059  30.582  26.414  1.00  0.00     0.021 A 
ATOM     95  Cl  UNL A   1      30.790  29.549  24.362  1.00  0.00    -0.084 Cl
ATOM     96  C   UNL A   1      33.035  30.681  27.402  1.00  0.00     0.002 A 
ENDBRANCH  88  90
ENDBRANCH  87  88
ENDBRANCH  86  87
ENDBRANCH  82  86
ENDBRANCH  77  80
ENDBRANCH  75  76
ENDBRANCH   1  75
TORSDOF 17
ENDMDL
