MODEL 1
REMARK VINA RESULT:     -12.9      0.000      0.000
REMARK SMILES C[C@H]1[C@@H](C(=O)NCCCNC(=O)c2ccc(-c3c4nc(c(-c5c(F)cc(S(=O)(=O)[O-])cc5F)c5ccc([nH]5)c(-c5c(F)cc(S(=O)(=O)[O-])cc5F)c5nc(c(-c6c(F)cc(S(=O)(=O)[O-])cc6F)c6ccc3[nH]6)C=C5)C=C4)cc2)CCN1C(=O)c1cc2cc(F)ccc2s1
REMARK SMILES IDX 8 1 7 2 6 3 4 4 5 5 3 7 1 8 2 9 81 10 79 11 80 12 82 13
REMARK SMILES IDX 83 14 84 15 85 16 93 17 86 18 92 19 87 20 91 21 88 22 90 23
REMARK SMILES IDX 89 24 9 25 10 26 11 27 12 29 13 30 14 31 78 32 15 33 77 34
REMARK SMILES IDX 16 35 17 36 18 37 71 38 19 39 76 40 70 41 72 42 20 43 75 44
REMARK SMILES IDX 69 45 68 46 21 48 55 49 34 50 54 51 35 52 38 53 53 54 73 55
REMARK SMILES IDX 36 56 37 57 52 59 74 60 39 61 22 62 23 63 32 64 24 65 25 66
REMARK SMILES IDX 31 67 33 68 26 69 27 70 28 71 29 72 30 73 56 74 57 75 66 76
REMARK SMILES IDX 58 77 59 78 65 79 67 80 60 81 61 82 62 83 63 84 64 85 40 86
REMARK SMILES IDX 41 87 50 88 42 89 43 90 49 91 51 92 44 93 45 94 46 95 47 96
REMARK SMILES IDX 48 97
REMARK H PARENT 6 6 10 28 72 47 38 58
REMARK Flexibility Score: inf
ROOT
ATOM      1  C   UNL A   1      38.789  22.149  25.987  1.00  0.00     0.042 C 
ENDROOT
BRANCH   1   2
ATOM      2  C   UNL A   1      37.408  22.557  25.478  1.00  0.00     0.117 C 
BRANCH   2   3
ATOM      3  N   UNL A   1      36.379  22.013  26.344  1.00  0.00    -0.356 N 
ATOM      4  C   UNL A   1      35.036  21.891  26.177  1.00  0.00     0.225 C 
ATOM      5  O   UNL A   1      34.399  21.536  27.172  1.00  0.00    -0.275 OA
ATOM      6  H   UNL A   1      36.714  21.673  27.205  1.00  0.00     0.163 HD
BRANCH   4   7
ATOM      7  C   UNL A   1      34.383  22.058  24.802  1.00  0.00     0.102 C 
ATOM      8  C   UNL A   1      34.456  24.686  24.778  1.00  0.00     0.032 C 
ATOM      9  C   UNL A   1      33.730  23.406  24.428  1.00  0.00     0.094 C 
ATOM     10  N   UNL A   1      32.358  23.346  24.943  1.00  0.00    -0.334 N 
ATOM     11  C   UNL A   1      33.148  21.137  24.734  1.00  0.00     0.037 C 
ATOM     12  C   UNL A   1      32.062  21.990  25.378  1.00  0.00     0.121 C 
BRANCH  10  13
ATOM     13  C   UNL A   1      31.364  24.033  24.256  1.00  0.00     0.264 C 
ATOM     14  O   UNL A   1      30.831  23.532  23.261  1.00  0.00    -0.268 OA
BRANCH  13  15
ATOM     15  C   UNL A   1      30.961  25.330  24.753  1.00  0.00     0.093 A 
ATOM     16  C   UNL A   1      31.153  25.810  26.031  1.00  0.00     0.034 A 
ATOM     17  S   UNL A   1      30.417  26.565  23.707  1.00  0.00    -0.130 S 
ATOM     18  C   UNL A   1      31.273  27.237  26.048  1.00  0.00    -0.004 A 
ATOM     19  C   UNL A   1      30.942  27.790  24.807  1.00  0.00     0.035 A 
ATOM     20  C   UNL A   1      31.766  28.090  27.060  1.00  0.00     0.048 A 
ATOM     21  C   UNL A   1      31.092  29.168  24.549  1.00  0.00     0.022 A 
ATOM     22  C   UNL A   1      31.997  29.432  26.770  1.00  0.00     0.123 A 
ATOM     23  C   UNL A   1      31.670  29.970  25.537  1.00  0.00     0.041 A 
ATOM     24  F   UNL A   1      32.598  30.200  27.688  1.00  0.00    -0.207 F 
ENDBRANCH  13  15
ENDBRANCH  10  13
ENDBRANCH   4   7
ENDBRANCH   2   3
ENDBRANCH   1   2
BRANCH   1  25
ATOM     25  C   UNL A   1      39.483  23.229  26.807  1.00  0.00     0.118 C 
BRANCH  25  26
ATOM     26  N   UNL A   1      40.762  23.592  26.228  1.00  0.00    -0.352 N 
ATOM     27  C   UNL A   1      41.494  24.748  26.355  1.00  0.00     0.251 C 
ATOM     28  H   UNL A   1      41.169  22.903  25.654  1.00  0.00     0.163 HD
ATOM     29  O   UNL A   1      42.406  24.950  25.554  1.00  0.00    -0.269 OA
BRANCH  27  30
ATOM     30  C   UNL A   1      41.211  25.750  27.417  1.00  0.00     0.039 A 
ATOM     31  C   UNL A   1      42.070  26.848  27.539  1.00  0.00     0.014 A 
ATOM     32  C   UNL A   1      40.182  25.585  28.349  1.00  0.00     0.014 A 
ATOM     33  C   UNL A   1      41.887  27.779  28.569  1.00  0.00     0.010 A 
ATOM     34  C   UNL A   1      39.948  26.558  29.325  1.00  0.00     0.010 A 
ATOM     35  C   UNL A   1      40.815  27.650  29.466  1.00  0.00    -0.014 A 
BRANCH  35  36
ATOM     36  C   UNL A   1      40.632  28.617  30.585  1.00  0.00     0.031 A 
ATOM     37  C   UNL A   1      41.485  28.516  31.824  1.00  0.00     0.074 A 
ATOM     38  C   UNL A   1      39.681  29.568  30.507  1.00  0.00     0.049 A 
ATOM     39  N   UNL A   1      41.449  29.238  32.916  1.00  0.00    -0.248 NA
ATOM     40  C   UNL A   1      42.494  27.445  31.851  1.00  0.00     0.031 C 
ATOM     41  C   UNL A   1      38.752  29.748  29.390  1.00  0.00     0.029 A 
ATOM     42  N   UNL A   1      39.336  30.564  31.388  1.00  0.00    -0.354 N 
ATOM     43  C   UNL A   1      42.410  28.698  33.764  1.00  0.00     0.074 A 
ATOM     44  C   UNL A   1      42.981  27.558  33.079  1.00  0.00     0.031 C 
ATOM     45  C   UNL A   1      37.959  30.802  29.643  1.00  0.00     0.029 A 
ATOM     46  C   UNL A   1      38.304  31.359  30.948  1.00  0.00     0.049 A 
ATOM     47  H   UNL A   1      39.785  30.695  32.254  1.00  0.00     0.167 HD
ATOM     48  C   UNL A   1      42.803  29.123  34.989  1.00  0.00     0.037 A 
ATOM     49  C   UNL A   1      37.705  32.416  31.527  1.00  0.00     0.037 A 
ATOM     50  C   UNL A   1      42.267  30.280  35.657  1.00  0.00     0.049 A 
ATOM     51  C   UNL A   1      38.187  32.902  32.866  1.00  0.00     0.074 A 
ATOM     52  C   UNL A   1      42.638  30.821  36.877  1.00  0.00     0.029 A 
ATOM     53  N   UNL A   1      41.253  31.083  35.157  1.00  0.00    -0.354 N 
ATOM     54  N   UNL A   1      39.130  32.404  33.631  1.00  0.00    -0.248 NA
ATOM     55  C   UNL A   1      37.533  34.097  33.416  1.00  0.00     0.031 C 
ATOM     56  C   UNL A   1      41.831  31.938  37.124  1.00  0.00     0.029 A 
ATOM     57  C   UNL A   1      40.980  32.110  36.045  1.00  0.00     0.049 A 
ATOM     58  H   UNL A   1      40.793  30.942  34.298  1.00  0.00     0.167 HD
ATOM     59  C   UNL A   1      39.193  33.233  34.745  1.00  0.00     0.074 A 
ATOM     60  C   UNL A   1      38.204  34.274  34.547  1.00  0.00     0.031 C 
ATOM     61  C   UNL A   1      39.993  33.139  35.835  1.00  0.00     0.037 A 
BRANCH  48  62
ATOM     62  C   UNL A   1      43.879  28.332  35.682  1.00  0.00     0.058 A 
ATOM     63  C   UNL A   1      43.567  27.295  36.575  1.00  0.00     0.135 A 
ATOM     64  C   UNL A   1      45.236  28.604  35.442  1.00  0.00     0.135 A 
ATOM     65  F   UNL A   1      42.285  27.005  36.852  1.00  0.00    -0.206 F 
ATOM     66  C   UNL A   1      44.560  26.580  37.236  1.00  0.00     0.059 A 
ATOM     67  C   UNL A   1      46.246  27.884  36.073  1.00  0.00     0.059 A 
ATOM     68  F   UNL A   1      45.590  29.583  34.594  1.00  0.00    -0.206 F 
ATOM     69  C   UNL A   1      45.898  26.887  36.984  1.00  0.00     0.060 A 
BRANCH  69  70
ATOM     70  S   UNL A   1      47.184  25.966  37.855  1.00  0.00     0.124 S 
ATOM     71  O   UNL A   1      47.299  24.772  37.015  1.00  0.00    -0.237 OA
ATOM     72  O   UNL A   1      48.324  26.885  37.794  1.00  0.00    -0.237 OA
ATOM     73  O   UNL A   1      46.621  25.757  39.174  1.00  0.00    -0.744 OA
ENDBRANCH  69  70
ENDBRANCH  48  62
BRANCH  49  74
ATOM     74  C   UNL A   1      36.597  33.112  30.821  1.00  0.00     0.058 A 
ATOM     75  C   UNL A   1      35.263  32.910  31.201  1.00  0.00     0.135 A 
ATOM     76  C   UNL A   1      36.855  34.012  29.777  1.00  0.00     0.135 A 
ATOM     77  F   UNL A   1      34.970  32.053  32.190  1.00  0.00    -0.206 F 
ATOM     78  C   UNL A   1      34.218  33.571  30.564  1.00  0.00     0.059 A 
ATOM     79  C   UNL A   1      35.828  34.700  29.137  1.00  0.00     0.059 A 
ATOM     80  F   UNL A   1      38.117  34.249  29.388  1.00  0.00    -0.206 F 
ATOM     81  C   UNL A   1      34.511  34.467  29.535  1.00  0.00     0.060 A 
BRANCH  81  82
ATOM     82  S   UNL A   1      33.155  35.375  28.761  1.00  0.00     0.124 S 
ATOM     83  O   UNL A   1      33.880  36.339  27.940  1.00  0.00    -0.237 OA
ATOM     84  O   UNL A   1      32.450  34.322  28.038  1.00  0.00    -0.237 OA
ATOM     85  O   UNL A   1      32.433  35.932  29.901  1.00  0.00    -0.744 OA
ENDBRANCH  81  82
ENDBRANCH  49  74
BRANCH  61  86
ATOM     86  C   UNL A   1      39.845  34.199  36.888  1.00  0.00     0.058 A 
ATOM     87  C   UNL A   1      38.974  34.035  37.976  1.00  0.00     0.135 A 
ATOM     88  C   UNL A   1      40.605  35.378  36.826  1.00  0.00     0.135 A 
ATOM     89  F   UNL A   1      38.223  32.927  38.077  1.00  0.00    -0.206 F 
ATOM     90  C   UNL A   1      38.840  35.016  38.954  1.00  0.00     0.059 A 
ATOM     91  C   UNL A   1      40.502  36.363  37.804  1.00  0.00     0.059 A 
ATOM     92  F   UNL A   1      41.460  35.579  35.811  1.00  0.00    -0.206 F 
ATOM     93  C   UNL A   1      39.606  36.178  38.856  1.00  0.00     0.060 A 
BRANCH  93  94
ATOM     94  S   UNL A   1      39.440  37.439  40.139  1.00  0.00     0.124 S 
ATOM     95  O   UNL A   1      38.477  38.350  39.530  1.00  0.00    -0.237 OA
ATOM     96  O   UNL A   1      38.953  36.669  41.279  1.00  0.00    -0.237 OA
ATOM     97  O   UNL A   1      40.797  37.960  40.277  1.00  0.00    -0.744 OA
ENDBRANCH  93  94
ENDBRANCH  61  86
ENDBRANCH  35  36
ENDBRANCH  27  30
ENDBRANCH  25  26
ENDBRANCH   1  25
TORSDOF 15
ENDMDL
MODEL 2
REMARK VINA RESULT:     -12.9      5.144     11.293
REMARK SMILES C[C@H]1[C@@H](C(=O)NCCCNC(=O)c2ccc(-c3c4nc(c(-c5c(F)cc(S(=O)(=O)[O-])cc5F)c5ccc([nH]5)c(-c5c(F)cc(S(=O)(=O)[O-])cc5F)c5nc(c(-c6c(F)cc(S(=O)(=O)[O-])cc6F)c6ccc3[nH]6)C=C5)C=C4)cc2)CCN1C(=O)c1cc2cc(F)ccc2s1
REMARK SMILES IDX 8 1 7 2 6 3 4 4 5 5 3 7 1 8 2 9 81 10 79 11 80 12 82 13
REMARK SMILES IDX 83 14 84 15 85 16 93 17 86 18 92 19 87 20 91 21 88 22 90 23
REMARK SMILES IDX 89 24 9 25 10 26 11 27 12 29 13 30 14 31 78 32 15 33 77 34
REMARK SMILES IDX 16 35 17 36 18 37 71 38 19 39 76 40 70 41 72 42 20 43 75 44
REMARK SMILES IDX 69 45 68 46 21 48 55 49 34 50 54 51 35 52 38 53 53 54 73 55
REMARK SMILES IDX 36 56 37 57 52 59 74 60 39 61 22 62 23 63 32 64 24 65 25 66
REMARK SMILES IDX 31 67 33 68 26 69 27 70 28 71 29 72 30 73 56 74 57 75 66 76
REMARK SMILES IDX 58 77 59 78 65 79 67 80 60 81 61 82 62 83 63 84 64 85 40 86
REMARK SMILES IDX 41 87 50 88 42 89 43 90 49 91 51 92 44 93 45 94 46 95 47 96
REMARK SMILES IDX 48 97
REMARK H PARENT 6 6 10 28 72 47 38 58
REMARK Flexibility Score: inf
ROOT
ATOM      1  C   UNL A   1      33.369  33.895  28.102  1.00  0.00     0.042 C 
ENDROOT
BRANCH   1   2
ATOM      2  C   UNL A   1      33.678  35.007  29.101  1.00  0.00     0.117 C 
BRANCH   2   3
ATOM      3  N   UNL A   1      33.097  34.690  30.392  1.00  0.00    -0.356 N 
ATOM      4  C   UNL A   1      33.626  34.702  31.643  1.00  0.00     0.225 C 
ATOM      5  O   UNL A   1      32.921  34.217  32.531  1.00  0.00    -0.275 OA
ATOM      6  H   UNL A   1      32.151  34.418  30.354  1.00  0.00     0.163 HD
BRANCH   4   7
ATOM      7  C   UNL A   1      34.957  35.397  31.941  1.00  0.00     0.102 C 
ATOM      8  C   UNL A   1      36.487  33.499  30.957  1.00  0.00     0.032 C 
ATOM      9  C   UNL A   1      36.254  34.562  32.008  1.00  0.00     0.094 C 
ATOM     10  N   UNL A   1      36.341  34.062  33.383  1.00  0.00    -0.334 N 
ATOM     11  C   UNL A   1      34.914  35.935  33.386  1.00  0.00     0.037 C 
ATOM     12  C   UNL A   1      35.339  34.723  34.205  1.00  0.00     0.121 C 
BRANCH  10  13
ATOM     13  C   UNL A   1      37.601  33.868  33.938  1.00  0.00     0.264 C 
ATOM     14  O   UNL A   1      38.297  34.835  34.262  1.00  0.00    -0.268 OA
BRANCH  13  15
ATOM     15  C   UNL A   1      38.057  32.511  34.143  1.00  0.00     0.093 A 
ATOM     16  C   UNL A   1      37.338  31.362  33.891  1.00  0.00     0.034 A 
ATOM     17  S   UNL A   1      39.691  32.152  34.482  1.00  0.00    -0.130 S 
ATOM     18  C   UNL A   1      38.194  30.265  33.554  1.00  0.00    -0.004 A 
ATOM     19  C   UNL A   1      39.537  30.577  33.785  1.00  0.00     0.035 A 
ATOM     20  C   UNL A   1      37.881  29.028  32.946  1.00  0.00     0.048 A 
ATOM     21  C   UNL A   1      40.574  29.694  33.424  1.00  0.00     0.022 A 
ATOM     22  C   UNL A   1      38.913  28.201  32.510  1.00  0.00     0.123 A 
ATOM     23  C   UNL A   1      40.240  28.521  32.740  1.00  0.00     0.041 A 
ATOM     24  F   UNL A   1      38.610  27.102  31.807  1.00  0.00    -0.207 F 
ENDBRANCH  13  15
ENDBRANCH  10  13
ENDBRANCH   4   7
ENDBRANCH   2   3
ENDBRANCH   1   2
BRANCH   1  25
ATOM     25  C   UNL A   1      34.343  32.725  28.166  1.00  0.00     0.118 C 
BRANCH  25  26
ATOM     26  N   UNL A   1      33.655  31.456  28.029  1.00  0.00    -0.352 N 
ATOM     27  C   UNL A   1      34.160  30.191  27.852  1.00  0.00     0.251 C 
ATOM     28  H   UNL A   1      32.673  31.509  28.070  1.00  0.00     0.163 HD
ATOM     29  O   UNL A   1      33.393  29.305  27.477  1.00  0.00    -0.269 OA
BRANCH  27  30
ATOM     30  C   UNL A   1      35.594  29.871  28.091  1.00  0.00     0.039 A 
ATOM     31  C   UNL A   1      35.982  29.484  29.378  1.00  0.00     0.014 A 
ATOM     32  C   UNL A   1      36.573  30.034  27.106  1.00  0.00     0.014 A 
ATOM     33  C   UNL A   1      37.330  29.243  29.668  1.00  0.00     0.010 A 
ATOM     34  C   UNL A   1      37.907  29.713  27.373  1.00  0.00     0.010 A 
ATOM     35  C   UNL A   1      38.306  29.344  28.665  1.00  0.00    -0.014 A 
BRANCH  35  36
ATOM     36  C   UNL A   1      39.747  29.122  28.972  1.00  0.00     0.031 A 
ATOM     37  C   UNL A   1      40.402  27.806  28.634  1.00  0.00     0.074 A 
ATOM     38  C   UNL A   1      40.465  30.087  29.579  1.00  0.00     0.049 A 
ATOM     39  N   UNL A   1      41.631  27.411  28.858  1.00  0.00    -0.248 NA
ATOM     40  C   UNL A   1      39.559  26.791  27.985  1.00  0.00     0.031 C 
ATOM     41  C   UNL A   1      39.946  31.387  30.006  1.00  0.00     0.029 A 
ATOM     42  N   UNL A   1      41.788  30.122  29.945  1.00  0.00    -0.354 N 
ATOM     43  C   UNL A   1      41.700  26.101  28.398  1.00  0.00     0.074 A 
ATOM     44  C   UNL A   1      40.378  25.751  27.926  1.00  0.00     0.031 C 
ATOM     45  C   UNL A   1      40.942  32.100  30.557  1.00  0.00     0.029 A 
ATOM     46  C   UNL A   1      42.165  31.301  30.544  1.00  0.00     0.049 A 
ATOM     47  H   UNL A   1      42.409  29.373  29.795  1.00  0.00     0.167 HD
ATOM     48  C   UNL A   1      42.770  25.270  28.347  1.00  0.00     0.037 A 
ATOM     49  C   UNL A   1      43.359  31.697  31.026  1.00  0.00     0.037 A 
ATOM     50  C   UNL A   1      44.097  25.628  28.777  1.00  0.00     0.049 A 
ATOM     51  C   UNL A   1      44.544  30.778  30.917  1.00  0.00     0.074 A 
ATOM     52  C   UNL A   1      45.256  24.873  28.716  1.00  0.00     0.029 A 
ATOM     53  N   UNL A   1      44.444  26.848  29.337  1.00  0.00    -0.354 N 
ATOM     54  N   UNL A   1      44.599  29.558  30.436  1.00  0.00    -0.248 NA
ATOM     55  C   UNL A   1      45.831  31.291  31.406  1.00  0.00     0.031 C 
ATOM     56  C   UNL A   1      46.301  25.629  29.262  1.00  0.00     0.029 A 
ATOM     57  C   UNL A   1      45.798  26.865  29.632  1.00  0.00     0.049 A 
ATOM     58  H   UNL A   1      43.821  27.591  29.502  1.00  0.00     0.167 HD
ATOM     59  C   UNL A   1      45.927  29.164  30.551  1.00  0.00     0.074 A 
ATOM     60  C   UNL A   1      46.646  30.281  31.131  1.00  0.00     0.031 C 
ATOM     61  C   UNL A   1      46.499  27.984  30.210  1.00  0.00     0.037 A 
BRANCH  48  62
ATOM     62  C   UNL A   1      42.546  23.890  27.792  1.00  0.00     0.058 A 
ATOM     63  C   UNL A   1      42.367  22.781  28.634  1.00  0.00     0.135 A 
ATOM     64  C   UNL A   1      42.498  23.674  26.405  1.00  0.00     0.135 A 
ATOM     65  F   UNL A   1      42.420  22.930  29.968  1.00  0.00    -0.206 F 
ATOM     66  C   UNL A   1      42.186  21.500  28.123  1.00  0.00     0.059 A 
ATOM     67  C   UNL A   1      42.292  22.405  25.872  1.00  0.00     0.059 A 
ATOM     68  F   UNL A   1      42.659  24.700  25.555  1.00  0.00    -0.206 F 
ATOM     69  C   UNL A   1      42.157  21.321  26.740  1.00  0.00     0.060 A 
BRANCH  69  70
ATOM     70  S   UNL A   1      41.935  19.655  26.080  1.00  0.00     0.124 S 
ATOM     71  O   UNL A   1      42.387  18.838  27.208  1.00  0.00    -0.237 OA
ATOM     72  O   UNL A   1      40.494  19.611  25.815  1.00  0.00    -0.237 OA
ATOM     73  O   UNL A   1      42.786  19.634  24.907  1.00  0.00    -0.744 OA
ENDBRANCH  69  70
ENDBRANCH  48  62
BRANCH  49  74
ATOM     74  C   UNL A   1      43.498  33.048  31.628  1.00  0.00     0.058 A 
ATOM     75  C   UNL A   1      43.761  34.169  30.828  1.00  0.00     0.135 A 
ATOM     76  C   UNL A   1      43.339  33.248  33.007  1.00  0.00     0.135 A 
ATOM     77  F   UNL A   1      43.926  34.023  29.505  1.00  0.00    -0.206 F 
ATOM     78  C   UNL A   1      43.872  35.443  31.374  1.00  0.00     0.059 A 
ATOM     79  C   UNL A   1      43.426  34.516  33.575  1.00  0.00     0.059 A 
ATOM     80  F   UNL A   1      43.071  32.208  33.811  1.00  0.00    -0.206 F 
ATOM     81  C   UNL A   1      43.699  35.606  32.749  1.00  0.00     0.060 A 
BRANCH  81  82
ATOM     82  S   UNL A   1      43.774  37.273  33.442  1.00  0.00     0.124 S 
ATOM     83  O   UNL A   1      42.570  37.301  34.265  1.00  0.00    -0.237 OA
ATOM     84  O   UNL A   1      45.041  37.252  34.165  1.00  0.00    -0.237 OA
ATOM     85  O   UNL A   1      43.751  38.127  32.258  1.00  0.00    -0.744 OA
ENDBRANCH  81  82
ENDBRANCH  49  74
BRANCH  61  86
ATOM     86  C   UNL A   1      47.977  27.846  30.439  1.00  0.00     0.058 A 
ATOM     87  C   UNL A   1      48.909  28.200  29.451  1.00  0.00     0.135 A 
ATOM     88  C   UNL A   1      48.468  27.384  31.671  1.00  0.00     0.135 A 
ATOM     89  F   UNL A   1      48.488  28.642  28.255  1.00  0.00    -0.206 F 
ATOM     90  C   UNL A   1      50.277  28.075  29.666  1.00  0.00     0.059 A 
ATOM     91  C   UNL A   1      49.833  27.270  31.914  1.00  0.00     0.059 A 
ATOM     92  F   UNL A   1      47.618  27.041  32.652  1.00  0.00    -0.206 F 
ATOM     93  C   UNL A   1      50.729  27.605  30.899  1.00  0.00     0.060 A 
BRANCH  93  94
ATOM     94  S   UNL A   1      52.509  27.463  31.177  1.00  0.00     0.124 S 
ATOM     95  O   UNL A   1      52.725  26.038  30.957  1.00  0.00    -0.237 OA
ATOM     96  O   UNL A   1      53.060  28.353  30.161  1.00  0.00    -0.237 OA
ATOM     97  O   UNL A   1      52.672  27.919  32.554  1.00  0.00    -0.744 OA
ENDBRANCH  93  94
ENDBRANCH  61  86
ENDBRANCH  35  36
ENDBRANCH  27  30
ENDBRANCH  25  26
ENDBRANCH   1  25
TORSDOF 15
ENDMDL
MODEL 3
REMARK VINA RESULT:     -12.8      6.586     12.146
REMARK SMILES C[C@H]1[C@@H](C(=O)NCCCNC(=O)c2ccc(-c3c4nc(c(-c5c(F)cc(S(=O)(=O)[O-])cc5F)c5ccc([nH]5)c(-c5c(F)cc(S(=O)(=O)[O-])cc5F)c5nc(c(-c6c(F)cc(S(=O)(=O)[O-])cc6F)c6ccc3[nH]6)C=C5)C=C4)cc2)CCN1C(=O)c1cc2cc(F)ccc2s1
REMARK SMILES IDX 8 1 7 2 6 3 4 4 5 5 3 7 1 8 2 9 81 10 79 11 80 12 82 13
REMARK SMILES IDX 83 14 84 15 85 16 93 17 86 18 92 19 87 20 91 21 88 22 90 23
REMARK SMILES IDX 89 24 9 25 10 26 11 27 12 29 13 30 14 31 78 32 15 33 77 34
REMARK SMILES IDX 16 35 17 36 18 37 71 38 19 39 76 40 70 41 72 42 20 43 75 44
REMARK SMILES IDX 69 45 68 46 21 48 55 49 34 50 54 51 35 52 38 53 53 54 73 55
REMARK SMILES IDX 36 56 37 57 52 59 74 60 39 61 22 62 23 63 32 64 24 65 25 66
REMARK SMILES IDX 31 67 33 68 26 69 27 70 28 71 29 72 30 73 56 74 57 75 66 76
REMARK SMILES IDX 58 77 59 78 65 79 67 80 60 81 61 82 62 83 63 84 64 85 40 86
REMARK SMILES IDX 41 87 50 88 42 89 43 90 49 91 51 92 44 93 45 94 46 95 47 96
REMARK SMILES IDX 48 97
REMARK H PARENT 6 6 10 28 72 47 38 58
REMARK Flexibility Score: inf
ROOT
ATOM      1  C   UNL A   1      34.012  30.722  27.277  1.00  0.00     0.042 C 
ENDROOT
BRANCH   1   2
ATOM      2  C   UNL A   1      33.009  29.778  26.617  1.00  0.00     0.117 C 
BRANCH   2   3
ATOM      3  N   UNL A   1      33.228  29.743  25.184  1.00  0.00    -0.356 N 
ATOM      4  C   UNL A   1      32.771  28.896  24.225  1.00  0.00     0.225 C 
ATOM      5  O   UNL A   1      33.272  29.027  23.106  1.00  0.00    -0.275 OA
ATOM      6  H   UNL A   1      33.812  30.460  24.847  1.00  0.00     0.163 HD
BRANCH   4   7
ATOM      7  C   UNL A   1      31.613  27.932  24.497  1.00  0.00     0.102 C 
ATOM      8  C   UNL A   1      33.069  26.061  25.633  1.00  0.00     0.032 C 
ATOM      9  C   UNL A   1      31.908  26.435  24.740  1.00  0.00     0.094 C 
ATOM     10  N   UNL A   1      31.959  25.814  23.413  1.00  0.00    -0.334 N 
ATOM     11  C   UNL A   1      30.754  27.829  23.219  1.00  0.00     0.037 C 
ATOM     12  C   UNL A   1      31.483  26.760  22.415  1.00  0.00     0.121 C 
BRANCH  10  13
ATOM     13  C   UNL A   1      31.557  24.490  23.287  1.00  0.00     0.264 C 
ATOM     14  O   UNL A   1      30.358  24.204  23.220  1.00  0.00    -0.268 OA
BRANCH  13  15
ATOM     15  C   UNL A   1      32.579  23.469  23.214  1.00  0.00     0.093 A 
ATOM     16  C   UNL A   1      33.891  23.653  22.834  1.00  0.00     0.034 A 
ATOM     17  S   UNL A   1      32.341  21.910  23.868  1.00  0.00    -0.130 S 
ATOM     18  C   UNL A   1      34.763  22.707  23.463  1.00  0.00    -0.004 A 
ATOM     19  C   UNL A   1      34.039  21.706  24.119  1.00  0.00     0.035 A 
ATOM     20  C   UNL A   1      36.169  22.723  23.595  1.00  0.00     0.048 A 
ATOM     21  C   UNL A   1      34.679  20.726  24.903  1.00  0.00     0.022 A 
ATOM     22  C   UNL A   1      36.786  21.808  24.444  1.00  0.00     0.123 A 
ATOM     23  C   UNL A   1      36.061  20.823  25.092  1.00  0.00     0.041 A 
ATOM     24  F   UNL A   1      38.101  21.922  24.675  1.00  0.00    -0.207 F 
ENDBRANCH  13  15
ENDBRANCH  10  13
ENDBRANCH   4   7
ENDBRANCH   2   3
ENDBRANCH   1   2
BRANCH   1  25
ATOM     25  C   UNL A   1      35.030  30.013  28.161  1.00  0.00     0.118 C 
BRANCH  25  26
ATOM     26  N   UNL A   1      35.284  30.760  29.378  1.00  0.00    -0.352 N 
ATOM     27  C   UNL A   1      36.401  30.796  30.177  1.00  0.00     0.251 C 
ATOM     28  H   UNL A   1      34.539  31.330  29.679  1.00  0.00     0.163 HD
ATOM     29  O   UNL A   1      36.295  31.274  31.305  1.00  0.00    -0.269 OA
BRANCH  27  30
ATOM     30  C   UNL A   1      37.716  30.272  29.720  1.00  0.00     0.039 A 
ATOM     31  C   UNL A   1      38.663  29.922  30.689  1.00  0.00     0.014 A 
ATOM     32  C   UNL A   1      38.070  30.206  28.369  1.00  0.00     0.014 A 
ATOM     33  C   UNL A   1      39.940  29.492  30.308  1.00  0.00     0.010 A 
ATOM     34  C   UNL A   1      39.315  29.698  27.987  1.00  0.00     0.010 A 
ATOM     35  C   UNL A   1      40.276  29.364  28.951  1.00  0.00    -0.014 A 
BRANCH  35  36
ATOM     36  C   UNL A   1      41.642  28.940  28.536  1.00  0.00     0.031 A 
ATOM     37  C   UNL A   1      42.764  29.946  28.475  1.00  0.00     0.074 A 
ATOM     38  C   UNL A   1      41.876  27.661  28.184  1.00  0.00     0.049 A 
ATOM     39  N   UNL A   1      44.008  29.778  28.101  1.00  0.00    -0.248 NA
ATOM     40  C   UNL A   1      42.439  31.329  28.858  1.00  0.00     0.031 C 
ATOM     41  C   UNL A   1      40.872  26.596  28.149  1.00  0.00     0.029 A 
ATOM     42  N   UNL A   1      43.033  27.038  27.786  1.00  0.00    -0.354 N 
ATOM     43  C   UNL A   1      44.605  31.031  28.184  1.00  0.00     0.074 A 
ATOM     44  C   UNL A   1      43.575  31.960  28.598  1.00  0.00     0.031 C 
ATOM     45  C   UNL A   1      41.460  25.449  27.772  1.00  0.00     0.029 A 
ATOM     46  C   UNL A   1      42.876  25.700  27.515  1.00  0.00     0.049 A 
ATOM     47  H   UNL A   1      43.895  27.507  27.701  1.00  0.00     0.167 HD
ATOM     48  C   UNL A   1      45.896  31.378  27.963  1.00  0.00     0.037 A 
ATOM     49  C   UNL A   1      43.769  24.777  27.109  1.00  0.00     0.037 A 
ATOM     50  C   UNL A   1      46.933  30.451  27.591  1.00  0.00     0.049 A 
ATOM     51  C   UNL A   1      45.207  25.172  26.915  1.00  0.00     0.074 A 
ATOM     52  C   UNL A   1      48.282  30.698  27.395  1.00  0.00     0.029 A 
ATOM     53  N   UNL A   1      46.740  29.096  27.369  1.00  0.00    -0.354 N 
ATOM     54  N   UNL A   1      45.761  26.354  27.043  1.00  0.00    -0.248 NA
ATOM     55  C   UNL A   1      46.144  24.107  26.530  1.00  0.00     0.031 C 
ATOM     56  C   UNL A   1      48.899  29.495  27.032  1.00  0.00     0.029 A 
ATOM     57  C   UNL A   1      47.942  28.494  27.033  1.00  0.00     0.049 A 
ATOM     58  H   UNL A   1      45.876  28.630  27.439  1.00  0.00     0.167 HD
ATOM     59  C   UNL A   1      47.112  26.173  26.770  1.00  0.00     0.074 A 
ATOM     60  C   UNL A   1      47.295  24.764  26.486  1.00  0.00     0.031 C 
ATOM     61  C   UNL A   1      48.109  27.091  26.753  1.00  0.00     0.037 A 
BRANCH  48  62
ATOM     62  C   UNL A   1      46.260  32.828  28.130  1.00  0.00     0.058 A 
ATOM     63  C   UNL A   1      46.143  33.741  27.070  1.00  0.00     0.135 A 
ATOM     64  C   UNL A   1      46.719  33.314  29.365  1.00  0.00     0.135 A 
ATOM     65  F   UNL A   1      45.724  33.325  25.863  1.00  0.00    -0.206 F 
ATOM     66  C   UNL A   1      46.503  35.076  27.216  1.00  0.00     0.059 A 
ATOM     67  C   UNL A   1      47.062  34.651  29.541  1.00  0.00     0.059 A 
ATOM     68  F   UNL A   1      46.847  32.485  30.412  1.00  0.00    -0.206 F 
ATOM     69  C   UNL A   1      46.969  35.521  28.454  1.00  0.00     0.060 A 
BRANCH  69  70
ATOM     70  S   UNL A   1      47.449  37.252  28.634  1.00  0.00     0.124 S 
ATOM     71  O   UNL A   1      46.436  37.917  27.813  1.00  0.00    -0.237 OA
ATOM     72  O   UNL A   1      47.320  37.464  30.079  1.00  0.00    -0.237 OA
ATOM     73  O   UNL A   1      48.802  37.288  28.117  1.00  0.00    -0.744 OA
ENDBRANCH  69  70
ENDBRANCH  48  62
BRANCH  49  74
ATOM     74  C   UNL A   1      43.331  23.374  26.892  1.00  0.00     0.058 A 
ATOM     75  C   UNL A   1      43.202  22.853  25.597  1.00  0.00     0.135 A 
ATOM     76  C   UNL A   1      43.062  22.522  27.973  1.00  0.00     0.135 A 
ATOM     77  F   UNL A   1      43.442  23.633  24.533  1.00  0.00    -0.206 F 
ATOM     78  C   UNL A   1      42.814  21.535  25.379  1.00  0.00     0.059 A 
ATOM     79  C   UNL A   1      42.692  21.194  27.781  1.00  0.00     0.059 A 
ATOM     80  F   UNL A   1      43.187  22.972  29.231  1.00  0.00    -0.206 F 
ATOM     81  C   UNL A   1      42.564  20.712  26.478  1.00  0.00     0.060 A 
BRANCH  81  82
ATOM     82  S   UNL A   1      42.130  18.983  26.189  1.00  0.00     0.124 S 
ATOM     83  O   UNL A   1      43.048  18.627  25.113  1.00  0.00    -0.237 OA
ATOM     84  O   UNL A   1      42.401  18.374  27.487  1.00  0.00    -0.237 OA
ATOM     85  O   UNL A   1      40.719  19.051  25.821  1.00  0.00    -0.744 OA
ENDBRANCH  81  82
ENDBRANCH  49  74
BRANCH  61  86
ATOM     86  C   UNL A   1      49.491  26.596  26.433  1.00  0.00     0.058 A 
ATOM     87  C   UNL A   1      50.041  26.737  25.149  1.00  0.00     0.135 A 
ATOM     88  C   UNL A   1      50.285  26.003  27.427  1.00  0.00     0.135 A 
ATOM     89  F   UNL A   1      49.318  27.293  24.164  1.00  0.00    -0.206 F 
ATOM     90  C   UNL A   1      51.322  26.282  24.854  1.00  0.00     0.059 A 
ATOM     91  C   UNL A   1      51.577  25.560  27.159  1.00  0.00     0.059 A 
ATOM     92  F   UNL A   1      49.808  25.854  28.673  1.00  0.00    -0.206 F 
ATOM     93  C   UNL A   1      52.080  25.692  25.866  1.00  0.00     0.060 A 
BRANCH  93  94
ATOM     94  S   UNL A   1      53.750  25.119  25.480  1.00  0.00     0.124 S 
ATOM     95  O   UNL A   1      53.577  23.671  25.510  1.00  0.00    -0.237 OA
ATOM     96  O   UNL A   1      53.987  25.702  24.163  1.00  0.00    -0.237 OA
ATOM     97  O   UNL A   1      54.556  25.680  26.560  1.00  0.00    -0.744 OA
ENDBRANCH  93  94
ENDBRANCH  61  86
ENDBRANCH  35  36
ENDBRANCH  27  30
ENDBRANCH  25  26
ENDBRANCH   1  25
TORSDOF 15
ENDMDL
