MODEL 1
REMARK VINA RESULT:     -13.4      0.000      0.000
REMARK SMILES O=C(NCCCNC(=O)c1ccc([C@H]2CCCN(C(=O)c3ccc4[nH]ccc4c3)C2)cc1)c1ccc(-c2c3nc(c(-c4c(F)cc(S(=O)(=O)[O-])cc4F)c4ccc([nH]4)c(-c4c(F)cc(S(=O)(=O)[O-])cc4F)c4nc(c(-c5c(F)cc(S(=O)(=O)[O-])cc5F)c5ccc2[nH]5)C=C4)C=C3)cc1
REMARK SMILES IDX 5 1 4 2 3 3 1 4 2 5 33 7 34 8 98 9 35 10 97 11 36 12 37 13
REMARK SMILES IDX 38 14 91 15 39 16 96 17 90 18 92 19 40 20 95 21 89 22 88 23
REMARK SMILES IDX 41 25 75 26 54 27 74 28 55 29 58 30 73 31 93 32 56 33 57 34
REMARK SMILES IDX 72 36 94 37 59 38 42 39 43 40 52 41 44 42 45 43 51 44 53 45
REMARK SMILES IDX 46 46 47 47 48 48 49 49 50 50 76 51 77 52 86 53 78 54 79 55
REMARK SMILES IDX 85 56 87 57 80 58 81 59 82 60 83 61 84 62 60 63 61 64 70 65
REMARK SMILES IDX 62 66 63 67 69 68 71 69 64 70 65 71 66 72 67 73 68 74 6 75
REMARK SMILES IDX 7 76 8 77 9 79 10 80 11 81 32 82 12 83 31 84 13 85 14 86
REMARK SMILES IDX 15 87 30 88 16 89 18 90 17 91 19 92 20 93 21 94 22 95 29 96
REMARK SMILES IDX 23 97 28 98 24 99 27 100 25 101 26 102
REMARK H PARENT 3 6 92 24 58 35 7 78 25 103
REMARK Flexibility Score: inf
ROOT
ATOM      1  C   UNL A   1      35.747  32.421  27.968  1.00  0.00     0.042 C 
ENDROOT
BRANCH   1   2
ATOM      2  C   UNL A   1      36.520  32.556  29.267  1.00  0.00     0.118 C 
BRANCH   2   3
ATOM      3  N   UNL A   1      36.095  31.603  30.287  1.00  0.00    -0.352 N 
ATOM      4  O   UNL A   1      36.051  29.669  31.443  1.00  0.00    -0.269 OA
ATOM      5  C   UNL A   1      36.654  30.404  30.668  1.00  0.00     0.251 C 
ATOM      6  H   UNL A   1      35.282  31.856  30.780  1.00  0.00     0.163 HD
BRANCH   5   7
ATOM      7  C   UNL A   1      37.967  29.995  30.119  1.00  0.00     0.039 A 
ATOM      8  C   UNL A   1      39.046  29.783  30.973  1.00  0.00     0.014 A 
ATOM      9  C   UNL A   1      38.128  29.833  28.740  1.00  0.00     0.014 A 
ATOM     10  C   UNL A   1      40.318  29.624  30.447  1.00  0.00     0.010 A 
ATOM     11  C   UNL A   1      39.390  29.529  28.218  1.00  0.00     0.010 A 
ATOM     12  C   UNL A   1      40.505  29.458  29.065  1.00  0.00    -0.014 A 
BRANCH  12  13
ATOM     13  C   UNL A   1      41.869  29.120  28.580  1.00  0.00     0.031 A 
ATOM     14  C   UNL A   1      42.989  30.125  28.592  1.00  0.00     0.074 A 
ATOM     15  C   UNL A   1      42.102  27.846  28.201  1.00  0.00     0.049 A 
ATOM     16  N   UNL A   1      44.246  29.952  28.271  1.00  0.00    -0.248 NA
ATOM     17  C   UNL A   1      42.663  31.499  29.003  1.00  0.00     0.031 C 
ATOM     18  C   UNL A   1      41.081  26.793  28.126  1.00  0.00     0.029 A 
ATOM     19  N   UNL A   1      43.260  27.205  27.847  1.00  0.00    -0.354 N 
ATOM     20  C   UNL A   1      44.860  31.188  28.433  1.00  0.00     0.074 A 
ATOM     21  C   UNL A   1      43.830  32.114  28.851  1.00  0.00     0.031 C 
ATOM     22  C   UNL A   1      41.669  25.628  27.825  1.00  0.00     0.029 A 
ATOM     23  C   UNL A   1      43.088  25.863  27.600  1.00  0.00     0.049 A 
ATOM     24  H   UNL A   1      44.130  27.660  27.777  1.00  0.00     0.167 HD
ATOM     25  C   UNL A   1      46.165  31.511  28.261  1.00  0.00     0.037 A 
ATOM     26  C   UNL A   1      43.969  24.922  27.212  1.00  0.00     0.037 A 
ATOM     27  C   UNL A   1      47.184  30.575  27.852  1.00  0.00     0.049 A 
ATOM     28  C   UNL A   1      45.403  25.317  27.019  1.00  0.00     0.074 A 
ATOM     29  C   UNL A   1      48.536  30.804  27.657  1.00  0.00     0.029 A 
ATOM     30  N   UNL A   1      46.967  29.232  27.579  1.00  0.00    -0.354 N 
ATOM     31  N   UNL A   1      45.964  26.489  27.194  1.00  0.00    -0.248 NA
ATOM     32  C   UNL A   1      46.322  24.264  26.572  1.00  0.00     0.031 C 
ATOM     33  C   UNL A   1      49.127  29.611  27.225  1.00  0.00     0.029 A 
ATOM     34  C   UNL A   1      48.156  28.625  27.201  1.00  0.00     0.049 A 
ATOM     35  H   UNL A   1      46.096  28.776  27.642  1.00  0.00     0.167 HD
ATOM     36  C   UNL A   1      47.306  26.315  26.883  1.00  0.00     0.074 A 
ATOM     37  C   UNL A   1      47.477  24.915  26.547  1.00  0.00     0.031 C 
ATOM     38  C   UNL A   1      48.304  27.231  26.861  1.00  0.00     0.037 A 
BRANCH  25  39
ATOM     39  C   UNL A   1      46.580  32.937  28.512  1.00  0.00     0.058 A 
ATOM     40  C   UNL A   1      46.541  33.906  27.496  1.00  0.00     0.135 A 
ATOM     41  C   UNL A   1      46.944  33.362  29.802  1.00  0.00     0.135 A 
ATOM     42  F   UNL A   1      46.217  33.555  26.241  1.00  0.00    -0.206 F 
ATOM     43  C   UNL A   1      46.856  35.238  27.745  1.00  0.00     0.059 A 
ATOM     44  C   UNL A   1      47.238  34.694  30.080  1.00  0.00     0.059 A 
ATOM     45  F   UNL A   1      46.999  32.479  30.811  1.00  0.00    -0.206 F 
ATOM     46  C   UNL A   1      47.198  35.625  29.043  1.00  0.00     0.060 A 
BRANCH  46  47
ATOM     47  S   UNL A   1      47.570  37.364  29.353  1.00  0.00     0.124 S 
ATOM     48  O   UNL A   1      46.237  37.958  29.314  1.00  0.00    -0.237 OA
ATOM     49  O   UNL A   1      48.203  37.318  30.667  1.00  0.00    -0.237 OA
ATOM     50  O   UNL A   1      48.450  37.728  28.247  1.00  0.00    -0.744 OA
ENDBRANCH  46  47
ENDBRANCH  25  39
BRANCH  26  51
ATOM     51  C   UNL A   1      43.504  23.535  26.947  1.00  0.00     0.058 A 
ATOM     52  C   UNL A   1      43.193  22.653  27.992  1.00  0.00     0.135 A 
ATOM     53  C   UNL A   1      43.359  23.066  25.631  1.00  0.00     0.135 A 
ATOM     54  F   UNL A   1      43.315  23.054  29.267  1.00  0.00    -0.206 F 
ATOM     55  C   UNL A   1      42.785  21.346  27.744  1.00  0.00     0.059 A 
ATOM     56  C   UNL A   1      42.919  21.777  25.357  1.00  0.00     0.059 A 
ATOM     57  F   UNL A   1      43.621  23.877  24.594  1.00  0.00    -0.206 F 
ATOM     58  C   UNL A   1      42.653  20.917  26.421  1.00  0.00     0.060 A 
BRANCH  58  59
ATOM     59  S   UNL A   1      42.106  19.227  26.104  1.00  0.00     0.124 S 
ATOM     60  O   UNL A   1      40.669  19.414  25.940  1.00  0.00    -0.237 OA
ATOM     61  O   UNL A   1      42.848  18.885  24.895  1.00  0.00    -0.237 OA
ATOM     62  O   UNL A   1      42.517  18.511  27.307  1.00  0.00    -0.744 OA
ENDBRANCH  58  59
ENDBRANCH  26  51
BRANCH  38  63
ATOM     63  C   UNL A   1      49.670  26.733  26.477  1.00  0.00     0.058 A 
ATOM     64  C   UNL A   1      50.158  26.865  25.167  1.00  0.00     0.135 A 
ATOM     65  C   UNL A   1      50.498  26.115  27.428  1.00  0.00     0.135 A 
ATOM     66  F   UNL A   1      49.401  27.440  24.219  1.00  0.00    -0.206 F 
ATOM     67  C   UNL A   1      51.401  26.360  24.801  1.00  0.00     0.059 A 
ATOM     68  C   UNL A   1      51.758  25.632  27.092  1.00  0.00     0.059 A 
ATOM     69  F   UNL A   1      50.083  25.975  28.697  1.00  0.00    -0.206 F 
ATOM     70  C   UNL A   1      52.192  25.741  25.770  1.00  0.00     0.060 A 
BRANCH  70  71
ATOM     71  S   UNL A   1      53.802  25.086  25.284  1.00  0.00     0.124 S 
ATOM     72  O   UNL A   1      53.565  23.647  25.349  1.00  0.00    -0.237 OA
ATOM     73  O   UNL A   1      53.974  25.640  23.945  1.00  0.00    -0.237 OA
ATOM     74  O   UNL A   1      54.705  25.619  26.299  1.00  0.00    -0.744 OA
ENDBRANCH  70  71
ENDBRANCH  38  63
ENDBRANCH  12  13
ENDBRANCH   5   7
ENDBRANCH   2   3
ENDBRANCH   1   2
BRANCH   1  75
ATOM     75  C   UNL A   1      34.670  31.353  28.012  1.00  0.00     0.118 C 
BRANCH  75  76
ATOM     76  N   UNL A   1      33.349  31.877  27.687  1.00  0.00    -0.352 N 
ATOM     77  C   UNL A   1      32.321  31.297  26.978  1.00  0.00     0.251 C 
ATOM     78  H   UNL A   1      33.163  32.783  28.024  1.00  0.00     0.163 HD
ATOM     79  O   UNL A   1      31.347  31.952  26.643  1.00  0.00    -0.269 OA
BRANCH  77  80
ATOM     80  C   UNL A   1      32.421  29.871  26.610  1.00  0.00     0.039 A 
ATOM     81  C   UNL A   1      33.255  29.492  25.562  1.00  0.00     0.014 A 
ATOM     82  C   UNL A   1      31.704  28.909  27.317  1.00  0.00     0.014 A 
ATOM     83  C   UNL A   1      33.468  28.135  25.312  1.00  0.00     0.005 A 
ATOM     84  C   UNL A   1      31.950  27.558  27.092  1.00  0.00     0.005 A 
ATOM     85  C   UNL A   1      32.877  27.145  26.122  1.00  0.00    -0.043 A 
BRANCH  85  86
ATOM     86  C   UNL A   1      33.247  25.675  25.927  1.00  0.00     0.039 C 
ATOM     87  C   UNL A   1      32.348  24.747  26.785  1.00  0.00     0.012 C 
ATOM     88  C   UNL A   1      33.181  25.202  24.456  1.00  0.00     0.128 C 
ATOM     89  C   UNL A   1      32.666  23.266  26.568  1.00  0.00     0.022 C 
ATOM     90  N   UNL A   1      33.495  23.787  24.332  1.00  0.00    -0.338 N 
ATOM     91  C   UNL A   1      32.622  22.894  25.091  1.00  0.00     0.120 C 
BRANCH  90  92
ATOM     92  C   UNL A   1      34.614  23.413  23.601  1.00  0.00     0.253 C 
ATOM     93  O   UNL A   1      34.690  23.455  22.376  1.00  0.00    -0.269 OA
BRANCH  92  94
ATOM     94  C   UNL A   1      35.809  22.968  24.331  1.00  0.00     0.040 A 
ATOM     95  C   UNL A   1      36.132  21.610  24.306  1.00  0.00     0.016 A 
ATOM     96  C   UNL A   1      36.560  23.898  25.062  1.00  0.00     0.024 A 
ATOM     97  C   UNL A   1      37.254  21.141  24.989  1.00  0.00     0.027 A 
ATOM     98  C   UNL A   1      37.683  23.434  25.771  1.00  0.00     0.000 A 
ATOM     99  C   UNL A   1      38.008  22.077  25.708  1.00  0.00     0.045 A 
ATOM    100  C   UNL A   1      38.641  24.056  26.615  1.00  0.00     0.028 A 
ATOM    101  N   UNL A   1      39.146  21.901  26.464  1.00  0.00    -0.361 N 
ATOM    102  C   UNL A   1      39.524  23.087  27.035  1.00  0.00     0.083 A 
ATOM    103  H   UNL A   1      39.619  21.046  26.577  1.00  0.00     0.166 HD
ENDBRANCH  92  94
ENDBRANCH  90  92
ENDBRANCH  85  86
ENDBRANCH  77  80
ENDBRANCH  75  76
ENDBRANCH   1  75
TORSDOF 16
ENDMDL
MODEL 2
REMARK VINA RESULT:     -12.6      3.439     10.176
REMARK SMILES O=C(NCCCNC(=O)c1ccc([C@H]2CCCN(C(=O)c3ccc4[nH]ccc4c3)C2)cc1)c1ccc(-c2c3nc(c(-c4c(F)cc(S(=O)(=O)[O-])cc4F)c4ccc([nH]4)c(-c4c(F)cc(S(=O)(=O)[O-])cc4F)c4nc(c(-c5c(F)cc(S(=O)(=O)[O-])cc5F)c5ccc2[nH]5)C=C4)C=C3)cc1
REMARK SMILES IDX 5 1 4 2 3 3 1 4 2 5 33 7 34 8 98 9 35 10 97 11 36 12 37 13
REMARK SMILES IDX 38 14 91 15 39 16 96 17 90 18 92 19 40 20 95 21 89 22 88 23
REMARK SMILES IDX 41 25 75 26 54 27 74 28 55 29 58 30 73 31 93 32 56 33 57 34
REMARK SMILES IDX 72 36 94 37 59 38 42 39 43 40 52 41 44 42 45 43 51 44 53 45
REMARK SMILES IDX 46 46 47 47 48 48 49 49 50 50 76 51 77 52 86 53 78 54 79 55
REMARK SMILES IDX 85 56 87 57 80 58 81 59 82 60 83 61 84 62 60 63 61 64 70 65
REMARK SMILES IDX 62 66 63 67 69 68 71 69 64 70 65 71 66 72 67 73 68 74 6 75
REMARK SMILES IDX 7 76 8 77 9 79 10 80 11 81 32 82 12 83 31 84 13 85 14 86
REMARK SMILES IDX 15 87 30 88 16 89 18 90 17 91 19 92 20 93 21 94 22 95 29 96
REMARK SMILES IDX 23 97 28 98 24 99 27 100 25 101 26 102
REMARK H PARENT 3 6 92 24 58 35 7 78 25 103
REMARK Flexibility Score: inf
ROOT
ATOM      1  C   UNL A   1      33.772  33.867  28.490  1.00  0.00     0.042 C 
ENDROOT
BRANCH   1   2
ATOM      2  C   UNL A   1      34.698  32.665  28.547  1.00  0.00     0.118 C 
BRANCH   2   3
ATOM      3  N   UNL A   1      34.015  31.404  28.279  1.00  0.00    -0.352 N 
ATOM      4  O   UNL A   1      33.795  29.225  27.745  1.00  0.00    -0.269 OA
ATOM      5  C   UNL A   1      34.525  30.134  28.127  1.00  0.00     0.251 C 
ATOM      6  H   UNL A   1      33.037  31.471  28.192  1.00  0.00     0.163 HD
BRANCH   5   7
ATOM      7  C   UNL A   1      35.957  29.878  28.399  1.00  0.00     0.039 A 
ATOM      8  C   UNL A   1      36.901  30.037  27.388  1.00  0.00     0.014 A 
ATOM      9  C   UNL A   1      36.364  29.462  29.671  1.00  0.00     0.014 A 
ATOM     10  C   UNL A   1      38.196  29.582  27.577  1.00  0.00     0.010 A 
ATOM     11  C   UNL A   1      37.706  29.139  29.902  1.00  0.00     0.010 A 
ATOM     12  C   UNL A   1      38.627  29.161  28.846  1.00  0.00    -0.014 A 
BRANCH  12  13
ATOM     13  C   UNL A   1      40.070  28.849  29.024  1.00  0.00     0.031 A 
ATOM     14  C   UNL A   1      40.652  27.520  28.625  1.00  0.00     0.074 A 
ATOM     15  C   UNL A   1      40.872  29.833  29.483  1.00  0.00     0.049 A 
ATOM     16  N   UNL A   1      41.902  27.134  28.652  1.00  0.00    -0.248 NA
ATOM     17  C   UNL A   1      39.720  26.488  28.145  1.00  0.00     0.031 C 
ATOM     18  C   UNL A   1      40.409  31.154  29.925  1.00  0.00     0.029 A 
ATOM     19  N   UNL A   1      42.233  29.900  29.621  1.00  0.00    -0.354 N 
ATOM     20  C   UNL A   1      41.911  25.819  28.202  1.00  0.00     0.074 A 
ATOM     21  C   UNL A   1      40.534  25.459  27.939  1.00  0.00     0.031 C 
ATOM     22  C   UNL A   1      41.470  31.921  30.211  1.00  0.00     0.029 A 
ATOM     23  C   UNL A   1      42.679  31.125  30.059  1.00  0.00     0.049 A 
ATOM     24  H   UNL A   1      42.834  29.145  29.426  1.00  0.00     0.167 HD
ATOM     25  C   UNL A   1      42.972  24.997  28.016  1.00  0.00     0.037 A 
ATOM     26  C   UNL A   1      43.923  31.561  30.331  1.00  0.00     0.037 A 
ATOM     27  C   UNL A   1      44.342  25.372  28.275  1.00  0.00     0.049 A 
ATOM     28  C   UNL A   1      45.074  30.621  30.127  1.00  0.00     0.074 A 
ATOM     29  C   UNL A   1      45.488  24.613  28.111  1.00  0.00     0.029 A 
ATOM     30  N   UNL A   1      44.752  26.610  28.749  1.00  0.00    -0.354 N 
ATOM     31  N   UNL A   1      45.059  29.387  29.684  1.00  0.00    -0.248 NA
ATOM     32  C   UNL A   1      46.409  31.130  30.460  1.00  0.00     0.031 C 
ATOM     33  C   UNL A   1      46.585  25.376  28.526  1.00  0.00     0.029 A 
ATOM     34  C   UNL A   1      46.131  26.630  28.898  1.00  0.00     0.049 A 
ATOM     35  H   UNL A   1      44.152  27.365  28.952  1.00  0.00     0.167 HD
ATOM     36  C   UNL A   1      46.384  28.971  29.682  1.00  0.00     0.074 A 
ATOM     37  C   UNL A   1      47.175  30.101  30.129  1.00  0.00     0.031 C 
ATOM     38  C   UNL A   1      46.900  27.761  29.355  1.00  0.00     0.037 A 
BRANCH  25  39
ATOM     39  C   UNL A   1      42.709  23.605  27.506  1.00  0.00     0.058 A 
ATOM     40  C   UNL A   1      42.729  23.307  26.134  1.00  0.00     0.135 A 
ATOM     41  C   UNL A   1      42.514  22.538  28.401  1.00  0.00     0.135 A 
ATOM     42  F   UNL A   1      42.894  24.287  25.232  1.00  0.00    -0.206 F 
ATOM     43  C   UNL A   1      42.557  22.007  25.667  1.00  0.00     0.059 A 
ATOM     44  C   UNL A   1      42.365  21.226  27.958  1.00  0.00     0.059 A 
ATOM     45  F   UNL A   1      42.484  22.765  29.724  1.00  0.00    -0.206 F 
ATOM     46  C   UNL A   1      42.381  20.972  26.587  1.00  0.00     0.060 A 
BRANCH  46  47
ATOM     47  S   UNL A   1      42.194  19.287  25.963  1.00  0.00     0.124 S 
ATOM     48  O   UNL A   1      40.756  19.224  25.724  1.00  0.00    -0.237 OA
ATOM     49  O   UNL A   1      43.034  19.303  24.770  1.00  0.00    -0.237 OA
ATOM     50  O   UNL A   1      42.683  18.460  27.061  1.00  0.00    -0.744 OA
ENDBRANCH  46  47
ENDBRANCH  25  39
BRANCH  26  51
ATOM     51  C   UNL A   1      44.129  32.934  30.862  1.00  0.00     0.058 A 
ATOM     52  C   UNL A   1      44.357  33.167  32.225  1.00  0.00     0.135 A 
ATOM     53  C   UNL A   1      44.103  34.046  30.005  1.00  0.00     0.135 A 
ATOM     54  F   UNL A   1      44.391  32.138  33.086  1.00  0.00    -0.206 F 
ATOM     55  C   UNL A   1      44.523  34.455  32.726  1.00  0.00     0.059 A 
ATOM     56  C   UNL A   1      44.301  35.338  30.474  1.00  0.00     0.059 A 
ATOM     57  F   UNL A   1      43.911  33.876  28.686  1.00  0.00    -0.206 F 
ATOM     58  C   UNL A   1      44.490  35.535  31.841  1.00  0.00     0.060 A 
BRANCH  58  59
ATOM     59  S   UNL A   1      44.723  37.202  32.492  1.00  0.00     0.124 S 
ATOM     60  O   UNL A   1      45.746  36.976  33.506  1.00  0.00    -0.237 OA
ATOM     61  O   UNL A   1      45.148  37.938  31.307  1.00  0.00    -0.237 OA
ATOM     62  O   UNL A   1      43.399  37.552  32.996  1.00  0.00    -0.744 OA
ENDBRANCH  58  59
ENDBRANCH  26  51
BRANCH  38  63
ATOM     63  C   UNL A   1      48.392  27.614  29.455  1.00  0.00     0.058 A 
ATOM     64  C   UNL A   1      49.007  27.138  30.625  1.00  0.00     0.135 A 
ATOM     65  C   UNL A   1      49.218  27.955  28.371  1.00  0.00     0.135 A 
ATOM     66  F   UNL A   1      48.262  26.806  31.692  1.00  0.00    -0.206 F 
ATOM     67  C   UNL A   1      50.390  27.049  30.733  1.00  0.00     0.059 A 
ATOM     68  C   UNL A   1      50.602  27.844  28.447  1.00  0.00     0.059 A 
ATOM     69  F   UNL A   1      48.680  28.405  27.226  1.00  0.00    -0.206 F 
ATOM     70  C   UNL A   1      51.180  27.409  29.640  1.00  0.00     0.060 A 
BRANCH  70  71
ATOM     71  S   UNL A   1      52.974  27.292  29.793  1.00  0.00     0.124 S 
ATOM     72  O   UNL A   1      53.310  28.613  30.316  1.00  0.00    -0.237 OA
ATOM     73  O   UNL A   1      53.137  26.181  30.725  1.00  0.00    -0.237 OA
ATOM     74  O   UNL A   1      53.415  27.028  28.427  1.00  0.00    -0.744 OA
ENDBRANCH  70  71
ENDBRANCH  38  63
ENDBRANCH  12  13
ENDBRANCH   5   7
ENDBRANCH   2   3
ENDBRANCH   1   2
BRANCH   1  75
ATOM     75  C   UNL A   1      34.165  34.980  29.444  1.00  0.00     0.118 C 
BRANCH  75  76
ATOM     76  N   UNL A   1      33.411  34.940  30.691  1.00  0.00    -0.352 N 
ATOM     77  C   UNL A   1      33.753  34.399  31.910  1.00  0.00     0.251 C 
ATOM     78  H   UNL A   1      32.522  35.363  30.657  1.00  0.00     0.163 HD
ATOM     79  O   UNL A   1      32.923  34.293  32.800  1.00  0.00    -0.269 OA
BRANCH  77  80
ATOM     80  C   UNL A   1      35.136  33.928  32.122  1.00  0.00     0.039 A 
ATOM     81  C   UNL A   1      36.119  34.841  32.496  1.00  0.00     0.014 A 
ATOM     82  C   UNL A   1      35.452  32.581  31.970  1.00  0.00     0.014 A 
ATOM     83  C   UNL A   1      37.388  34.375  32.845  1.00  0.00     0.005 A 
ATOM     84  C   UNL A   1      36.706  32.117  32.358  1.00  0.00     0.005 A 
ATOM     85  C   UNL A   1      37.680  32.998  32.854  1.00  0.00    -0.043 A 
BRANCH  85  86
ATOM     86  C   UNL A   1      39.024  32.503  33.387  1.00  0.00     0.039 C 
ATOM     87  C   UNL A   1      40.054  33.658  33.485  1.00  0.00     0.012 C 
ATOM     88  C   UNL A   1      38.933  31.805  34.763  1.00  0.00     0.128 C 
ATOM     89  C   UNL A   1      41.393  33.196  34.064  1.00  0.00     0.022 C 
ATOM     90  N   UNL A   1      40.244  31.396  35.247  1.00  0.00    -0.338 N 
ATOM     91  C   UNL A   1      41.210  32.482  35.399  1.00  0.00     0.120 C 
BRANCH  90  92
ATOM     92  C   UNL A   1      40.494  30.044  35.434  1.00  0.00     0.253 C 
ATOM     93  O   UNL A   1      39.973  29.355  36.307  1.00  0.00    -0.269 OA
BRANCH  92  94
ATOM     94  C   UNL A   1      41.416  29.370  34.509  1.00  0.00     0.040 A 
ATOM     95  C   UNL A   1      40.889  28.804  33.347  1.00  0.00     0.016 A 
ATOM     96  C   UNL A   1      42.775  29.274  34.834  1.00  0.00     0.024 A 
ATOM     97  C   UNL A   1      41.725  28.149  32.442  1.00  0.00     0.027 A 
ATOM     98  C   UNL A   1      43.625  28.599  33.939  1.00  0.00     0.000 A 
ATOM     99  C   UNL A   1      43.086  28.067  32.766  1.00  0.00     0.045 A 
ATOM    100  C   UNL A   1      45.012  28.290  33.941  1.00  0.00     0.028 A 
ATOM    101  N   UNL A   1      44.126  27.488  32.072  1.00  0.00    -0.361 N 
ATOM    102  C   UNL A   1      45.290  27.598  32.784  1.00  0.00     0.083 A 
ATOM    103  H   UNL A   1      44.042  27.057  31.191  1.00  0.00     0.166 HD
ENDBRANCH  92  94
ENDBRANCH  90  92
ENDBRANCH  85  86
ENDBRANCH  77  80
ENDBRANCH  75  76
ENDBRANCH   1  75
TORSDOF 16
ENDMDL
MODEL 3
REMARK VINA RESULT:     -12.5      4.802     11.718
REMARK SMILES O=C(NCCCNC(=O)c1ccc([C@H]2CCCN(C(=O)c3ccc4[nH]ccc4c3)C2)cc1)c1ccc(-c2c3nc(c(-c4c(F)cc(S(=O)(=O)[O-])cc4F)c4ccc([nH]4)c(-c4c(F)cc(S(=O)(=O)[O-])cc4F)c4nc(c(-c5c(F)cc(S(=O)(=O)[O-])cc5F)c5ccc2[nH]5)C=C4)C=C3)cc1
REMARK SMILES IDX 5 1 4 2 3 3 1 4 2 5 33 7 34 8 98 9 35 10 97 11 36 12 37 13
REMARK SMILES IDX 38 14 91 15 39 16 96 17 90 18 92 19 40 20 95 21 89 22 88 23
REMARK SMILES IDX 41 25 75 26 54 27 74 28 55 29 58 30 73 31 93 32 56 33 57 34
REMARK SMILES IDX 72 36 94 37 59 38 42 39 43 40 52 41 44 42 45 43 51 44 53 45
REMARK SMILES IDX 46 46 47 47 48 48 49 49 50 50 76 51 77 52 86 53 78 54 79 55
REMARK SMILES IDX 85 56 87 57 80 58 81 59 82 60 83 61 84 62 60 63 61 64 70 65
REMARK SMILES IDX 62 66 63 67 69 68 71 69 64 70 65 71 66 72 67 73 68 74 6 75
REMARK SMILES IDX 7 76 8 77 9 79 10 80 11 81 32 82 12 83 31 84 13 85 14 86
REMARK SMILES IDX 15 87 30 88 16 89 18 90 17 91 19 92 20 93 21 94 22 95 29 96
REMARK SMILES IDX 23 97 28 98 24 99 27 100 25 101 26 102
REMARK H PARENT 3 6 92 24 58 35 7 78 25 103
REMARK Flexibility Score: inf
ROOT
ATOM      1  C   UNL A   1      41.173  20.278  26.292  1.00  0.00     0.042 C 
ENDROOT
BRANCH   1   2
ATOM      2  C   UNL A   1      40.735  21.695  26.612  1.00  0.00     0.118 C 
BRANCH   2   3
ATOM      3  N   UNL A   1      39.566  22.118  25.849  1.00  0.00    -0.352 N 
ATOM      4  O   UNL A   1      37.789  23.387  25.290  1.00  0.00    -0.269 OA
ATOM      5  C   UNL A   1      38.844  23.289  25.909  1.00  0.00     0.251 C 
ATOM      6  H   UNL A   1      39.241  21.465  25.188  1.00  0.00     0.163 HD
BRANCH   5   7
ATOM      7  C   UNL A   1      39.329  24.413  26.742  1.00  0.00     0.039 A 
ATOM      8  C   UNL A   1      38.938  24.516  28.074  1.00  0.00     0.014 A 
ATOM      9  C   UNL A   1      40.172  25.380  26.187  1.00  0.00     0.014 A 
ATOM     10  C   UNL A   1      39.204  25.678  28.781  1.00  0.00     0.010 A 
ATOM     11  C   UNL A   1      40.560  26.486  26.952  1.00  0.00     0.010 A 
ATOM     12  C   UNL A   1      40.050  26.663  28.245  1.00  0.00    -0.014 A 
BRANCH  12  13
ATOM     13  C   UNL A   1      40.435  27.802  29.119  1.00  0.00     0.031 A 
ATOM     14  C   UNL A   1      39.531  28.986  29.327  1.00  0.00     0.074 A 
ATOM     15  C   UNL A   1      41.599  27.707  29.796  1.00  0.00     0.049 A 
ATOM     16  N   UNL A   1      39.701  30.016  30.117  1.00  0.00    -0.248 NA
ATOM     17  C   UNL A   1      38.284  29.033  28.548  1.00  0.00     0.031 C 
ATOM     18  C   UNL A   1      42.567  26.613  29.651  1.00  0.00     0.029 A 
ATOM     19  N   UNL A   1      42.151  28.507  30.762  1.00  0.00    -0.354 N 
ATOM     20  C   UNL A   1      38.594  30.835  29.929  1.00  0.00     0.074 A 
ATOM     21  C   UNL A   1      37.770  30.199  28.923  1.00  0.00     0.031 C 
ATOM     22  C   UNL A   1      43.550  26.771  30.546  1.00  0.00     0.029 A 
ATOM     23  C   UNL A   1      43.333  28.017  31.266  1.00  0.00     0.049 A 
ATOM     24  H   UNL A   1      41.742  29.350  31.064  1.00  0.00     0.167 HD
ATOM     25  C   UNL A   1      38.291  32.002  30.549  1.00  0.00     0.037 A 
ATOM     26  C   UNL A   1      44.168  28.522  32.193  1.00  0.00     0.037 A 
ATOM     27  C   UNL A   1      39.118  32.621  31.557  1.00  0.00     0.049 A 
ATOM     28  C   UNL A   1      43.809  29.822  32.851  1.00  0.00     0.074 A 
ATOM     29  C   UNL A   1      38.895  33.799  32.250  1.00  0.00     0.029 A 
ATOM     30  N   UNL A   1      40.324  32.113  32.019  1.00  0.00    -0.354 N 
ATOM     31  N   UNL A   1      42.748  30.570  32.669  1.00  0.00    -0.248 NA
ATOM     32  C   UNL A   1      44.760  30.347  33.837  1.00  0.00     0.031 C 
ATOM     33  C   UNL A   1      39.984  34.024  33.098  1.00  0.00     0.029 A 
ATOM     34  C   UNL A   1      40.863  32.962  32.975  1.00  0.00     0.049 A 
ATOM     35  H   UNL A   1      40.738  31.274  31.713  1.00  0.00     0.167 HD
ATOM     36  C   UNL A   1      42.902  31.655  33.521  1.00  0.00     0.074 A 
ATOM     37  C   UNL A   1      44.138  31.443  34.247  1.00  0.00     0.031 C 
ATOM     38  C   UNL A   1      42.101  32.738  33.680  1.00  0.00     0.037 A 
BRANCH  25  39
ATOM     39  C   UNL A   1      37.012  32.697  30.165  1.00  0.00     0.058 A 
ATOM     40  C   UNL A   1      35.816  32.479  30.867  1.00  0.00     0.135 A 
ATOM     41  C   UNL A   1      36.997  33.654  29.135  1.00  0.00     0.135 A 
ATOM     42  F   UNL A   1      35.765  31.565  31.849  1.00  0.00    -0.206 F 
ATOM     43  C   UNL A   1      34.651  33.175  30.558  1.00  0.00     0.059 A 
ATOM     44  C   UNL A   1      35.850  34.381  28.824  1.00  0.00     0.059 A 
ATOM     45  F   UNL A   1      38.112  33.902  28.430  1.00  0.00    -0.206 F 
ATOM     46  C   UNL A   1      34.679  34.129  29.538  1.00  0.00     0.060 A 
BRANCH  46  47
ATOM     47  S   UNL A   1      33.166  35.046  29.175  1.00  0.00     0.124 S 
ATOM     48  O   UNL A   1      33.704  36.324  28.720  1.00  0.00    -0.237 OA
ATOM     49  O   UNL A   1      32.541  34.221  28.147  1.00  0.00    -0.237 OA
ATOM     50  O   UNL A   1      32.471  35.080  30.458  1.00  0.00    -0.744 OA
ENDBRANCH  46  47
ENDBRANCH  25  39
BRANCH  26  51
ATOM     51  C   UNL A   1      45.434  27.814  32.516  1.00  0.00     0.058 A 
ATOM     52  C   UNL A   1      46.660  28.216  31.968  1.00  0.00     0.135 A 
ATOM     53  C   UNL A   1      45.439  26.714  33.389  1.00  0.00     0.135 A 
ATOM     54  F   UNL A   1      46.709  29.262  31.129  1.00  0.00    -0.206 F 
ATOM     55  C   UNL A   1      47.841  27.536  32.249  1.00  0.00     0.059 A 
ATOM     56  C   UNL A   1      46.610  26.040  33.714  1.00  0.00     0.059 A 
ATOM     57  F   UNL A   1      44.295  26.301  33.960  1.00  0.00    -0.206 F 
ATOM     58  C   UNL A   1      47.804  26.447  33.122  1.00  0.00     0.060 A 
BRANCH  58  59
ATOM     59  S   UNL A   1      49.341  25.579  33.498  1.00  0.00     0.124 S 
ATOM     60  O   UNL A   1      50.287  26.686  33.579  1.00  0.00    -0.237 OA
ATOM     61  O   UNL A   1      49.021  24.918  34.758  1.00  0.00    -0.237 OA
ATOM     62  O   UNL A   1      49.509  24.686  32.355  1.00  0.00    -0.744 OA
ENDBRANCH  58  59
ENDBRANCH  26  51
BRANCH  38  63
ATOM     63  C   UNL A   1      42.539  33.759  34.692  1.00  0.00     0.058 A 
ATOM     64  C   UNL A   1      43.355  34.845  34.334  1.00  0.00     0.135 A 
ATOM     65  C   UNL A   1      42.143  33.650  36.034  1.00  0.00     0.135 A 
ATOM     66  F   UNL A   1      43.768  34.990  33.064  1.00  0.00    -0.206 F 
ATOM     67  C   UNL A   1      43.800  35.762  35.279  1.00  0.00     0.059 A 
ATOM     68  C   UNL A   1      42.550  34.573  36.991  1.00  0.00     0.059 A 
ATOM     69  F   UNL A   1      41.355  32.637  36.427  1.00  0.00    -0.206 F 
ATOM     70  C   UNL A   1      43.396  35.615  36.607  1.00  0.00     0.060 A 
BRANCH  70  71
ATOM     71  S   UNL A   1      43.982  36.808  37.828  1.00  0.00     0.124 S 
ATOM     72  O   UNL A   1      44.729  37.741  36.989  1.00  0.00    -0.237 OA
ATOM     73  O   UNL A   1      42.736  37.319  38.389  1.00  0.00    -0.237 OA
ATOM     74  O   UNL A   1      44.787  35.998  38.735  1.00  0.00    -0.744 OA
ENDBRANCH  70  71
ENDBRANCH  38  63
ENDBRANCH  12  13
ENDBRANCH   5   7
ENDBRANCH   2   3
ENDBRANCH   1   2
BRANCH   1  75
ATOM     75  C   UNL A   1      42.659  20.043  26.492  1.00  0.00     0.118 C 
BRANCH  75  76
ATOM     76  N   UNL A   1      43.394  20.011  25.233  1.00  0.00    -0.352 N 
ATOM     77  C   UNL A   1      44.136  20.997  24.622  1.00  0.00     0.251 C 
ATOM     78  H   UNL A   1      43.355  19.156  24.747  1.00  0.00     0.163 HD
ATOM     79  O   UNL A   1      44.535  20.856  23.476  1.00  0.00    -0.269 OA
BRANCH  77  80
ATOM     80  C   UNL A   1      44.427  22.239  25.364  1.00  0.00     0.039 A 
ATOM     81  C   UNL A   1      45.502  22.271  26.249  1.00  0.00     0.014 A 
ATOM     82  C   UNL A   1      43.648  23.376  25.167  1.00  0.00     0.014 A 
ATOM     83  C   UNL A   1      45.871  23.484  26.833  1.00  0.00     0.005 A 
ATOM     84  C   UNL A   1      44.043  24.590  25.720  1.00  0.00     0.005 A 
ATOM     85  C   UNL A   1      45.194  24.678  26.520  1.00  0.00    -0.043 A 
BRANCH  85  86
ATOM     86  C   UNL A   1      45.712  26.014  27.051  1.00  0.00     0.039 C 
ATOM     87  C   UNL A   1      46.780  25.809  28.156  1.00  0.00     0.012 C 
ATOM     88  C   UNL A   1      46.303  26.935  25.958  1.00  0.00     0.128 C 
ATOM     89  C   UNL A   1      47.351  27.134  28.667  1.00  0.00     0.022 C 
ATOM     90  N   UNL A   1      46.825  28.172  26.521  1.00  0.00    -0.338 N 
ATOM     91  C   UNL A   1      47.873  27.998  27.525  1.00  0.00     0.120 C 
BRANCH  90  92
ATOM     92  C   UNL A   1      46.244  29.374  26.142  1.00  0.00     0.253 C 
ATOM     93  O   UNL A   1      46.483  29.959  25.088  1.00  0.00    -0.269 OA
BRANCH  92  94
ATOM     94  C   UNL A   1      45.250  29.983  27.036  1.00  0.00     0.040 A 
ATOM     95  C   UNL A   1      43.932  29.528  26.966  1.00  0.00     0.016 A 
ATOM     96  C   UNL A   1      45.634  31.022  27.894  1.00  0.00     0.024 A 
ATOM     97  C   UNL A   1      42.952  30.079  27.792  1.00  0.00     0.027 A 
ATOM     98  C   UNL A   1      44.651  31.599  28.718  1.00  0.00     0.000 A 
ATOM     99  C   UNL A   1      43.344  31.109  28.657  1.00  0.00     0.045 A 
ATOM    100  C   UNL A   1      44.658  32.655  29.668  1.00  0.00     0.028 A 
ATOM    101  N   UNL A   1      42.602  31.828  29.568  1.00  0.00    -0.361 N 
ATOM    102  C   UNL A   1      43.383  32.779  30.169  1.00  0.00     0.083 A 
ATOM    103  H   UNL A   1      41.649  31.678  29.759  1.00  0.00     0.166 HD
ENDBRANCH  92  94
ENDBRANCH  90  92
ENDBRANCH  85  86
ENDBRANCH  77  80
ENDBRANCH  75  76
ENDBRANCH   1  75
TORSDOF 16
ENDMDL
