MODEL 1
REMARK VINA RESULT:     -10.7      0.000      0.000
REMARK SMILES O=C(NCCCNC(=O)c1cccc(N/C(=[NH+]\Cc2ccccc2)N2CCN(c3ccc(F)cc3)CC2)c1)c1ccc(-c2c3nc(c(-c4c(F)cc(S(=O)(=O)[O-])cc4F)c4ccc([nH]4)c(-c4c(F)cc(S(=O)(=O)[O-])cc4F)c4nc(c(-c5c(F)cc(S(=O)(=O)[O-])cc5F)c5ccc2[nH]5)C=C4)C=C3)cc1
REMARK SMILES IDX 5 1 4 2 3 3 1 4 2 5 39 7 40 8 104 9 41 10 103 11 42 12 43 13
REMARK SMILES IDX 44 14 97 15 45 16 102 17 96 18 98 19 46 20 101 21 95 22
REMARK SMILES IDX 94 23 47 25 81 26 60 27 80 28 61 29 64 30 79 31 99 32 62 33
REMARK SMILES IDX 63 34 78 36 100 37 65 38 48 39 49 40 58 41 50 42 51 43 57 44
REMARK SMILES IDX 59 45 52 46 53 47 54 48 55 49 56 50 82 51 83 52 92 53 84 54
REMARK SMILES IDX 85 55 91 56 93 57 86 58 87 59 88 60 89 61 90 62 66 63 67 64
REMARK SMILES IDX 76 65 68 66 69 67 75 68 77 69 70 70 71 71 72 72 73 73 74 74
REMARK SMILES IDX 6 75 7 76 8 77 9 79 10 80 11 81 38 82 12 83 14 84 13 85
REMARK SMILES IDX 15 86 16 87 17 89 25 90 26 92 37 93 27 94 36 95 28 96 18 97
REMARK SMILES IDX 19 98 20 99 24 100 21 101 23 102 22 103 29 104 30 105 35 106
REMARK SMILES IDX 31 107 34 108 32 109 33 110
REMARK H PARENT 3 6 98 24 64 35 7 78 15 88 17 91
REMARK Flexibility Score: inf
ROOT
ATOM      1  C   UNL A   1      41.800  22.269  26.070  1.00  0.00     0.042 C 
ENDROOT
BRANCH   1   2
ATOM      2  C   UNL A   1      40.515  21.668  26.617  1.00  0.00     0.118 C 
BRANCH   2   3
ATOM      3  N   UNL A   1      39.338  22.066  25.856  1.00  0.00    -0.352 N 
ATOM      4  O   UNL A   1      37.518  23.290  25.352  1.00  0.00    -0.269 OA
ATOM      5  C   UNL A   1      38.594  23.218  25.935  1.00  0.00     0.251 C 
ATOM      6  H   UNL A   1      39.030  21.413  25.188  1.00  0.00     0.163 HD
BRANCH   5   7
ATOM      7  C   UNL A   1      39.087  24.352  26.743  1.00  0.00     0.039 A 
ATOM      8  C   UNL A   1      38.748  24.458  28.093  1.00  0.00     0.014 A 
ATOM      9  C   UNL A   1      39.904  25.315  26.146  1.00  0.00     0.014 A 
ATOM     10  C   UNL A   1      39.090  25.600  28.803  1.00  0.00     0.010 A 
ATOM     11  C   UNL A   1      40.335  26.415  26.893  1.00  0.00     0.010 A 
ATOM     12  C   UNL A   1      39.911  26.577  28.221  1.00  0.00    -0.014 A 
BRANCH  12  13
ATOM     13  C   UNL A   1      40.390  27.706  29.055  1.00  0.00     0.031 A 
ATOM     14  C   UNL A   1      39.526  28.906  29.316  1.00  0.00     0.074 A 
ATOM     15  C   UNL A   1      41.627  27.622  29.585  1.00  0.00     0.049 A 
ATOM     16  N   UNL A   1      39.805  29.982  30.005  1.00  0.00    -0.248 NA
ATOM     17  C   UNL A   1      38.178  28.906  28.725  1.00  0.00     0.031 C 
ATOM     18  C   UNL A   1      42.555  26.505  29.381  1.00  0.00     0.029 A 
ATOM     19  N   UNL A   1      42.315  28.475  30.406  1.00  0.00    -0.354 N 
ATOM     20  C   UNL A   1      38.685  30.800  29.911  1.00  0.00     0.074 A 
ATOM     21  C   UNL A   1      37.723  30.100  29.085  1.00  0.00     0.031 C 
ATOM     22  C   UNL A   1      43.672  26.723  30.088  1.00  0.00     0.029 A 
ATOM     23  C   UNL A   1      43.570  28.024  30.736  1.00  0.00     0.049 A 
ATOM     24  H   UNL A   1      41.945  29.329  30.729  1.00  0.00     0.167 HD
ATOM     25  C   UNL A   1      38.483  32.018  30.467  1.00  0.00     0.037 A 
ATOM     26  C   UNL A   1      44.549  28.606  31.453  1.00  0.00     0.037 A 
ATOM     27  C   UNL A   1      39.445  32.689  31.305  1.00  0.00     0.049 A 
ATOM     28  C   UNL A   1      44.304  29.963  32.041  1.00  0.00     0.074 A 
ATOM     29  C   UNL A   1      39.316  33.902  31.960  1.00  0.00     0.029 A 
ATOM     30  N   UNL A   1      40.714  32.211  31.598  1.00  0.00    -0.354 N 
ATOM     31  N   UNL A   1      43.223  30.703  31.973  1.00  0.00    -0.248 NA
ATOM     32  C   UNL A   1      45.409  30.570  32.792  1.00  0.00     0.031 C 
ATOM     33  C   UNL A   1      40.524  34.178  32.611  1.00  0.00     0.029 A 
ATOM     34  C   UNL A   1      41.390  33.118  32.399  1.00  0.00     0.049 A 
ATOM     35  H   UNL A   1      41.082  31.354  31.282  1.00  0.00     0.167 HD
ATOM     36  C   UNL A   1      43.515  31.862  32.680  1.00  0.00     0.074 A 
ATOM     37  C   UNL A   1      44.865  31.714  33.185  1.00  0.00     0.031 C 
ATOM     38  C   UNL A   1      42.737  32.952  32.888  1.00  0.00     0.037 A 
BRANCH  25  39
ATOM     39  C   UNL A   1      37.184  32.720  30.178  1.00  0.00     0.058 A 
ATOM     40  C   UNL A   1      36.047  32.534  30.980  1.00  0.00     0.135 A 
ATOM     41  C   UNL A   1      37.094  33.635  29.116  1.00  0.00     0.135 A 
ATOM     42  F   UNL A   1      36.072  31.661  31.999  1.00  0.00    -0.206 F 
ATOM     43  C   UNL A   1      34.860  33.217  30.726  1.00  0.00     0.059 A 
ATOM     44  C   UNL A   1      35.925  34.345  28.859  1.00  0.00     0.059 A 
ATOM     45  F   UNL A   1      38.152  33.851  28.319  1.00  0.00    -0.206 F 
ATOM     46  C   UNL A   1      34.808  34.121  29.663  1.00  0.00     0.060 A 
BRANCH  46  47
ATOM     47  S   UNL A   1      33.264  35.003  29.352  1.00  0.00     0.124 S 
ATOM     48  O   UNL A   1      33.758  36.302  28.903  1.00  0.00    -0.237 OA
ATOM     49  O   UNL A   1      32.633  34.177  28.327  1.00  0.00    -0.237 OA
ATOM     50  O   UNL A   1      32.602  34.999  30.651  1.00  0.00    -0.744 OA
ENDBRANCH  46  47
ENDBRANCH  25  39
BRANCH  26  51
ATOM     51  C   UNL A   1      45.850  27.907  31.622  1.00  0.00     0.058 A 
ATOM     52  C   UNL A   1      46.100  27.102  32.741  1.00  0.00     0.135 A 
ATOM     53  C   UNL A   1      46.853  28.003  30.645  1.00  0.00     0.135 A 
ATOM     54  F   UNL A   1      45.171  26.980  33.702  1.00  0.00    -0.206 F 
ATOM     55  C   UNL A   1      47.304  26.423  32.892  1.00  0.00     0.059 A 
ATOM     56  C   UNL A   1      48.054  27.312  30.760  1.00  0.00     0.059 A 
ATOM     57  F   UNL A   1      46.652  28.746  29.544  1.00  0.00    -0.206 F 
ATOM     58  C   UNL A   1      48.274  26.533  31.893  1.00  0.00     0.060 A 
BRANCH  58  59
ATOM     59  S   UNL A   1      49.814  25.608  32.071  1.00  0.00     0.124 S 
ATOM     60  O   UNL A   1      49.411  24.542  32.979  1.00  0.00    -0.237 OA
ATOM     61  O   UNL A   1      50.093  25.204  30.695  1.00  0.00    -0.237 OA
ATOM     62  O   UNL A   1      50.736  26.596  32.623  1.00  0.00    -0.744 OA
ENDBRANCH  58  59
ENDBRANCH  26  51
BRANCH  38  63
ATOM     63  C   UNL A   1      43.323  34.063  33.710  1.00  0.00     0.058 A 
ATOM     64  C   UNL A   1      43.958  35.161  33.110  1.00  0.00     0.135 A 
ATOM     65  C   UNL A   1      43.207  34.053  35.108  1.00  0.00     0.135 A 
ATOM     66  F   UNL A   1      44.104  35.210  31.776  1.00  0.00    -0.206 F 
ATOM     67  C   UNL A   1      44.473  36.205  33.870  1.00  0.00     0.059 A 
ATOM     68  C   UNL A   1      43.692  35.098  35.887  1.00  0.00     0.059 A 
ATOM     69  F   UNL A   1      42.603  33.027  35.730  1.00  0.00    -0.206 F 
ATOM     70  C   UNL A   1      44.331  36.166  35.259  1.00  0.00     0.060 A 
BRANCH  70  71
ATOM     71  S   UNL A   1      44.965  37.548  36.232  1.00  0.00     0.124 S 
ATOM     72  O   UNL A   1      45.305  38.510  35.189  1.00  0.00    -0.237 OA
ATOM     73  O   UNL A   1      43.819  37.895  37.066  1.00  0.00    -0.237 OA
ATOM     74  O   UNL A   1      46.098  36.968  36.945  1.00  0.00    -0.744 OA
ENDBRANCH  70  71
ENDBRANCH  38  63
ENDBRANCH  12  13
ENDBRANCH   5   7
ENDBRANCH   2   3
ENDBRANCH   1   2
BRANCH   1  75
ATOM     75  C   UNL A   1      42.898  21.251  25.808  1.00  0.00     0.118 C 
BRANCH  75  76
ATOM     76  N   UNL A   1      43.730  21.628  24.674  1.00  0.00    -0.352 N 
ATOM     77  C   UNL A   1      44.546  22.708  24.481  1.00  0.00     0.251 C 
ATOM     78  H   UNL A   1      43.702  20.997  23.919  1.00  0.00     0.163 HD
ATOM     79  O   UNL A   1      44.923  22.976  23.342  1.00  0.00    -0.269 OA
BRANCH  77  80
ATOM     80  C   UNL A   1      45.010  23.538  25.611  1.00  0.00     0.043 A 
ATOM     81  C   UNL A   1      45.666  22.907  26.669  1.00  0.00     0.014 A 
ATOM     82  C   UNL A   1      44.712  24.905  25.688  1.00  0.00     0.056 A 
ATOM     83  C   UNL A   1      45.988  23.639  27.803  1.00  0.00     0.004 A 
ATOM     84  C   UNL A   1      45.116  25.680  26.782  1.00  0.00     0.100 A 
ATOM     85  C   UNL A   1      45.691  25.004  27.859  1.00  0.00     0.043 A 
BRANCH  84  86
ATOM     86  N   UNL A   1      44.970  27.077  26.685  1.00  0.00    -0.245 N 
ATOM     87  C   UNL A   1      45.831  28.091  26.349  1.00  0.00     0.351 C 
ATOM     88  H   UNL A   1      44.063  27.392  26.904  1.00  0.00     0.267 HD
ATOM     89  N   UNL A   1      45.524  29.347  26.272  1.00  0.00    -0.273 N 
ATOM     90  N   UNL A   1      47.117  27.735  26.031  1.00  0.00    -0.261 N 
ATOM     91  H   UNL A   1      46.221  30.002  26.036  1.00  0.00     0.260 HD
ATOM     92  C   UNL A   1      48.235  28.486  26.615  1.00  0.00     0.221 C 
ATOM     93  C   UNL A   1      47.423  27.267  24.666  1.00  0.00     0.221 C 
ATOM     94  C   UNL A   1      49.468  27.573  26.716  1.00  0.00     0.154 C 
ATOM     95  C   UNL A   1      48.709  26.407  24.626  1.00  0.00     0.154 C 
ATOM     96  N   UNL A   1      49.825  27.001  25.403  1.00  0.00    -0.365 N 
BRANCH  89  97
ATOM     97  C   UNL A   1      44.160  29.811  26.528  1.00  0.00     0.233 C 
BRANCH  97  98
ATOM     98  C   UNL A   1      44.042  31.200  27.126  1.00  0.00    -0.014 A 
ATOM     99  C   UNL A   1      43.773  31.348  28.495  1.00  0.00     0.007 A 
ATOM    100  C   UNL A   1      44.228  32.354  26.350  1.00  0.00     0.007 A 
ATOM    101  C   UNL A   1      43.652  32.618  29.063  1.00  0.00     0.000 A 
ATOM    102  C   UNL A   1      44.097  33.623  26.917  1.00  0.00     0.000 A 
ATOM    103  C   UNL A   1      43.805  33.755  28.272  1.00  0.00     0.000 A 
ENDBRANCH  97  98
ENDBRANCH  89  97
BRANCH  96 104
ATOM    104  C   UNL A   1      51.079  26.419  25.235  1.00  0.00     0.037 A 
ATOM    105  C   UNL A   1      51.891  26.675  24.116  1.00  0.00     0.029 A 
ATOM    106  C   UNL A   1      51.568  25.520  26.197  1.00  0.00     0.029 A 
ATOM    107  C   UNL A   1      53.135  26.056  23.963  1.00  0.00     0.041 A 
ATOM    108  C   UNL A   1      52.808  24.892  26.047  1.00  0.00     0.041 A 
ATOM    109  C   UNL A   1      53.579  25.165  24.929  1.00  0.00     0.123 A 
ATOM    110  F   UNL A   1      54.763  24.559  24.775  1.00  0.00    -0.207 F 
ENDBRANCH  96 104
ENDBRANCH  84  86
ENDBRANCH  77  80
ENDBRANCH  75  76
ENDBRANCH   1  75
TORSDOF 17
ENDMDL
MODEL 2
REMARK VINA RESULT:     -10.7      0.467      7.717
REMARK SMILES O=C(NCCCNC(=O)c1cccc(N/C(=[NH+]\Cc2ccccc2)N2CCN(c3ccc(F)cc3)CC2)c1)c1ccc(-c2c3nc(c(-c4c(F)cc(S(=O)(=O)[O-])cc4F)c4ccc([nH]4)c(-c4c(F)cc(S(=O)(=O)[O-])cc4F)c4nc(c(-c5c(F)cc(S(=O)(=O)[O-])cc5F)c5ccc2[nH]5)C=C4)C=C3)cc1
REMARK SMILES IDX 5 1 4 2 3 3 1 4 2 5 39 7 40 8 104 9 41 10 103 11 42 12 43 13
REMARK SMILES IDX 44 14 97 15 45 16 102 17 96 18 98 19 46 20 101 21 95 22
REMARK SMILES IDX 94 23 47 25 81 26 60 27 80 28 61 29 64 30 79 31 99 32 62 33
REMARK SMILES IDX 63 34 78 36 100 37 65 38 48 39 49 40 58 41 50 42 51 43 57 44
REMARK SMILES IDX 59 45 52 46 53 47 54 48 55 49 56 50 82 51 83 52 92 53 84 54
REMARK SMILES IDX 85 55 91 56 93 57 86 58 87 59 88 60 89 61 90 62 66 63 67 64
REMARK SMILES IDX 76 65 68 66 69 67 75 68 77 69 70 70 71 71 72 72 73 73 74 74
REMARK SMILES IDX 6 75 7 76 8 77 9 79 10 80 11 81 38 82 12 83 14 84 13 85
REMARK SMILES IDX 15 86 16 87 17 89 25 90 26 92 37 93 27 94 36 95 28 96 18 97
REMARK SMILES IDX 19 98 20 99 24 100 21 101 23 102 22 103 29 104 30 105 35 106
REMARK SMILES IDX 31 107 34 108 32 109 33 110
REMARK H PARENT 3 6 98 24 64 35 7 78 15 88 17 91
REMARK Flexibility Score: inf
ROOT
ATOM      1  C   UNL A   1      41.635  21.407  26.126  1.00  0.00     0.042 C 
ENDROOT
BRANCH   1   2
ATOM      2  C   UNL A   1      40.353  21.583  26.925  1.00  0.00     0.118 C 
BRANCH   2   3
ATOM      3  N   UNL A   1      39.226  21.991  26.098  1.00  0.00    -0.352 N 
ATOM      4  O   UNL A   1      37.493  23.273  25.451  1.00  0.00    -0.269 OA
ATOM      5  C   UNL A   1      38.543  23.183  26.076  1.00  0.00     0.251 C 
ATOM      6  H   UNL A   1      38.905  21.313  25.462  1.00  0.00     0.163 HD
BRANCH   5   7
ATOM      7  C   UNL A   1      39.071  24.341  26.828  1.00  0.00     0.039 A 
ATOM      8  C   UNL A   1      38.770  24.500  28.182  1.00  0.00     0.014 A 
ATOM      9  C   UNL A   1      39.882  25.271  26.173  1.00  0.00     0.014 A 
ATOM     10  C   UNL A   1      39.143  25.663  28.839  1.00  0.00     0.010 A 
ATOM     11  C   UNL A   1      40.345  26.392  26.867  1.00  0.00     0.010 A 
ATOM     12  C   UNL A   1      39.959  26.608  28.199  1.00  0.00    -0.014 A 
BRANCH  12  13
ATOM     13  C   UNL A   1      40.473  27.761  28.977  1.00  0.00     0.031 A 
ATOM     14  C   UNL A   1      41.858  27.759  29.557  1.00  0.00     0.074 A 
ATOM     15  C   UNL A   1      39.661  28.825  29.142  1.00  0.00     0.049 A 
ATOM     16  N   UNL A   1      42.446  28.679  30.277  1.00  0.00    -0.248 NA
ATOM     17  C   UNL A   1      42.690  26.571  29.306  1.00  0.00     0.031 C 
ATOM     18  C   UNL A   1      38.290  28.925  28.631  1.00  0.00     0.029 A 
ATOM     19  N   UNL A   1      39.866  30.025  29.771  1.00  0.00    -0.354 N 
ATOM     20  C   UNL A   1      43.704  28.175  30.589  1.00  0.00     0.074 A 
ATOM     21  C   UNL A   1      43.790  26.860  29.991  1.00  0.00     0.031 C 
ATOM     22  C   UNL A   1      37.792  30.132  28.932  1.00  0.00     0.029 A 
ATOM     23  C   UNL A   1      38.778  30.863  29.718  1.00  0.00     0.049 A 
ATOM     24  H   UNL A   1      40.710  30.264  30.217  1.00  0.00     0.167 HD
ATOM     25  C   UNL A   1      44.692  28.764  31.306  1.00  0.00     0.037 A 
ATOM     26  C   UNL A   1      38.578  32.075  30.268  1.00  0.00     0.037 A 
ATOM     27  C   UNL A   1      44.594  30.084  31.876  1.00  0.00     0.049 A 
ATOM     28  C   UNL A   1      39.682  32.693  31.072  1.00  0.00     0.074 A 
ATOM     29  C   UNL A   1      45.558  30.791  32.575  1.00  0.00     0.029 A 
ATOM     30  N   UNL A   1      43.468  30.893  31.821  1.00  0.00    -0.354 N 
ATOM     31  N   UNL A   1      40.878  32.217  31.324  1.00  0.00    -0.248 NA
ATOM     32  C   UNL A   1      39.410  34.002  31.677  1.00  0.00     0.031 C 
ATOM     33  C   UNL A   1      44.999  32.008  32.981  1.00  0.00     0.029 A 
ATOM     34  C   UNL A   1      43.703  32.079  32.498  1.00  0.00     0.049 A 
ATOM     35  H   UNL A   1      42.627  30.659  31.368  1.00  0.00     0.167 HD
ATOM     36  C   UNL A   1      41.507  33.174  32.110  1.00  0.00     0.074 A 
ATOM     37  C   UNL A   1      40.565  34.263  32.274  1.00  0.00     0.031 C 
ATOM     38  C   UNL A   1      42.749  33.151  32.652  1.00  0.00     0.037 A 
BRANCH  25  39
ATOM     39  C   UNL A   1      45.957  27.984  31.536  1.00  0.00     0.058 A 
ATOM     40  C   UNL A   1      46.127  27.162  32.661  1.00  0.00     0.135 A 
ATOM     41  C   UNL A   1      46.992  28.016  30.586  1.00  0.00     0.135 A 
ATOM     42  F   UNL A   1      45.177  27.105  33.608  1.00  0.00    -0.206 F 
ATOM     43  C   UNL A   1      47.288  26.415  32.846  1.00  0.00     0.059 A 
ATOM     44  C   UNL A   1      48.150  27.260  30.740  1.00  0.00     0.059 A 
ATOM     45  F   UNL A   1      46.880  28.785  29.492  1.00  0.00    -0.206 F 
ATOM     46  C   UNL A   1      48.295  26.470  31.880  1.00  0.00     0.060 A 
BRANCH  46  47
ATOM     47  S   UNL A   1      49.790  25.490  32.132  1.00  0.00     0.124 S 
ATOM     48  O   UNL A   1      50.051  25.008  30.779  1.00  0.00    -0.237 OA
ATOM     49  O   UNL A   1      50.732  26.481  32.643  1.00  0.00    -0.237 OA
ATOM     50  O   UNL A   1      49.373  24.473  33.091  1.00  0.00    -0.744 OA
ENDBRANCH  46  47
ENDBRANCH  25  39
BRANCH  26  51
ATOM     51  C   UNL A   1      37.269  32.755  30.091  1.00  0.00     0.058 A 
ATOM     52  C   UNL A   1      36.266  32.663  31.065  1.00  0.00     0.135 A 
ATOM     53  C   UNL A   1      37.013  33.544  28.958  1.00  0.00     0.135 A 
ATOM     54  F   UNL A   1      36.465  31.919  32.165  1.00  0.00    -0.206 F 
ATOM     55  C   UNL A   1      35.049  33.320  30.920  1.00  0.00     0.059 A 
ATOM     56  C   UNL A   1      35.815  34.233  28.803  1.00  0.00     0.059 A 
ATOM     57  F   UNL A   1      37.950  33.681  28.007  1.00  0.00    -0.206 F 
ATOM     58  C   UNL A   1      34.835  34.105  29.784  1.00  0.00     0.060 A 
BRANCH  58  59
ATOM     59  S   UNL A   1      33.273  34.996  29.627  1.00  0.00     0.124 S 
ATOM     60  O   UNL A   1      32.772  34.952  30.995  1.00  0.00    -0.237 OA
ATOM     61  O   UNL A   1      33.711  36.305  29.148  1.00  0.00    -0.237 OA
ATOM     62  O   UNL A   1      32.530  34.200  28.654  1.00  0.00    -0.744 OA
ENDBRANCH  58  59
ENDBRANCH  26  51
BRANCH  38  63
ATOM     63  C   UNL A   1      43.165  34.346  33.458  1.00  0.00     0.058 A 
ATOM     64  C   UNL A   1      43.661  35.506  32.845  1.00  0.00     0.135 A 
ATOM     65  C   UNL A   1      43.020  34.349  34.854  1.00  0.00     0.135 A 
ATOM     66  F   UNL A   1      43.828  35.547  31.513  1.00  0.00    -0.206 F 
ATOM     67  C   UNL A   1      44.016  36.624  33.590  1.00  0.00     0.059 A 
ATOM     68  C   UNL A   1      43.345  35.465  35.618  1.00  0.00     0.059 A 
ATOM     69  F   UNL A   1      42.545  33.265  35.488  1.00  0.00    -0.206 F 
ATOM     70  C   UNL A   1      43.851  36.595  34.977  1.00  0.00     0.060 A 
BRANCH  70  71
ATOM     71  S   UNL A   1      44.275  38.069  35.929  1.00  0.00     0.124 S 
ATOM     72  O   UNL A   1      43.945  39.133  34.987  1.00  0.00    -0.237 OA
ATOM     73  O   UNL A   1      43.397  37.955  37.089  1.00  0.00    -0.237 OA
ATOM     74  O   UNL A   1      45.697  37.895  36.208  1.00  0.00    -0.744 OA
ENDBRANCH  70  71
ENDBRANCH  38  63
ENDBRANCH  12  13
ENDBRANCH   5   7
ENDBRANCH   2   3
ENDBRANCH   1   2
BRANCH   1  75
ATOM     75  C   UNL A   1      42.250  22.711  25.645  1.00  0.00     0.118 C 
BRANCH  75  76
ATOM     76  N   UNL A   1      43.331  22.484  24.697  1.00  0.00    -0.352 N 
ATOM     77  C   UNL A   1      44.536  23.113  24.543  1.00  0.00     0.251 C 
ATOM     78  H   UNL A   1      43.169  21.753  24.058  1.00  0.00     0.163 HD
ATOM     79  O   UNL A   1      45.165  22.955  23.499  1.00  0.00    -0.269 OA
BRANCH  77  80
ATOM     80  C   UNL A   1      45.112  23.950  25.615  1.00  0.00     0.043 A 
ATOM     81  C   UNL A   1      45.868  23.325  26.608  1.00  0.00     0.014 A 
ATOM     82  C   UNL A   1      44.828  25.319  25.710  1.00  0.00     0.056 A 
ATOM     83  C   UNL A   1      46.304  24.064  27.699  1.00  0.00     0.004 A 
ATOM     84  C   UNL A   1      45.341  26.100  26.752  1.00  0.00     0.100 A 
ATOM     85  C   UNL A   1      46.017  25.431  27.773  1.00  0.00     0.043 A 
BRANCH  84  86
ATOM     86  N   UNL A   1      45.191  27.498  26.660  1.00  0.00    -0.245 N 
ATOM     87  C   UNL A   1      46.055  28.518  26.349  1.00  0.00     0.351 C 
ATOM     88  H   UNL A   1      44.277  27.807  26.859  1.00  0.00     0.267 HD
ATOM     89  N   UNL A   1      45.744  29.772  26.272  1.00  0.00    -0.273 N 
ATOM     90  N   UNL A   1      47.349  28.169  26.061  1.00  0.00    -0.261 N 
ATOM     91  H   UNL A   1      46.443  30.431  26.056  1.00  0.00     0.260 HD
ATOM     92  C   UNL A   1      48.450  28.922  26.674  1.00  0.00     0.221 C 
ATOM     93  C   UNL A   1      47.689  27.709  24.700  1.00  0.00     0.221 C 
ATOM     94  C   UNL A   1      49.684  28.014  26.800  1.00  0.00     0.154 C 
ATOM     95  C   UNL A   1      48.981  26.856  24.687  1.00  0.00     0.154 C 
ATOM     96  N   UNL A   1      50.075  27.451  25.492  1.00  0.00    -0.365 N 
BRANCH  89  97
ATOM     97  C   UNL A   1      44.372  30.228  26.498  1.00  0.00     0.233 C 
BRANCH  97  98
ATOM     98  C   UNL A   1      44.231  31.637  27.040  1.00  0.00    -0.014 A 
ATOM     99  C   UNL A   1      44.252  32.728  26.158  1.00  0.00     0.007 A 
ATOM    100  C   UNL A   1      44.044  31.885  28.408  1.00  0.00     0.007 A 
ATOM    101  C   UNL A   1      44.132  34.034  26.638  1.00  0.00     0.000 A 
ATOM    102  C   UNL A   1      43.934  33.191  28.889  1.00  0.00     0.000 A 
ATOM    103  C   UNL A   1      43.983  34.266  28.004  1.00  0.00     0.000 A 
ENDBRANCH  97  98
ENDBRANCH  89  97
BRANCH  96 104
ATOM    104  C   UNL A   1      51.336  26.876  25.351  1.00  0.00     0.037 A 
ATOM    105  C   UNL A   1      52.383  27.505  24.656  1.00  0.00     0.029 A 
ATOM    106  C   UNL A   1      51.591  25.607  25.898  1.00  0.00     0.029 A 
ATOM    107  C   UNL A   1      53.631  26.891  24.510  1.00  0.00     0.041 A 
ATOM    108  C   UNL A   1      52.834  24.984  25.749  1.00  0.00     0.041 A 
ATOM    109  C   UNL A   1      53.842  25.633  25.054  1.00  0.00     0.123 A 
ATOM    110  F   UNL A   1      55.031  25.037  24.900  1.00  0.00    -0.207 F 
ENDBRANCH  96 104
ENDBRANCH  84  86
ENDBRANCH  77  80
ENDBRANCH  75  76
ENDBRANCH   1  75
TORSDOF 17
ENDMDL
MODEL 3
REMARK VINA RESULT:     -10.5      5.279     12.370
REMARK SMILES O=C(NCCCNC(=O)c1cccc(N/C(=[NH+]\Cc2ccccc2)N2CCN(c3ccc(F)cc3)CC2)c1)c1ccc(-c2c3nc(c(-c4c(F)cc(S(=O)(=O)[O-])cc4F)c4ccc([nH]4)c(-c4c(F)cc(S(=O)(=O)[O-])cc4F)c4nc(c(-c5c(F)cc(S(=O)(=O)[O-])cc5F)c5ccc2[nH]5)C=C4)C=C3)cc1
REMARK SMILES IDX 5 1 4 2 3 3 1 4 2 5 39 7 40 8 104 9 41 10 103 11 42 12 43 13
REMARK SMILES IDX 44 14 97 15 45 16 102 17 96 18 98 19 46 20 101 21 95 22
REMARK SMILES IDX 94 23 47 25 81 26 60 27 80 28 61 29 64 30 79 31 99 32 62 33
REMARK SMILES IDX 63 34 78 36 100 37 65 38 48 39 49 40 58 41 50 42 51 43 57 44
REMARK SMILES IDX 59 45 52 46 53 47 54 48 55 49 56 50 82 51 83 52 92 53 84 54
REMARK SMILES IDX 85 55 91 56 93 57 86 58 87 59 88 60 89 61 90 62 66 63 67 64
REMARK SMILES IDX 76 65 68 66 69 67 75 68 77 69 70 70 71 71 72 72 73 73 74 74
REMARK SMILES IDX 6 75 7 76 8 77 9 79 10 80 11 81 38 82 12 83 14 84 13 85
REMARK SMILES IDX 15 86 16 87 17 89 25 90 26 92 37 93 27 94 36 95 28 96 18 97
REMARK SMILES IDX 19 98 20 99 24 100 21 101 23 102 22 103 29 104 30 105 35 106
REMARK SMILES IDX 31 107 34 108 32 109 33 110
REMARK H PARENT 3 6 98 24 64 35 7 78 15 88 17 91
REMARK Flexibility Score: inf
ROOT
ATOM      1  C   UNL A   1      35.928  33.517  28.763  1.00  0.00     0.042 C 
ENDROOT
BRANCH   1   2
ATOM      2  C   UNL A   1      36.839  32.955  29.843  1.00  0.00     0.118 C 
BRANCH   2   3
ATOM      3  N   UNL A   1      36.240  31.838  30.561  1.00  0.00    -0.352 N 
ATOM      4  O   UNL A   1      35.925  29.690  31.153  1.00  0.00    -0.269 OA
ATOM      5  C   UNL A   1      36.667  30.537  30.670  1.00  0.00     0.251 C 
ATOM      6  H   UNL A   1      35.404  32.046  31.037  1.00  0.00     0.163 HD
BRANCH   5   7
ATOM      7  C   UNL A   1      38.012  30.168  30.182  1.00  0.00     0.039 A 
ATOM      8  C   UNL A   1      39.058  29.961  31.082  1.00  0.00     0.014 A 
ATOM      9  C   UNL A   1      38.225  30.018  28.809  1.00  0.00     0.014 A 
ATOM     10  C   UNL A   1      40.348  29.763  30.608  1.00  0.00     0.010 A 
ATOM     11  C   UNL A   1      39.505  29.715  28.338  1.00  0.00     0.010 A 
ATOM     12  C   UNL A   1      40.581  29.608  29.234  1.00  0.00    -0.014 A 
BRANCH  12  13
ATOM     13  C   UNL A   1      41.941  29.240  28.771  1.00  0.00     0.031 A 
ATOM     14  C   UNL A   1      43.044  30.256  28.697  1.00  0.00     0.074 A 
ATOM     15  C   UNL A   1      42.166  27.956  28.426  1.00  0.00     0.049 A 
ATOM     16  N   UNL A   1      44.278  30.097  28.295  1.00  0.00    -0.248 NA
ATOM     17  C   UNL A   1      42.723  31.629  29.119  1.00  0.00     0.031 C 
ATOM     18  C   UNL A   1      41.158  26.890  28.447  1.00  0.00     0.029 A 
ATOM     19  N   UNL A   1      43.304  27.323  28.001  1.00  0.00    -0.354 N 
ATOM     20  C   UNL A   1      44.876  31.349  28.389  1.00  0.00     0.074 A 
ATOM     21  C   UNL A   1      43.863  32.262  28.874  1.00  0.00     0.031 C 
ATOM     22  C   UNL A   1      41.732  25.732  28.092  1.00  0.00     0.029 A 
ATOM     23  C   UNL A   1      43.125  25.985  27.749  1.00  0.00     0.049 A 
ATOM     24  H   UNL A   1      44.167  27.784  27.889  1.00  0.00     0.167 HD
ATOM     25  C   UNL A   1      46.153  31.695  28.099  1.00  0.00     0.037 A 
ATOM     26  C   UNL A   1      43.976  25.063  27.262  1.00  0.00     0.037 A 
ATOM     27  C   UNL A   1      47.153  30.766  27.637  1.00  0.00     0.049 A 
ATOM     28  C   UNL A   1      45.378  25.480  26.932  1.00  0.00     0.074 A 
ATOM     29  C   UNL A   1      48.489  31.006  27.366  1.00  0.00     0.029 A 
ATOM     30  N   UNL A   1      46.928  29.422  27.372  1.00  0.00    -0.354 N 
ATOM     31  N   UNL A   1      45.936  26.660  27.064  1.00  0.00    -0.248 NA
ATOM     32  C   UNL A   1      46.264  24.450  26.377  1.00  0.00     0.031 C 
ATOM     33  C   UNL A   1      49.060  29.819  26.892  1.00  0.00     0.029 A 
ATOM     34  C   UNL A   1      48.092  28.828  26.911  1.00  0.00     0.049 A 
ATOM     35  H   UNL A   1      46.068  28.960  27.492  1.00  0.00     0.167 HD
ATOM     36  C   UNL A   1      47.242  26.513  26.616  1.00  0.00     0.074 A 
ATOM     37  C   UNL A   1      47.396  25.124  26.231  1.00  0.00     0.031 C 
ATOM     38  C   UNL A   1      48.223  27.443  26.529  1.00  0.00     0.037 A 
BRANCH  25  39
ATOM     39  C   UNL A   1      46.544  33.140  28.251  1.00  0.00     0.058 A 
ATOM     40  C   UNL A   1      46.411  34.058  27.198  1.00  0.00     0.135 A 
ATOM     41  C   UNL A   1      47.006  33.624  29.487  1.00  0.00     0.135 A 
ATOM     42  F   UNL A   1      45.988  33.648  25.991  1.00  0.00    -0.206 F 
ATOM     43  C   UNL A   1      46.740  35.401  27.359  1.00  0.00     0.059 A 
ATOM     44  C   UNL A   1      47.319  34.966  29.677  1.00  0.00     0.059 A 
ATOM     45  F   UNL A   1      47.151  32.788  30.527  1.00  0.00    -0.206 F 
ATOM     46  C   UNL A   1      47.194  35.846  28.603  1.00  0.00     0.060 A 
BRANCH  46  47
ATOM     47  S   UNL A   1      47.611  37.593  28.797  1.00  0.00     0.124 S 
ATOM     48  O   UNL A   1      46.940  37.912  30.054  1.00  0.00    -0.237 OA
ATOM     49  O   UNL A   1      49.069  37.562  28.849  1.00  0.00    -0.237 OA
ATOM     50  O   UNL A   1      47.041  38.213  27.606  1.00  0.00    -0.744 OA
ENDBRANCH  46  47
ENDBRANCH  25  39
BRANCH  26  51
ATOM     51  C   UNL A   1      43.505  23.672  27.038  1.00  0.00     0.058 A 
ATOM     52  C   UNL A   1      43.314  22.790  28.110  1.00  0.00     0.135 A 
ATOM     53  C   UNL A   1      43.198  23.213  25.747  1.00  0.00     0.135 A 
ATOM     54  F   UNL A   1      43.594  23.185  29.362  1.00  0.00    -0.206 F 
ATOM     55  C   UNL A   1      42.846  21.496  27.911  1.00  0.00     0.059 A 
ATOM     56  C   UNL A   1      42.703  21.933  25.526  1.00  0.00     0.059 A 
ATOM     57  F   UNL A   1      43.344  24.028  24.690  1.00  0.00    -0.206 F 
ATOM     58  C   UNL A   1      42.540  21.078  26.614  1.00  0.00     0.060 A 
BRANCH  58  59
ATOM     59  S   UNL A   1      41.884  19.414  26.369  1.00  0.00     0.124 S 
ATOM     60  O   UNL A   1      42.414  19.083  25.052  1.00  0.00    -0.237 OA
ATOM     61  O   UNL A   1      42.465  18.684  27.493  1.00  0.00    -0.237 OA
ATOM     62  O   UNL A   1      40.439  19.611  26.439  1.00  0.00    -0.744 OA
ENDBRANCH  58  59
ENDBRANCH  26  51
BRANCH  38  63
ATOM     63  C   UNL A   1      49.555  26.985  26.009  1.00  0.00     0.058 A 
ATOM     64  C   UNL A   1      49.888  27.098  24.651  1.00  0.00     0.135 A 
ATOM     65  C   UNL A   1      50.523  26.473  26.886  1.00  0.00     0.135 A 
ATOM     66  F   UNL A   1      48.991  27.571  23.772  1.00  0.00    -0.206 F 
ATOM     67  C   UNL A   1      51.134  26.702  24.176  1.00  0.00     0.059 A 
ATOM     68  C   UNL A   1      51.784  26.094  26.437  1.00  0.00     0.059 A 
ATOM     69  F   UNL A   1      50.254  26.350  28.195  1.00  0.00    -0.206 F 
ATOM     70  C   UNL A   1      52.077  26.205  25.078  1.00  0.00     0.060 A 
BRANCH  70  71
ATOM     71  S   UNL A   1      53.705  25.736  24.456  1.00  0.00     0.124 S 
ATOM     72  O   UNL A   1      53.548  25.959  23.023  1.00  0.00    -0.237 OA
ATOM     73  O   UNL A   1      54.586  26.669  25.150  1.00  0.00    -0.237 OA
ATOM     74  O   UNL A   1      53.834  24.340  24.864  1.00  0.00    -0.744 OA
ENDBRANCH  70  71
ENDBRANCH  38  63
ENDBRANCH  12  13
ENDBRANCH   5   7
ENDBRANCH   2   3
ENDBRANCH   1   2
BRANCH   1  75
ATOM     75  C   UNL A   1      35.139  32.462  28.005  1.00  0.00     0.118 C 
BRANCH  75  76
ATOM     76  N   UNL A   1      33.728  32.806  27.903  1.00  0.00    -0.352 N 
ATOM     77  C   UNL A   1      32.679  32.131  27.345  1.00  0.00     0.251 C 
ATOM     78  H   UNL A   1      33.488  33.671  28.307  1.00  0.00     0.163 HD
ATOM     79  O   UNL A   1      31.634  32.735  27.113  1.00  0.00    -0.269 OA
BRANCH  77  80
ATOM     80  C   UNL A   1      32.761  30.687  27.044  1.00  0.00     0.043 A 
ATOM     81  C   UNL A   1      33.826  29.960  27.578  1.00  0.00     0.014 A 
ATOM     82  C   UNL A   1      31.867  30.069  26.160  1.00  0.00     0.056 A 
ATOM     83  C   UNL A   1      34.005  28.637  27.201  1.00  0.00     0.004 A 
ATOM     84  C   UNL A   1      31.974  28.710  25.844  1.00  0.00     0.100 A 
ATOM     85  C   UNL A   1      33.097  28.034  26.323  1.00  0.00     0.043 A 
BRANCH  84  86
ATOM     86  N   UNL A   1      30.918  28.118  25.124  1.00  0.00    -0.245 N 
ATOM     87  C   UNL A   1      30.761  26.897  24.518  1.00  0.00     0.351 C 
ATOM     88  H   UNL A   1      30.129  28.701  25.039  1.00  0.00     0.267 HD
ATOM     89  N   UNL A   1      29.691  26.486  23.915  1.00  0.00    -0.273 N 
ATOM     90  N   UNL A   1      31.818  26.027  24.591  1.00  0.00    -0.261 N 
ATOM     91  H   UNL A   1      29.684  25.595  23.497  1.00  0.00     0.260 HD
ATOM     92  C   UNL A   1      32.253  25.321  23.380  1.00  0.00     0.221 C 
ATOM     93  C   UNL A   1      31.994  25.201  25.801  1.00  0.00     0.221 C 
ATOM     94  C   UNL A   1      33.750  24.992  23.488  1.00  0.00     0.154 C 
ATOM     95  C   UNL A   1      33.458  24.726  25.967  1.00  0.00     0.154 C 
ATOM     96  N   UNL A   1      34.044  24.210  24.706  1.00  0.00    -0.365 N 
BRANCH  89  97
ATOM     97  C   UNL A   1      28.492  27.322  23.847  1.00  0.00     0.233 C 
BRANCH  97  98
ATOM     98  C   UNL A   1      28.629  28.599  23.041  1.00  0.00    -0.014 A 
ATOM     99  C   UNL A   1      29.787  28.820  22.279  1.00  0.00     0.007 A 
ATOM    100  C   UNL A   1      27.610  29.562  23.005  1.00  0.00     0.007 A 
ATOM    101  C   UNL A   1      29.937  29.993  21.536  1.00  0.00     0.000 A 
ATOM    102  C   UNL A   1      27.764  30.739  22.270  1.00  0.00     0.000 A 
ATOM    103  C   UNL A   1      28.929  30.956  21.539  1.00  0.00     0.000 A 
ENDBRANCH  97  98
ENDBRANCH  89  97
BRANCH  96 104
ATOM    104  C   UNL A   1      35.268  23.554  24.811  1.00  0.00     0.037 A 
ATOM    105  C   UNL A   1      35.532  22.333  24.166  1.00  0.00     0.029 A 
ATOM    106  C   UNL A   1      36.290  24.100  25.606  1.00  0.00     0.029 A 
ATOM    107  C   UNL A   1      36.762  21.685  24.311  1.00  0.00     0.041 A 
ATOM    108  C   UNL A   1      37.519  23.454  25.761  1.00  0.00     0.041 A 
ATOM    109  C   UNL A   1      37.743  22.249  25.112  1.00  0.00     0.123 A 
ATOM    110  F   UNL A   1      38.915  21.621  25.265  1.00  0.00    -0.207 F 
ENDBRANCH  96 104
ENDBRANCH  84  86
ENDBRANCH  77  80
ENDBRANCH  75  76
ENDBRANCH   1  75
TORSDOF 17
ENDMDL
