MODEL 1
REMARK VINA RESULT:     -13.4      0.000      0.000
REMARK SMILES Cc1cccc(CS[C@@H]2CC[C@]([NH3+])(C(=O)NCCCNC(=O)c3ccc(-c4c5nc(c(-c6c(F)cc(S(=O)(=O)[O-])cc6F)c6ccc([nH]6)c(-c6c(F)cc(S(=O)(=O)[O-])cc6F)c6nc(c(-c7c(F)cc(S(=O)(=O)[O-])cc7F)c7ccc4[nH]7)C=C6)C=C5)cc3)C2)c1
REMARK SMILES IDX 18 1 17 2 16 3 14 4 15 5 12 7 9 8 10 9 89 10 11 11 8 12 7 13
REMARK SMILES IDX 6 14 1 15 2 16 3 17 90 18 4 19 5 20 13 21 19 25 20 26 21 27
REMARK SMILES IDX 22 29 23 30 24 31 88 32 25 33 87 34 26 35 27 36 28 37 81 38
REMARK SMILES IDX 29 39 86 40 80 41 82 42 30 43 85 44 79 45 78 46 31 48 65 49
REMARK SMILES IDX 44 50 64 51 45 52 48 53 63 54 83 55 46 56 47 57 62 59 84 60
REMARK SMILES IDX 49 61 32 62 33 63 42 64 34 65 35 66 41 67 43 68 36 69 37 70
REMARK SMILES IDX 38 71 39 72 40 73 66 74 67 75 76 76 68 77 69 78 75 79 77 80
REMARK SMILES IDX 70 81 71 82 72 83 73 84 74 85 50 86 51 87 60 88 52 89 53 90
REMARK SMILES IDX 59 91 61 92 54 93 55 94 56 95 57 96 58 97
REMARK H PARENT 16 6 13 22 13 23 13 24 20 28 82 47 48 58
REMARK Flexibility Score: inf
ROOT
ATOM      1  C   UNL A   1      32.999  30.009  27.217  1.00  0.00     0.042 C 
ENDROOT
BRANCH   1   2
ATOM      2  C   UNL A   1      32.359  30.117  25.836  1.00  0.00     0.118 C 
BRANCH   2   3
ATOM      3  N   UNL A   1      33.262  29.710  24.765  1.00  0.00    -0.351 N 
ATOM      4  C   UNL A   1      33.145  28.778  23.781  1.00  0.00     0.281 C 
ATOM      5  O   UNL A   1      34.103  28.673  23.003  1.00  0.00    -0.268 OA
ATOM      6  H   UNL A   1      34.116  30.200  24.753  1.00  0.00     0.163 HD
BRANCH   4   7
ATOM      7  C   UNL A   1      31.944  27.789  23.663  1.00  0.00     0.175 C 
ATOM      8  C   UNL A   1      31.147  25.645  24.558  1.00  0.00     0.054 C 
ATOM      9  C   UNL A   1      31.193  25.544  23.034  1.00  0.00     0.022 C 
ATOM     10  C   UNL A   1      31.908  26.913  24.941  1.00  0.00     0.093 C 
ATOM     11  C   UNL A   1      32.024  26.733  22.563  1.00  0.00     0.080 C 
BRANCH   8  12
ATOM     12  S   UNL A   1      31.586  24.093  25.433  1.00  0.00    -0.154 SA
BRANCH  12  13
ATOM     13  C   UNL A   1      33.249  24.416  26.117  1.00  0.00     0.105 C 
BRANCH  13  14
ATOM     14  C   UNL A   1      34.412  23.923  25.297  1.00  0.00    -0.038 A 
ATOM     15  C   UNL A   1      38.061  22.905  25.824  1.00  0.00     0.044 C 
ATOM     16  C   UNL A   1      36.735  23.173  25.172  1.00  0.00    -0.051 A 
ATOM     17  C   UNL A   1      36.593  22.991  23.791  1.00  0.00     0.003 A 
ATOM     18  C   UNL A   1      35.640  23.631  25.916  1.00  0.00     0.008 A 
ATOM     19  C   UNL A   1      35.371  23.247  23.170  1.00  0.00     0.001 A 
ATOM     20  C   UNL A   1      34.285  23.701  23.919  1.00  0.00     0.004 A 
ENDBRANCH  13  14
ENDBRANCH  12  13
ENDBRANCH   8  12
BRANCH   7  21
ATOM     21  N   UNL A   1      30.691  28.571  23.548  1.00  0.00    -0.345 N 
ATOM     22  H   UNL A   1      30.884  29.455  23.076  1.00  0.00     0.345 HD
ATOM     23  H   UNL A   1      30.320  28.757  24.480  1.00  0.00     0.345 HD
ATOM     24  H   UNL A   1      30.007  28.039  23.010  1.00  0.00     0.345 HD
ENDBRANCH   7  21
ENDBRANCH   4   7
ENDBRANCH   2   3
ENDBRANCH   1   2
BRANCH   1  25
ATOM     25  C   UNL A   1      34.517  29.921  27.142  1.00  0.00     0.118 C 
BRANCH  25  26
ATOM     26  N   UNL A   1      35.211  31.089  27.675  1.00  0.00    -0.352 N 
ATOM     27  C   UNL A   1      36.435  31.109  28.324  1.00  0.00     0.251 C 
ATOM     28  H   UNL A   1      34.761  31.958  27.560  1.00  0.00     0.163 HD
ATOM     29  O   UNL A   1      36.871  32.106  28.875  1.00  0.00    -0.269 OA
BRANCH  27  30
ATOM     30  C   UNL A   1      37.228  29.864  28.264  1.00  0.00     0.039 A 
ATOM     31  C   UNL A   1      37.305  29.095  29.429  1.00  0.00     0.014 A 
ATOM     32  C   UNL A   1      38.124  29.684  27.212  1.00  0.00     0.014 A 
ATOM     33  C   UNL A   1      38.413  28.274  29.627  1.00  0.00     0.010 A 
ATOM     34  C   UNL A   1      39.255  28.925  27.442  1.00  0.00     0.010 A 
ATOM     35  C   UNL A   1      39.431  28.275  28.676  1.00  0.00    -0.014 A 
BRANCH  35  36
ATOM     36  C   UNL A   1      40.761  27.718  28.914  1.00  0.00     0.031 A 
ATOM     37  C   UNL A   1      41.035  26.296  28.612  1.00  0.00     0.074 A 
ATOM     38  C   UNL A   1      41.769  28.526  29.306  1.00  0.00     0.049 A 
ATOM     39  N   UNL A   1      42.118  25.665  28.922  1.00  0.00    -0.248 NA
ATOM     40  C   UNL A   1      40.029  25.439  27.996  1.00  0.00     0.031 C 
ATOM     41  C   UNL A   1      43.201  28.257  29.227  1.00  0.00     0.029 A 
ATOM     42  N   UNL A   1      41.674  29.682  30.088  1.00  0.00    -0.354 N 
ATOM     43  C   UNL A   1      42.073  24.425  28.326  1.00  0.00     0.074 A 
ATOM     44  C   UNL A   1      40.711  24.300  27.868  1.00  0.00     0.031 C 
ATOM     45  C   UNL A   1      43.838  29.031  30.118  1.00  0.00     0.029 A 
ATOM     46  C   UNL A   1      42.823  29.702  30.911  1.00  0.00     0.049 A 
ATOM     47  H   UNL A   1      40.951  30.350  30.070  1.00  0.00     0.167 HD
ATOM     48  C   UNL A   1      43.232  23.715  28.188  1.00  0.00     0.037 A 
ATOM     49  C   UNL A   1      42.704  29.595  32.269  1.00  0.00     0.037 A 
ATOM     50  C   UNL A   1      44.272  24.251  29.077  1.00  0.00     0.049 A 
ATOM     51  C   UNL A   1      43.316  28.344  32.867  1.00  0.00     0.074 A 
ATOM     52  C   UNL A   1      45.386  25.060  28.918  1.00  0.00     0.029 A 
ATOM     53  N   UNL A   1      44.062  24.167  30.446  1.00  0.00    -0.354 N 
ATOM     54  N   UNL A   1      43.917  27.409  32.182  1.00  0.00    -0.248 NA
ATOM     55  C   UNL A   1      43.223  28.016  34.292  1.00  0.00     0.031 C 
ATOM     56  C   UNL A   1      45.777  25.535  30.208  1.00  0.00     0.029 A 
ATOM     57  C   UNL A   1      44.913  25.001  31.147  1.00  0.00     0.049 A 
ATOM     58  H   UNL A   1      43.388  23.586  30.868  1.00  0.00     0.167 HD
ATOM     59  C   UNL A   1      44.201  26.358  33.011  1.00  0.00     0.074 A 
ATOM     60  C   UNL A   1      43.780  26.794  34.330  1.00  0.00     0.031 C 
ATOM     61  C   UNL A   1      44.710  25.172  32.576  1.00  0.00     0.037 A 
BRANCH  48  62
ATOM     62  C   UNL A   1      43.493  22.680  27.096  1.00  0.00     0.058 A 
ATOM     63  C   UNL A   1      42.779  21.457  27.087  1.00  0.00     0.135 A 
ATOM     64  C   UNL A   1      44.497  22.753  26.106  1.00  0.00     0.135 A 
ATOM     65  F   UNL A   1      41.755  21.240  27.925  1.00  0.00    -0.206 F 
ATOM     66  C   UNL A   1      43.094  20.387  26.238  1.00  0.00     0.059 A 
ATOM     67  C   UNL A   1      44.841  21.696  25.261  1.00  0.00     0.059 A 
ATOM     68  F   UNL A   1      45.202  23.860  25.873  1.00  0.00    -0.206 F 
ATOM     69  C   UNL A   1      44.148  20.506  25.344  1.00  0.00     0.060 A 
BRANCH  69  70
ATOM     70  S   UNL A   1      44.611  19.110  24.305  1.00  0.00     0.124 S 
ATOM     71  O   UNL A   1      43.637  18.099  24.701  1.00  0.00    -0.237 OA
ATOM     72  O   UNL A   1      44.450  19.661  22.964  1.00  0.00    -0.237 OA
ATOM     73  O   UNL A   1      45.989  18.831  24.701  1.00  0.00    -0.744 OA
ENDBRANCH  69  70
ENDBRANCH  48  62
BRANCH  49  74
ATOM     74  C   UNL A   1      41.507  30.304  32.794  1.00  0.00     0.058 A 
ATOM     75  C   UNL A   1      40.364  29.532  33.082  1.00  0.00     0.135 A 
ATOM     76  C   UNL A   1      41.605  31.570  33.388  1.00  0.00     0.135 A 
ATOM     77  F   UNL A   1      40.216  28.317  32.531  1.00  0.00    -0.206 F 
ATOM     78  C   UNL A   1      39.445  29.924  34.046  1.00  0.00     0.059 A 
ATOM     79  C   UNL A   1      40.686  31.989  34.349  1.00  0.00     0.059 A 
ATOM     80  F   UNL A   1      42.671  32.349  33.149  1.00  0.00    -0.206 F 
ATOM     81  C   UNL A   1      39.654  31.126  34.720  1.00  0.00     0.060 A 
BRANCH  81  82
ATOM     82  S   UNL A   1      38.686  31.418  36.217  1.00  0.00     0.124 S 
ATOM     83  O   UNL A   1      39.644  32.122  37.062  1.00  0.00    -0.237 OA
ATOM     84  O   UNL A   1      37.586  32.229  35.698  1.00  0.00    -0.237 OA
ATOM     85  O   UNL A   1      38.327  30.072  36.649  1.00  0.00    -0.744 OA
ENDBRANCH  81  82
ENDBRANCH  49  74
BRANCH  61  86
ATOM     86  C   UNL A   1      45.032  24.066  33.527  1.00  0.00     0.058 A 
ATOM     87  C   UNL A   1      46.340  23.871  33.998  1.00  0.00     0.135 A 
ATOM     88  C   UNL A   1      44.068  23.116  33.907  1.00  0.00     0.135 A 
ATOM     89  F   UNL A   1      47.318  24.730  33.666  1.00  0.00    -0.206 F 
ATOM     90  C   UNL A   1      46.676  22.793  34.814  1.00  0.00     0.059 A 
ATOM     91  C   UNL A   1      44.386  22.012  34.694  1.00  0.00     0.059 A 
ATOM     92  F   UNL A   1      42.785  23.252  33.534  1.00  0.00    -0.206 F 
ATOM     93  C   UNL A   1      45.692  21.866  35.153  1.00  0.00     0.060 A 
BRANCH  93  94
ATOM     94  S   UNL A   1      46.127  20.439  36.168  1.00  0.00     0.124 S 
ATOM     95  O   UNL A   1      45.719  20.855  37.507  1.00  0.00    -0.237 OA
ATOM     96  O   UNL A   1      45.314  19.392  35.559  1.00  0.00    -0.237 OA
ATOM     97  O   UNL A   1      47.568  20.317  35.970  1.00  0.00    -0.744 OA
ENDBRANCH  93  94
ENDBRANCH  61  86
ENDBRANCH  35  36
ENDBRANCH  27  30
ENDBRANCH  25  26
ENDBRANCH   1  25
TORSDOF 17
ENDMDL
MODEL 2
REMARK VINA RESULT:     -13.3      5.219     11.567
REMARK SMILES Cc1cccc(CS[C@@H]2CC[C@]([NH3+])(C(=O)NCCCNC(=O)c3ccc(-c4c5nc(c(-c6c(F)cc(S(=O)(=O)[O-])cc6F)c6ccc([nH]6)c(-c6c(F)cc(S(=O)(=O)[O-])cc6F)c6nc(c(-c7c(F)cc(S(=O)(=O)[O-])cc7F)c7ccc4[nH]7)C=C6)C=C5)cc3)C2)c1
REMARK SMILES IDX 18 1 17 2 16 3 14 4 15 5 12 7 9 8 10 9 89 10 11 11 8 12 7 13
REMARK SMILES IDX 6 14 1 15 2 16 3 17 90 18 4 19 5 20 13 21 19 25 20 26 21 27
REMARK SMILES IDX 22 29 23 30 24 31 88 32 25 33 87 34 26 35 27 36 28 37 81 38
REMARK SMILES IDX 29 39 86 40 80 41 82 42 30 43 85 44 79 45 78 46 31 48 65 49
REMARK SMILES IDX 44 50 64 51 45 52 48 53 63 54 83 55 46 56 47 57 62 59 84 60
REMARK SMILES IDX 49 61 32 62 33 63 42 64 34 65 35 66 41 67 43 68 36 69 37 70
REMARK SMILES IDX 38 71 39 72 40 73 66 74 67 75 76 76 68 77 69 78 75 79 77 80
REMARK SMILES IDX 70 81 71 82 72 83 73 84 74 85 50 86 51 87 60 88 52 89 53 90
REMARK SMILES IDX 59 91 61 92 54 93 55 94 56 95 57 96 58 97
REMARK H PARENT 16 6 13 22 13 23 13 24 20 28 82 47 48 58
REMARK Flexibility Score: inf
ROOT
ATOM      1  C   UNL A   1      37.547  22.133  25.448  1.00  0.00     0.042 C 
ENDROOT
BRANCH   1   2
ATOM      2  C   UNL A   1      36.073  21.961  25.803  1.00  0.00     0.118 C 
BRANCH   2   3
ATOM      3  N   UNL A   1      35.558  20.647  25.438  1.00  0.00    -0.351 N 
ATOM      4  C   UNL A   1      34.418  20.260  24.805  1.00  0.00     0.281 C 
ATOM      5  O   UNL A   1      34.268  19.043  24.631  1.00  0.00    -0.268 OA
ATOM      6  H   UNL A   1      36.144  19.900  25.700  1.00  0.00     0.163 HD
BRANCH   4   7
ATOM      7  C   UNL A   1      33.274  21.242  24.404  1.00  0.00     0.175 C 
ATOM      8  C   UNL A   1      32.917  23.576  23.724  1.00  0.00     0.054 C 
ATOM      9  C   UNL A   1      32.048  23.292  24.948  1.00  0.00     0.022 C 
ATOM     10  C   UNL A   1      33.896  22.410  23.597  1.00  0.00     0.093 C 
ATOM     11  C   UNL A   1      32.572  21.987  25.538  1.00  0.00     0.080 C 
BRANCH   8  12
ATOM     12  S   UNL A   1      33.608  25.275  23.664  1.00  0.00    -0.154 SA
BRANCH  12  13
ATOM     13  C   UNL A   1      34.093  25.627  25.390  1.00  0.00     0.105 C 
BRANCH  13  14
ATOM     14  C   UNL A   1      33.357  26.750  26.071  1.00  0.00    -0.038 A 
ATOM     15  C   UNL A   1      34.047  30.314  27.274  1.00  0.00     0.044 C 
ATOM     16  C   UNL A   1      33.340  29.027  26.960  1.00  0.00    -0.051 A 
ATOM     17  C   UNL A   1      32.000  28.864  27.330  1.00  0.00     0.003 A 
ATOM     18  C   UNL A   1      34.006  27.970  26.325  1.00  0.00     0.008 A 
ATOM     19  C   UNL A   1      31.334  27.670  27.054  1.00  0.00     0.001 A 
ATOM     20  C   UNL A   1      32.005  26.623  26.422  1.00  0.00     0.004 A 
ENDBRANCH  13  14
ENDBRANCH  12  13
ENDBRANCH   8  12
BRANCH   7  21
ATOM     21  N   UNL A   1      32.290  20.514  23.569  1.00  0.00    -0.345 N 
ATOM     22  H   UNL A   1      31.753  19.875  24.155  1.00  0.00     0.345 HD
ATOM     23  H   UNL A   1      32.783  19.983  22.849  1.00  0.00     0.345 HD
ATOM     24  H   UNL A   1      31.660  21.182  23.126  1.00  0.00     0.345 HD
ENDBRANCH   7  21
ENDBRANCH   4   7
ENDBRANCH   2   3
ENDBRANCH   1   2
BRANCH   1  25
ATOM     25  C   UNL A   1      38.175  23.327  26.154  1.00  0.00     0.118 C 
BRANCH  25  26
ATOM     26  N   UNL A   1      39.449  23.036  26.804  1.00  0.00    -0.352 N 
ATOM     27  C   UNL A   1      40.302  23.943  27.412  1.00  0.00     0.251 C 
ATOM     28  H   UNL A   1      39.734  22.093  26.811  1.00  0.00     0.163 HD
ATOM     29  O   UNL A   1      41.420  23.640  27.794  1.00  0.00    -0.269 OA
BRANCH  27  30
ATOM     30  C   UNL A   1      39.762  25.300  27.636  1.00  0.00     0.039 A 
ATOM     31  C   UNL A   1      40.225  26.321  26.801  1.00  0.00     0.014 A 
ATOM     32  C   UNL A   1      39.115  25.579  28.838  1.00  0.00     0.014 A 
ATOM     33  C   UNL A   1      40.219  27.633  27.268  1.00  0.00     0.010 A 
ATOM     34  C   UNL A   1      39.177  26.870  29.327  1.00  0.00     0.010 A 
ATOM     35  C   UNL A   1      39.789  27.883  28.570  1.00  0.00    -0.014 A 
BRANCH  35  36
ATOM     36  C   UNL A   1      40.031  29.141  29.274  1.00  0.00     0.031 A 
ATOM     37  C   UNL A   1      39.044  30.241  29.189  1.00  0.00     0.074 A 
ATOM     38  C   UNL A   1      41.100  29.262  30.089  1.00  0.00     0.049 A 
ATOM     39  N   UNL A   1      39.224  31.437  29.640  1.00  0.00    -0.248 NA
ATOM     40  C   UNL A   1      37.779  30.077  28.484  1.00  0.00     0.031 C 
ATOM     41  C   UNL A   1      41.304  30.252  31.141  1.00  0.00     0.029 A 
ATOM     42  N   UNL A   1      42.343  28.632  29.957  1.00  0.00    -0.354 N 
ATOM     43  C   UNL A   1      38.030  32.114  29.534  1.00  0.00     0.074 A 
ATOM     44  C   UNL A   1      37.211  31.263  28.707  1.00  0.00     0.031 C 
ATOM     45  C   UNL A   1      42.619  30.362  31.384  1.00  0.00     0.029 A 
ATOM     46  C   UNL A   1      43.311  29.569  30.385  1.00  0.00     0.049 A 
ATOM     47  H   UNL A   1      42.510  27.719  29.631  1.00  0.00     0.167 HD
ATOM     48  C   UNL A   1      37.849  33.253  30.267  1.00  0.00     0.037 A 
ATOM     49  C   UNL A   1      44.232  30.063  29.503  1.00  0.00     0.037 A 
ATOM     50  C   UNL A   1      39.141  33.770  30.742  1.00  0.00     0.049 A 
ATOM     51  C   UNL A   1      44.123  31.551  29.232  1.00  0.00     0.074 A 
ATOM     52  C   UNL A   1      39.827  33.754  31.946  1.00  0.00     0.029 A 
ATOM     53  N   UNL A   1      40.056  34.199  29.792  1.00  0.00    -0.354 N 
ATOM     54  N   UNL A   1      43.233  32.341  29.769  1.00  0.00    -0.248 NA
ATOM     55  C   UNL A   1      44.971  32.247  28.262  1.00  0.00     0.031 C 
ATOM     56  C   UNL A   1      41.192  34.086  31.682  1.00  0.00     0.029 A 
ATOM     57  C   UNL A   1      41.326  34.321  30.325  1.00  0.00     0.049 A 
ATOM     58  H   UNL A   1      39.831  34.392  28.854  1.00  0.00     0.167 HD
ATOM     59  C   UNL A   1      43.318  33.575  29.184  1.00  0.00     0.074 A 
ATOM     60  C   UNL A   1      44.442  33.482  28.270  1.00  0.00     0.031 C 
ATOM     61  C   UNL A   1      42.440  34.586  29.430  1.00  0.00     0.037 A 
BRANCH  48  62
ATOM     62  C   UNL A   1      36.495  33.778  30.738  1.00  0.00     0.058 A 
ATOM     63  C   UNL A   1      35.548  34.254  29.798  1.00  0.00     0.135 A 
ATOM     64  C   UNL A   1      36.096  33.960  32.080  1.00  0.00     0.135 A 
ATOM     65  F   UNL A   1      35.741  34.110  28.479  1.00  0.00    -0.206 F 
ATOM     66  C   UNL A   1      34.370  34.921  30.161  1.00  0.00     0.059 A 
ATOM     67  C   UNL A   1      34.938  34.637  32.467  1.00  0.00     0.059 A 
ATOM     68  F   UNL A   1      36.790  33.480  33.111  1.00  0.00    -0.206 F 
ATOM     69  C   UNL A   1      34.085  35.133  31.502  1.00  0.00     0.060 A 
BRANCH  69  70
ATOM     70  S   UNL A   1      32.615  36.058  31.976  1.00  0.00     0.124 S 
ATOM     71  O   UNL A   1      33.144  36.981  32.974  1.00  0.00    -0.237 OA
ATOM     72  O   UNL A   1      32.206  36.654  30.709  1.00  0.00    -0.237 OA
ATOM     73  O   UNL A   1      31.718  35.029  32.498  1.00  0.00    -0.744 OA
ENDBRANCH  69  70
ENDBRANCH  48  62
BRANCH  49  74
ATOM     74  C   UNL A   1      44.693  29.041  28.526  1.00  0.00     0.058 A 
ATOM     75  C   UNL A   1      44.105  29.050  27.246  1.00  0.00     0.135 A 
ATOM     76  C   UNL A   1      45.922  28.385  28.674  1.00  0.00     0.135 A 
ATOM     77  F   UNL A   1      42.923  29.656  27.052  1.00  0.00    -0.206 F 
ATOM     78  C   UNL A   1      44.783  28.579  26.130  1.00  0.00     0.059 A 
ATOM     79  C   UNL A   1      46.616  27.893  27.569  1.00  0.00     0.059 A 
ATOM     80  F   UNL A   1      46.528  28.344  29.871  1.00  0.00    -0.206 F 
ATOM     81  C   UNL A   1      46.067  28.062  26.297  1.00  0.00     0.060 A 
BRANCH  81  82
ATOM     82  S   UNL A   1      47.068  27.828  24.811  1.00  0.00     0.124 S 
ATOM     83  O   UNL A   1      46.776  26.440  24.467  1.00  0.00    -0.237 OA
ATOM     84  O   UNL A   1      46.499  28.835  23.916  1.00  0.00    -0.237 OA
ATOM     85  O   UNL A   1      48.424  28.094  25.277  1.00  0.00    -0.744 OA
ENDBRANCH  81  82
ENDBRANCH  49  74
BRANCH  61  86
ATOM     86  C   UNL A   1      42.596  35.927  28.788  1.00  0.00     0.058 A 
ATOM     87  C   UNL A   1      43.318  36.954  29.416  1.00  0.00     0.135 A 
ATOM     88  C   UNL A   1      41.943  36.248  27.585  1.00  0.00     0.135 A 
ATOM     89  F   UNL A   1      43.957  36.725  30.575  1.00  0.00    -0.206 F 
ATOM     90  C   UNL A   1      43.398  38.235  28.875  1.00  0.00     0.059 A 
ATOM     91  C   UNL A   1      41.981  37.530  27.043  1.00  0.00     0.059 A 
ATOM     92  F   UNL A   1      41.266  35.313  26.899  1.00  0.00    -0.206 F 
ATOM     93  C   UNL A   1      42.722  38.514  27.689  1.00  0.00     0.060 A 
BRANCH  93  94
ATOM     94  S   UNL A   1      42.778  40.183  27.006  1.00  0.00     0.124 S 
ATOM     95  O   UNL A   1      43.213  40.987  28.144  1.00  0.00    -0.237 OA
ATOM     96  O   UNL A   1      43.757  40.025  25.935  1.00  0.00    -0.237 OA
ATOM     97  O   UNL A   1      41.402  40.413  26.576  1.00  0.00    -0.744 OA
ENDBRANCH  93  94
ENDBRANCH  61  86
ENDBRANCH  35  36
ENDBRANCH  27  30
ENDBRANCH  25  26
ENDBRANCH   1  25
TORSDOF 17
ENDMDL
MODEL 3
REMARK VINA RESULT:     -13.0      5.174     11.637
REMARK SMILES Cc1cccc(CS[C@@H]2CC[C@]([NH3+])(C(=O)NCCCNC(=O)c3ccc(-c4c5nc(c(-c6c(F)cc(S(=O)(=O)[O-])cc6F)c6ccc([nH]6)c(-c6c(F)cc(S(=O)(=O)[O-])cc6F)c6nc(c(-c7c(F)cc(S(=O)(=O)[O-])cc7F)c7ccc4[nH]7)C=C6)C=C5)cc3)C2)c1
REMARK SMILES IDX 18 1 17 2 16 3 14 4 15 5 12 7 9 8 10 9 89 10 11 11 8 12 7 13
REMARK SMILES IDX 6 14 1 15 2 16 3 17 90 18 4 19 5 20 13 21 19 25 20 26 21 27
REMARK SMILES IDX 22 29 23 30 24 31 88 32 25 33 87 34 26 35 27 36 28 37 81 38
REMARK SMILES IDX 29 39 86 40 80 41 82 42 30 43 85 44 79 45 78 46 31 48 65 49
REMARK SMILES IDX 44 50 64 51 45 52 48 53 63 54 83 55 46 56 47 57 62 59 84 60
REMARK SMILES IDX 49 61 32 62 33 63 42 64 34 65 35 66 41 67 43 68 36 69 37 70
REMARK SMILES IDX 38 71 39 72 40 73 66 74 67 75 76 76 68 77 69 78 75 79 77 80
REMARK SMILES IDX 70 81 71 82 72 83 73 84 74 85 50 86 51 87 60 88 52 89 53 90
REMARK SMILES IDX 59 91 61 92 54 93 55 94 56 95 57 96 58 97
REMARK H PARENT 16 6 13 22 13 23 13 24 20 28 82 47 48 58
REMARK Flexibility Score: inf
ROOT
ATOM      1  C   UNL A   1      37.729  22.201  25.266  1.00  0.00     0.042 C 
ENDROOT
BRANCH   1   2
ATOM      2  C   UNL A   1      36.891  22.738  24.110  1.00  0.00     0.118 C 
BRANCH   2   3
ATOM      3  N   UNL A   1      35.608  22.057  23.983  1.00  0.00    -0.351 N 
ATOM      4  C   UNL A   1      34.380  22.322  24.506  1.00  0.00     0.281 C 
ATOM      5  O   UNL A   1      33.468  21.543  24.198  1.00  0.00    -0.268 OA
ATOM      6  H   UNL A   1      35.635  21.254  23.413  1.00  0.00     0.163 HD
BRANCH   4   7
ATOM      7  C   UNL A   1      34.106  23.461  25.536  1.00  0.00     0.175 C 
ATOM      8  C   UNL A   1      32.380  25.096  26.154  1.00  0.00     0.054 C 
ATOM      9  C   UNL A   1      33.683  25.848  25.887  1.00  0.00     0.022 C 
ATOM     10  C   UNL A   1      32.574  23.675  25.628  1.00  0.00     0.093 C 
ATOM     11  C   UNL A   1      34.594  24.860  25.165  1.00  0.00     0.080 C 
BRANCH   8  12
ATOM     12  S   UNL A   1      30.867  25.995  25.634  1.00  0.00    -0.154 SA
BRANCH  12  13
ATOM     13  C   UNL A   1      31.134  26.343  23.861  1.00  0.00     0.105 C 
BRANCH  13  14
ATOM     14  C   UNL A   1      30.374  27.511  23.290  1.00  0.00    -0.038 A 
ATOM     15  C   UNL A   1      26.775  28.798  23.163  1.00  0.00     0.044 C 
ATOM     16  C   UNL A   1      28.262  28.701  22.978  1.00  0.00    -0.051 A 
ATOM     17  C   UNL A   1      28.936  29.687  22.248  1.00  0.00     0.003 A 
ATOM     18  C   UNL A   1      28.989  27.623  23.501  1.00  0.00     0.008 A 
ATOM     19  C   UNL A   1      30.315  29.604  22.059  1.00  0.00     0.001 A 
ATOM     20  C   UNL A   1      31.031  28.529  22.584  1.00  0.00     0.004 A 
ENDBRANCH  13  14
ENDBRANCH  12  13
ENDBRANCH   8  12
BRANCH   7  21
ATOM     21  N   UNL A   1      34.643  23.052  26.854  1.00  0.00    -0.345 N 
ATOM     22  H   UNL A   1      34.236  23.638  27.584  1.00  0.00     0.345 HD
ATOM     23  H   UNL A   1      35.658  23.164  26.857  1.00  0.00     0.345 HD
ATOM     24  H   UNL A   1      34.408  22.076  27.030  1.00  0.00     0.345 HD
ENDBRANCH   7  21
ENDBRANCH   4   7
ENDBRANCH   2   3
ENDBRANCH   1   2
BRANCH   1  25
ATOM     25  C   UNL A   1      38.217  23.310  26.188  1.00  0.00     0.118 C 
BRANCH  25  26
ATOM     26  N   UNL A   1      39.488  23.024  26.847  1.00  0.00    -0.352 N 
ATOM     27  C   UNL A   1      40.338  23.936  27.450  1.00  0.00     0.251 C 
ATOM     28  H   UNL A   1      39.772  22.082  26.864  1.00  0.00     0.163 HD
ATOM     29  O   UNL A   1      41.455  23.636  27.840  1.00  0.00    -0.269 OA
BRANCH  27  30
ATOM     30  C   UNL A   1      39.799  25.296  27.658  1.00  0.00     0.039 A 
ATOM     31  C   UNL A   1      40.282  26.313  26.828  1.00  0.00     0.014 A 
ATOM     32  C   UNL A   1      39.130  25.582  28.846  1.00  0.00     0.014 A 
ATOM     33  C   UNL A   1      40.271  27.627  27.290  1.00  0.00     0.010 A 
ATOM     34  C   UNL A   1      39.186  26.875  29.331  1.00  0.00     0.010 A 
ATOM     35  C   UNL A   1      39.817  27.883  28.582  1.00  0.00    -0.014 A 
BRANCH  35  36
ATOM     36  C   UNL A   1      40.049  29.143  29.286  1.00  0.00     0.031 A 
ATOM     37  C   UNL A   1      39.056  30.237  29.197  1.00  0.00     0.074 A 
ATOM     38  C   UNL A   1      41.115  29.271  30.105  1.00  0.00     0.049 A 
ATOM     39  N   UNL A   1      39.228  31.435  29.647  1.00  0.00    -0.248 NA
ATOM     40  C   UNL A   1      37.795  30.066  28.488  1.00  0.00     0.031 C 
ATOM     41  C   UNL A   1      41.309  30.263  31.156  1.00  0.00     0.029 A 
ATOM     42  N   UNL A   1      42.361  28.648  29.977  1.00  0.00    -0.354 N 
ATOM     43  C   UNL A   1      38.030  32.105  29.537  1.00  0.00     0.074 A 
ATOM     44  C   UNL A   1      37.219  31.249  28.708  1.00  0.00     0.031 C 
ATOM     45  C   UNL A   1      42.622  30.381  31.403  1.00  0.00     0.029 A 
ATOM     46  C   UNL A   1      43.322  29.591  30.407  1.00  0.00     0.049 A 
ATOM     47  H   UNL A   1      42.535  27.735  29.652  1.00  0.00     0.167 HD
ATOM     48  C   UNL A   1      37.840  33.243  30.268  1.00  0.00     0.037 A 
ATOM     49  C   UNL A   1      44.244  30.089  29.528  1.00  0.00     0.037 A 
ATOM     50  C   UNL A   1      39.127  33.768  30.747  1.00  0.00     0.049 A 
ATOM     51  C   UNL A   1      44.127  31.576  29.256  1.00  0.00     0.074 A 
ATOM     52  C   UNL A   1      39.810  33.757  31.953  1.00  0.00     0.029 A 
ATOM     53  N   UNL A   1      40.044  34.201  29.800  1.00  0.00    -0.354 N 
ATOM     54  N   UNL A   1      43.231  32.361  29.789  1.00  0.00    -0.248 NA
ATOM     55  C   UNL A   1      44.975  32.277  28.287  1.00  0.00     0.031 C 
ATOM     56  C   UNL A   1      41.173  34.097  31.693  1.00  0.00     0.029 A 
ATOM     57  C   UNL A   1      41.311  34.331  30.337  1.00  0.00     0.049 A 
ATOM     58  H   UNL A   1      39.820  34.393  28.861  1.00  0.00     0.167 HD
ATOM     59  C   UNL A   1      43.311  33.596  29.203  1.00  0.00     0.074 A 
ATOM     60  C   UNL A   1      44.438  33.508  28.293  1.00  0.00     0.031 C 
ATOM     61  C   UNL A   1      42.426  34.602  29.445  1.00  0.00     0.037 A 
BRANCH  48  62
ATOM     62  C   UNL A   1      36.481  33.761  30.734  1.00  0.00     0.058 A 
ATOM     63  C   UNL A   1      35.548  34.261  29.794  1.00  0.00     0.135 A 
ATOM     64  C   UNL A   1      36.066  33.912  32.075  1.00  0.00     0.135 A 
ATOM     65  F   UNL A   1      35.757  34.148  28.474  1.00  0.00    -0.206 F 
ATOM     66  C   UNL A   1      34.367  34.923  30.157  1.00  0.00     0.059 A 
ATOM     67  C   UNL A   1      34.904  34.582  32.463  1.00  0.00     0.059 A 
ATOM     68  F   UNL A   1      36.745  33.405  33.103  1.00  0.00    -0.206 F 
ATOM     69  C   UNL A   1      34.065  35.104  31.499  1.00  0.00     0.060 A 
BRANCH  69  70
ATOM     70  S   UNL A   1      32.591  36.022  31.977  1.00  0.00     0.124 S 
ATOM     71  O   UNL A   1      32.153  36.579  30.701  1.00  0.00    -0.237 OA
ATOM     72  O   UNL A   1      31.747  34.974  32.539  1.00  0.00    -0.237 OA
ATOM     73  O   UNL A   1      33.094  36.999  32.939  1.00  0.00    -0.744 OA
ENDBRANCH  69  70
ENDBRANCH  48  62
BRANCH  49  74
ATOM     74  C   UNL A   1      44.714  29.069  28.554  1.00  0.00     0.058 A 
ATOM     75  C   UNL A   1      44.097  29.043  27.287  1.00  0.00     0.135 A 
ATOM     76  C   UNL A   1      45.966  28.452  28.682  1.00  0.00     0.135 A 
ATOM     77  F   UNL A   1      42.893  29.611  27.113  1.00  0.00    -0.206 F 
ATOM     78  C   UNL A   1      44.765  28.579  26.162  1.00  0.00     0.059 A 
ATOM     79  C   UNL A   1      46.649  27.967  27.567  1.00  0.00     0.059 A 
ATOM     80  F   UNL A   1      46.599  28.445  29.865  1.00  0.00    -0.206 F 
ATOM     81  C   UNL A   1      46.067  28.103  26.306  1.00  0.00     0.060 A 
BRANCH  81  82
ATOM     82  S   UNL A   1      47.042  27.880  24.801  1.00  0.00     0.124 S 
ATOM     83  O   UNL A   1      48.405  28.025  25.301  1.00  0.00    -0.237 OA
ATOM     84  O   UNL A   1      46.654  26.528  24.402  1.00  0.00    -0.237 OA
ATOM     85  O   UNL A   1      46.566  28.953  23.935  1.00  0.00    -0.744 OA
ENDBRANCH  81  82
ENDBRANCH  49  74
BRANCH  61  86
ATOM     86  C   UNL A   1      42.577  35.943  28.803  1.00  0.00     0.058 A 
ATOM     87  C   UNL A   1      43.196  37.007  29.478  1.00  0.00     0.135 A 
ATOM     88  C   UNL A   1      42.015  36.225  27.545  1.00  0.00     0.135 A 
ATOM     89  F   UNL A   1      43.743  36.817  30.689  1.00  0.00    -0.206 F 
ATOM     90  C   UNL A   1      43.265  38.286  28.930  1.00  0.00     0.059 A 
ATOM     91  C   UNL A   1      42.041  37.502  26.992  1.00  0.00     0.059 A 
ATOM     92  F   UNL A   1      41.441  35.254  26.816  1.00  0.00    -0.206 F 
ATOM     93  C   UNL A   1      42.681  38.524  27.687  1.00  0.00     0.060 A 
BRANCH  93  94
ATOM     94  S   UNL A   1      42.721  40.188  26.991  1.00  0.00     0.124 S 
ATOM     95  O   UNL A   1      42.851  41.034  28.174  1.00  0.00    -0.237 OA
ATOM     96  O   UNL A   1      43.900  40.116  26.135  1.00  0.00    -0.237 OA
ATOM     97  O   UNL A   1      41.440  40.289  26.297  1.00  0.00    -0.744 OA
ENDBRANCH  93  94
ENDBRANCH  61  86
ENDBRANCH  35  36
ENDBRANCH  27  30
ENDBRANCH  25  26
ENDBRANCH   1  25
TORSDOF 17
ENDMDL
