MODEL 1
REMARK VINA RESULT:     -11.8      0.000      0.000
REMARK SMILES CC[C@@](C)(NC(=O)Nc1ccccc1C#N)C(=O)NCCCNC(=O)c1ccc(-c2c3nc(c(-c4c(F)cc(S(=O)(=O)[O-])cc4F)c4ccc([nH]4)c(-c4c(F)cc(S(=O)(=O)[O-])cc4F)c4nc(c(-c5c(F)cc(S(=O)(=O)[O-])cc5F)c5ccc2[nH]5)C=C4)C=C3)cc1
REMARK SMILES IDX 21 1 20 2 19 3 17 4 18 5 3 7 4 8 2 9 1 10 5 11 6 12 7 14
REMARK SMILES IDX 8 15 9 17 10 18 14 19 11 20 13 21 12 22 15 23 16 24 22 25
REMARK SMILES IDX 23 26 24 27 25 29 26 30 27 31 91 32 28 33 90 34 29 35 30 36
REMARK SMILES IDX 31 37 84 38 32 39 89 40 83 41 85 42 33 43 88 44 82 45 81 46
REMARK SMILES IDX 34 48 68 49 47 50 67 51 48 52 51 53 66 54 86 55 49 56 50 57
REMARK SMILES IDX 65 59 87 60 52 61 35 62 36 63 45 64 37 65 38 66 44 67 46 68
REMARK SMILES IDX 39 69 40 70 41 71 42 72 43 73 69 74 70 75 79 76 71 77 72 78
REMARK SMILES IDX 78 79 80 80 73 81 74 82 75 83 76 84 77 85 53 86 54 87 63 88
REMARK SMILES IDX 55 89 56 90 62 91 64 92 57 93 58 94 59 95 60 96 61 97
REMARK H PARENT 19 6 5 13 8 16 23 28 85 47 51 58
REMARK Flexibility Score: inf
ROOT
ATOM      1  C   UNL A   1      37.363  23.537  25.533  1.00  0.00     0.042 C 
ENDROOT
BRANCH   1   2
ATOM      2  C   UNL A   1      35.871  23.425  25.940  1.00  0.00     0.117 C 
BRANCH   2   3
ATOM      3  N   UNL A   1      35.034  22.871  24.885  1.00  0.00    -0.354 N 
ATOM      4  C   UNL A   1      34.388  23.450  23.800  1.00  0.00     0.245 C 
ATOM      5  O   UNL A   1      34.766  23.287  22.643  1.00  0.00    -0.272 OA
ATOM      6  H   UNL A   1      34.901  21.898  24.954  1.00  0.00     0.163 HD
BRANCH   4   7
ATOM      7  C   UNL A   1      33.169  24.317  24.167  1.00  0.00     0.117 C 
ATOM      8  C   UNL A   1      33.891  25.685  24.357  1.00  0.00     0.045 C 
BRANCH   7   9
ATOM      9  C   UNL A   1      31.950  24.589  23.254  1.00  0.00     0.035 C 
ATOM     10  C   UNL A   1      30.746  23.681  23.326  1.00  0.00     0.007 C 
ENDBRANCH   7   9
BRANCH   7  11
ATOM     11  N   UNL A   1      32.624  23.748  25.412  1.00  0.00    -0.324 N 
ATOM     12  C   UNL A   1      32.002  24.271  26.482  1.00  0.00     0.320 C 
ATOM     13  H   UNL A   1      32.742  22.773  25.473  1.00  0.00     0.166 HD
ATOM     14  O   UNL A   1      31.881  23.507  27.448  1.00  0.00    -0.248 OA
ATOM     15  N   UNL A   1      31.358  25.469  26.596  1.00  0.00    -0.307 N 
ATOM     16  H   UNL A   1      30.576  25.379  27.189  1.00  0.00     0.171 HD
BRANCH  15  17
ATOM     17  C   UNL A   1      31.467  26.822  26.118  1.00  0.00     0.060 A 
ATOM     18  C   UNL A   1      32.034  27.694  27.067  1.00  0.00     0.027 A 
ATOM     19  C   UNL A   1      30.824  27.478  25.029  1.00  0.00     0.076 A 
ATOM     20  C   UNL A   1      32.178  29.069  26.838  1.00  0.00     0.002 A 
ATOM     21  C   UNL A   1      31.119  28.823  24.724  1.00  0.00     0.021 A 
ATOM     22  C   UNL A   1      31.798  29.619  25.626  1.00  0.00     0.002 A 
BRANCH  19  23
ATOM     23  C   UNL A   1      29.641  27.062  24.321  1.00  0.00     0.101 C 
ATOM     24  N   UNL A   1      28.715  26.804  23.658  1.00  0.00    -0.192 NA
ENDBRANCH  19  23
ENDBRANCH  15  17
ENDBRANCH   7  11
ENDBRANCH   4   7
ENDBRANCH   2   3
ENDBRANCH   1   2
BRANCH   1  25
ATOM     25  C   UNL A   1      38.382  24.107  26.530  1.00  0.00     0.118 C 
BRANCH  25  26
ATOM     26  N   UNL A   1      39.757  24.089  26.076  1.00  0.00    -0.352 N 
ATOM     27  C   UNL A   1      40.833  24.855  26.452  1.00  0.00     0.251 C 
ATOM     28  H   UNL A   1      39.952  23.418  25.383  1.00  0.00     0.163 HD
ATOM     29  O   UNL A   1      41.920  24.710  25.897  1.00  0.00    -0.269 OA
BRANCH  27  30
ATOM     30  C   UNL A   1      40.696  25.894  27.497  1.00  0.00     0.039 A 
ATOM     31  C   UNL A   1      39.773  25.675  28.523  1.00  0.00     0.014 A 
ATOM     32  C   UNL A   1      41.422  27.088  27.461  1.00  0.00     0.014 A 
ATOM     33  C   UNL A   1      39.625  26.617  29.544  1.00  0.00     0.010 A 
ATOM     34  C   UNL A   1      41.326  27.994  28.521  1.00  0.00     0.010 A 
ATOM     35  C   UNL A   1      40.425  27.771  29.576  1.00  0.00    -0.014 A 
BRANCH  35  36
ATOM     36  C   UNL A   1      40.316  28.742  30.704  1.00  0.00     0.031 A 
ATOM     37  C   UNL A   1      41.196  28.607  31.919  1.00  0.00     0.074 A 
ATOM     38  C   UNL A   1      39.403  29.734  30.648  1.00  0.00     0.049 A 
ATOM     39  N   UNL A   1      41.222  29.336  33.008  1.00  0.00    -0.248 NA
ATOM     40  C   UNL A   1      42.156  27.492  31.926  1.00  0.00     0.031 C 
ATOM     41  C   UNL A   1      38.463  29.958  29.548  1.00  0.00     0.029 A 
ATOM     42  N   UNL A   1      39.110  30.742  31.538  1.00  0.00    -0.354 N 
ATOM     43  C   UNL A   1      42.190  28.763  33.827  1.00  0.00     0.074 A 
ATOM     44  C   UNL A   1      42.683  27.591  33.137  1.00  0.00     0.031 C 
ATOM     45  C   UNL A   1      37.721  31.045  29.813  1.00  0.00     0.029 A 
ATOM     46  C   UNL A   1      38.097  31.575  31.121  1.00  0.00     0.049 A 
ATOM     47  H   UNL A   1      39.582  30.855  32.395  1.00  0.00     0.167 HD
ATOM     48  C   UNL A   1      42.645  29.189  35.031  1.00  0.00     0.037 A 
ATOM     49  C   UNL A   1      37.528  32.639  31.722  1.00  0.00     0.037 A 
ATOM     50  C   UNL A   1      42.164  30.367  35.707  1.00  0.00     0.049 A 
ATOM     51  C   UNL A   1      38.036  33.080  33.069  1.00  0.00     0.074 A 
ATOM     52  C   UNL A   1      42.596  30.907  36.906  1.00  0.00     0.029 A 
ATOM     53  N   UNL A   1      41.140  31.185  35.248  1.00  0.00    -0.354 N 
ATOM     54  N   UNL A   1      38.995  32.561  33.801  1.00  0.00    -0.248 NA
ATOM     55  C   UNL A   1      37.393  34.255  33.673  1.00  0.00     0.031 C 
ATOM     56  C   UNL A   1      41.793  32.013  37.203  1.00  0.00     0.029 A 
ATOM     57  C   UNL A   1      40.910  32.208  36.154  1.00  0.00     0.049 A 
ATOM     58  H   UNL A   1      40.650  31.057  34.404  1.00  0.00     0.167 HD
ATOM     59  C   UNL A   1      39.092  33.369  34.931  1.00  0.00     0.074 A 
ATOM     60  C   UNL A   1      38.105  34.416  34.780  1.00  0.00     0.031 C 
ATOM     61  C   UNL A   1      39.929  33.254  35.992  1.00  0.00     0.037 A 
BRANCH  48  62
ATOM     62  C   UNL A   1      43.721  28.373  35.702  1.00  0.00     0.058 A 
ATOM     63  C   UNL A   1      43.415  27.351  36.617  1.00  0.00     0.135 A 
ATOM     64  C   UNL A   1      45.076  28.588  35.399  1.00  0.00     0.135 A 
ATOM     65  F   UNL A   1      42.139  27.107  36.957  1.00  0.00    -0.206 F 
ATOM     66  C   UNL A   1      44.411  26.599  37.231  1.00  0.00     0.059 A 
ATOM     67  C   UNL A   1      46.087  27.824  35.974  1.00  0.00     0.059 A 
ATOM     68  F   UNL A   1      45.429  29.549  34.530  1.00  0.00    -0.206 F 
ATOM     69  C   UNL A   1      45.745  26.842  36.902  1.00  0.00     0.060 A 
BRANCH  69  70
ATOM     70  S   UNL A   1      47.024  25.853  37.705  1.00  0.00     0.124 S 
ATOM     71  O   UNL A   1      47.837  26.887  38.338  1.00  0.00    -0.237 OA
ATOM     72  O   UNL A   1      46.246  25.015  38.611  1.00  0.00    -0.237 OA
ATOM     73  O   UNL A   1      47.660  25.150  36.596  1.00  0.00    -0.744 OA
ENDBRANCH  69  70
ENDBRANCH  48  62
BRANCH  49  74
ATOM     74  C   UNL A   1      36.421  33.375  31.049  1.00  0.00     0.058 A 
ATOM     75  C   UNL A   1      35.100  33.288  31.517  1.00  0.00     0.135 A 
ATOM     76  C   UNL A   1      36.659  34.178  29.922  1.00  0.00     0.135 A 
ATOM     77  F   UNL A   1      34.816  32.527  32.584  1.00  0.00    -0.206 F 
ATOM     78  C   UNL A   1      34.054  33.953  30.883  1.00  0.00     0.059 A 
ATOM     79  C   UNL A   1      35.635  34.877  29.290  1.00  0.00     0.059 A 
ATOM     80  F   UNL A   1      37.904  34.307  29.439  1.00  0.00    -0.206 F 
ATOM     81  C   UNL A   1      34.333  34.750  29.772  1.00  0.00     0.060 A 
BRANCH  81  82
ATOM     82  S   UNL A   1      32.976  35.642  28.983  1.00  0.00     0.124 S 
ATOM     83  O   UNL A   1      33.691  36.679  28.249  1.00  0.00    -0.237 OA
ATOM     84  O   UNL A   1      32.355  34.598  28.174  1.00  0.00    -0.237 OA
ATOM     85  O   UNL A   1      32.177  36.107  30.113  1.00  0.00    -0.744 OA
ENDBRANCH  81  82
ENDBRANCH  49  74
BRANCH  61  86
ATOM     86  C   UNL A   1      39.855  34.316  37.058  1.00  0.00     0.058 A 
ATOM     87  C   UNL A   1      40.432  35.585  36.890  1.00  0.00     0.135 A 
ATOM     88  C   UNL A   1      39.146  34.074  38.248  1.00  0.00     0.135 A 
ATOM     89  F   UNL A   1      41.126  35.870  35.777  1.00  0.00    -0.206 F 
ATOM     90  C   UNL A   1      40.337  36.564  37.876  1.00  0.00     0.059 A 
ATOM     91  C   UNL A   1      39.007  35.050  39.229  1.00  0.00     0.059 A 
ATOM     92  F   UNL A   1      38.563  32.884  38.457  1.00  0.00    -0.206 F 
ATOM     93  C   UNL A   1      39.618  36.288  39.040  1.00  0.00     0.060 A 
BRANCH  93  94
ATOM     94  S   UNL A   1      39.476  37.579  40.294  1.00  0.00     0.124 S 
ATOM     95  O   UNL A   1      40.872  37.957  40.487  1.00  0.00    -0.237 OA
ATOM     96  O   UNL A   1      38.638  38.569  39.627  1.00  0.00    -0.237 OA
ATOM     97  O   UNL A   1      38.851  36.892  41.421  1.00  0.00    -0.744 OA
ENDBRANCH  93  94
ENDBRANCH  61  86
ENDBRANCH  35  36
ENDBRANCH  27  30
ENDBRANCH  25  26
ENDBRANCH   1  25
TORSDOF 17
ENDMDL
MODEL 2
REMARK VINA RESULT:     -11.8      4.817     10.396
REMARK SMILES CC[C@@](C)(NC(=O)Nc1ccccc1C#N)C(=O)NCCCNC(=O)c1ccc(-c2c3nc(c(-c4c(F)cc(S(=O)(=O)[O-])cc4F)c4ccc([nH]4)c(-c4c(F)cc(S(=O)(=O)[O-])cc4F)c4nc(c(-c5c(F)cc(S(=O)(=O)[O-])cc5F)c5ccc2[nH]5)C=C4)C=C3)cc1
REMARK SMILES IDX 21 1 20 2 19 3 17 4 18 5 3 7 4 8 2 9 1 10 5 11 6 12 7 14
REMARK SMILES IDX 8 15 9 17 10 18 14 19 11 20 13 21 12 22 15 23 16 24 22 25
REMARK SMILES IDX 23 26 24 27 25 29 26 30 27 31 91 32 28 33 90 34 29 35 30 36
REMARK SMILES IDX 31 37 84 38 32 39 89 40 83 41 85 42 33 43 88 44 82 45 81 46
REMARK SMILES IDX 34 48 68 49 47 50 67 51 48 52 51 53 66 54 86 55 49 56 50 57
REMARK SMILES IDX 65 59 87 60 52 61 35 62 36 63 45 64 37 65 38 66 44 67 46 68
REMARK SMILES IDX 39 69 40 70 41 71 42 72 43 73 69 74 70 75 79 76 71 77 72 78
REMARK SMILES IDX 78 79 80 80 73 81 74 82 75 83 76 84 77 85 53 86 54 87 63 88
REMARK SMILES IDX 55 89 56 90 62 91 64 92 57 93 58 94 59 95 60 96 61 97
REMARK H PARENT 19 6 5 13 8 16 23 28 85 47 51 58
REMARK Flexibility Score: inf
ROOT
ATOM      1  C   UNL A   1      32.164  27.546  27.120  1.00  0.00     0.042 C 
ENDROOT
BRANCH   1   2
ATOM      2  C   UNL A   1      32.024  26.350  26.144  1.00  0.00     0.117 C 
BRANCH   2   3
ATOM      3  N   UNL A   1      31.058  26.593  25.081  1.00  0.00    -0.354 N 
ATOM      4  C   UNL A   1      31.077  26.324  23.718  1.00  0.00     0.245 C 
ATOM      5  O   UNL A   1      30.385  25.447  23.210  1.00  0.00    -0.272 OA
ATOM      6  H   UNL A   1      30.232  27.033  25.388  1.00  0.00     0.163 HD
BRANCH   4   7
ATOM      7  C   UNL A   1      32.039  27.209  22.902  1.00  0.00     0.117 C 
ATOM      8  C   UNL A   1      31.144  28.477  22.762  1.00  0.00     0.045 C 
BRANCH   7   9
ATOM      9  C   UNL A   1      33.426  27.702  23.374  1.00  0.00     0.035 C 
ATOM     10  C   UNL A   1      33.611  29.150  23.761  1.00  0.00     0.007 C 
ENDBRANCH   7   9
BRANCH   7  11
ATOM     11  N   UNL A   1      32.271  26.495  21.635  1.00  0.00    -0.324 N 
ATOM     12  C   UNL A   1      32.844  25.322  21.316  1.00  0.00     0.320 C 
ATOM     13  H   UNL A   1      31.934  26.984  20.850  1.00  0.00     0.166 HD
ATOM     14  O   UNL A   1      33.058  25.149  20.110  1.00  0.00    -0.248 OA
ATOM     15  N   UNL A   1      33.086  24.244  22.117  1.00  0.00    -0.307 N 
ATOM     16  H   UNL A   1      32.969  23.409  21.607  1.00  0.00     0.171 HD
BRANCH  15  17
ATOM     17  C   UNL A   1      33.458  23.948  23.476  1.00  0.00     0.060 A 
ATOM     18  C   UNL A   1      34.567  24.697  23.915  1.00  0.00     0.027 A 
ATOM     19  C   UNL A   1      33.132  22.839  24.309  1.00  0.00     0.076 A 
ATOM     20  C   UNL A   1      35.138  24.526  25.184  1.00  0.00     0.002 A 
ATOM     21  C   UNL A   1      33.590  22.781  25.641  1.00  0.00     0.021 A 
ATOM     22  C   UNL A   1      34.591  23.625  26.081  1.00  0.00     0.002 A 
BRANCH  19  23
ATOM     23  C   UNL A   1      32.620  21.554  23.909  1.00  0.00     0.101 C 
ATOM     24  N   UNL A   1      32.320  20.484  23.551  1.00  0.00    -0.192 NA
ENDBRANCH  19  23
ENDBRANCH  15  17
ENDBRANCH   7  11
ENDBRANCH   4   7
ENDBRANCH   2   3
ENDBRANCH   1   2
BRANCH   1  25
ATOM     25  C   UNL A   1      33.503  28.290  27.223  1.00  0.00     0.118 C 
BRANCH  25  26
ATOM     26  N   UNL A   1      33.397  29.700  27.535  1.00  0.00    -0.352 N 
ATOM     27  C   UNL A   1      34.329  30.582  28.023  1.00  0.00     0.251 C 
ATOM     28  H   UNL A   1      32.508  30.091  27.371  1.00  0.00     0.163 HD
ATOM     29  O   UNL A   1      34.015  31.743  28.269  1.00  0.00    -0.269 OA
BRANCH  27  30
ATOM     30  C   UNL A   1      35.715  30.141  28.301  1.00  0.00     0.039 A 
ATOM     31  C   UNL A   1      36.640  30.184  27.255  1.00  0.00     0.014 A 
ATOM     32  C   UNL A   1      36.104  29.651  29.551  1.00  0.00     0.014 A 
ATOM     33  C   UNL A   1      37.965  29.800  27.476  1.00  0.00     0.010 A 
ATOM     34  C   UNL A   1      37.445  29.337  29.789  1.00  0.00     0.010 A 
ATOM     35  C   UNL A   1      38.394  29.406  28.754  1.00  0.00    -0.014 A 
BRANCH  35  36
ATOM     36  C   UNL A   1      39.824  29.063  29.006  1.00  0.00     0.031 A 
ATOM     37  C   UNL A   1      40.764  30.084  29.594  1.00  0.00     0.074 A 
ATOM     38  C   UNL A   1      40.287  27.839  28.679  1.00  0.00     0.049 A 
ATOM     39  N   UNL A   1      42.043  29.977  29.854  1.00  0.00    -0.248 NA
ATOM     40  C   UNL A   1      40.200  31.406  29.909  1.00  0.00     0.031 C 
ATOM     41  C   UNL A   1      39.494  26.770  28.069  1.00  0.00     0.029 A 
ATOM     42  N   UNL A   1      41.538  27.284  28.811  1.00  0.00    -0.354 N 
ATOM     43  C   UNL A   1      42.436  31.215  30.352  1.00  0.00     0.074 A 
ATOM     44  C   UNL A   1      41.275  32.076  30.298  1.00  0.00     0.031 C 
ATOM     45  C   UNL A   1      40.266  25.683  27.906  1.00  0.00     0.029 A 
ATOM     46  C   UNL A   1      41.622  25.987  28.357  1.00  0.00     0.049 A 
ATOM     47  H   UNL A   1      42.305  27.770  29.193  1.00  0.00     0.167 HD
ATOM     48  C   UNL A   1      43.646  31.594  30.833  1.00  0.00     0.037 A 
ATOM     49  C   UNL A   1      42.669  25.139  28.301  1.00  0.00     0.037 A 
ATOM     50  C   UNL A   1      44.796  30.728  30.900  1.00  0.00     0.049 A 
ATOM     51  C   UNL A   1      44.008  25.590  28.822  1.00  0.00     0.074 A 
ATOM     52  C   UNL A   1      46.050  31.005  31.416  1.00  0.00     0.029 A 
ATOM     53  N   UNL A   1      44.837  29.421  30.434  1.00  0.00    -0.354 N 
ATOM     54  N   UNL A   1      44.344  26.745  29.345  1.00  0.00    -0.248 NA
ATOM     55  C   UNL A   1      45.110  24.620  28.753  1.00  0.00     0.031 C 
ATOM     56  C   UNL A   1      46.867  29.889  31.205  1.00  0.00     0.029 A 
ATOM     57  C   UNL A   1      46.102  28.890  30.626  1.00  0.00     0.049 A 
ATOM     58  H   UNL A   1      44.079  28.943  30.028  1.00  0.00     0.167 HD
ATOM     59  C   UNL A   1      45.685  26.628  29.701  1.00  0.00     0.074 A 
ATOM     60  C   UNL A   1      46.093  25.286  29.344  1.00  0.00     0.031 C 
ATOM     61  C   UNL A   1      46.499  27.547  30.276  1.00  0.00     0.037 A 
BRANCH  48  62
ATOM     62  C   UNL A   1      43.793  33.012  31.325  1.00  0.00     0.058 A 
ATOM     63  C   UNL A   1      44.220  34.049  30.480  1.00  0.00     0.135 A 
ATOM     64  C   UNL A   1      43.464  33.346  32.650  1.00  0.00     0.135 A 
ATOM     65  F   UNL A   1      44.561  33.789  29.207  1.00  0.00    -0.206 F 
ATOM     66  C   UNL A   1      44.351  35.357  30.938  1.00  0.00     0.059 A 
ATOM     67  C   UNL A   1      43.552  34.653  33.119  1.00  0.00     0.059 A 
ATOM     68  F   UNL A   1      43.046  32.397  33.502  1.00  0.00    -0.206 F 
ATOM     69  C   UNL A   1      44.012  35.649  32.260  1.00  0.00     0.060 A 
BRANCH  69  70
ATOM     70  S   UNL A   1      44.183  37.352  32.836  1.00  0.00     0.124 S 
ATOM     71  O   UNL A   1      43.273  37.365  33.977  1.00  0.00    -0.237 OA
ATOM     72  O   UNL A   1      45.604  37.429  33.158  1.00  0.00    -0.237 OA
ATOM     73  O   UNL A   1      43.758  38.145  31.688  1.00  0.00    -0.744 OA
ENDBRANCH  69  70
ENDBRANCH  48  62
BRANCH  49  74
ATOM     74  C   UNL A   1      42.491  23.768  27.744  1.00  0.00     0.058 A 
ATOM     75  C   UNL A   1      42.367  22.652  28.586  1.00  0.00     0.135 A 
ATOM     76  C   UNL A   1      42.445  23.544  26.359  1.00  0.00     0.135 A 
ATOM     77  F   UNL A   1      42.414  22.808  29.918  1.00  0.00    -0.206 F 
ATOM     78  C   UNL A   1      42.223  21.364  28.078  1.00  0.00     0.059 A 
ATOM     79  C   UNL A   1      42.270  22.269  25.827  1.00  0.00     0.059 A 
ATOM     80  F   UNL A   1      42.546  24.576  25.507  1.00  0.00    -0.206 F 
ATOM     81  C   UNL A   1      42.171  21.184  26.695  1.00  0.00     0.060 A 
BRANCH  81  82
ATOM     82  S   UNL A   1      41.941  19.514  26.047  1.00  0.00     0.124 S 
ATOM     83  O   UNL A   1      42.827  19.522  24.889  1.00  0.00    -0.237 OA
ATOM     84  O   UNL A   1      42.368  18.689  27.173  1.00  0.00    -0.237 OA
ATOM     85  O   UNL A   1      40.513  19.463  25.749  1.00  0.00    -0.744 OA
ENDBRANCH  81  82
ENDBRANCH  49  74
BRANCH  61  86
ATOM     86  C   UNL A   1      47.907  27.124  30.607  1.00  0.00     0.058 A 
ATOM     87  C   UNL A   1      48.974  27.316  29.716  1.00  0.00     0.135 A 
ATOM     88  C   UNL A   1      48.198  26.562  31.863  1.00  0.00     0.135 A 
ATOM     89  F   UNL A   1      48.754  27.843  28.501  1.00  0.00    -0.206 F 
ATOM     90  C   UNL A   1      50.274  26.939  30.045  1.00  0.00     0.059 A 
ATOM     91  C   UNL A   1      49.494  26.212  32.226  1.00  0.00     0.059 A 
ATOM     92  F   UNL A   1      47.218  26.366  32.760  1.00  0.00    -0.206 F 
ATOM     93  C   UNL A   1      50.524  26.393  31.305  1.00  0.00     0.060 A 
BRANCH  93  94
ATOM     94  S   UNL A   1      52.219  25.938  31.728  1.00  0.00     0.124 S 
ATOM     95  O   UNL A   1      52.929  26.267  30.497  1.00  0.00    -0.237 OA
ATOM     96  O   UNL A   1      52.496  26.803  32.870  1.00  0.00    -0.237 OA
ATOM     97  O   UNL A   1      52.124  24.514  32.035  1.00  0.00    -0.744 OA
ENDBRANCH  93  94
ENDBRANCH  61  86
ENDBRANCH  35  36
ENDBRANCH  27  30
ENDBRANCH  25  26
ENDBRANCH   1  25
TORSDOF 17
ENDMDL
MODEL 3
REMARK VINA RESULT:     -11.7      1.316      2.007
REMARK SMILES CC[C@@](C)(NC(=O)Nc1ccccc1C#N)C(=O)NCCCNC(=O)c1ccc(-c2c3nc(c(-c4c(F)cc(S(=O)(=O)[O-])cc4F)c4ccc([nH]4)c(-c4c(F)cc(S(=O)(=O)[O-])cc4F)c4nc(c(-c5c(F)cc(S(=O)(=O)[O-])cc5F)c5ccc2[nH]5)C=C4)C=C3)cc1
REMARK SMILES IDX 21 1 20 2 19 3 17 4 18 5 3 7 4 8 2 9 1 10 5 11 6 12 7 14
REMARK SMILES IDX 8 15 9 17 10 18 14 19 11 20 13 21 12 22 15 23 16 24 22 25
REMARK SMILES IDX 23 26 24 27 25 29 26 30 27 31 91 32 28 33 90 34 29 35 30 36
REMARK SMILES IDX 31 37 84 38 32 39 89 40 83 41 85 42 33 43 88 44 82 45 81 46
REMARK SMILES IDX 34 48 68 49 47 50 67 51 48 52 51 53 66 54 86 55 49 56 50 57
REMARK SMILES IDX 65 59 87 60 52 61 35 62 36 63 45 64 37 65 38 66 44 67 46 68
REMARK SMILES IDX 39 69 40 70 41 71 42 72 43 73 69 74 70 75 79 76 71 77 72 78
REMARK SMILES IDX 78 79 80 80 73 81 74 82 75 83 76 84 77 85 53 86 54 87 63 88
REMARK SMILES IDX 55 89 56 90 62 91 64 92 57 93 58 94 59 95 60 96 61 97
REMARK H PARENT 19 6 5 13 8 16 23 28 85 47 51 58
REMARK Flexibility Score: inf
ROOT
ATOM      1  C   UNL A   1      39.776  21.836  26.742  1.00  0.00     0.042 C 
ENDROOT
BRANCH   1   2
ATOM      2  C   UNL A   1      38.608  22.181  25.783  1.00  0.00     0.117 C 
BRANCH   2   3
ATOM      3  N   UNL A   1      37.369  21.495  26.125  1.00  0.00    -0.354 N 
ATOM      4  C   UNL A   1      36.259  21.134  25.371  1.00  0.00     0.245 C 
ATOM      5  O   UNL A   1      36.017  19.969  25.069  1.00  0.00    -0.272 OA
ATOM      6  H   UNL A   1      37.307  21.236  27.073  1.00  0.00     0.163 HD
BRANCH   4   7
ATOM      7  C   UNL A   1      35.364  22.312  24.942  1.00  0.00     0.117 C 
ATOM      8  C   UNL A   1      35.317  23.088  26.293  1.00  0.00     0.045 C 
BRANCH   7   9
ATOM      9  C   UNL A   1      35.709  23.353  23.851  1.00  0.00     0.035 C 
ATOM     10  C   UNL A   1      36.701  23.000  22.769  1.00  0.00     0.007 C 
ENDBRANCH   7   9
BRANCH   7  11
ATOM     11  N   UNL A   1      34.075  21.721  24.545  1.00  0.00    -0.324 N 
ATOM     12  C   UNL A   1      32.836  22.213  24.372  1.00  0.00     0.320 C 
ATOM     13  H   UNL A   1      34.133  20.754  24.367  1.00  0.00     0.166 HD
ATOM     14  O   UNL A   1      31.944  21.365  24.245  1.00  0.00    -0.248 OA
ATOM     15  N   UNL A   1      32.451  23.507  24.173  1.00  0.00    -0.307 N 
ATOM     16  H   UNL A   1      31.683  23.541  23.556  1.00  0.00     0.171 HD
BRANCH  15  17
ATOM     17  C   UNL A   1      32.819  24.837  24.582  1.00  0.00     0.060 A 
ATOM     18  C   UNL A   1      32.257  25.204  25.819  1.00  0.00     0.027 A 
ATOM     19  C   UNL A   1      33.354  25.925  23.834  1.00  0.00     0.076 A 
ATOM     20  C   UNL A   1      32.432  26.477  26.380  1.00  0.00     0.002 A 
ATOM     21  C   UNL A   1      33.676  27.143  24.467  1.00  0.00     0.021 A 
ATOM     22  C   UNL A   1      33.218  27.420  25.740  1.00  0.00     0.002 A 
BRANCH  19  23
ATOM     23  C   UNL A   1      33.355  26.099  22.404  1.00  0.00     0.101 C 
ATOM     24  N   UNL A   1      33.390  26.122  21.237  1.00  0.00    -0.192 NA
ENDBRANCH  19  23
ENDBRANCH  15  17
ENDBRANCH   7  11
ENDBRANCH   4   7
ENDBRANCH   2   3
ENDBRANCH   1   2
BRANCH   1  25
ATOM     25  C   UNL A   1      40.742  22.941  27.192  1.00  0.00     0.118 C 
BRANCH  25  26
ATOM     26  N   UNL A   1      41.279  23.755  26.122  1.00  0.00    -0.352 N 
ATOM     27  C   UNL A   1      41.587  25.093  26.083  1.00  0.00     0.251 C 
ATOM     28  H   UNL A   1      41.452  23.270  25.283  1.00  0.00     0.163 HD
ATOM     29  O   UNL A   1      41.992  25.605  25.043  1.00  0.00    -0.269 OA
BRANCH  27  30
ATOM     30  C   UNL A   1      41.397  25.949  27.277  1.00  0.00     0.039 A 
ATOM     31  C   UNL A   1      42.376  26.904  27.561  1.00  0.00     0.014 A 
ATOM     32  C   UNL A   1      40.303  25.798  28.134  1.00  0.00     0.014 A 
ATOM     33  C   UNL A   1      42.229  27.750  28.664  1.00  0.00     0.010 A 
ATOM     34  C   UNL A   1      40.121  26.693  29.193  1.00  0.00     0.010 A 
ATOM     35  C   UNL A   1      41.083  27.680  29.472  1.00  0.00    -0.014 A 
BRANCH  35  36
ATOM     36  C   UNL A   1      40.892  28.630  30.608  1.00  0.00     0.031 A 
ATOM     37  C   UNL A   1      41.754  28.533  31.840  1.00  0.00     0.074 A 
ATOM     38  C   UNL A   1      39.921  29.565  30.543  1.00  0.00     0.049 A 
ATOM     39  N   UNL A   1      41.714  29.249  32.936  1.00  0.00    -0.248 NA
ATOM     40  C   UNL A   1      42.780  27.479  31.855  1.00  0.00     0.031 C 
ATOM     41  C   UNL A   1      38.992  29.743  29.426  1.00  0.00     0.029 A 
ATOM     42  N   UNL A   1      39.550  30.542  31.437  1.00  0.00    -0.354 N 
ATOM     43  C   UNL A   1      42.697  28.727  33.770  1.00  0.00     0.074 A 
ATOM     44  C   UNL A   1      43.275  27.596  33.078  1.00  0.00     0.031 C 
ATOM     45  C   UNL A   1      38.180  30.781  29.687  1.00  0.00     0.029 A 
ATOM     46  C   UNL A   1      38.496  31.317  31.008  1.00  0.00     0.049 A 
ATOM     47  H   UNL A   1      39.996  30.674  32.305  1.00  0.00     0.167 HD
ATOM     48  C   UNL A   1      43.101  29.166  34.987  1.00  0.00     0.037 A 
ATOM     49  C   UNL A   1      37.851  32.337  31.609  1.00  0.00     0.037 A 
ATOM     50  C   UNL A   1      42.535  30.304  35.665  1.00  0.00     0.049 A 
ATOM     51  C   UNL A   1      38.304  32.792  32.971  1.00  0.00     0.074 A 
ATOM     52  C   UNL A   1      42.909  30.855  36.879  1.00  0.00     0.029 A 
ATOM     53  N   UNL A   1      41.473  31.064  35.194  1.00  0.00    -0.354 N 
ATOM     54  N   UNL A   1      39.277  32.324  33.717  1.00  0.00    -0.248 NA
ATOM     55  C   UNL A   1      37.578  33.919  33.573  1.00  0.00     0.031 C 
ATOM     56  C   UNL A   1      42.034  31.906  37.171  1.00  0.00     0.029 A 
ATOM     57  C   UNL A   1      41.162  32.060  36.106  1.00  0.00     0.049 A 
ATOM     58  H   UNL A   1      41.009  30.916  34.338  1.00  0.00     0.167 HD
ATOM     59  C   UNL A   1      39.303  33.122  34.857  1.00  0.00     0.074 A 
ATOM     60  C   UNL A   1      38.256  34.109  34.696  1.00  0.00     0.031 C 
ATOM     61  C   UNL A   1      40.123  33.046  35.934  1.00  0.00     0.037 A 
BRANCH  48  62
ATOM     62  C   UNL A   1      44.211  28.409  35.673  1.00  0.00     0.058 A 
ATOM     63  C   UNL A   1      43.950  27.346  36.553  1.00  0.00     0.135 A 
ATOM     64  C   UNL A   1      45.556  28.724  35.416  1.00  0.00     0.135 A 
ATOM     65  F   UNL A   1      42.684  27.005  36.847  1.00  0.00    -0.206 F 
ATOM     66  C   UNL A   1      44.977  26.648  37.180  1.00  0.00     0.059 A 
ATOM     67  C   UNL A   1      46.600  28.017  36.004  1.00  0.00     0.059 A 
ATOM     68  F   UNL A   1      45.867  29.728  34.581  1.00  0.00    -0.206 F 
ATOM     69  C   UNL A   1      46.300  26.990  36.898  1.00  0.00     0.060 A 
BRANCH  69  70
ATOM     70  S   UNL A   1      47.621  26.071  37.717  1.00  0.00     0.124 S 
ATOM     71  O   UNL A   1      48.789  26.496  36.951  1.00  0.00    -0.237 OA
ATOM     72  O   UNL A   1      47.545  26.572  39.085  1.00  0.00    -0.237 OA
ATOM     73  O   UNL A   1      47.229  24.678  37.539  1.00  0.00    -0.744 OA
ENDBRANCH  69  70
ENDBRANCH  48  62
BRANCH  49  74
ATOM     74  C   UNL A   1      36.715  33.012  30.919  1.00  0.00     0.058 A 
ATOM     75  C   UNL A   1      35.388  32.789  31.318  1.00  0.00     0.135 A 
ATOM     76  C   UNL A   1      36.932  33.892  29.848  1.00  0.00     0.135 A 
ATOM     77  F   UNL A   1      35.124  31.950  32.331  1.00  0.00    -0.206 F 
ATOM     78  C   UNL A   1      34.317  33.396  30.668  1.00  0.00     0.059 A 
ATOM     79  C   UNL A   1      35.880  34.536  29.202  1.00  0.00     0.059 A 
ATOM     80  F   UNL A   1      38.182  34.152  29.433  1.00  0.00    -0.206 F 
ATOM     81  C   UNL A   1      34.574  34.273  29.613  1.00  0.00     0.060 A 
BRANCH  81  82
ATOM     82  S   UNL A   1      33.181  35.089  28.805  1.00  0.00     0.124 S 
ATOM     83  O   UNL A   1      32.324  35.405  29.942  1.00  0.00    -0.237 OA
ATOM     84  O   UNL A   1      33.828  36.226  28.158  1.00  0.00    -0.237 OA
ATOM     85  O   UNL A   1      32.672  34.066  27.897  1.00  0.00    -0.744 OA
ENDBRANCH  81  82
ENDBRANCH  49  74
BRANCH  61  86
ATOM     86  C   UNL A   1      39.962  34.090  37.009  1.00  0.00     0.058 A 
ATOM     87  C   UNL A   1      40.642  35.317  36.967  1.00  0.00     0.135 A 
ATOM     88  C   UNL A   1      39.070  33.874  38.074  1.00  0.00     0.135 A 
ATOM     89  F   UNL A   1      41.511  35.575  35.977  1.00  0.00    -0.206 F 
ATOM     90  C   UNL A   1      40.467  36.280  37.958  1.00  0.00     0.059 A 
ATOM     91  C   UNL A   1      38.852  34.837  39.054  1.00  0.00     0.059 A 
ATOM     92  F   UNL A   1      38.383  32.724  38.159  1.00  0.00    -0.206 F 
ATOM     93  C   UNL A   1      39.566  36.033  38.994  1.00  0.00     0.060 A 
BRANCH  93  94
ATOM     94  S   UNL A   1      39.326  37.305  40.252  1.00  0.00     0.124 S 
ATOM     95  O   UNL A   1      38.800  36.523  41.366  1.00  0.00    -0.237 OA
ATOM     96  O   UNL A   1      40.677  37.827  40.428  1.00  0.00    -0.237 OA
ATOM     97  O   UNL A   1      38.379  38.226  39.630  1.00  0.00    -0.744 OA
ENDBRANCH  93  94
ENDBRANCH  61  86
ENDBRANCH  35  36
ENDBRANCH  27  30
ENDBRANCH  25  26
ENDBRANCH   1  25
TORSDOF 17
ENDMDL
