MODEL 1
REMARK VINA RESULT:     -11.9      0.000      0.000
REMARK SMILES COc1ccc(/C=C/c2ncc(C(=O)NCCCNC(=O)c3ccc(-c4c5nc(c(-c6c(F)cc(S(=O)(=O)[O-])cc6F)c6ccc([nH]6)c(-c6c(F)cc(S(=O)(=O)[O-])cc6F)c6nc(c(-c7c(F)cc(S(=O)(=O)[O-])cc7F)c7ccc4[nH]7)C=C6)C=C5)cc3)s2)cc1O
REMARK SMILES IDX 17 1 16 2 15 3 13 4 14 5 12 7 9 8 10 9 88 10 11 11 8 12 7 13
REMARK SMILES IDX 6 14 3 15 4 16 90 17 5 18 89 19 2 20 1 21 91 22 18 24 19 25
REMARK SMILES IDX 20 26 21 28 22 29 23 30 87 31 24 32 86 33 25 34 26 35 27 36
REMARK SMILES IDX 80 37 28 38 85 39 79 40 81 41 29 42 84 43 78 44 77 45 30 47
REMARK SMILES IDX 64 48 43 49 63 50 44 51 47 52 62 53 82 54 45 55 46 56 61 58
REMARK SMILES IDX 83 59 48 60 31 61 32 62 41 63 33 64 34 65 40 66 42 67 35 68
REMARK SMILES IDX 36 69 37 70 38 71 39 72 65 73 66 74 75 75 67 76 68 77 74 78
REMARK SMILES IDX 76 79 69 80 70 81 71 82 72 83 73 84 49 85 50 86 59 87 51 88
REMARK SMILES IDX 52 89 58 90 60 91 53 92 54 93 55 94 56 95 57 96
REMARK H PARENT 15 6 91 23 19 27 81 46 47 57
REMARK Flexibility Score: inf
ROOT
ATOM      1  C   UNL A   1      33.101  28.209  25.440  1.00  0.00     0.042 C 
ENDROOT
BRANCH   1   2
ATOM      2  C   UNL A   1      31.607  27.897  25.467  1.00  0.00     0.118 C 
BRANCH   2   3
ATOM      3  N   UNL A   1      30.966  28.222  24.206  1.00  0.00    -0.351 N 
ATOM      4  C   UNL A   1      31.068  27.662  22.954  1.00  0.00     0.263 C 
ATOM      5  O   UNL A   1      30.288  28.116  22.113  1.00  0.00    -0.268 OA
ATOM      6  H   UNL A   1      30.344  28.984  24.257  1.00  0.00     0.163 HD
BRANCH   4   7
ATOM      7  C   UNL A   1      32.009  26.597  22.671  1.00  0.00     0.112 A 
ATOM      8  C   UNL A   1      33.138  24.415  22.583  1.00  0.00     0.116 A 
ATOM      9  N   UNL A   1      33.858  25.335  21.972  1.00  0.00    -0.244 NA
ATOM     10  S   UNL A   1      31.642  25.003  23.214  1.00  0.00    -0.109 S 
ATOM     11  C   UNL A   1      33.200  26.552  21.979  1.00  0.00     0.137 A 
BRANCH   8  12
ATOM     12  C   UNL A   1      33.477  23.043  22.749  1.00  0.00     0.040 C 
ATOM     13  C   UNL A   1      32.600  22.186  23.301  1.00  0.00     0.011 C 
BRANCH  13  14
ATOM     14  C   UNL A   1      32.860  20.756  23.521  1.00  0.00    -0.022 A 
ATOM     15  C   UNL A   1      33.263  17.991  23.923  1.00  0.00     0.160 A 
ATOM     16  C   UNL A   1      33.955  18.927  24.693  1.00  0.00     0.051 A 
ATOM     17  C   UNL A   1      32.390  18.449  22.935  1.00  0.00     0.158 A 
ATOM     18  C   UNL A   1      33.753  20.299  24.498  1.00  0.00     0.012 A 
ATOM     19  C   UNL A   1      32.162  19.814  22.756  1.00  0.00     0.058 A 
BRANCH  15  20
ATOM     20  O   UNL A   1      33.572  16.681  24.169  1.00  0.00    -0.493 OA
ATOM     21  C   UNL A   1      32.763  16.023  25.142  1.00  0.00     0.278 C 
ENDBRANCH  15  20
BRANCH  17  22
ATOM     22  O   UNL A   1      31.770  17.608  22.053  1.00  0.00    -0.504 OA
ATOM     23  H   UNL A   1      32.265  16.948  21.610  1.00  0.00     0.293 HD
ENDBRANCH  17  22
ENDBRANCH  13  14
ENDBRANCH   8  12
ENDBRANCH   4   7
ENDBRANCH   2   3
ENDBRANCH   1   2
BRANCH   1  24
ATOM     24  C   UNL A   1      33.724  28.341  26.830  1.00  0.00     0.118 C 
BRANCH  24  25
ATOM     25  N   UNL A   1      33.581  29.686  27.367  1.00  0.00    -0.352 N 
ATOM     26  C   UNL A   1      34.438  30.437  28.130  1.00  0.00     0.251 C 
ATOM     27  H   UNL A   1      32.729  30.128  27.149  1.00  0.00     0.163 HD
ATOM     28  O   UNL A   1      34.013  31.462  28.659  1.00  0.00    -0.269 OA
BRANCH  26  29
ATOM     29  C   UNL A   1      35.852  30.040  28.322  1.00  0.00     0.039 A 
ATOM     30  C   UNL A   1      36.255  29.599  29.587  1.00  0.00     0.014 A 
ATOM     31  C   UNL A   1      36.799  30.176  27.302  1.00  0.00     0.014 A 
ATOM     32  C   UNL A   1      37.593  29.271  29.822  1.00  0.00     0.010 A 
ATOM     33  C   UNL A   1      38.121  29.784  27.518  1.00  0.00     0.010 A 
ATOM     34  C   UNL A   1      38.536  29.347  28.785  1.00  0.00    -0.014 A 
BRANCH  34  35
ATOM     35  C   UNL A   1      39.962  29.008  29.024  1.00  0.00     0.031 A 
ATOM     36  C   UNL A   1      40.893  30.031  29.622  1.00  0.00     0.074 A 
ATOM     37  C   UNL A   1      40.428  27.795  28.671  1.00  0.00     0.049 A 
ATOM     38  N   UNL A   1      42.174  29.938  29.871  1.00  0.00    -0.248 NA
ATOM     39  C   UNL A   1      40.312  31.341  29.960  1.00  0.00     0.031 C 
ATOM     40  C   UNL A   1      39.638  26.736  28.040  1.00  0.00     0.029 A 
ATOM     41  N   UNL A   1      41.681  27.249  28.787  1.00  0.00    -0.354 N 
ATOM     42  C   UNL A   1      42.555  31.176  30.376  1.00  0.00     0.074 A 
ATOM     43  C   UNL A   1      41.380  32.020  30.352  1.00  0.00     0.031 C 
ATOM     44  C   UNL A   1      40.418  25.660  27.847  1.00  0.00     0.029 A 
ATOM     45  C   UNL A   1      41.767  25.960  28.313  1.00  0.00     0.049 A 
ATOM     46  H   UNL A   1      42.447  27.733  29.171  1.00  0.00     0.167 HD
ATOM     47  C   UNL A   1      43.766  31.567  30.841  1.00  0.00     0.037 A 
ATOM     48  C   UNL A   1      42.816  25.116  28.265  1.00  0.00     0.037 A 
ATOM     49  C   UNL A   1      44.925  30.714  30.893  1.00  0.00     0.049 A 
ATOM     50  C   UNL A   1      44.141  25.561  28.820  1.00  0.00     0.074 A 
ATOM     51  C   UNL A   1      46.185  30.998  31.388  1.00  0.00     0.029 A 
ATOM     52  N   UNL A   1      44.961  29.402  30.442  1.00  0.00    -0.354 N 
ATOM     53  N   UNL A   1      44.471  26.720  29.339  1.00  0.00    -0.248 NA
ATOM     54  C   UNL A   1      45.234  24.579  28.795  1.00  0.00     0.031 C 
ATOM     55  C   UNL A   1      46.992  29.868  31.211  1.00  0.00     0.029 A 
ATOM     56  C   UNL A   1      46.222  28.865  30.642  1.00  0.00     0.049 A 
ATOM     57  H   UNL A   1      44.201  28.922  30.039  1.00  0.00     0.167 HD
ATOM     58  C   UNL A   1      45.800  26.597  29.729  1.00  0.00     0.074 A 
ATOM     59  C   UNL A   1      46.209  25.247  29.396  1.00  0.00     0.031 C 
ATOM     60  C   UNL A   1      46.608  27.516  30.313  1.00  0.00     0.037 A 
BRANCH  47  61
ATOM     61  C   UNL A   1      43.895  32.983  31.336  1.00  0.00     0.058 A 
ATOM     62  C   UNL A   1      43.690  33.311  32.685  1.00  0.00     0.135 A 
ATOM     63  C   UNL A   1      44.246  34.021  30.457  1.00  0.00     0.135 A 
ATOM     64  F   UNL A   1      43.338  32.361  33.566  1.00  0.00    -0.206 F 
ATOM     65  C   UNL A   1      43.792  34.622  33.140  1.00  0.00     0.059 A 
ATOM     66  C   UNL A   1      44.380  35.335  30.895  1.00  0.00     0.059 A 
ATOM     67  F   UNL A   1      44.455  33.763  29.156  1.00  0.00    -0.206 F 
ATOM     68  C   UNL A   1      44.133  35.628  32.236  1.00  0.00     0.060 A 
BRANCH  68  69
ATOM     69  S   UNL A   1      44.254  37.327  32.838  1.00  0.00     0.124 S 
ATOM     70  O   UNL A   1      43.046  37.431  33.652  1.00  0.00    -0.237 OA
ATOM     71  O   UNL A   1      45.513  37.310  33.574  1.00  0.00    -0.237 OA
ATOM     72  O   UNL A   1      44.258  38.121  31.614  1.00  0.00    -0.744 OA
ENDBRANCH  68  69
ENDBRANCH  47  61
BRANCH  48  73
ATOM     73  C   UNL A   1      42.641  23.748  27.711  1.00  0.00     0.058 A 
ATOM     74  C   UNL A   1      42.451  22.648  28.559  1.00  0.00     0.135 A 
ATOM     75  C   UNL A   1      42.641  23.517  26.327  1.00  0.00     0.135 A 
ATOM     76  F   UNL A   1      42.447  22.819  29.890  1.00  0.00    -0.206 F 
ATOM     77  C   UNL A   1      42.286  21.361  28.058  1.00  0.00     0.059 A 
ATOM     78  C   UNL A   1      42.455  22.243  25.801  1.00  0.00     0.059 A 
ATOM     79  F   UNL A   1      42.800  24.540  25.473  1.00  0.00    -0.206 F 
ATOM     80  C   UNL A   1      42.288  21.168  26.674  1.00  0.00     0.060 A 
BRANCH  80  81
ATOM     81  S   UNL A   1      42.022  19.502  26.030  1.00  0.00     0.124 S 
ATOM     82  O   UNL A   1      42.877  19.504  24.850  1.00  0.00    -0.237 OA
ATOM     83  O   UNL A   1      42.469  18.667  27.141  1.00  0.00    -0.237 OA
ATOM     84  O   UNL A   1      40.585  19.470  25.772  1.00  0.00    -0.744 OA
ENDBRANCH  80  81
ENDBRANCH  48  73
BRANCH  60  85
ATOM     85  C   UNL A   1      48.002  27.079  30.666  1.00  0.00     0.058 A 
ATOM     86  C   UNL A   1      49.086  27.301  29.802  1.00  0.00     0.135 A 
ATOM     87  C   UNL A   1      48.258  26.452  31.895  1.00  0.00     0.135 A 
ATOM     88  F   UNL A   1      48.893  27.893  28.612  1.00  0.00    -0.206 F 
ATOM     89  C   UNL A   1      50.372  26.886  30.132  1.00  0.00     0.059 A 
ATOM     90  C   UNL A   1      49.540  26.051  32.256  1.00  0.00     0.059 A 
ATOM     91  F   UNL A   1      47.257  26.227  32.761  1.00  0.00    -0.206 F 
ATOM     92  C   UNL A   1      50.589  26.258  31.360  1.00  0.00     0.060 A 
BRANCH  92  93
ATOM     93  S   UNL A   1      52.263  25.732  31.785  1.00  0.00     0.124 S 
ATOM     94  O   UNL A   1      52.049  24.332  32.135  1.00  0.00    -0.237 OA
ATOM     95  O   UNL A   1      52.993  25.971  30.544  1.00  0.00    -0.237 OA
ATOM     96  O   UNL A   1      52.622  26.611  32.894  1.00  0.00    -0.744 OA
ENDBRANCH  92  93
ENDBRANCH  60  85
ENDBRANCH  34  35
ENDBRANCH  26  29
ENDBRANCH  24  25
ENDBRANCH   1  24
TORSDOF 17
ENDMDL
MODEL 2
REMARK VINA RESULT:     -11.8      4.978     10.963
REMARK SMILES COc1ccc(/C=C/c2ncc(C(=O)NCCCNC(=O)c3ccc(-c4c5nc(c(-c6c(F)cc(S(=O)(=O)[O-])cc6F)c6ccc([nH]6)c(-c6c(F)cc(S(=O)(=O)[O-])cc6F)c6nc(c(-c7c(F)cc(S(=O)(=O)[O-])cc7F)c7ccc4[nH]7)C=C6)C=C5)cc3)s2)cc1O
REMARK SMILES IDX 17 1 16 2 15 3 13 4 14 5 12 7 9 8 10 9 88 10 11 11 8 12 7 13
REMARK SMILES IDX 6 14 3 15 4 16 90 17 5 18 89 19 2 20 1 21 91 22 18 24 19 25
REMARK SMILES IDX 20 26 21 28 22 29 23 30 87 31 24 32 86 33 25 34 26 35 27 36
REMARK SMILES IDX 80 37 28 38 85 39 79 40 81 41 29 42 84 43 78 44 77 45 30 47
REMARK SMILES IDX 64 48 43 49 63 50 44 51 47 52 62 53 82 54 45 55 46 56 61 58
REMARK SMILES IDX 83 59 48 60 31 61 32 62 41 63 33 64 34 65 40 66 42 67 35 68
REMARK SMILES IDX 36 69 37 70 38 71 39 72 65 73 66 74 75 75 67 76 68 77 74 78
REMARK SMILES IDX 76 79 69 80 70 81 71 82 72 83 73 84 49 85 50 86 59 87 51 88
REMARK SMILES IDX 52 89 58 90 60 91 53 92 54 93 55 94 56 95 57 96
REMARK H PARENT 15 6 91 23 19 27 81 46 47 57
REMARK Flexibility Score: inf
ROOT
ATOM      1  C   UNL A   1      37.609  22.896  25.906  1.00  0.00     0.042 C 
ENDROOT
BRANCH   1   2
ATOM      2  C   UNL A   1      36.106  23.105  25.741  1.00  0.00     0.118 C 
BRANCH   2   3
ATOM      3  N   UNL A   1      35.387  21.845  25.706  1.00  0.00    -0.351 N 
ATOM      4  C   UNL A   1      34.050  21.548  25.823  1.00  0.00     0.263 C 
ATOM      5  O   UNL A   1      33.758  20.365  25.633  1.00  0.00    -0.268 OA
ATOM      6  H   UNL A   1      35.965  21.058  25.575  1.00  0.00     0.163 HD
BRANCH   4   7
ATOM      7  C   UNL A   1      33.067  22.570  26.119  1.00  0.00     0.112 A 
ATOM      8  C   UNL A   1      31.501  24.456  25.928  1.00  0.00     0.116 A 
ATOM      9  N   UNL A   1      31.556  24.022  27.172  1.00  0.00    -0.244 NA
ATOM     10  S   UNL A   1      32.497  23.567  24.833  1.00  0.00    -0.109 S 
ATOM     11  C   UNL A   1      32.399  22.931  27.270  1.00  0.00     0.137 A 
BRANCH   8  12
ATOM     12  C   UNL A   1      30.720  25.542  25.441  1.00  0.00     0.040 C 
ATOM     13  C   UNL A   1      30.844  25.952  24.167  1.00  0.00     0.011 C 
BRANCH  13  14
ATOM     14  C   UNL A   1      30.089  27.065  23.575  1.00  0.00    -0.022 A 
ATOM     15  C   UNL A   1      28.713  29.265  22.462  1.00  0.00     0.160 A 
ATOM     16  C   UNL A   1      28.014  28.250  23.116  1.00  0.00     0.051 A 
ATOM     17  C   UNL A   1      30.100  29.159  22.347  1.00  0.00     0.158 A 
ATOM     18  C   UNL A   1      28.695  27.160  23.672  1.00  0.00     0.012 A 
ATOM     19  C   UNL A   1      30.787  28.090  22.926  1.00  0.00     0.058 A 
BRANCH  15  20
ATOM     20  O   UNL A   1      27.942  30.257  21.919  1.00  0.00    -0.493 OA
ATOM     21  C   UNL A   1      27.798  31.436  22.709  1.00  0.00     0.278 C 
ENDBRANCH  15  20
BRANCH  17  22
ATOM     22  O   UNL A   1      30.848  30.039  21.616  1.00  0.00    -0.504 OA
ATOM     23  H   UNL A   1      31.122  30.849  21.997  1.00  0.00     0.293 HD
ENDBRANCH  17  22
ENDBRANCH  13  14
ENDBRANCH   8  12
ENDBRANCH   4   7
ENDBRANCH   2   3
ENDBRANCH   1   2
BRANCH   1  24
ATOM     24  C   UNL A   1      38.352  24.142  26.389  1.00  0.00     0.118 C 
BRANCH  24  25
ATOM     25  N   UNL A   1      39.778  24.071  26.110  1.00  0.00    -0.352 N 
ATOM     26  C   UNL A   1      40.809  24.874  26.525  1.00  0.00     0.251 C 
ATOM     27  H   UNL A   1      40.047  23.325  25.526  1.00  0.00     0.163 HD
ATOM     28  O   UNL A   1      41.904  24.756  25.980  1.00  0.00    -0.269 OA
BRANCH  26  29
ATOM     29  C   UNL A   1      40.627  25.867  27.608  1.00  0.00     0.039 A 
ATOM     30  C   UNL A   1      41.482  26.974  27.649  1.00  0.00     0.014 A 
ATOM     31  C   UNL A   1      39.688  25.680  28.627  1.00  0.00     0.014 A 
ATOM     32  C   UNL A   1      41.379  27.902  28.688  1.00  0.00     0.010 A 
ATOM     33  C   UNL A   1      39.540  26.642  29.627  1.00  0.00     0.010 A 
ATOM     34  C   UNL A   1      40.397  27.751  29.680  1.00  0.00    -0.014 A 
BRANCH  34  35
ATOM     35  C   UNL A   1      40.282  28.727  30.795  1.00  0.00     0.031 A 
ATOM     36  C   UNL A   1      41.167  28.598  32.007  1.00  0.00     0.074 A 
ATOM     37  C   UNL A   1      39.359  29.706  30.732  1.00  0.00     0.049 A 
ATOM     38  N   UNL A   1      41.191  29.326  33.094  1.00  0.00    -0.248 NA
ATOM     39  C   UNL A   1      42.134  27.489  32.009  1.00  0.00     0.031 C 
ATOM     40  C   UNL A   1      38.412  29.907  29.634  1.00  0.00     0.029 A 
ATOM     41  N   UNL A   1      39.061  30.713  31.614  1.00  0.00    -0.354 N 
ATOM     42  C   UNL A   1      42.158  28.755  33.913  1.00  0.00     0.074 A 
ATOM     43  C   UNL A   1      42.664  27.591  33.219  1.00  0.00     0.031 C 
ATOM     44  C   UNL A   1      37.655  30.985  29.896  1.00  0.00     0.029 A 
ATOM     45  C   UNL A   1      38.043  31.535  31.191  1.00  0.00     0.049 A 
ATOM     46  H   UNL A   1      39.531  30.836  32.471  1.00  0.00     0.167 HD
ATOM     47  C   UNL A   1      42.603  29.174  35.123  1.00  0.00     0.037 A 
ATOM     48  C   UNL A   1      37.488  32.612  31.779  1.00  0.00     0.037 A 
ATOM     49  C   UNL A   1      42.119  30.352  35.796  1.00  0.00     0.049 A 
ATOM     50  C   UNL A   1      38.023  33.080  33.105  1.00  0.00     0.074 A 
ATOM     51  C   UNL A   1      42.535  30.890  37.001  1.00  0.00     0.029 A 
ATOM     52  N   UNL A   1      41.116  31.181  35.315  1.00  0.00    -0.354 N 
ATOM     53  N   UNL A   1      38.972  32.555  33.843  1.00  0.00    -0.248 NA
ATOM     54  C   UNL A   1      37.420  34.294  33.671  1.00  0.00     0.031 C 
ATOM     55  C   UNL A   1      41.765  32.029  37.262  1.00  0.00     0.029 A 
ATOM     56  C   UNL A   1      40.896  32.224  36.201  1.00  0.00     0.049 A 
ATOM     57  H   UNL A   1      40.632  31.049  34.468  1.00  0.00     0.167 HD
ATOM     58  C   UNL A   1      39.101  33.391  34.947  1.00  0.00     0.074 A 
ATOM     59  C   UNL A   1      38.140  34.462  34.773  1.00  0.00     0.031 C 
ATOM     60  C   UNL A   1      39.941  33.285  36.006  1.00  0.00     0.037 A 
BRANCH  47  61
ATOM     61  C   UNL A   1      43.672  28.354  35.792  1.00  0.00     0.058 A 
ATOM     62  C   UNL A   1      43.353  27.304  36.668  1.00  0.00     0.135 A 
ATOM     63  C   UNL A   1      45.031  28.606  35.543  1.00  0.00     0.135 A 
ATOM     64  F   UNL A   1      42.070  27.029  36.954  1.00  0.00    -0.206 F 
ATOM     65  C   UNL A   1      44.341  26.557  37.301  1.00  0.00     0.059 A 
ATOM     66  C   UNL A   1      46.037  27.854  36.144  1.00  0.00     0.059 A 
ATOM     67  F   UNL A   1      45.394  29.598  34.713  1.00  0.00    -0.206 F 
ATOM     68  C   UNL A   1      45.681  26.842  37.035  1.00  0.00     0.060 A 
BRANCH  68  69
ATOM     69  S   UNL A   1      46.954  25.869  37.870  1.00  0.00     0.124 S 
ATOM     70  O   UNL A   1      46.390  24.525  37.786  1.00  0.00    -0.237 OA
ATOM     71  O   UNL A   1      48.129  26.114  37.043  1.00  0.00    -0.237 OA
ATOM     72  O   UNL A   1      47.000  26.449  39.208  1.00  0.00    -0.744 OA
ENDBRANCH  68  69
ENDBRANCH  47  61
BRANCH  48  73
ATOM     73  C   UNL A   1      36.394  33.349  31.094  1.00  0.00     0.058 A 
ATOM     74  C   UNL A   1      36.664  34.187  30.004  1.00  0.00     0.135 A 
ATOM     75  C   UNL A   1      35.059  33.216  31.504  1.00  0.00     0.135 A 
ATOM     76  F   UNL A   1      37.926  34.349  29.578  1.00  0.00    -0.206 F 
ATOM     77  C   UNL A   1      35.652  34.884  29.352  1.00  0.00     0.059 A 
ATOM     78  C   UNL A   1      34.026  33.884  30.854  1.00  0.00     0.059 A 
ATOM     79  F   UNL A   1      34.746  32.410  32.532  1.00  0.00    -0.206 F 
ATOM     80  C   UNL A   1      34.334  34.724  29.784  1.00  0.00     0.060 A 
BRANCH  80  81
ATOM     81  S   UNL A   1      33.020  35.593  28.900  1.00  0.00     0.124 S 
ATOM     82  O   UNL A   1      33.770  36.639  28.215  1.00  0.00    -0.237 OA
ATOM     83  O   UNL A   1      32.471  34.540  28.051  1.00  0.00    -0.237 OA
ATOM     84  O   UNL A   1      32.138  36.045  29.973  1.00  0.00    -0.744 OA
ENDBRANCH  80  81
ENDBRANCH  48  73
BRANCH  60  85
ATOM     85  C   UNL A   1      39.885  34.377  37.038  1.00  0.00     0.058 A 
ATOM     86  C   UNL A   1      40.598  35.575  36.884  1.00  0.00     0.135 A 
ATOM     87  C   UNL A   1      39.087  34.229  38.184  1.00  0.00     0.135 A 
ATOM     88  F   UNL A   1      41.380  35.764  35.808  1.00  0.00    -0.206 F 
ATOM     89  C   UNL A   1      40.548  36.578  37.847  1.00  0.00     0.059 A 
ATOM     90  C   UNL A   1      39.002  35.228  39.147  1.00  0.00     0.059 A 
ATOM     91  F   UNL A   1      38.376  33.105  38.373  1.00  0.00    -0.206 F 
ATOM     92  C   UNL A   1      39.750  36.393  38.978  1.00  0.00     0.060 A 
BRANCH  92  93
ATOM     93  S   UNL A   1      39.682  37.703  40.218  1.00  0.00     0.124 S 
ATOM     94  O   UNL A   1      38.814  38.678  39.566  1.00  0.00    -0.237 OA
ATOM     95  O   UNL A   1      39.109  37.016  41.371  1.00  0.00    -0.237 OA
ATOM     96  O   UNL A   1      41.079  38.103  40.365  1.00  0.00    -0.744 OA
ENDBRANCH  92  93
ENDBRANCH  60  85
ENDBRANCH  34  35
ENDBRANCH  26  29
ENDBRANCH  24  25
ENDBRANCH   1  24
TORSDOF 17
ENDMDL
MODEL 3
REMARK VINA RESULT:     -11.6      3.197      9.917
REMARK SMILES COc1ccc(/C=C/c2ncc(C(=O)NCCCNC(=O)c3ccc(-c4c5nc(c(-c6c(F)cc(S(=O)(=O)[O-])cc6F)c6ccc([nH]6)c(-c6c(F)cc(S(=O)(=O)[O-])cc6F)c6nc(c(-c7c(F)cc(S(=O)(=O)[O-])cc7F)c7ccc4[nH]7)C=C6)C=C5)cc3)s2)cc1O
REMARK SMILES IDX 17 1 16 2 15 3 13 4 14 5 12 7 9 8 10 9 88 10 11 11 8 12 7 13
REMARK SMILES IDX 6 14 3 15 4 16 90 17 5 18 89 19 2 20 1 21 91 22 18 24 19 25
REMARK SMILES IDX 20 26 21 28 22 29 23 30 87 31 24 32 86 33 25 34 26 35 27 36
REMARK SMILES IDX 80 37 28 38 85 39 79 40 81 41 29 42 84 43 78 44 77 45 30 47
REMARK SMILES IDX 64 48 43 49 63 50 44 51 47 52 62 53 82 54 45 55 46 56 61 58
REMARK SMILES IDX 83 59 48 60 31 61 32 62 41 63 33 64 34 65 40 66 42 67 35 68
REMARK SMILES IDX 36 69 37 70 38 71 39 72 65 73 66 74 75 75 67 76 68 77 74 78
REMARK SMILES IDX 76 79 69 80 70 81 71 82 72 83 73 84 49 85 50 86 59 87 51 88
REMARK SMILES IDX 52 89 58 90 60 91 53 92 54 93 55 94 56 95 57 96
REMARK H PARENT 15 6 91 23 19 27 81 46 47 57
REMARK Flexibility Score: inf
ROOT
ATOM      1  C   UNL A   1      35.253  22.900  25.395  1.00  0.00     0.042 C 
ENDROOT
BRANCH   1   2
ATOM      2  C   UNL A   1      34.585  22.030  26.457  1.00  0.00     0.118 C 
BRANCH   2   3
ATOM      3  N   UNL A   1      33.616  21.119  25.877  1.00  0.00    -0.351 N 
ATOM      4  C   UNL A   1      32.291  21.279  25.545  1.00  0.00     0.263 C 
ATOM      5  O   UNL A   1      31.780  20.323  24.956  1.00  0.00    -0.268 OA
ATOM      6  H   UNL A   1      33.974  20.222  25.685  1.00  0.00     0.163 HD
BRANCH   4   7
ATOM      7  C   UNL A   1      31.573  22.500  25.848  1.00  0.00     0.112 A 
ATOM      8  C   UNL A   1      30.525  24.718  25.681  1.00  0.00     0.116 A 
ATOM      9  N   UNL A   1      30.411  24.242  26.905  1.00  0.00    -0.244 NA
ATOM     10  S   UNL A   1      31.328  23.650  24.587  1.00  0.00    -0.109 S 
ATOM     11  C   UNL A   1      30.957  22.974  26.986  1.00  0.00     0.137 A 
BRANCH   8  12
ATOM     12  C   UNL A   1      30.058  25.979  25.213  1.00  0.00     0.040 C 
ATOM     13  C   UNL A   1      29.777  26.160  23.910  1.00  0.00     0.011 C 
BRANCH  13  14
ATOM     14  C   UNL A   1      29.297  27.423  23.332  1.00  0.00    -0.022 A 
ATOM     15  C   UNL A   1      28.464  29.890  22.241  1.00  0.00     0.160 A 
ATOM     16  C   UNL A   1      27.565  29.086  22.942  1.00  0.00     0.051 A 
ATOM     17  C   UNL A   1      29.774  29.439  22.069  1.00  0.00     0.158 A 
ATOM     18  C   UNL A   1      27.977  27.864  23.487  1.00  0.00     0.012 A 
ATOM     19  C   UNL A   1      30.198  28.237  22.636  1.00  0.00     0.058 A 
BRANCH  15  20
ATOM     20  O   UNL A   1      27.941  31.040  21.714  1.00  0.00    -0.493 OA
ATOM     21  C   UNL A   1      28.226  32.239  22.432  1.00  0.00     0.278 C 
ENDBRANCH  15  20
BRANCH  17  22
ATOM     22  O   UNL A   1      30.684  30.100  21.291  1.00  0.00    -0.504 OA
ATOM     23  H   UNL A   1      30.632  31.031  21.199  1.00  0.00     0.293 HD
ENDBRANCH  17  22
ENDBRANCH  13  14
ENDBRANCH   8  12
ENDBRANCH   4   7
ENDBRANCH   2   3
ENDBRANCH   1   2
BRANCH   1  24
ATOM     24  C   UNL A   1      36.490  23.642  25.901  1.00  0.00     0.118 C 
BRANCH  24  25
ATOM     25  N   UNL A   1      37.689  22.821  25.824  1.00  0.00    -0.352 N 
ATOM     26  C   UNL A   1      38.989  23.108  26.154  1.00  0.00     0.251 C 
ATOM     27  H   UNL A   1      37.543  21.911  25.477  1.00  0.00     0.163 HD
ATOM     28  O   UNL A   1      39.873  22.335  25.793  1.00  0.00    -0.269 OA
BRANCH  26  29
ATOM     29  C   UNL A   1      39.339  24.319  26.932  1.00  0.00     0.039 A 
ATOM     30  C   UNL A   1      40.148  25.288  26.328  1.00  0.00     0.014 A 
ATOM     31  C   UNL A   1      38.957  24.470  28.268  1.00  0.00     0.014 A 
ATOM     32  C   UNL A   1      40.547  26.416  27.049  1.00  0.00     0.010 A 
ATOM     33  C   UNL A   1      39.300  25.628  28.967  1.00  0.00     0.010 A 
ATOM     34  C   UNL A   1      40.115  26.603  28.372  1.00  0.00    -0.014 A 
BRANCH  34  35
ATOM     35  C   UNL A   1      40.540  27.794  29.152  1.00  0.00     0.031 A 
ATOM     36  C   UNL A   1      41.890  27.819  29.820  1.00  0.00     0.074 A 
ATOM     37  C   UNL A   1      39.698  28.837  29.289  1.00  0.00     0.049 A 
ATOM     38  N   UNL A   1      42.423  28.748  30.571  1.00  0.00    -0.248 NA
ATOM     39  C   UNL A   1      42.742  26.633  29.641  1.00  0.00     0.031 C 
ATOM     40  C   UNL A   1      38.347  28.912  28.730  1.00  0.00     0.029 A 
ATOM     41  N   UNL A   1      39.852  30.031  29.946  1.00  0.00    -0.354 N 
ATOM     42  C   UNL A   1      43.661  28.253  30.968  1.00  0.00     0.074 A 
ATOM     43  C   UNL A   1      43.778  26.921  30.415  1.00  0.00     0.031 C 
ATOM     44  C   UNL A   1      37.805  30.099  29.048  1.00  0.00     0.029 A 
ATOM     45  C   UNL A   1      38.757  30.857  29.853  1.00  0.00     0.049 A 
ATOM     46  H   UNL A   1      40.670  30.274  30.439  1.00  0.00     0.167 HD
ATOM     47  C   UNL A   1      44.622  28.860  31.705  1.00  0.00     0.037 A 
ATOM     48  C   UNL A   1      38.546  32.088  30.358  1.00  0.00     0.037 A 
ATOM     49  C   UNL A   1      44.514  30.198  32.227  1.00  0.00     0.049 A 
ATOM     50  C   UNL A   1      39.642  32.756  31.143  1.00  0.00     0.074 A 
ATOM     51  C   UNL A   1      45.449  30.923  32.945  1.00  0.00     0.029 A 
ATOM     52  N   UNL A   1      43.405  31.017  32.076  1.00  0.00    -0.354 N 
ATOM     53  N   UNL A   1      40.825  32.291  31.467  1.00  0.00    -0.248 NA
ATOM     54  C   UNL A   1      39.379  34.121  31.619  1.00  0.00     0.031 C 
ATOM     55  C   UNL A   1      44.894  32.170  33.253  1.00  0.00     0.029 A 
ATOM     56  C   UNL A   1      43.629  32.238  32.693  1.00  0.00     0.049 A 
ATOM     57  H   UNL A   1      42.579  30.769  31.601  1.00  0.00     0.167 HD
ATOM     58  C   UNL A   1      41.459  33.317  32.160  1.00  0.00     0.074 A 
ATOM     59  C   UNL A   1      40.531  34.430  32.197  1.00  0.00     0.031 C 
ATOM     60  C   UNL A   1      42.697  33.337  32.711  1.00  0.00     0.037 A 
BRANCH  47  61
ATOM     61  C   UNL A   1      45.879  28.080  31.985  1.00  0.00     0.058 A 
ATOM     62  C   UNL A   1      47.004  28.176  31.151  1.00  0.00     0.135 A 
ATOM     63  C   UNL A   1      45.968  27.242  33.108  1.00  0.00     0.135 A 
ATOM     64  F   UNL A   1      46.969  28.951  30.055  1.00  0.00    -0.206 F 
ATOM     65  C   UNL A   1      48.160  27.442  31.399  1.00  0.00     0.059 A 
ATOM     66  C   UNL A   1      47.123  26.519  33.391  1.00  0.00     0.059 A 
ATOM     67  F   UNL A   1      44.922  27.113  33.940  1.00  0.00    -0.206 F 
ATOM     68  C   UNL A   1      48.208  26.612  32.520  1.00  0.00     0.060 A 
BRANCH  68  69
ATOM     69  S   UNL A   1      49.711  25.659  32.825  1.00  0.00     0.124 S 
ATOM     70  O   UNL A   1      49.315  24.857  33.979  1.00  0.00    -0.237 OA
ATOM     71  O   UNL A   1      49.880  24.929  31.574  1.00  0.00    -0.237 OA
ATOM     72  O   UNL A   1      50.715  26.685  33.089  1.00  0.00    -0.744 OA
ENDBRANCH  68  69
ENDBRANCH  47  61
BRANCH  48  73
ATOM     73  C   UNL A   1      37.260  32.786  30.096  1.00  0.00     0.058 A 
ATOM     74  C   UNL A   1      36.146  32.574  30.920  1.00  0.00     0.135 A 
ATOM     75  C   UNL A   1      37.125  33.689  29.031  1.00  0.00     0.135 A 
ATOM     76  F   UNL A   1      36.226  31.716  31.949  1.00  0.00    -0.206 F 
ATOM     77  C   UNL A   1      34.935  33.218  30.688  1.00  0.00     0.059 A 
ATOM     78  C   UNL A   1      35.932  34.363  28.793  1.00  0.00     0.059 A 
ATOM     79  F   UNL A   1      38.169  33.941  28.225  1.00  0.00    -0.206 F 
ATOM     80  C   UNL A   1      34.838  34.114  29.621  1.00  0.00     0.060 A 
BRANCH  80  81
ATOM     81  S   UNL A   1      33.278  34.984  29.358  1.00  0.00     0.124 S 
ATOM     82  O   UNL A   1      32.731  35.019  30.709  1.00  0.00    -0.237 OA
ATOM     83  O   UNL A   1      33.726  36.263  28.817  1.00  0.00    -0.237 OA
ATOM     84  O   UNL A   1      32.572  34.124  28.411  1.00  0.00    -0.744 OA
ENDBRANCH  80  81
ENDBRANCH  48  73
BRANCH  60  85
ATOM     85  C   UNL A   1      43.135  34.617  33.367  1.00  0.00     0.058 A 
ATOM     86  C   UNL A   1      42.989  34.828  34.746  1.00  0.00     0.135 A 
ATOM     87  C   UNL A   1      43.732  35.635  32.605  1.00  0.00     0.135 A 
ATOM     88  F   UNL A   1      42.420  33.887  35.518  1.00  0.00    -0.206 F 
ATOM     89  C   UNL A   1      43.389  36.018  35.345  1.00  0.00     0.059 A 
ATOM     90  C   UNL A   1      44.162  36.823  33.187  1.00  0.00     0.059 A 
ATOM     91  F   UNL A   1      43.905  35.478  31.283  1.00  0.00    -0.206 F 
ATOM     92  C   UNL A   1      43.971  37.012  34.555  1.00  0.00     0.060 A 
BRANCH  92  93
ATOM     93  S   UNL A   1      44.498  38.550  35.341  1.00  0.00     0.124 S 
ATOM     94  O   UNL A   1      45.950  38.443  35.249  1.00  0.00    -0.237 OA
ATOM     95  O   UNL A   1      43.882  39.565  34.492  1.00  0.00    -0.237 OA
ATOM     96  O   UNL A   1      43.943  38.449  36.688  1.00  0.00    -0.744 OA
ENDBRANCH  92  93
ENDBRANCH  60  85
ENDBRANCH  34  35
ENDBRANCH  26  29
ENDBRANCH  24  25
ENDBRANCH   1  24
TORSDOF 17
ENDMDL
