MODEL 1
REMARK VINA RESULT:     -10.8      0.000      0.000
REMARK SMILES CS(=O)(=O)CC[C@H](NC(=O)Cc1ccn[nH]1)C(=O)NCCCNC(=O)c1ccc(-c2c3nc(c(-c4c(F)cc(S(=O)(=O)[O-])cc4F)c4ccc([nH]4)c(-c4c(F)cc(S(=O)(=O)[O-])cc4F)c4nc(c(-c5c(F)cc(S(=O)(=O)[O-])cc5F)c5ccc2[nH]5)C=C4)C=C3)cc1
REMARK SMILES IDX 21 1 20 2 19 3 17 4 18 5 7 7 6 8 5 9 2 10 1 11 3 12 4 13
REMARK SMILES IDX 8 14 9 15 10 17 11 18 12 19 13 20 16 21 14 22 15 23 22 25
REMARK SMILES IDX 23 26 24 27 25 29 26 30 27 31 91 32 28 33 90 34 29 35 30 36
REMARK SMILES IDX 31 37 84 38 32 39 89 40 83 41 85 42 33 43 88 44 82 45 81 46
REMARK SMILES IDX 34 48 68 49 47 50 67 51 48 52 51 53 66 54 86 55 49 56 50 57
REMARK SMILES IDX 65 59 87 60 52 61 35 62 36 63 45 64 37 65 38 66 44 67 46 68
REMARK SMILES IDX 39 69 40 70 41 71 42 72 43 73 69 74 70 75 79 76 71 77 72 78
REMARK SMILES IDX 78 79 80 80 73 81 74 82 75 83 76 84 77 85 53 86 54 87 63 88
REMARK SMILES IDX 55 89 56 90 62 91 64 92 57 93 58 94 59 95 60 96 61 97
REMARK H PARENT 19 6 8 16 16 24 23 28 85 47 51 58
REMARK Flexibility Score: inf
ROOT
ATOM      1  C   UNL A   1      33.025  27.723  26.406  1.00  0.00     0.042 C 
ENDROOT
BRANCH   1   2
ATOM      2  C   UNL A   1      31.601  28.072  26.024  1.00  0.00     0.117 C 
BRANCH   2   3
ATOM      3  N   UNL A   1      31.013  27.014  25.213  1.00  0.00    -0.354 N 
ATOM      4  C   UNL A   1      30.876  26.889  23.868  1.00  0.00     0.242 C 
ATOM      5  O   UNL A   1      30.247  25.921  23.439  1.00  0.00    -0.273 OA
ATOM      6  H   UNL A   1      30.652  26.258  25.730  1.00  0.00     0.163 HD
BRANCH   4   7
ATOM      7  C   UNL A   1      31.513  27.901  22.915  1.00  0.00     0.172 C 
BRANCH   7   8
ATOM      8  C   UNL A   1      30.568  29.009  22.395  1.00  0.00     0.051 C 
BRANCH   8   9
ATOM      9  C   UNL A   1      29.460  29.579  23.287  1.00  0.00     0.139 C 
BRANCH   9  10
ATOM     10  S   UNL A   1      27.999  30.234  22.515  1.00  0.00     0.147 S 
ATOM     11  C   UNL A   1      27.988  31.971  22.866  1.00  0.00     0.158 C 
ATOM     12  O   UNL A   1      26.871  29.660  23.222  1.00  0.00    -0.229 OA
ATOM     13  O   UNL A   1      28.133  30.069  21.079  1.00  0.00    -0.229 OA
ENDBRANCH   9  10
ENDBRANCH   8   9
ENDBRANCH   7   8
BRANCH   7  14
ATOM     14  N   UNL A   1      32.108  27.091  21.835  1.00  0.00    -0.344 N 
ATOM     15  C   UNL A   1      33.078  26.136  21.851  1.00  0.00     0.226 C 
ATOM     16  H   UNL A   1      31.737  27.275  20.942  1.00  0.00     0.164 HD
ATOM     17  O   UNL A   1      33.242  25.481  20.822  1.00  0.00    -0.275 OA
BRANCH  15  18
ATOM     18  C   UNL A   1      33.967  25.958  23.060  1.00  0.00     0.155 C 
BRANCH  18  19
ATOM     19  C   UNL A   1      33.877  24.577  23.619  1.00  0.00     0.044 A 
ATOM     20  C   UNL A   1      34.795  23.825  24.323  1.00  0.00     0.045 A 
ATOM     21  N   UNL A   1      32.763  23.784  23.528  1.00  0.00    -0.282 N 
ATOM     22  C   UNL A   1      34.181  22.571  24.490  1.00  0.00     0.135 A 
ATOM     23  N   UNL A   1      32.954  22.535  23.971  1.00  0.00    -0.184 NA
ATOM     24  H   UNL A   1      31.903  24.105  23.171  1.00  0.00     0.190 HD
ENDBRANCH  18  19
ENDBRANCH  15  18
ENDBRANCH   7  14
ENDBRANCH   4   7
ENDBRANCH   2   3
ENDBRANCH   1   2
BRANCH   1  25
ATOM     25  C   UNL A   1      34.025  28.745  25.888  1.00  0.00     0.118 C 
BRANCH  25  26
ATOM     26  N   UNL A   1      33.792  30.082  26.424  1.00  0.00    -0.352 N 
ATOM     27  C   UNL A   1      34.472  30.728  27.428  1.00  0.00     0.251 C 
ATOM     28  H   UNL A   1      33.053  30.586  26.013  1.00  0.00     0.163 HD
ATOM     29  O   UNL A   1      34.041  31.772  27.903  1.00  0.00    -0.269 OA
BRANCH  27  30
ATOM     30  C   UNL A   1      35.713  30.114  27.931  1.00  0.00     0.039 A 
ATOM     31  C   UNL A   1      36.903  30.297  27.227  1.00  0.00     0.014 A 
ATOM     32  C   UNL A   1      35.700  29.451  29.161  1.00  0.00     0.014 A 
ATOM     33  C   UNL A   1      38.101  29.880  27.805  1.00  0.00     0.010 A 
ATOM     34  C   UNL A   1      36.900  29.146  29.781  1.00  0.00     0.010 A 
ATOM     35  C   UNL A   1      38.113  29.348  29.107  1.00  0.00    -0.014 A 
BRANCH  35  36
ATOM     36  C   UNL A   1      39.379  28.979  29.785  1.00  0.00     0.031 A 
ATOM     37  C   UNL A   1      39.808  29.730  31.016  1.00  0.00     0.074 A 
ATOM     38  C   UNL A   1      40.171  28.028  29.254  1.00  0.00     0.049 A 
ATOM     39  N   UNL A   1      40.905  29.612  31.716  1.00  0.00    -0.248 NA
ATOM     40  C   UNL A   1      38.896  30.779  31.503  1.00  0.00     0.031 C 
ATOM     41  C   UNL A   1      39.884  27.266  28.037  1.00  0.00     0.029 A 
ATOM     42  N   UNL A   1      41.383  27.538  29.671  1.00  0.00    -0.354 N 
ATOM     43  C   UNL A   1      40.821  30.576  32.714  1.00  0.00     0.074 A 
ATOM     44  C   UNL A   1      39.607  31.323  32.478  1.00  0.00     0.031 C 
ATOM     45  C   UNL A   1      40.866  26.374  27.833  1.00  0.00     0.029 A 
ATOM     46  C   UNL A   1      41.875  26.532  28.875  1.00  0.00     0.049 A 
ATOM     47  H   UNL A   1      41.855  27.877  30.466  1.00  0.00     0.167 HD
ATOM     48  C   UNL A   1      41.660  30.796  33.752  1.00  0.00     0.037 A 
ATOM     49  C   UNL A   1      43.012  25.816  28.978  1.00  0.00     0.037 A 
ATOM     50  C   UNL A   1      42.859  30.035  33.984  1.00  0.00     0.049 A 
ATOM     51  C   UNL A   1      43.950  26.101  30.120  1.00  0.00     0.074 A 
ATOM     52  C   UNL A   1      43.758  30.142  35.029  1.00  0.00     0.029 A 
ATOM     53  N   UNL A   1      43.330  29.031  33.150  1.00  0.00    -0.354 N 
ATOM     54  N   UNL A   1      43.824  26.972  31.093  1.00  0.00    -0.248 NA
ATOM     55  C   UNL A   1      45.182  25.304  30.178  1.00  0.00     0.031 C 
ATOM     56  C   UNL A   1      44.802  29.238  34.799  1.00  0.00     0.029 A 
ATOM     57  C   UNL A   1      44.523  28.526  33.642  1.00  0.00     0.049 A 
ATOM     58  H   UNL A   1      42.883  28.722  32.329  1.00  0.00     0.167 HD
ATOM     59  C   UNL A   1      44.946  26.806  31.899  1.00  0.00     0.074 A 
ATOM     60  C   UNL A   1      45.734  25.746  31.301  1.00  0.00     0.031 C 
ATOM     61  C   UNL A   1      45.291  27.467  33.032  1.00  0.00     0.037 A 
BRANCH  48  62
ATOM     62  C   UNL A   1      41.300  31.907  34.704  1.00  0.00     0.058 A 
ATOM     63  C   UNL A   1      40.470  31.686  35.817  1.00  0.00     0.135 A 
ATOM     64  C   UNL A   1      41.769  33.213  34.490  1.00  0.00     0.135 A 
ATOM     65  F   UNL A   1      39.978  30.461  36.063  1.00  0.00    -0.206 F 
ATOM     66  C   UNL A   1      40.072  32.729  36.647  1.00  0.00     0.059 A 
ATOM     67  C   UNL A   1      41.413  34.264  35.330  1.00  0.00     0.059 A 
ATOM     68  F   UNL A   1      42.567  33.482  33.445  1.00  0.00    -0.206 F 
ATOM     69  C   UNL A   1      40.543  34.016  36.390  1.00  0.00     0.060 A 
BRANCH  69  70
ATOM     70  S   UNL A   1      39.983  35.364  37.451  1.00  0.00     0.124 S 
ATOM     71  O   UNL A   1      41.097  35.475  38.389  1.00  0.00    -0.237 OA
ATOM     72  O   UNL A   1      39.839  36.466  36.506  1.00  0.00    -0.237 OA
ATOM     73  O   UNL A   1      38.737  34.858  38.017  1.00  0.00    -0.744 OA
ENDBRANCH  69  70
ENDBRANCH  48  62
BRANCH  49  74
ATOM     74  C   UNL A   1      43.296  24.729  28.003  1.00  0.00     0.058 A 
ATOM     75  C   UNL A   1      43.982  25.002  26.811  1.00  0.00     0.135 A 
ATOM     76  C   UNL A   1      42.923  23.400  28.252  1.00  0.00     0.135 A 
ATOM     77  F   UNL A   1      44.355  26.259  26.524  1.00  0.00    -0.206 F 
ATOM     78  C   UNL A   1      44.280  23.999  25.894  1.00  0.00     0.059 A 
ATOM     79  C   UNL A   1      43.233  22.374  27.364  1.00  0.00     0.059 A 
ATOM     80  F   UNL A   1      42.280  23.082  29.388  1.00  0.00    -0.206 F 
ATOM     81  C   UNL A   1      43.907  22.686  26.183  1.00  0.00     0.060 A 
BRANCH  81  82
ATOM     82  S   UNL A   1      44.358  21.385  25.015  1.00  0.00     0.124 S 
ATOM     83  O   UNL A   1      44.229  22.078  23.738  1.00  0.00    -0.237 OA
ATOM     84  O   UNL A   1      45.719  21.062  25.432  1.00  0.00    -0.237 OA
ATOM     85  O   UNL A   1      43.368  20.344  25.272  1.00  0.00    -0.744 OA
ENDBRANCH  81  82
ENDBRANCH  49  74
BRANCH  61  86
ATOM     86  C   UNL A   1      46.556  27.041  33.724  1.00  0.00     0.058 A 
ATOM     87  C   UNL A   1      47.789  27.658  33.459  1.00  0.00     0.135 A 
ATOM     88  C   UNL A   1      46.522  26.041  34.711  1.00  0.00     0.135 A 
ATOM     89  F   UNL A   1      47.878  28.613  32.521  1.00  0.00    -0.206 F 
ATOM     90  C   UNL A   1      48.947  27.283  34.133  1.00  0.00     0.059 A 
ATOM     91  C   UNL A   1      47.661  25.673  35.418  1.00  0.00     0.059 A 
ATOM     92  F   UNL A   1      45.367  25.426  35.011  1.00  0.00    -0.206 F 
ATOM     93  C   UNL A   1      48.872  26.293  35.115  1.00  0.00     0.060 A 
BRANCH  93  94
ATOM     94  S   UNL A   1      50.375  25.850  36.012  1.00  0.00     0.124 S 
ATOM     95  O   UNL A   1      50.364  26.821  37.101  1.00  0.00    -0.237 OA
ATOM     96  O   UNL A   1      50.111  24.466  36.393  1.00  0.00    -0.237 OA
ATOM     97  O   UNL A   1      51.429  26.031  35.019  1.00  0.00    -0.744 OA
ENDBRANCH  93  94
ENDBRANCH  61  86
ENDBRANCH  35  36
ENDBRANCH  27  30
ENDBRANCH  25  26
ENDBRANCH   1  25
TORSDOF 19
ENDMDL
MODEL 2
REMARK VINA RESULT:     -10.8      2.351      3.072
REMARK SMILES CS(=O)(=O)CC[C@H](NC(=O)Cc1ccn[nH]1)C(=O)NCCCNC(=O)c1ccc(-c2c3nc(c(-c4c(F)cc(S(=O)(=O)[O-])cc4F)c4ccc([nH]4)c(-c4c(F)cc(S(=O)(=O)[O-])cc4F)c4nc(c(-c5c(F)cc(S(=O)(=O)[O-])cc5F)c5ccc2[nH]5)C=C4)C=C3)cc1
REMARK SMILES IDX 21 1 20 2 19 3 17 4 18 5 7 7 6 8 5 9 2 10 1 11 3 12 4 13
REMARK SMILES IDX 8 14 9 15 10 17 11 18 12 19 13 20 16 21 14 22 15 23 22 25
REMARK SMILES IDX 23 26 24 27 25 29 26 30 27 31 91 32 28 33 90 34 29 35 30 36
REMARK SMILES IDX 31 37 84 38 32 39 89 40 83 41 85 42 33 43 88 44 82 45 81 46
REMARK SMILES IDX 34 48 68 49 47 50 67 51 48 52 51 53 66 54 86 55 49 56 50 57
REMARK SMILES IDX 65 59 87 60 52 61 35 62 36 63 45 64 37 65 38 66 44 67 46 68
REMARK SMILES IDX 39 69 40 70 41 71 42 72 43 73 69 74 70 75 79 76 71 77 72 78
REMARK SMILES IDX 78 79 80 80 73 81 74 82 75 83 76 84 77 85 53 86 54 87 63 88
REMARK SMILES IDX 55 89 56 90 62 91 64 92 57 93 58 94 59 95 60 96 61 97
REMARK H PARENT 19 6 8 16 16 24 23 28 85 47 51 58
REMARK Flexibility Score: inf
ROOT
ATOM      1  C   UNL A   1      32.885  28.111  25.972  1.00  0.00     0.042 C 
ENDROOT
BRANCH   1   2
ATOM      2  C   UNL A   1      31.426  27.775  26.202  1.00  0.00     0.117 C 
BRANCH   2   3
ATOM      3  N   UNL A   1      31.040  26.603  25.426  1.00  0.00    -0.354 N 
ATOM      4  C   UNL A   1      30.789  26.451  24.101  1.00  0.00     0.242 C 
ATOM      5  O   UNL A   1      30.384  25.356  23.711  1.00  0.00    -0.273 OA
ATOM      6  H   UNL A   1      30.945  25.778  25.955  1.00  0.00     0.163 HD
BRANCH   4   7
ATOM      7  C   UNL A   1      31.035  27.597  23.117  1.00  0.00     0.172 C 
BRANCH   7   8
ATOM      8  C   UNL A   1      29.781  28.406  22.713  1.00  0.00     0.051 C 
BRANCH   8   9
ATOM      9  C   UNL A   1      29.637  29.879  23.108  1.00  0.00     0.139 C 
BRANCH   9  10
ATOM     10  S   UNL A   1      28.092  30.698  22.788  1.00  0.00     0.147 S 
ATOM     11  C   UNL A   1      28.020  30.960  21.038  1.00  0.00     0.158 C 
ATOM     12  O   UNL A   1      28.189  32.009  23.401  1.00  0.00    -0.229 OA
ATOM     13  O   UNL A   1      27.016  29.793  23.149  1.00  0.00    -0.229 OA
ENDBRANCH   9  10
ENDBRANCH   8   9
ENDBRANCH   7   8
BRANCH   7  14
ATOM     14  N   UNL A   1      31.720  26.975  21.967  1.00  0.00    -0.344 N 
ATOM     15  C   UNL A   1      32.904  26.312  21.871  1.00  0.00     0.226 C 
ATOM     16  H   UNL A   1      31.232  27.055  21.116  1.00  0.00     0.164 HD
ATOM     17  O   UNL A   1      33.140  25.725  20.814  1.00  0.00    -0.275 OA
BRANCH  15  18
ATOM     18  C   UNL A   1      33.918  26.374  22.991  1.00  0.00     0.155 C 
BRANCH  18  19
ATOM     19  C   UNL A   1      33.987  25.092  23.751  1.00  0.00     0.044 A 
ATOM     20  C   UNL A   1      34.743  24.729  24.847  1.00  0.00     0.045 A 
ATOM     21  N   UNL A   1      33.228  23.987  23.462  1.00  0.00    -0.282 N 
ATOM     22  C   UNL A   1      34.456  23.368  25.049  1.00  0.00     0.135 A 
ATOM     23  N   UNL A   1      33.558  22.905  24.180  1.00  0.00    -0.184 NA
ATOM     24  H   UNL A   1      32.508  23.991  22.792  1.00  0.00     0.190 HD
ENDBRANCH  18  19
ENDBRANCH  15  18
ENDBRANCH   7  14
ENDBRANCH   4   7
ENDBRANCH   2   3
ENDBRANCH   1   2
BRANCH   1  25
ATOM     25  C   UNL A   1      33.612  28.430  27.269  1.00  0.00     0.118 C 
BRANCH  25  26
ATOM     26  N   UNL A   1      33.595  29.854  27.587  1.00  0.00    -0.352 N 
ATOM     27  C   UNL A   1      34.587  30.610  28.166  1.00  0.00     0.251 C 
ATOM     28  H   UNL A   1      32.767  30.336  27.358  1.00  0.00     0.163 HD
ATOM     29  O   UNL A   1      34.359  31.750  28.550  1.00  0.00    -0.269 OA
BRANCH  27  30
ATOM     30  C   UNL A   1      35.916  29.997  28.335  1.00  0.00     0.039 A 
ATOM     31  C   UNL A   1      36.848  30.086  27.302  1.00  0.00     0.014 A 
ATOM     32  C   UNL A   1      36.259  29.433  29.566  1.00  0.00     0.014 A 
ATOM     33  C   UNL A   1      38.160  29.677  27.538  1.00  0.00     0.010 A 
ATOM     34  C   UNL A   1      37.586  29.139  29.833  1.00  0.00     0.010 A 
ATOM     35  C   UNL A   1      38.549  29.248  28.819  1.00  0.00    -0.014 A 
BRANCH  35  36
ATOM     36  C   UNL A   1      39.955  28.893  29.127  1.00  0.00     0.031 A 
ATOM     37  C   UNL A   1      40.843  29.898  29.808  1.00  0.00     0.074 A 
ATOM     38  C   UNL A   1      40.448  27.704  28.729  1.00  0.00     0.049 A 
ATOM     39  N   UNL A   1      42.113  29.813  30.103  1.00  0.00    -0.248 NA
ATOM     40  C   UNL A   1      40.228  31.185  30.173  1.00  0.00     0.031 C 
ATOM     41  C   UNL A   1      39.697  26.668  28.017  1.00  0.00     0.029 A 
ATOM     42  N   UNL A   1      41.702  27.165  28.867  1.00  0.00    -0.354 N 
ATOM     43  C   UNL A   1      42.449  31.035  30.674  1.00  0.00     0.074 A 
ATOM     44  C   UNL A   1      41.272  31.871  30.608  1.00  0.00     0.031 C 
ATOM     45  C   UNL A   1      40.489  25.602  27.824  1.00  0.00     0.029 A 
ATOM     46  C   UNL A   1      41.817  25.895  28.354  1.00  0.00     0.049 A 
ATOM     47  H   UNL A   1      42.450  27.644  29.293  1.00  0.00     0.167 HD
ATOM     48  C   UNL A   1      43.621  31.414  31.236  1.00  0.00     0.037 A 
ATOM     49  C   UNL A   1      42.875  25.062  28.318  1.00  0.00     0.037 A 
ATOM     50  C   UNL A   1      44.781  30.567  31.308  1.00  0.00     0.049 A 
ATOM     51  C   UNL A   1      44.179  25.516  28.915  1.00  0.00     0.074 A 
ATOM     52  C   UNL A   1      46.006  30.831  31.894  1.00  0.00     0.029 A 
ATOM     53  N   UNL A   1      44.863  29.291  30.768  1.00  0.00    -0.354 N 
ATOM     54  N   UNL A   1      44.463  26.650  29.510  1.00  0.00    -0.248 NA
ATOM     55  C   UNL A   1      45.305  24.577  28.837  1.00  0.00     0.031 C 
ATOM     56  C   UNL A   1      46.845  29.736  31.662  1.00  0.00     0.029 A 
ATOM     57  C   UNL A   1      46.126  28.764  30.983  1.00  0.00     0.049 A 
ATOM     58  H   UNL A   1      44.130  28.828  30.300  1.00  0.00     0.167 HD
ATOM     59  C   UNL A   1      45.792  26.548  29.907  1.00  0.00     0.074 A 
ATOM     60  C   UNL A   1      46.252  25.238  29.490  1.00  0.00     0.031 C 
ATOM     61  C   UNL A   1      46.562  27.454  30.562  1.00  0.00     0.037 A 
BRANCH  48  62
ATOM     62  C   UNL A   1      43.692  32.806  31.806  1.00  0.00     0.058 A 
ATOM     63  C   UNL A   1      43.270  33.090  33.117  1.00  0.00     0.135 A 
ATOM     64  C   UNL A   1      44.163  33.875  31.027  1.00  0.00     0.135 A 
ATOM     65  F   UNL A   1      42.794  32.110  33.902  1.00  0.00    -0.206 F 
ATOM     66  C   UNL A   1      43.259  34.390  33.613  1.00  0.00     0.059 A 
ATOM     67  C   UNL A   1      44.195  35.178  31.517  1.00  0.00     0.059 A 
ATOM     68  F   UNL A   1      44.581  33.664  29.770  1.00  0.00    -0.206 F 
ATOM     69  C   UNL A   1      43.716  35.428  32.802  1.00  0.00     0.060 A 
BRANCH  69  70
ATOM     70  S   UNL A   1      43.655  37.113  33.446  1.00  0.00     0.124 S 
ATOM     71  O   UNL A   1      42.431  37.074  34.242  1.00  0.00    -0.237 OA
ATOM     72  O   UNL A   1      44.900  37.203  34.202  1.00  0.00    -0.237 OA
ATOM     73  O   UNL A   1      43.593  37.936  32.242  1.00  0.00    -0.744 OA
ENDBRANCH  69  70
ENDBRANCH  48  62
BRANCH  49  74
ATOM     74  C   UNL A   1      42.726  23.697  27.744  1.00  0.00     0.058 A 
ATOM     75  C   UNL A   1      42.475  22.597  28.578  1.00  0.00     0.135 A 
ATOM     76  C   UNL A   1      42.799  23.466  26.363  1.00  0.00     0.135 A 
ATOM     77  F   UNL A   1      42.403  22.767  29.908  1.00  0.00    -0.206 F 
ATOM     78  C   UNL A   1      42.310  21.316  28.065  1.00  0.00     0.059 A 
ATOM     79  C   UNL A   1      42.612  22.197  25.822  1.00  0.00     0.059 A 
ATOM     80  F   UNL A   1      43.021  24.488  25.520  1.00  0.00    -0.206 F 
ATOM     81  C   UNL A   1      42.373  21.126  26.684  1.00  0.00     0.060 A 
BRANCH  81  82
ATOM     82  S   UNL A   1      42.092  19.468  26.028  1.00  0.00     0.124 S 
ATOM     83  O   UNL A   1      42.897  19.491  24.811  1.00  0.00    -0.237 OA
ATOM     84  O   UNL A   1      42.592  18.625  27.109  1.00  0.00    -0.237 OA
ATOM     85  O   UNL A   1      40.646  19.426  25.828  1.00  0.00    -0.744 OA
ENDBRANCH  81  82
ENDBRANCH  49  74
BRANCH  61  86
ATOM     86  C   UNL A   1      47.970  27.049  30.902  1.00  0.00     0.058 A 
ATOM     87  C   UNL A   1      48.274  26.338  32.073  1.00  0.00     0.135 A 
ATOM     88  C   UNL A   1      49.021  27.326  30.011  1.00  0.00     0.135 A 
ATOM     89  F   UNL A   1      47.309  26.054  32.960  1.00  0.00    -0.206 F 
ATOM     90  C   UNL A   1      49.574  25.934  32.359  1.00  0.00     0.059 A 
ATOM     91  C   UNL A   1      50.322  26.905  30.263  1.00  0.00     0.059 A 
ATOM     92  F   UNL A   1      48.784  27.995  28.871  1.00  0.00    -0.206 F 
ATOM     93  C   UNL A   1      50.591  26.217  31.445  1.00  0.00     0.060 A 
BRANCH  93  94
ATOM     94  S   UNL A   1      52.264  25.648  31.809  1.00  0.00     0.124 S 
ATOM     95  O   UNL A   1      52.951  25.929  30.553  1.00  0.00    -0.237 OA
ATOM     96  O   UNL A   1      52.640  26.491  32.940  1.00  0.00    -0.237 OA
ATOM     97  O   UNL A   1      52.082  24.234  32.122  1.00  0.00    -0.744 OA
ENDBRANCH  93  94
ENDBRANCH  61  86
ENDBRANCH  35  36
ENDBRANCH  27  30
ENDBRANCH  25  26
ENDBRANCH   1  25
TORSDOF 19
ENDMDL
MODEL 3
REMARK VINA RESULT:     -10.6      2.770      3.669
REMARK SMILES CS(=O)(=O)CC[C@H](NC(=O)Cc1ccn[nH]1)C(=O)NCCCNC(=O)c1ccc(-c2c3nc(c(-c4c(F)cc(S(=O)(=O)[O-])cc4F)c4ccc([nH]4)c(-c4c(F)cc(S(=O)(=O)[O-])cc4F)c4nc(c(-c5c(F)cc(S(=O)(=O)[O-])cc5F)c5ccc2[nH]5)C=C4)C=C3)cc1
REMARK SMILES IDX 21 1 20 2 19 3 17 4 18 5 7 7 6 8 5 9 2 10 1 11 3 12 4 13
REMARK SMILES IDX 8 14 9 15 10 17 11 18 12 19 13 20 16 21 14 22 15 23 22 25
REMARK SMILES IDX 23 26 24 27 25 29 26 30 27 31 91 32 28 33 90 34 29 35 30 36
REMARK SMILES IDX 31 37 84 38 32 39 89 40 83 41 85 42 33 43 88 44 82 45 81 46
REMARK SMILES IDX 34 48 68 49 47 50 67 51 48 52 51 53 66 54 86 55 49 56 50 57
REMARK SMILES IDX 65 59 87 60 52 61 35 62 36 63 45 64 37 65 38 66 44 67 46 68
REMARK SMILES IDX 39 69 40 70 41 71 42 72 43 73 69 74 70 75 79 76 71 77 72 78
REMARK SMILES IDX 78 79 80 80 73 81 74 82 75 83 76 84 77 85 53 86 54 87 63 88
REMARK SMILES IDX 55 89 56 90 62 91 64 92 57 93 58 94 59 95 60 96 61 97
REMARK H PARENT 19 6 8 16 16 24 23 28 85 47 51 58
REMARK Flexibility Score: inf
ROOT
ATOM      1  C   UNL A   1      33.919  28.248  25.772  1.00  0.00     0.042 C 
ENDROOT
BRANCH   1   2
ATOM      2  C   UNL A   1      33.512  26.871  25.288  1.00  0.00     0.117 C 
BRANCH   2   3
ATOM      3  N   UNL A   1      32.535  26.278  26.192  1.00  0.00    -0.354 N 
ATOM      4  C   UNL A   1      31.545  25.376  25.972  1.00  0.00     0.242 C 
ATOM      5  O   UNL A   1      30.789  25.107  26.905  1.00  0.00    -0.273 OA
ATOM      6  H   UNL A   1      32.605  26.584  27.125  1.00  0.00     0.163 HD
BRANCH   4   7
ATOM      7  C   UNL A   1      31.395  24.688  24.613  1.00  0.00     0.172 C 
BRANCH   7   8
ATOM      8  C   UNL A   1      30.277  25.251  23.704  1.00  0.00     0.051 C 
BRANCH   8   9
ATOM      9  C   UNL A   1      29.654  26.623  23.984  1.00  0.00     0.139 C 
BRANCH   9  10
ATOM     10  S   UNL A   1      30.372  28.056  23.216  1.00  0.00     0.147 S 
ATOM     11  C   UNL A   1      31.802  27.486  22.338  1.00  0.00     0.158 C 
ATOM     12  O   UNL A   1      30.854  28.898  24.292  1.00  0.00    -0.229 OA
ATOM     13  O   UNL A   1      29.426  28.570  22.242  1.00  0.00    -0.229 OA
ENDBRANCH   9  10
ENDBRANCH   8   9
ENDBRANCH   7   8
BRANCH   7  14
ATOM     14  N   UNL A   1      31.224  23.256  24.924  1.00  0.00    -0.344 N 
ATOM     15  C   UNL A   1      32.049  22.188  24.748  1.00  0.00     0.226 C 
ATOM     16  H   UNL A   1      30.356  23.033  25.332  1.00  0.00     0.164 HD
ATOM     17  O   UNL A   1      31.722  21.128  25.281  1.00  0.00    -0.275 OA
BRANCH  15  18
ATOM     18  C   UNL A   1      33.268  22.291  23.859  1.00  0.00     0.155 C 
BRANCH  18  19
ATOM     19  C   UNL A   1      34.521  22.463  24.651  1.00  0.00     0.044 A 
ATOM     20  C   UNL A   1      35.371  23.542  24.775  1.00  0.00     0.045 A 
ATOM     21  N   UNL A   1      35.053  21.496  25.463  1.00  0.00    -0.282 N 
ATOM     22  C   UNL A   1      36.432  23.077  25.572  1.00  0.00     0.135 A 
ATOM     23  N   UNL A   1      36.255  21.814  25.962  1.00  0.00    -0.184 NA
ATOM     24  H   UNL A   1      34.595  20.648  25.661  1.00  0.00     0.190 HD
ENDBRANCH  18  19
ENDBRANCH  15  18
ENDBRANCH   7  14
ENDBRANCH   4   7
ENDBRANCH   2   3
ENDBRANCH   1   2
BRANCH   1  25
ATOM     25  C   UNL A   1      33.535  28.484  27.224  1.00  0.00     0.118 C 
BRANCH  25  26
ATOM     26  N   UNL A   1      33.502  29.900  27.574  1.00  0.00    -0.352 N 
ATOM     27  C   UNL A   1      34.486  30.653  28.170  1.00  0.00     0.251 C 
ATOM     28  H   UNL A   1      32.669  30.377  27.356  1.00  0.00     0.163 HD
ATOM     29  O   UNL A   1      34.246  31.782  28.579  1.00  0.00    -0.269 OA
BRANCH  27  30
ATOM     30  C   UNL A   1      35.822  30.051  28.324  1.00  0.00     0.039 A 
ATOM     31  C   UNL A   1      36.740  30.143  27.279  1.00  0.00     0.014 A 
ATOM     32  C   UNL A   1      36.184  29.494  29.553  1.00  0.00     0.014 A 
ATOM     33  C   UNL A   1      38.058  29.745  27.501  1.00  0.00     0.010 A 
ATOM     34  C   UNL A   1      37.517  29.211  29.804  1.00  0.00     0.010 A 
ATOM     35  C   UNL A   1      38.466  29.324  28.779  1.00  0.00    -0.014 A 
BRANCH  35  36
ATOM     36  C   UNL A   1      39.879  28.981  29.070  1.00  0.00     0.031 A 
ATOM     37  C   UNL A   1      40.770  29.998  29.729  1.00  0.00     0.074 A 
ATOM     38  C   UNL A   1      40.374  27.790  28.678  1.00  0.00     0.049 A 
ATOM     39  N   UNL A   1      42.045  29.924  30.007  1.00  0.00    -0.248 NA
ATOM     40  C   UNL A   1      40.151  31.285  30.089  1.00  0.00     0.031 C 
ATOM     41  C   UNL A   1      39.619  26.743  27.987  1.00  0.00     0.029 A 
ATOM     42  N   UNL A   1      41.633  27.261  28.803  1.00  0.00    -0.354 N 
ATOM     43  C   UNL A   1      42.381  31.154  30.561  1.00  0.00     0.074 A 
ATOM     44  C   UNL A   1      41.198  31.982  30.502  1.00  0.00     0.031 C 
ATOM     45  C   UNL A   1      40.416  25.680  27.794  1.00  0.00     0.029 A 
ATOM     46  C   UNL A   1      41.749  25.987  28.302  1.00  0.00     0.049 A 
ATOM     47  H   UNL A   1      42.384  27.749  29.214  1.00  0.00     0.167 HD
ATOM     48  C   UNL A   1      43.558  31.546  31.102  1.00  0.00     0.037 A 
ATOM     49  C   UNL A   1      42.811  25.159  28.260  1.00  0.00     0.037 A 
ATOM     50  C   UNL A   1      44.724  30.707  31.167  1.00  0.00     0.049 A 
ATOM     51  C   UNL A   1      44.121  25.628  28.834  1.00  0.00     0.074 A 
ATOM     52  C   UNL A   1      45.955  30.985  31.733  1.00  0.00     0.029 A 
ATOM     53  N   UNL A   1      44.806  29.426  30.638  1.00  0.00    -0.354 N 
ATOM     54  N   UNL A   1      44.406  26.770  29.413  1.00  0.00    -0.248 NA
ATOM     55  C   UNL A   1      45.252  24.695  28.750  1.00  0.00     0.031 C 
ATOM     56  C   UNL A   1      46.798  29.892  31.500  1.00  0.00     0.029 A 
ATOM     57  C   UNL A   1      46.075  28.909  30.841  1.00  0.00     0.049 A 
ATOM     58  H   UNL A   1      44.070  28.953  30.186  1.00  0.00     0.167 HD
ATOM     59  C   UNL A   1      45.741  26.680  29.793  1.00  0.00     0.074 A 
ATOM     60  C   UNL A   1      46.203  25.369  29.382  1.00  0.00     0.031 C 
ATOM     61  C   UNL A   1      46.514  27.598  30.427  1.00  0.00     0.037 A 
BRANCH  48  62
ATOM     62  C   UNL A   1      43.628  32.945  31.657  1.00  0.00     0.058 A 
ATOM     63  C   UNL A   1      44.012  34.037  30.860  1.00  0.00     0.135 A 
ATOM     64  C   UNL A   1      43.332  33.195  33.006  1.00  0.00     0.135 A 
ATOM     65  F   UNL A   1      44.322  33.856  29.565  1.00  0.00    -0.206 F 
ATOM     66  C   UNL A   1      44.156  35.314  31.393  1.00  0.00     0.059 A 
ATOM     67  C   UNL A   1      43.434  34.471  33.552  1.00  0.00     0.059 A 
ATOM     68  F   UNL A   1      42.958  32.191  33.814  1.00  0.00    -0.206 F 
ATOM     69  C   UNL A   1      43.872  35.519  32.744  1.00  0.00     0.060 A 
BRANCH  69  70
ATOM     70  S   UNL A   1      44.105  37.171  33.430  1.00  0.00     0.124 S 
ATOM     71  O   UNL A   1      44.514  37.921  32.246  1.00  0.00    -0.237 OA
ATOM     72  O   UNL A   1      42.778  37.483  33.950  1.00  0.00    -0.237 OA
ATOM     73  O   UNL A   1      45.142  36.978  34.438  1.00  0.00    -0.744 OA
ENDBRANCH  69  70
ENDBRANCH  48  62
BRANCH  49  74
ATOM     74  C   UNL A   1      42.664  23.788  27.702  1.00  0.00     0.058 A 
ATOM     75  C   UNL A   1      42.440  22.694  28.551  1.00  0.00     0.135 A 
ATOM     76  C   UNL A   1      42.710  23.545  26.321  1.00  0.00     0.135 A 
ATOM     77  F   UNL A   1      42.394  22.875  29.880  1.00  0.00    -0.206 F 
ATOM     78  C   UNL A   1      42.276  21.406  28.054  1.00  0.00     0.059 A 
ATOM     79  C   UNL A   1      42.522  22.269  25.797  1.00  0.00     0.059 A 
ATOM     80  F   UNL A   1      42.904  24.560  25.465  1.00  0.00    -0.206 F 
ATOM     81  C   UNL A   1      42.313  21.204  26.673  1.00  0.00     0.060 A 
BRANCH  81  82
ATOM     82  S   UNL A   1      42.033  19.537  26.039  1.00  0.00     0.124 S 
ATOM     83  O   UNL A   1      42.852  19.539  24.831  1.00  0.00    -0.237 OA
ATOM     84  O   UNL A   1      42.518  18.709  27.138  1.00  0.00    -0.237 OA
ATOM     85  O   UNL A   1      40.589  19.497  25.823  1.00  0.00    -0.744 OA
ENDBRANCH  81  82
ENDBRANCH  49  74
BRANCH  61  86
ATOM     86  C   UNL A   1      47.930  27.205  30.751  1.00  0.00     0.058 A 
ATOM     87  C   UNL A   1      48.239  26.402  31.860  1.00  0.00     0.135 A 
ATOM     88  C   UNL A   1      48.982  27.590  29.905  1.00  0.00     0.135 A 
ATOM     89  F   UNL A   1      47.273  26.014  32.705  1.00  0.00    -0.206 F 
ATOM     90  C   UNL A   1      49.548  26.012  32.129  1.00  0.00     0.059 A 
ATOM     91  C   UNL A   1      50.292  27.185  30.138  1.00  0.00     0.059 A 
ATOM     92  F   UNL A   1      48.740  28.350  28.825  1.00  0.00    -0.206 F 
ATOM     93  C   UNL A   1      50.567  26.404  31.259  1.00  0.00     0.060 A 
BRANCH  93  94
ATOM     94  S   UNL A   1      52.252  25.853  31.597  1.00  0.00     0.124 S 
ATOM     95  O   UNL A   1      52.025  24.497  32.085  1.00  0.00    -0.237 OA
ATOM     96  O   UNL A   1      52.882  25.957  30.284  1.00  0.00    -0.237 OA
ATOM     97  O   UNL A   1      52.729  26.807  32.593  1.00  0.00    -0.744 OA
ENDBRANCH  93  94
ENDBRANCH  61  86
ENDBRANCH  35  36
ENDBRANCH  27  30
ENDBRANCH  25  26
ENDBRANCH   1  25
TORSDOF 19
ENDMDL
