MODEL 1
REMARK VINA RESULT:     -11.9      0.000      0.000
REMARK SMILES Cc1c(C[C@@H](C)O)c(=O)oc2cc(OCC(=O)NCCCNC(=O)c3ccc(-c4c5nc(c(-c6c(F)cc(S(=O)(=O)[O-])cc6F)c6ccc([nH]6)c(-c6c(F)cc(S(=O)(=O)[O-])cc6F)c6nc(c(-c7c(F)cc(S(=O)(=O)[O-])cc7F)c7ccc4[nH]7)C=C6)C=C5)cc3)ccc12
REMARK SMILES IDX 19 1 18 2 16 3 17 4 15 6 14 7 13 8 1 9 2 10 3 11 93 12 8 13
REMARK SMILES IDX 11 14 92 15 9 16 10 17 12 18 91 19 4 20 5 21 6 22 7 23 20 25
REMARK SMILES IDX 21 26 22 27 23 28 24 30 25 31 26 32 90 33 27 34 89 35 28 36
REMARK SMILES IDX 29 37 30 38 83 39 31 40 88 41 82 42 84 43 32 44 87 45 81 46
REMARK SMILES IDX 80 47 33 49 67 50 46 51 66 52 47 53 50 54 65 55 85 56 48 57
REMARK SMILES IDX 49 58 64 60 86 61 51 62 34 63 35 64 44 65 36 66 37 67 43 68
REMARK SMILES IDX 45 69 38 70 39 71 40 72 41 73 42 74 68 75 69 76 78 77 70 78
REMARK SMILES IDX 71 79 77 80 79 81 72 82 73 83 74 84 75 85 76 86 52 87 53 88
REMARK SMILES IDX 62 89 54 90 55 91 61 92 63 93 56 94 57 95 58 96 59 97 60 98
REMARK H PARENT 18 5 7 24 22 29 84 48 50 59
REMARK Flexibility Score: inf
ROOT
ATOM      1  C   UNL A   1      43.008  21.633  26.086  1.00  0.00     0.117 C 
ENDROOT
BRANCH   1   2
ATOM      2  N   UNL A   1      43.152  20.193  25.991  1.00  0.00    -0.353 N 
ATOM      3  C   UNL A   1      42.186  19.235  26.095  1.00  0.00     0.257 C 
ATOM      4  O   UNL A   1      42.499  18.056  25.916  1.00  0.00    -0.271 OA
ATOM      5  H   UNL A   1      44.067  19.865  25.830  1.00  0.00     0.163 HD
BRANCH   3   6
ATOM      6  C   UNL A   1      40.738  19.643  26.376  1.00  0.00     0.329 C 
BRANCH   6   7
ATOM      7  O   UNL A   1      39.773  19.225  25.424  1.00  0.00    -0.484 OA
BRANCH   7   8
ATOM      8  C   UNL A   1      38.620  19.951  25.314  1.00  0.00     0.123 A 
ATOM      9  C   UNL A   1      35.435  24.054  25.114  1.00  0.00     0.046 C 
ATOM     10  C   UNL A   1      35.205  22.563  25.091  1.00  0.00    -0.030 A 
ATOM     11  C   UNL A   1      33.988  21.982  24.994  1.00  0.00     0.044 A 
ATOM     12  C   UNL A   1      36.399  21.706  25.193  1.00  0.00     0.021 A 
ATOM     13  C   UNL A   1      33.852  20.500  24.857  1.00  0.00     0.339 A 
ATOM     14  C   UNL A   1      36.272  20.343  24.954  1.00  0.00     0.142 A 
ATOM     15  C   UNL A   1      37.671  22.181  25.529  1.00  0.00     0.016 A 
ATOM     16  O   UNL A   1      32.757  19.950  24.815  1.00  0.00    -0.246 OA
ATOM     17  O   UNL A   1      35.017  19.766  24.708  1.00  0.00    -0.422 OA
ATOM     18  C   UNL A   1      37.361  19.465  24.984  1.00  0.00     0.094 A 
ATOM     19  C   UNL A   1      38.766  21.311  25.594  1.00  0.00     0.047 A 
BRANCH  11  20
ATOM     20  C   UNL A   1      32.670  22.728  24.957  1.00  0.00     0.075 C 
BRANCH  20  21
ATOM     21  C   UNL A   1      31.882  22.716  26.280  1.00  0.00     0.116 C 
ATOM     22  C   UNL A   1      31.325  24.075  26.695  1.00  0.00     0.038 C 
BRANCH  21  23
ATOM     23  O   UNL A   1      30.781  21.811  26.135  1.00  0.00    -0.393 OA
ATOM     24  H   UNL A   1      30.022  22.142  26.640  1.00  0.00     0.210 HD
ENDBRANCH  21  23
ENDBRANCH  20  21
ENDBRANCH  11  20
ENDBRANCH   7   8
ENDBRANCH   6   7
ENDBRANCH   3   6
ENDBRANCH   1   2
BRANCH   1  25
ATOM     25  C   UNL A   1      42.658  22.100  27.494  1.00  0.00     0.042 C 
BRANCH  25  26
ATOM     26  C   UNL A   1      41.676  23.267  27.546  1.00  0.00     0.118 C 
BRANCH  26  27
ATOM     27  N   UNL A   1      41.645  24.041  26.312  1.00  0.00    -0.352 N 
ATOM     28  C   UNL A   1      41.288  25.352  26.098  1.00  0.00     0.251 C 
ATOM     29  H   UNL A   1      41.921  23.549  25.504  1.00  0.00     0.163 HD
ATOM     30  O   UNL A   1      41.172  25.769  24.951  1.00  0.00    -0.269 OA
BRANCH  28  31
ATOM     31  C   UNL A   1      41.022  26.247  27.245  1.00  0.00     0.039 A 
ATOM     32  C   UNL A   1      39.940  25.973  28.087  1.00  0.00     0.014 A 
ATOM     33  C   UNL A   1      41.831  27.360  27.488  1.00  0.00     0.014 A 
ATOM     34  C   UNL A   1      39.717  26.767  29.215  1.00  0.00     0.010 A 
ATOM     35  C   UNL A   1      41.655  28.102  28.652  1.00  0.00     0.010 A 
ATOM     36  C   UNL A   1      40.597  27.814  29.530  1.00  0.00    -0.014 A 
BRANCH  36  37
ATOM     37  C   UNL A   1      40.436  28.638  30.756  1.00  0.00     0.031 A 
ATOM     38  C   UNL A   1      39.421  29.751  30.777  1.00  0.00     0.074 A 
ATOM     39  C   UNL A   1      41.254  28.448  31.811  1.00  0.00     0.049 A 
ATOM     40  N   UNL A   1      39.234  30.681  31.675  1.00  0.00    -0.248 NA
ATOM     41  C   UNL A   1      38.517  29.843  29.619  1.00  0.00     0.031 C 
ATOM     42  C   UNL A   1      42.292  27.419  31.906  1.00  0.00     0.029 A 
ATOM     43  N   UNL A   1      41.355  29.127  33.000  1.00  0.00    -0.354 N 
ATOM     44  C   UNL A   1      38.204  31.478  31.186  1.00  0.00     0.074 A 
ATOM     45  C   UNL A   1      37.846  30.954  29.887  1.00  0.00     0.031 C 
ATOM     46  C   UNL A   1      42.916  27.528  33.091  1.00  0.00     0.029 A 
ATOM     47  C   UNL A   1      42.360  28.664  33.820  1.00  0.00     0.049 A 
ATOM     48  H   UNL A   1      40.765  29.875  33.244  1.00  0.00     0.167 HD
ATOM     49  C   UNL A   1      37.599  32.536  31.774  1.00  0.00     0.037 A 
ATOM     50  C   UNL A   1      42.798  29.117  35.011  1.00  0.00     0.037 A 
ATOM     51  C   UNL A   1      37.945  33.038  33.079  1.00  0.00     0.049 A 
ATOM     52  C   UNL A   1      42.128  30.317  35.631  1.00  0.00     0.074 A 
ATOM     53  C   UNL A   1      37.370  34.087  33.776  1.00  0.00     0.029 A 
ATOM     54  N   UNL A   1      38.950  32.524  33.885  1.00  0.00    -0.354 N 
ATOM     55  N   UNL A   1      41.137  31.040  35.166  1.00  0.00    -0.248 NA
ATOM     56  C   UNL A   1      42.633  30.761  36.938  1.00  0.00     0.031 C 
ATOM     57  C   UNL A   1      38.056  34.235  34.985  1.00  0.00     0.029 A 
ATOM     58  C   UNL A   1      39.018  33.241  35.067  1.00  0.00     0.049 A 
ATOM     59  H   UNL A   1      39.528  31.762  33.651  1.00  0.00     0.167 HD
ATOM     60  C   UNL A   1      40.869  31.991  36.145  1.00  0.00     0.074 A 
ATOM     61  C   UNL A   1      41.803  31.755  37.225  1.00  0.00     0.031 C 
ATOM     62  C   UNL A   1      39.930  32.969  36.151  1.00  0.00     0.037 A 
BRANCH  49  63
ATOM     63  C   UNL A   1      36.489  33.219  31.022  1.00  0.00     0.058 A 
ATOM     64  C   UNL A   1      35.148  33.099  31.423  1.00  0.00     0.135 A 
ATOM     65  C   UNL A   1      36.772  34.049  29.924  1.00  0.00     0.135 A 
ATOM     66  F   UNL A   1      34.818  32.305  32.454  1.00  0.00    -0.206 F 
ATOM     67  C   UNL A   1      34.126  33.759  30.750  1.00  0.00     0.059 A 
ATOM     68  C   UNL A   1      35.768  34.744  29.257  1.00  0.00     0.059 A 
ATOM     69  F   UNL A   1      38.036  34.199  29.499  1.00  0.00    -0.206 F 
ATOM     70  C   UNL A   1      34.447  34.584  29.670  1.00  0.00     0.060 A 
BRANCH  70  71
ATOM     71  S   UNL A   1      33.109  35.454  28.829  1.00  0.00     0.124 S 
ATOM     72  O   UNL A   1      33.847  36.459  28.069  1.00  0.00    -0.237 OA
ATOM     73  O   UNL A   1      32.493  34.392  28.041  1.00  0.00    -0.237 OA
ATOM     74  O   UNL A   1      32.295  35.971  29.926  1.00  0.00    -0.744 OA
ENDBRANCH  70  71
ENDBRANCH  49  63
BRANCH  50  75
ATOM     75  C   UNL A   1      43.924  28.437  35.709  1.00  0.00     0.058 A 
ATOM     76  C   UNL A   1      45.254  28.814  35.471  1.00  0.00     0.135 A 
ATOM     77  C   UNL A   1      43.698  27.382  36.608  1.00  0.00     0.135 A 
ATOM     78  F   UNL A   1      45.523  29.812  34.616  1.00  0.00    -0.206 F 
ATOM     79  C   UNL A   1      46.320  28.150  36.068  1.00  0.00     0.059 A 
ATOM     80  C   UNL A   1      44.747  26.722  37.242  1.00  0.00     0.059 A 
ATOM     81  F   UNL A   1      42.444  26.991  36.888  1.00  0.00    -0.206 F 
ATOM     82  C   UNL A   1      46.056  27.103  36.951  1.00  0.00     0.060 A 
BRANCH  82  83
ATOM     83  S   UNL A   1      47.446  26.253  37.731  1.00  0.00     0.124 S 
ATOM     84  O   UNL A   1      47.347  26.730  39.104  1.00  0.00    -0.237 OA
ATOM     85  O   UNL A   1      47.107  24.850  37.514  1.00  0.00    -0.237 OA
ATOM     86  O   UNL A   1      48.599  26.737  36.976  1.00  0.00    -0.744 OA
ENDBRANCH  82  83
ENDBRANCH  50  75
BRANCH  62  87
ATOM     87  C   UNL A   1      39.803  33.815  37.388  1.00  0.00     0.058 A 
ATOM     88  C   UNL A   1      40.432  35.063  37.507  1.00  0.00     0.135 A 
ATOM     89  C   UNL A   1      38.969  33.398  38.440  1.00  0.00     0.135 A 
ATOM     90  F   UNL A   1      41.245  35.505  36.535  1.00  0.00    -0.206 F 
ATOM     91  C   UNL A   1      40.250  35.862  38.631  1.00  0.00     0.059 A 
ATOM     92  C   UNL A   1      38.750  34.194  39.558  1.00  0.00     0.059 A 
ATOM     93  F   UNL A   1      38.337  32.215  38.372  1.00  0.00    -0.206 F 
ATOM     94  C   UNL A   1      39.400  35.423  39.648  1.00  0.00     0.060 A 
BRANCH  94  95
ATOM     95  S   UNL A   1      39.129  36.497  41.072  1.00  0.00     0.124 S 
ATOM     96  O   UNL A   1      38.042  35.807  41.760  1.00  0.00    -0.237 OA
ATOM     97  O   UNL A   1      40.426  36.461  41.741  1.00  0.00    -0.237 OA
ATOM     98  O   UNL A   1      38.776  37.779  40.471  1.00  0.00    -0.744 OA
ENDBRANCH  94  95
ENDBRANCH  62  87
ENDBRANCH  36  37
ENDBRANCH  28  31
ENDBRANCH  26  27
ENDBRANCH  25  26
ENDBRANCH   1  25
TORSDOF 18
ENDMDL
MODEL 2
REMARK VINA RESULT:     -11.8      4.883     11.925
REMARK SMILES Cc1c(C[C@@H](C)O)c(=O)oc2cc(OCC(=O)NCCCNC(=O)c3ccc(-c4c5nc(c(-c6c(F)cc(S(=O)(=O)[O-])cc6F)c6ccc([nH]6)c(-c6c(F)cc(S(=O)(=O)[O-])cc6F)c6nc(c(-c7c(F)cc(S(=O)(=O)[O-])cc7F)c7ccc4[nH]7)C=C6)C=C5)cc3)ccc12
REMARK SMILES IDX 19 1 18 2 16 3 17 4 15 6 14 7 13 8 1 9 2 10 3 11 93 12 8 13
REMARK SMILES IDX 11 14 92 15 9 16 10 17 12 18 91 19 4 20 5 21 6 22 7 23 20 25
REMARK SMILES IDX 21 26 22 27 23 28 24 30 25 31 26 32 90 33 27 34 89 35 28 36
REMARK SMILES IDX 29 37 30 38 83 39 31 40 88 41 82 42 84 43 32 44 87 45 81 46
REMARK SMILES IDX 80 47 33 49 67 50 46 51 66 52 47 53 50 54 65 55 85 56 48 57
REMARK SMILES IDX 49 58 64 60 86 61 51 62 34 63 35 64 44 65 36 66 37 67 43 68
REMARK SMILES IDX 45 69 38 70 39 71 40 72 41 73 42 74 68 75 69 76 78 77 70 78
REMARK SMILES IDX 71 79 77 80 79 81 72 82 73 83 74 84 75 85 76 86 52 87 53 88
REMARK SMILES IDX 62 89 54 90 55 91 61 92 63 93 56 94 57 95 58 96 59 97 60 98
REMARK H PARENT 18 5 7 24 22 29 84 48 50 59
REMARK Flexibility Score: inf
ROOT
ATOM      1  C   UNL A   1      35.579  33.820  30.368  1.00  0.00     0.117 C 
ENDROOT
BRANCH   1   2
ATOM      2  N   UNL A   1      35.137  34.929  31.192  1.00  0.00    -0.353 N 
ATOM      3  C   UNL A   1      35.246  35.078  32.544  1.00  0.00     0.257 C 
ATOM      4  O   UNL A   1      34.867  36.132  33.057  1.00  0.00    -0.271 OA
ATOM      5  H   UNL A   1      34.701  35.670  30.713  1.00  0.00     0.163 HD
BRANCH   3   6
ATOM      6  C   UNL A   1      35.880  33.964  33.383  1.00  0.00     0.329 C 
BRANCH   6   7
ATOM      7  O   UNL A   1      37.185  34.218  33.877  1.00  0.00    -0.484 OA
BRANCH   7   8
ATOM      8  C   UNL A   1      38.040  33.160  34.012  1.00  0.00     0.123 A 
ATOM      9  C   UNL A   1      42.087  30.330  35.631  1.00  0.00     0.046 C 
ATOM     10  C   UNL A   1      40.988  30.084  34.629  1.00  0.00    -0.030 A 
ATOM     11  C   UNL A   1      40.855  28.948  33.907  1.00  0.00     0.044 A 
ATOM     12  C   UNL A   1      40.014  31.172  34.431  1.00  0.00     0.021 A 
ATOM     13  C   UNL A   1      39.671  28.732  33.022  1.00  0.00     0.339 A 
ATOM     14  C   UNL A   1      38.863  30.920  33.695  1.00  0.00     0.142 A 
ATOM     15  C   UNL A   1      40.179  32.465  34.938  1.00  0.00     0.016 A 
ATOM     16  O   UNL A   1      39.555  27.730  32.325  1.00  0.00    -0.246 OA
ATOM     17  O   UNL A   1      38.663  29.681  33.067  1.00  0.00    -0.422 OA
ATOM     18  C   UNL A   1      37.865  31.880  33.498  1.00  0.00     0.094 A 
ATOM     19  C   UNL A   1      39.205  33.448  34.724  1.00  0.00     0.047 A 
BRANCH  11  20
ATOM     20  C   UNL A   1      41.816  27.777  33.947  1.00  0.00     0.075 C 
BRANCH  20  21
ATOM     21  C   UNL A   1      43.067  27.937  33.062  1.00  0.00     0.116 C 
ATOM     22  C   UNL A   1      44.238  27.042  33.457  1.00  0.00     0.038 C 
BRANCH  21  23
ATOM     23  O   UNL A   1      42.702  27.620  31.714  1.00  0.00    -0.393 OA
ATOM     24  H   UNL A   1      42.040  28.256  31.400  1.00  0.00     0.210 HD
ENDBRANCH  21  23
ENDBRANCH  20  21
ENDBRANCH  11  20
ENDBRANCH   7   8
ENDBRANCH   6   7
ENDBRANCH   3   6
ENDBRANCH   1   2
BRANCH   1  25
ATOM     25  C   UNL A   1      34.424  32.966  29.858  1.00  0.00     0.042 C 
BRANCH  25  26
ATOM     26  C   UNL A   1      34.475  32.664  28.363  1.00  0.00     0.118 C 
BRANCH  26  27
ATOM     27  N   UNL A   1      33.876  31.381  28.020  1.00  0.00    -0.352 N 
ATOM     28  C   UNL A   1      34.457  30.141  27.882  1.00  0.00     0.251 C 
ATOM     29  H   UNL A   1      32.904  31.404  27.861  1.00  0.00     0.163 HD
ATOM     30  O   UNL A   1      33.801  29.212  27.425  1.00  0.00    -0.269 OA
BRANCH  28  31
ATOM     31  C   UNL A   1      35.871  29.936  28.263  1.00  0.00     0.039 A 
ATOM     32  C   UNL A   1      36.180  29.609  29.587  1.00  0.00     0.014 A 
ATOM     33  C   UNL A   1      36.894  30.074  27.321  1.00  0.00     0.014 A 
ATOM     34  C   UNL A   1      37.504  29.343  29.947  1.00  0.00     0.010 A 
ATOM     35  C   UNL A   1      38.199  29.733  27.663  1.00  0.00     0.010 A 
ATOM     36  C   UNL A   1      38.519  29.363  28.979  1.00  0.00    -0.014 A 
BRANCH  36  37
ATOM     37  C   UNL A   1      39.928  29.019  29.306  1.00  0.00     0.031 A 
ATOM     38  C   UNL A   1      40.822  30.059  29.930  1.00  0.00     0.074 A 
ATOM     39  C   UNL A   1      40.426  27.813  28.967  1.00  0.00     0.049 A 
ATOM     40  N   UNL A   1      42.111  30.018  30.144  1.00  0.00    -0.248 NA
ATOM     41  C   UNL A   1      40.184  31.320  30.340  1.00  0.00     0.031 C 
ATOM     42  C   UNL A   1      39.669  26.728  28.338  1.00  0.00     0.029 A 
ATOM     43  N   UNL A   1      41.696  27.303  29.083  1.00  0.00    -0.354 N 
ATOM     44  C   UNL A   1      42.441  31.251  30.698  1.00  0.00     0.074 A 
ATOM     45  C   UNL A   1      41.227  32.036  30.735  1.00  0.00     0.031 C 
ATOM     46  C   UNL A   1      40.484  25.680  28.135  1.00  0.00     0.029 A 
ATOM     47  C   UNL A   1      41.832  26.032  28.570  1.00  0.00     0.049 A 
ATOM     48  H   UNL A   1      42.439  27.799  29.495  1.00  0.00     0.167 HD
ATOM     49  C   UNL A   1      43.641  31.681  31.153  1.00  0.00     0.037 A 
ATOM     50  C   UNL A   1      42.922  25.250  28.445  1.00  0.00     0.037 A 
ATOM     51  C   UNL A   1      44.841  30.885  31.134  1.00  0.00     0.049 A 
ATOM     52  C   UNL A   1      44.254  25.765  28.930  1.00  0.00     0.074 A 
ATOM     53  C   UNL A   1      46.101  31.219  31.600  1.00  0.00     0.029 A 
ATOM     54  N   UNL A   1      44.929  29.596  30.631  1.00  0.00    -0.354 N 
ATOM     55  N   UNL A   1      44.541  26.922  29.478  1.00  0.00    -0.248 NA
ATOM     56  C   UNL A   1      45.409  24.867  28.785  1.00  0.00     0.031 C 
ATOM     57  C   UNL A   1      46.961  30.149  31.339  1.00  0.00     0.029 A 
ATOM     58  C   UNL A   1      46.224  29.125  30.765  1.00  0.00     0.049 A 
ATOM     59  H   UNL A   1      44.181  29.090  30.237  1.00  0.00     0.167 HD
ATOM     60  C   UNL A   1      45.897  26.871  29.786  1.00  0.00     0.074 A 
ATOM     61  C   UNL A   1      46.373  25.572  29.361  1.00  0.00     0.031 C 
ATOM     62  C   UNL A   1      46.675  27.814  30.372  1.00  0.00     0.037 A 
BRANCH  49  63
ATOM     63  C   UNL A   1      43.719  33.071  31.723  1.00  0.00     0.058 A 
ATOM     64  C   UNL A   1      43.626  33.304  33.105  1.00  0.00     0.135 A 
ATOM     65  C   UNL A   1      43.947  34.177  30.888  1.00  0.00     0.135 A 
ATOM     66  F   UNL A   1      43.392  32.286  33.949  1.00  0.00    -0.206 F 
ATOM     67  C   UNL A   1      43.736  34.584  33.637  1.00  0.00     0.059 A 
ATOM     68  C   UNL A   1      44.091  35.463  31.401  1.00  0.00     0.059 A 
ATOM     69  F   UNL A   1      44.043  34.012  29.559  1.00  0.00    -0.206 F 
ATOM     70  C   UNL A   1      43.973  35.657  32.775  1.00  0.00     0.060 A 
BRANCH  70  71
ATOM     71  S   UNL A   1      44.140  37.307  33.488  1.00  0.00     0.124 S 
ATOM     72  O   UNL A   1      42.932  37.962  32.993  1.00  0.00    -0.237 OA
ATOM     73  O   UNL A   1      44.166  37.027  34.920  1.00  0.00    -0.237 OA
ATOM     74  O   UNL A   1      45.395  37.797  32.924  1.00  0.00    -0.744 OA
ENDBRANCH  70  71
ENDBRANCH  49  63
BRANCH  50  75
ATOM     75  C   UNL A   1      42.812  23.893  27.842  1.00  0.00     0.058 A 
ATOM     76  C   UNL A   1      42.845  23.718  26.450  1.00  0.00     0.135 A 
ATOM     77  C   UNL A   1      42.648  22.749  28.638  1.00  0.00     0.135 A 
ATOM     78  F   UNL A   1      42.994  24.781  25.645  1.00  0.00    -0.206 F 
ATOM     79  C   UNL A   1      42.683  22.466  25.867  1.00  0.00     0.059 A 
ATOM     80  C   UNL A   1      42.515  21.481  28.079  1.00  0.00     0.059 A 
ATOM     81  F   UNL A   1      42.629  22.855  29.976  1.00  0.00    -0.206 F 
ATOM     82  C   UNL A   1      42.516  21.352  26.691  1.00  0.00     0.060 A 
BRANCH  82  83
ATOM     83  S   UNL A   1      42.318  19.728  25.927  1.00  0.00     0.124 S 
ATOM     84  O   UNL A   1      40.947  19.799  25.440  1.00  0.00    -0.237 OA
ATOM     85  O   UNL A   1      43.363  19.742  24.906  1.00  0.00    -0.237 OA
ATOM     86  O   UNL A   1      42.548  18.806  27.036  1.00  0.00    -0.744 OA
ENDBRANCH  82  83
ENDBRANCH  50  75
BRANCH  62  87
ATOM     87  C   UNL A   1      48.107  27.459  30.666  1.00  0.00     0.058 A 
ATOM     88  C   UNL A   1      48.474  26.712  31.794  1.00  0.00     0.135 A 
ATOM     89  C   UNL A   1      49.118  27.809  29.753  1.00  0.00     0.135 A 
ATOM     90  F   UNL A   1      47.551  26.359  32.701  1.00  0.00    -0.206 F 
ATOM     91  C   UNL A   1      49.796  26.335  32.015  1.00  0.00     0.059 A 
ATOM     92  C   UNL A   1      50.438  27.418  29.939  1.00  0.00     0.059 A 
ATOM     93  F   UNL A   1      48.817  28.517  28.653  1.00  0.00    -0.206 F 
ATOM     94  C   UNL A   1      50.769  26.686  31.078  1.00  0.00     0.060 A 
BRANCH  94  95
ATOM     95  S   UNL A   1      52.468  26.140  31.349  1.00  0.00     0.124 S 
ATOM     96  O   UNL A   1      52.994  27.216  32.183  1.00  0.00    -0.237 OA
ATOM     97  O   UNL A   1      52.280  24.856  32.017  1.00  0.00    -0.237 OA
ATOM     98  O   UNL A   1      53.021  26.063  30.001  1.00  0.00    -0.744 OA
ENDBRANCH  94  95
ENDBRANCH  62  87
ENDBRANCH  36  37
ENDBRANCH  28  31
ENDBRANCH  26  27
ENDBRANCH  25  26
ENDBRANCH   1  25
TORSDOF 18
ENDMDL
MODEL 3
REMARK VINA RESULT:     -11.8      5.115     10.481
REMARK SMILES Cc1c(C[C@@H](C)O)c(=O)oc2cc(OCC(=O)NCCCNC(=O)c3ccc(-c4c5nc(c(-c6c(F)cc(S(=O)(=O)[O-])cc6F)c6ccc([nH]6)c(-c6c(F)cc(S(=O)(=O)[O-])cc6F)c6nc(c(-c7c(F)cc(S(=O)(=O)[O-])cc7F)c7ccc4[nH]7)C=C6)C=C5)cc3)ccc12
REMARK SMILES IDX 19 1 18 2 16 3 17 4 15 6 14 7 13 8 1 9 2 10 3 11 93 12 8 13
REMARK SMILES IDX 11 14 92 15 9 16 10 17 12 18 91 19 4 20 5 21 6 22 7 23 20 25
REMARK SMILES IDX 21 26 22 27 23 28 24 30 25 31 26 32 90 33 27 34 89 35 28 36
REMARK SMILES IDX 29 37 30 38 83 39 31 40 88 41 82 42 84 43 32 44 87 45 81 46
REMARK SMILES IDX 80 47 33 49 67 50 46 51 66 52 47 53 50 54 65 55 85 56 48 57
REMARK SMILES IDX 49 58 64 60 86 61 51 62 34 63 35 64 44 65 36 66 37 67 43 68
REMARK SMILES IDX 45 69 38 70 39 71 40 72 41 73 42 74 68 75 69 76 78 77 70 78
REMARK SMILES IDX 71 79 77 80 79 81 72 82 73 83 74 84 75 85 76 86 52 87 53 88
REMARK SMILES IDX 62 89 54 90 55 91 61 92 63 93 56 94 57 95 58 96 59 97 60 98
REMARK H PARENT 18 5 7 24 22 29 84 48 50 59
REMARK Flexibility Score: inf
ROOT
ATOM      1  C   UNL A   1      32.256  29.464  25.026  1.00  0.00     0.117 C 
ENDROOT
BRANCH   1   2
ATOM      2  N   UNL A   1      31.904  29.326  23.625  1.00  0.00    -0.353 N 
ATOM      3  C   UNL A   1      30.718  28.926  23.084  1.00  0.00     0.257 C 
ATOM      4  O   UNL A   1      30.592  28.937  21.858  1.00  0.00    -0.271 OA
ATOM      5  H   UNL A   1      32.615  29.551  22.982  1.00  0.00     0.163 HD
BRANCH   3   6
ATOM      6  C   UNL A   1      29.561  28.523  24.002  1.00  0.00     0.329 C 
BRANCH   6   7
ATOM      7  O   UNL A   1      29.074  27.199  23.852  1.00  0.00    -0.484 OA
BRANCH   7   8
ATOM      8  C   UNL A   1      29.918  26.165  24.144  1.00  0.00     0.123 A 
ATOM      9  C   UNL A   1      33.209  22.204  23.443  1.00  0.00     0.046 C 
ATOM     10  C   UNL A   1      32.566  22.811  24.664  1.00  0.00    -0.030 A 
ATOM     11  C   UNL A   1      32.772  22.377  25.929  1.00  0.00     0.044 A 
ATOM     12  C   UNL A   1      31.649  23.941  24.439  1.00  0.00     0.021 A 
ATOM     13  C   UNL A   1      32.192  23.106  27.097  1.00  0.00     0.339 A 
ATOM     14  C   UNL A   1      31.206  24.678  25.532  1.00  0.00     0.142 A 
ATOM     15  C   UNL A   1      31.180  24.323  23.178  1.00  0.00     0.016 A 
ATOM     16  O   UNL A   1      32.329  22.704  28.247  1.00  0.00    -0.246 OA
ATOM     17  O   UNL A   1      31.547  24.305  26.840  1.00  0.00    -0.422 OA
ATOM     18  C   UNL A   1      30.373  25.794  25.404  1.00  0.00     0.094 A 
ATOM     19  C   UNL A   1      30.320  25.419  23.035  1.00  0.00     0.047 A 
BRANCH  11  20
ATOM     20  C   UNL A   1      33.626  21.184  26.308  1.00  0.00     0.075 C 
BRANCH  20  21
ATOM     21  C   UNL A   1      35.118  21.499  26.525  1.00  0.00     0.116 C 
ATOM     22  C   UNL A   1      36.025  21.080  25.372  1.00  0.00     0.038 C 
BRANCH  21  23
ATOM     23  O   UNL A   1      35.254  22.912  26.707  1.00  0.00    -0.393 OA
ATOM     24  H   UNL A   1      36.191  23.158  26.646  1.00  0.00     0.210 HD
ENDBRANCH  21  23
ENDBRANCH  20  21
ENDBRANCH  11  20
ENDBRANCH   7   8
ENDBRANCH   6   7
ENDBRANCH   3   6
ENDBRANCH   1   2
BRANCH   1  25
ATOM     25  C   UNL A   1      33.025  28.263  25.563  1.00  0.00     0.042 C 
BRANCH  25  26
ATOM     26  C   UNL A   1      33.620  28.465  26.954  1.00  0.00     0.118 C 
BRANCH  26  27
ATOM     27  N   UNL A   1      33.535  29.844  27.415  1.00  0.00    -0.352 N 
ATOM     28  C   UNL A   1      34.451  30.604  28.106  1.00  0.00     0.251 C 
ATOM     29  H   UNL A   1      32.691  30.304  27.201  1.00  0.00     0.163 HD
ATOM     30  O   UNL A   1      34.120  31.699  28.546  1.00  0.00    -0.269 OA
BRANCH  28  31
ATOM     31  C   UNL A   1      35.820  30.093  28.335  1.00  0.00     0.039 A 
ATOM     32  C   UNL A   1      36.747  30.135  27.289  1.00  0.00     0.014 A 
ATOM     33  C   UNL A   1      36.190  29.565  29.575  1.00  0.00     0.014 A 
ATOM     34  C   UNL A   1      38.064  29.722  27.510  1.00  0.00     0.010 A 
ATOM     35  C   UNL A   1      37.518  29.228  29.814  1.00  0.00     0.010 A 
ATOM     36  C   UNL A   1      38.471  29.303  28.785  1.00  0.00    -0.014 A 
BRANCH  36  37
ATOM     37  C   UNL A   1      39.877  28.921  29.078  1.00  0.00     0.031 A 
ATOM     38  C   UNL A   1      40.823  29.946  29.647  1.00  0.00     0.074 A 
ATOM     39  C   UNL A   1      40.326  27.691  28.755  1.00  0.00     0.049 A 
ATOM     40  N   UNL A   1      42.116  29.870  29.823  1.00  0.00    -0.248 NA
ATOM     41  C   UNL A   1      40.238  31.237  30.044  1.00  0.00     0.031 C 
ATOM     42  C   UNL A   1      39.516  26.616  28.178  1.00  0.00     0.029 A 
ATOM     43  N   UNL A   1      41.582  27.143  28.846  1.00  0.00    -0.354 N 
ATOM     44  C   UNL A   1      42.502  31.104  30.334  1.00  0.00     0.074 A 
ATOM     45  C   UNL A   1      41.315  31.929  30.389  1.00  0.00     0.031 C 
ATOM     46  C   UNL A   1      40.291  25.538  27.978  1.00  0.00     0.029 A 
ATOM     47  C   UNL A   1      41.662  25.857  28.362  1.00  0.00     0.049 A 
ATOM     48  H   UNL A   1      42.353  27.625  29.222  1.00  0.00     0.167 HD
ATOM     49  C   UNL A   1      43.728  31.506  30.741  1.00  0.00     0.037 A 
ATOM     50  C   UNL A   1      42.723  25.037  28.224  1.00  0.00     0.037 A 
ATOM     51  C   UNL A   1      44.901  30.672  30.707  1.00  0.00     0.049 A 
ATOM     52  C   UNL A   1      44.084  25.520  28.655  1.00  0.00     0.074 A 
ATOM     53  C   UNL A   1      46.185  30.976  31.125  1.00  0.00     0.029 A 
ATOM     54  N   UNL A   1      44.934  29.368  30.235  1.00  0.00    -0.354 N 
ATOM     55  N   UNL A   1      44.425  26.681  29.163  1.00  0.00    -0.248 NA
ATOM     56  C   UNL A   1      45.205  24.582  28.498  1.00  0.00     0.031 C 
ATOM     57  C   UNL A   1      47.002  29.873  30.866  1.00  0.00     0.029 A 
ATOM     58  C   UNL A   1      46.216  28.859  30.342  1.00  0.00     0.049 A 
ATOM     59  H   UNL A   1      44.158  28.877  29.877  1.00  0.00     0.167 HD
ATOM     60  C   UNL A   1      45.787  26.593  29.431  1.00  0.00     0.074 A 
ATOM     61  C   UNL A   1      46.209  25.269  29.026  1.00  0.00     0.031 C 
ATOM     62  C   UNL A   1      46.613  27.524  29.969  1.00  0.00     0.037 A 
BRANCH  49  63
ATOM     63  C   UNL A   1      43.869  32.907  31.273  1.00  0.00     0.058 A 
ATOM     64  C   UNL A   1      44.002  34.009  30.412  1.00  0.00     0.135 A 
ATOM     65  C   UNL A   1      43.812  33.159  32.654  1.00  0.00     0.135 A 
ATOM     66  F   UNL A   1      44.078  33.825  29.084  1.00  0.00    -0.206 F 
ATOM     67  C   UNL A   1      44.094  35.307  30.901  1.00  0.00     0.059 A 
ATOM     68  C   UNL A   1      43.872  34.453  33.163  1.00  0.00     0.059 A 
ATOM     69  F   UNL A   1      43.687  32.143  33.522  1.00  0.00    -0.206 F 
ATOM     70  C   UNL A   1      44.023  35.519  32.279  1.00  0.00     0.060 A 
BRANCH  70  71
ATOM     71  S   UNL A   1      44.117  37.214  32.892  1.00  0.00     0.124 S 
ATOM     72  O   UNL A   1      44.092  37.976  31.646  1.00  0.00    -0.237 OA
ATOM     73  O   UNL A   1      42.919  37.314  33.718  1.00  0.00    -0.237 OA
ATOM     74  O   UNL A   1      45.383  37.244  33.619  1.00  0.00    -0.744 OA
ENDBRANCH  70  71
ENDBRANCH  49  63
BRANCH  50  75
ATOM     75  C   UNL A   1      42.551  23.670  27.659  1.00  0.00     0.058 A 
ATOM     76  C   UNL A   1      42.360  22.562  28.498  1.00  0.00     0.135 A 
ATOM     77  C   UNL A   1      42.599  23.438  26.276  1.00  0.00     0.135 A 
ATOM     78  F   UNL A   1      42.312  22.729  29.828  1.00  0.00    -0.206 F 
ATOM     79  C   UNL A   1      42.258  21.270  27.991  1.00  0.00     0.059 A 
ATOM     80  C   UNL A   1      42.469  22.159  25.742  1.00  0.00     0.059 A 
ATOM     81  F   UNL A   1      42.761  24.464  25.425  1.00  0.00    -0.206 F 
ATOM     82  C   UNL A   1      42.316  21.079  26.610  1.00  0.00     0.060 A 
BRANCH  82  83
ATOM     83  S   UNL A   1      42.172  19.400  25.959  1.00  0.00     0.124 S 
ATOM     84  O   UNL A   1      43.010  19.475  24.770  1.00  0.00    -0.237 OA
ATOM     85  O   UNL A   1      42.694  18.599  27.063  1.00  0.00    -0.237 OA
ATOM     86  O   UNL A   1      40.739  19.259  25.715  1.00  0.00    -0.744 OA
ENDBRANCH  82  83
ENDBRANCH  50  75
BRANCH  62  87
ATOM     87  C   UNL A   1      48.042  27.131  30.228  1.00  0.00     0.058 A 
ATOM     88  C   UNL A   1      49.071  27.420  29.321  1.00  0.00     0.135 A 
ATOM     89  C   UNL A   1      48.392  26.524  31.447  1.00  0.00     0.135 A 
ATOM     90  F   UNL A   1      48.791  27.991  28.139  1.00  0.00    -0.206 F 
ATOM     91  C   UNL A   1      50.397  27.109  29.606  1.00  0.00     0.059 A 
ATOM     92  C   UNL A   1      49.713  26.233  31.765  1.00  0.00     0.059 A 
ATOM     93  F   UNL A   1      47.445  26.235  32.353  1.00  0.00    -0.206 F 
ATOM     94  C   UNL A   1      50.709  26.523  30.835  1.00  0.00     0.060 A 
BRANCH  94  95
ATOM     95  S   UNL A   1      52.439  26.179  31.214  1.00  0.00     0.124 S 
ATOM     96  O   UNL A   1      52.789  27.318  32.056  1.00  0.00    -0.237 OA
ATOM     97  O   UNL A   1      52.360  24.889  31.893  1.00  0.00    -0.237 OA
ATOM     98  O   UNL A   1      53.078  26.150  29.902  1.00  0.00    -0.744 OA
ENDBRANCH  94  95
ENDBRANCH  62  87
ENDBRANCH  36  37
ENDBRANCH  28  31
ENDBRANCH  26  27
ENDBRANCH  25  26
ENDBRANCH   1  25
TORSDOF 18
ENDMDL
