MODEL 1
REMARK VINA RESULT:     -12.0      0.000      0.000
REMARK SMILES C[C@H]1[C@@H](C(=O)NCCCNC(=O)c2ccc(-c3c4nc(c(-c5c(F)cc(S(=O)(=O)[O-])cc5F)c5ccc([nH]5)c(-c5c(F)cc(S(=O)(=O)[O-])cc5F)c5nc(c(-c6c(F)cc(S(=O)(=O)[O-])cc6F)c6ccc3[nH]6)C=C5)C=C4)cc2)CC[N@@H+]1CC(=O)NNC(=O)c1cccs1
REMARK SMILES IDX 7 1 6 2 4 3 5 4 3 6 1 7 2 8 81 9 79 10 80 11 82 13 83 14
REMARK SMILES IDX 84 15 85 16 86 18 87 19 88 21 89 22 90 23 93 24 91 25 92 26
REMARK SMILES IDX 8 27 9 28 10 29 11 30 12 32 13 33 14 34 78 35 15 36 77 37
REMARK SMILES IDX 16 38 17 39 18 40 71 41 19 42 76 43 70 44 72 45 20 46 75 47
REMARK SMILES IDX 69 48 68 49 21 51 55 52 34 53 54 54 35 55 38 56 53 57 73 58
REMARK SMILES IDX 36 59 37 60 52 62 74 63 39 64 22 65 23 66 32 67 24 68 25 69
REMARK SMILES IDX 31 70 33 71 26 72 27 73 28 74 29 75 30 76 56 77 57 78 66 79
REMARK SMILES IDX 58 80 59 81 65 82 67 83 60 84 61 85 62 86 63 87 64 88 40 89
REMARK SMILES IDX 41 90 50 91 42 92 43 93 49 94 51 95 44 96 45 97 46 98 47 99
REMARK SMILES IDX 48 100
REMARK H PARENT 6 5 81 12 85 17 86 20 10 31 72 50 38 61
REMARK Flexibility Score: inf
ROOT
ATOM      1  C   UNL A   1      37.932  23.301  26.066  1.00  0.00     0.117 C 
ENDROOT
BRANCH   1   2
ATOM      2  N   UNL A   1      37.639  23.355  24.644  1.00  0.00    -0.356 N 
ATOM      3  C   UNL A   1      36.479  23.163  23.961  1.00  0.00     0.229 C 
ATOM      4  O   UNL A   1      36.577  23.052  22.737  1.00  0.00    -0.275 OA
ATOM      5  H   UNL A   1      38.416  23.568  24.077  1.00  0.00     0.163 HD
BRANCH   3   6
ATOM      6  C   UNL A   1      35.130  23.206  24.675  1.00  0.00     0.142 C 
ATOM      7  C   UNL A   1      35.242  20.586  24.986  1.00  0.00     0.076 C 
ATOM      8  C   UNL A   1      34.540  21.910  25.266  1.00  0.00     0.194 C 
ATOM      9  N   UNL A   1      33.185  21.770  24.719  1.00  0.00    -0.324 N 
ATOM     10  C   UNL A   1      34.026  23.733  23.738  1.00  0.00     0.081 C 
ATOM     11  C   UNL A   1      33.134  22.534  23.480  1.00  0.00     0.263 C 
ATOM     12  H   UNL A   1      33.015  20.787  24.506  1.00  0.00     0.348 HD
BRANCH   9  13
ATOM     13  C   UNL A   1      32.069  21.945  25.655  1.00  0.00     0.365 C 
BRANCH  13  14
ATOM     14  C   UNL A   1      32.301  22.949  26.783  1.00  0.00     0.293 C 
ATOM     15  O   UNL A   1      32.852  22.620  27.838  1.00  0.00    -0.267 OA
ATOM     16  N   UNL A   1      31.919  24.259  26.644  1.00  0.00    -0.262 N 
ATOM     17  H   UNL A   1      32.190  24.884  27.354  1.00  0.00     0.191 HD
BRANCH  16  18
ATOM     18  N   UNL A   1      31.180  24.781  25.583  1.00  0.00    -0.263 N 
ATOM     19  C   UNL A   1      30.941  26.137  25.423  1.00  0.00     0.279 C 
ATOM     20  H   UNL A   1      30.809  24.158  24.917  1.00  0.00     0.191 HD
ATOM     21  O   UNL A   1      29.919  26.472  24.805  1.00  0.00    -0.266 OA
BRANCH  19  22
ATOM     22  C   UNL A   1      31.903  27.082  25.961  1.00  0.00     0.094 A 
ATOM     23  C   UNL A   1      31.861  27.802  27.144  1.00  0.00     0.026 A 
ATOM     24  S   UNL A   1      33.373  27.359  25.122  1.00  0.00    -0.139 S 
ATOM     25  C   UNL A   1      33.018  28.610  27.336  1.00  0.00     0.012 A 
ATOM     26  C   UNL A   1      33.922  28.462  26.309  1.00  0.00     0.065 A 
ENDBRANCH  19  22
ENDBRANCH  16  18
ENDBRANCH  13  14
ENDBRANCH   9  13
ENDBRANCH   3   6
ENDBRANCH   1   2
BRANCH   1  27
ATOM     27  C   UNL A   1      39.152  22.415  26.322  1.00  0.00     0.042 C 
BRANCH  27  28
ATOM     28  C   UNL A   1      40.295  23.110  27.048  1.00  0.00     0.118 C 
BRANCH  28  29
ATOM     29  N   UNL A   1      41.183  23.807  26.140  1.00  0.00    -0.352 N 
ATOM     30  C   UNL A   1      41.583  25.121  26.114  1.00  0.00     0.251 C 
ATOM     31  H   UNL A   1      41.561  23.246  25.423  1.00  0.00     0.163 HD
ATOM     32  O   UNL A   1      42.172  25.532  25.115  1.00  0.00    -0.269 OA
BRANCH  30  33
ATOM     33  C   UNL A   1      41.310  26.054  27.240  1.00  0.00     0.039 A 
ATOM     34  C   UNL A   1      42.174  27.139  27.425  1.00  0.00     0.014 A 
ATOM     35  C   UNL A   1      40.279  25.846  28.160  1.00  0.00     0.014 A 
ATOM     36  C   UNL A   1      41.987  28.018  28.498  1.00  0.00     0.010 A 
ATOM     37  C   UNL A   1      40.032  26.779  29.171  1.00  0.00     0.010 A 
ATOM     38  C   UNL A   1      40.900  27.860  29.372  1.00  0.00    -0.014 A 
BRANCH  38  39
ATOM     39  C   UNL A   1      40.697  28.786  30.523  1.00  0.00     0.031 A 
ATOM     40  C   UNL A   1      41.552  28.662  31.760  1.00  0.00     0.074 A 
ATOM     41  C   UNL A   1      39.728  29.721  30.473  1.00  0.00     0.049 A 
ATOM     42  N   UNL A   1      41.507  29.355  32.871  1.00  0.00    -0.248 NA
ATOM     43  C   UNL A   1      42.573  27.603  31.762  1.00  0.00     0.031 C 
ATOM     44  C   UNL A   1      38.793  29.913  29.362  1.00  0.00     0.029 A 
ATOM     45  N   UNL A   1      39.365  30.687  31.379  1.00  0.00    -0.354 N 
ATOM     46  C   UNL A   1      42.477  28.807  33.703  1.00  0.00     0.074 A 
ATOM     47  C   UNL A   1      43.054  27.686  32.993  1.00  0.00     0.031 C 
ATOM     48  C   UNL A   1      37.983  30.947  29.641  1.00  0.00     0.029 A 
ATOM     49  C   UNL A   1      38.318  31.474  30.960  1.00  0.00     0.049 A 
ATOM     50  H   UNL A   1      39.812  30.804  32.248  1.00  0.00     0.167 HD
ATOM     51  C   UNL A   1      42.875  29.213  34.934  1.00  0.00     0.037 A 
ATOM     52  C   UNL A   1      37.698  32.505  31.566  1.00  0.00     0.037 A 
ATOM     53  C   UNL A   1      42.326  30.350  35.626  1.00  0.00     0.049 A 
ATOM     54  C   UNL A   1      38.176  32.961  32.918  1.00  0.00     0.074 A 
ATOM     55  C   UNL A   1      42.698  30.876  36.851  1.00  0.00     0.029 A 
ATOM     56  N   UNL A   1      41.290  31.142  35.150  1.00  0.00    -0.354 N 
ATOM     57  N   UNL A   1      39.134  32.464  33.663  1.00  0.00    -0.248 NA
ATOM     58  C   UNL A   1      37.500  34.127  33.504  1.00  0.00     0.031 C 
ATOM     59  C   UNL A   1      41.866  31.966  37.131  1.00  0.00     0.029 A 
ATOM     60  C   UNL A   1      41.003  32.145  36.062  1.00  0.00     0.049 A 
ATOM     61  H   UNL A   1      40.828  31.010  34.292  1.00  0.00     0.167 HD
ATOM     62  C   UNL A   1      39.185  33.264  34.799  1.00  0.00     0.074 A 
ATOM     63  C   UNL A   1      38.177  34.290  34.633  1.00  0.00     0.031 C 
ATOM     64  C   UNL A   1      39.993  33.158  35.884  1.00  0.00     0.037 A 
BRANCH  51  65
ATOM     65  C   UNL A   1      43.970  28.427  35.603  1.00  0.00     0.058 A 
ATOM     66  C   UNL A   1      43.690  27.300  36.393  1.00  0.00     0.135 A 
ATOM     67  C   UNL A   1      45.317  28.792  35.442  1.00  0.00     0.135 A 
ATOM     68  F   UNL A   1      42.420  26.914  36.593  1.00  0.00    -0.206 F 
ATOM     69  C   UNL A   1      44.700  26.583  37.027  1.00  0.00     0.059 A 
ATOM     70  C   UNL A   1      46.347  28.073  36.044  1.00  0.00     0.059 A 
ATOM     71  F   UNL A   1      45.643  29.859  34.697  1.00  0.00    -0.206 F 
ATOM     72  C   UNL A   1      46.026  26.982  36.850  1.00  0.00     0.060 A 
BRANCH  72  73
ATOM     73  S   UNL A   1      47.326  26.048  37.686  1.00  0.00     0.124 S 
ATOM     74  O   UNL A   1      48.523  26.562  37.028  1.00  0.00    -0.237 OA
ATOM     75  O   UNL A   1      47.150  26.444  39.080  1.00  0.00    -0.237 OA
ATOM     76  O   UNL A   1      46.992  24.659  37.387  1.00  0.00    -0.744 OA
ENDBRANCH  72  73
ENDBRANCH  51  65
BRANCH  52  77
ATOM     77  C   UNL A   1      36.571  33.194  30.882  1.00  0.00     0.058 A 
ATOM     78  C   UNL A   1      35.244  32.984  31.283  1.00  0.00     0.135 A 
ATOM     79  C   UNL A   1      36.801  34.097  29.832  1.00  0.00     0.135 A 
ATOM     80  F   UNL A   1      34.973  32.125  32.278  1.00  0.00    -0.206 F 
ATOM     81  C   UNL A   1      34.183  33.636  30.664  1.00  0.00     0.059 A 
ATOM     82  C   UNL A   1      35.760  34.779  29.212  1.00  0.00     0.059 A 
ATOM     83  F   UNL A   1      38.055  34.345  29.422  1.00  0.00    -0.206 F 
ATOM     84  C   UNL A   1      34.451  34.536  29.632  1.00  0.00     0.060 A 
BRANCH  84  85
ATOM     85  S   UNL A   1      33.074  35.429  28.878  1.00  0.00     0.124 S 
ATOM     86  O   UNL A   1      32.336  35.878  30.053  1.00  0.00    -0.237 OA
ATOM     87  O   UNL A   1      33.760  36.470  28.118  1.00  0.00    -0.237 OA
ATOM     88  O   UNL A   1      32.415  34.408  28.070  1.00  0.00    -0.744 OA
ENDBRANCH  84  85
ENDBRANCH  52  77
BRANCH  64  89
ATOM     89  C   UNL A   1      39.831  34.189  36.966  1.00  0.00     0.058 A 
ATOM     90  C   UNL A   1      39.046  33.945  38.102  1.00  0.00     0.135 A 
ATOM     91  C   UNL A   1      40.493  35.424  36.877  1.00  0.00     0.135 A 
ATOM     92  F   UNL A   1      38.388  32.781  38.232  1.00  0.00    -0.206 F 
ATOM     93  C   UNL A   1      38.898  34.900  39.102  1.00  0.00     0.059 A 
ATOM     94  C   UNL A   1      40.380  36.385  37.877  1.00  0.00     0.059 A 
ATOM     95  F   UNL A   1      41.267  35.703  35.816  1.00  0.00    -0.206 F 
ATOM     96  C   UNL A   1      39.567  36.120  38.978  1.00  0.00     0.060 A 
BRANCH  96  97
ATOM     97  S   UNL A   1      39.379  37.349  40.287  1.00  0.00     0.124 S 
ATOM     98  O   UNL A   1      40.770  37.654  40.605  1.00  0.00    -0.237 OA
ATOM     99  O   UNL A   1      38.634  38.411  39.617  1.00  0.00    -0.237 OA
ATOM    100  O   UNL A   1      38.639  36.633  41.321  1.00  0.00    -0.744 OA
ENDBRANCH  96  97
ENDBRANCH  64  89
ENDBRANCH  38  39
ENDBRANCH  30  33
ENDBRANCH  28  29
ENDBRANCH  27  28
ENDBRANCH   1  27
TORSDOF 17
ENDMDL
MODEL 2
REMARK VINA RESULT:     -11.9      1.258      2.157
REMARK SMILES C[C@H]1[C@@H](C(=O)NCCCNC(=O)c2ccc(-c3c4nc(c(-c5c(F)cc(S(=O)(=O)[O-])cc5F)c5ccc([nH]5)c(-c5c(F)cc(S(=O)(=O)[O-])cc5F)c5nc(c(-c6c(F)cc(S(=O)(=O)[O-])cc6F)c6ccc3[nH]6)C=C5)C=C4)cc2)CC[N@@H+]1CC(=O)NNC(=O)c1cccs1
REMARK SMILES IDX 7 1 6 2 4 3 5 4 3 6 1 7 2 8 81 9 79 10 80 11 82 13 83 14
REMARK SMILES IDX 84 15 85 16 86 18 87 19 88 21 89 22 90 23 93 24 91 25 92 26
REMARK SMILES IDX 8 27 9 28 10 29 11 30 12 32 13 33 14 34 78 35 15 36 77 37
REMARK SMILES IDX 16 38 17 39 18 40 71 41 19 42 76 43 70 44 72 45 20 46 75 47
REMARK SMILES IDX 69 48 68 49 21 51 55 52 34 53 54 54 35 55 38 56 53 57 73 58
REMARK SMILES IDX 36 59 37 60 52 62 74 63 39 64 22 65 23 66 32 67 24 68 25 69
REMARK SMILES IDX 31 70 33 71 26 72 27 73 28 74 29 75 30 76 56 77 57 78 66 79
REMARK SMILES IDX 58 80 59 81 65 82 67 83 60 84 61 85 62 86 63 87 64 88 40 89
REMARK SMILES IDX 41 90 50 91 42 92 43 93 49 94 51 95 44 96 45 97 46 98 47 99
REMARK SMILES IDX 48 100
REMARK H PARENT 6 5 81 12 85 17 86 20 10 31 72 50 38 61
REMARK Flexibility Score: inf
ROOT
ATOM      1  C   UNL A   1      39.427  22.536  26.529  1.00  0.00     0.117 C 
ENDROOT
BRANCH   1   2
ATOM      2  N   UNL A   1      38.736  21.523  25.749  1.00  0.00    -0.356 N 
ATOM      3  C   UNL A   1      37.576  21.575  25.041  1.00  0.00     0.229 C 
ATOM      4  O   UNL A   1      37.118  20.495  24.662  1.00  0.00    -0.275 OA
ATOM      5  H   UNL A   1      39.186  20.648  25.730  1.00  0.00     0.163 HD
BRANCH   3   6
ATOM      6  C   UNL A   1      36.956  22.913  24.644  1.00  0.00     0.142 C 
ATOM      7  C   UNL A   1      35.122  22.585  26.516  1.00  0.00     0.076 C 
ATOM      8  C   UNL A   1      35.759  23.464  25.446  1.00  0.00     0.194 C 
ATOM      9  N   UNL A   1      34.695  23.753  24.477  1.00  0.00    -0.324 N 
ATOM     10  C   UNL A   1      36.454  22.879  23.188  1.00  0.00     0.081 C 
ATOM     11  C   UNL A   1      34.943  22.934  23.298  1.00  0.00     0.263 C 
ATOM     12  H   UNL A   1      33.798  23.483  24.882  1.00  0.00     0.348 HD
BRANCH   9  13
ATOM     13  C   UNL A   1      34.370  25.166  24.249  1.00  0.00     0.365 C 
BRANCH  13  14
ATOM     14  C   UNL A   1      33.471  25.454  23.048  1.00  0.00     0.293 C 
ATOM     15  O   UNL A   1      33.940  25.756  21.947  1.00  0.00    -0.267 OA
ATOM     16  N   UNL A   1      32.106  25.364  23.158  1.00  0.00    -0.262 N 
ATOM     17  H   UNL A   1      31.582  25.453  22.330  1.00  0.00     0.191 HD
BRANCH  16  18
ATOM     18  N   UNL A   1      31.399  25.159  24.342  1.00  0.00    -0.263 N 
ATOM     19  C   UNL A   1      30.736  26.177  25.011  1.00  0.00     0.279 C 
ATOM     20  H   UNL A   1      31.369  24.251  24.720  1.00  0.00     0.191 HD
ATOM     21  O   UNL A   1      30.579  26.051  26.236  1.00  0.00    -0.266 OA
BRANCH  19  22
ATOM     22  C   UNL A   1      30.245  27.309  24.248  1.00  0.00     0.094 A 
ATOM     23  C   UNL A   1      29.076  27.434  23.516  1.00  0.00     0.026 A 
ATOM     24  S   UNL A   1      31.131  28.777  24.252  1.00  0.00    -0.139 S 
ATOM     25  C   UNL A   1      28.933  28.724  22.927  1.00  0.00     0.012 A 
ATOM     26  C   UNL A   1      29.983  29.553  23.249  1.00  0.00     0.065 A 
ENDBRANCH  19  22
ENDBRANCH  16  18
ENDBRANCH  13  14
ENDBRANCH   9  13
ENDBRANCH   3   6
ENDBRANCH   1   2
BRANCH   1  27
ATOM     27  C   UNL A   1      40.642  21.928  27.229  1.00  0.00     0.042 C 
BRANCH  27  28
ATOM     28  C   UNL A   1      41.773  22.910  27.499  1.00  0.00     0.118 C 
BRANCH  28  29
ATOM     29  N   UNL A   1      42.067  23.741  26.349  1.00  0.00    -0.352 N 
ATOM     30  C   UNL A   1      41.920  25.094  26.163  1.00  0.00     0.251 C 
ATOM     31  H   UNL A   1      42.432  23.255  25.573  1.00  0.00     0.163 HD
ATOM     32  O   UNL A   1      42.034  25.543  25.023  1.00  0.00    -0.269 OA
BRANCH  30  33
ATOM     33  C   UNL A   1      41.611  26.019  27.286  1.00  0.00     0.039 A 
ATOM     34  C   UNL A   1      42.485  27.085  27.526  1.00  0.00     0.014 A 
ATOM     35  C   UNL A   1      40.534  25.819  28.155  1.00  0.00     0.014 A 
ATOM     36  C   UNL A   1      42.264  27.954  28.600  1.00  0.00     0.010 A 
ATOM     37  C   UNL A   1      40.257  26.744  29.165  1.00  0.00     0.010 A 
ATOM     38  C   UNL A   1      41.134  27.806  29.420  1.00  0.00    -0.014 A 
BRANCH  38  39
ATOM     39  C   UNL A   1      40.894  28.721  30.572  1.00  0.00     0.031 A 
ATOM     40  C   UNL A   1      41.729  28.606  31.824  1.00  0.00     0.074 A 
ATOM     41  C   UNL A   1      39.910  29.640  30.509  1.00  0.00     0.049 A 
ATOM     42  N   UNL A   1      41.652  29.291  32.937  1.00  0.00    -0.248 NA
ATOM     43  C   UNL A   1      42.769  27.565  31.838  1.00  0.00     0.031 C 
ATOM     44  C   UNL A   1      38.991  29.821  29.383  1.00  0.00     0.029 A 
ATOM     45  N   UNL A   1      39.513  30.594  31.414  1.00  0.00    -0.354 N 
ATOM     46  C   UNL A   1      42.616  28.756  33.784  1.00  0.00     0.074 A 
ATOM     47  C   UNL A   1      43.226  27.650  33.079  1.00  0.00     0.031 C 
ATOM     48  C   UNL A   1      38.158  30.839  29.653  1.00  0.00     0.029 A 
ATOM     49  C   UNL A   1      38.460  31.365  30.981  1.00  0.00     0.049 A 
ATOM     50  H   UNL A   1      39.943  30.714  32.292  1.00  0.00     0.167 HD
ATOM     51  C   UNL A   1      42.984  29.162  35.024  1.00  0.00     0.037 A 
ATOM     52  C   UNL A   1      37.811  32.381  31.581  1.00  0.00     0.037 A 
ATOM     53  C   UNL A   1      42.403  30.285  35.712  1.00  0.00     0.049 A 
ATOM     54  C   UNL A   1      38.256  32.838  32.944  1.00  0.00     0.074 A 
ATOM     55  C   UNL A   1      42.744  30.811  36.947  1.00  0.00     0.029 A 
ATOM     56  N   UNL A   1      41.363  31.061  35.222  1.00  0.00    -0.354 N 
ATOM     57  N   UNL A   1      39.210  32.353  33.704  1.00  0.00    -0.248 NA
ATOM     58  C   UNL A   1      37.549  33.988  33.524  1.00  0.00     0.031 C 
ATOM     59  C   UNL A   1      41.888  31.884  37.218  1.00  0.00     0.029 A 
ATOM     60  C   UNL A   1      41.041  32.054  36.134  1.00  0.00     0.049 A 
ATOM     61  H   UNL A   1      40.918  30.926  34.355  1.00  0.00     0.167 HD
ATOM     62  C   UNL A   1      39.226  33.147  34.845  1.00  0.00     0.074 A 
ATOM     63  C   UNL A   1      38.203  34.157  34.666  1.00  0.00     0.031 C 
ATOM     64  C   UNL A   1      40.016  33.050  35.943  1.00  0.00     0.037 A 
BRANCH  51  65
ATOM     65  C   UNL A   1      44.082  28.392  35.709  1.00  0.00     0.058 A 
ATOM     66  C   UNL A   1      45.436  28.709  35.513  1.00  0.00     0.135 A 
ATOM     67  C   UNL A   1      43.779  27.337  36.585  1.00  0.00     0.135 A 
ATOM     68  F   UNL A   1      45.784  29.699  34.675  1.00  0.00    -0.206 F 
ATOM     69  C   UNL A   1      46.451  27.986  36.131  1.00  0.00     0.059 A 
ATOM     70  C   UNL A   1      44.778  26.618  37.237  1.00  0.00     0.059 A 
ATOM     71  F   UNL A   1      42.502  26.992  36.812  1.00  0.00    -0.206 F 
ATOM     72  C   UNL A   1      46.112  26.939  36.988  1.00  0.00     0.060 A 
BRANCH  72  73
ATOM     73  S   UNL A   1      47.441  26.005  37.777  1.00  0.00     0.124 S 
ATOM     74  O   UNL A   1      47.221  24.669  37.230  1.00  0.00    -0.237 OA
ATOM     75  O   UNL A   1      48.635  26.695  37.301  1.00  0.00    -0.237 OA
ATOM     76  O   UNL A   1      47.162  26.154  39.201  1.00  0.00    -0.744 OA
ENDBRANCH  72  73
ENDBRANCH  51  65
BRANCH  52  77
ATOM     77  C   UNL A   1      36.684  33.054  30.881  1.00  0.00     0.058 A 
ATOM     78  C   UNL A   1      35.355  32.837  31.273  1.00  0.00     0.135 A 
ATOM     79  C   UNL A   1      36.916  33.947  29.823  1.00  0.00     0.135 A 
ATOM     80  F   UNL A   1      35.083  31.986  32.274  1.00  0.00    -0.206 F 
ATOM     81  C   UNL A   1      34.294  33.474  30.639  1.00  0.00     0.059 A 
ATOM     82  C   UNL A   1      35.874  34.614  29.188  1.00  0.00     0.059 A 
ATOM     83  F   UNL A   1      38.171  34.202  29.421  1.00  0.00    -0.206 F 
ATOM     84  C   UNL A   1      34.564  34.365  29.599  1.00  0.00     0.060 A 
BRANCH  84  85
ATOM     85  S   UNL A   1      33.186  35.240  28.824  1.00  0.00     0.124 S 
ATOM     86  O   UNL A   1      32.413  35.660  29.988  1.00  0.00    -0.237 OA
ATOM     87  O   UNL A   1      33.868  36.303  28.093  1.00  0.00    -0.237 OA
ATOM     88  O   UNL A   1      32.566  34.215  27.990  1.00  0.00    -0.744 OA
ENDBRANCH  84  85
ENDBRANCH  52  77
BRANCH  64  89
ATOM     89  C   UNL A   1      39.816  34.071  37.027  1.00  0.00     0.058 A 
ATOM     90  C   UNL A   1      40.314  35.378  36.907  1.00  0.00     0.135 A 
ATOM     91  C   UNL A   1      39.093  33.748  38.186  1.00  0.00     0.135 A 
ATOM     92  F   UNL A   1      41.016  35.736  35.820  1.00  0.00    -0.206 F 
ATOM     93  C   UNL A   1      40.127  36.321  37.911  1.00  0.00     0.059 A 
ATOM     94  C   UNL A   1      38.873  34.683  39.193  1.00  0.00     0.059 A 
ATOM     95  F   UNL A   1      38.586  32.515  38.346  1.00  0.00    -0.206 F 
ATOM     96  C   UNL A   1      39.408  35.963  39.053  1.00  0.00     0.060 A 
BRANCH  96  97
ATOM     97  S   UNL A   1      39.161  37.198  40.347  1.00  0.00     0.124 S 
ATOM     98  O   UNL A   1      38.676  38.338  39.574  1.00  0.00    -0.237 OA
ATOM     99  O   UNL A   1      38.177  36.555  41.213  1.00  0.00    -0.237 OA
ATOM    100  O   UNL A   1      40.491  37.352  40.927  1.00  0.00    -0.744 OA
ENDBRANCH  96  97
ENDBRANCH  64  89
ENDBRANCH  38  39
ENDBRANCH  30  33
ENDBRANCH  28  29
ENDBRANCH  27  28
ENDBRANCH   1  27
TORSDOF 17
ENDMDL
MODEL 3
REMARK VINA RESULT:     -11.8      6.615     12.073
REMARK SMILES C[C@H]1[C@@H](C(=O)NCCCNC(=O)c2ccc(-c3c4nc(c(-c5c(F)cc(S(=O)(=O)[O-])cc5F)c5ccc([nH]5)c(-c5c(F)cc(S(=O)(=O)[O-])cc5F)c5nc(c(-c6c(F)cc(S(=O)(=O)[O-])cc6F)c6ccc3[nH]6)C=C5)C=C4)cc2)CC[N@@H+]1CC(=O)NNC(=O)c1cccs1
REMARK SMILES IDX 7 1 6 2 4 3 5 4 3 6 1 7 2 8 81 9 79 10 80 11 82 13 83 14
REMARK SMILES IDX 84 15 85 16 86 18 87 19 88 21 89 22 90 23 93 24 91 25 92 26
REMARK SMILES IDX 8 27 9 28 10 29 11 30 12 32 13 33 14 34 78 35 15 36 77 37
REMARK SMILES IDX 16 38 17 39 18 40 71 41 19 42 76 43 70 44 72 45 20 46 75 47
REMARK SMILES IDX 69 48 68 49 21 51 55 52 34 53 54 54 35 55 38 56 53 57 73 58
REMARK SMILES IDX 36 59 37 60 52 62 74 63 39 64 22 65 23 66 32 67 24 68 25 69
REMARK SMILES IDX 31 70 33 71 26 72 27 73 28 74 29 75 30 76 56 77 57 78 66 79
REMARK SMILES IDX 58 80 59 81 65 82 67 83 60 84 61 85 62 86 63 87 64 88 40 89
REMARK SMILES IDX 41 90 50 91 42 92 43 93 49 94 51 95 44 96 45 97 46 98 47 99
REMARK SMILES IDX 48 100
REMARK H PARENT 6 5 81 12 85 17 86 20 10 31 72 50 38 61
REMARK Flexibility Score: inf
ROOT
ATOM      1  C   UNL A   1      33.355  28.606  27.410  1.00  0.00     0.117 C 
ENDROOT
BRANCH   1   2
ATOM      2  N   UNL A   1      32.508  29.571  26.730  1.00  0.00    -0.356 N 
ATOM      3  C   UNL A   1      31.815  29.488  25.562  1.00  0.00     0.229 C 
ATOM      4  O   UNL A   1      31.361  30.545  25.120  1.00  0.00    -0.275 OA
ATOM      5  H   UNL A   1      32.420  30.434  27.196  1.00  0.00     0.163 HD
BRANCH   3   6
ATOM      6  C   UNL A   1      31.524  28.136  24.914  1.00  0.00     0.142 C 
ATOM      7  C   UNL A   1      33.789  28.325  23.570  1.00  0.00     0.076 C 
ATOM      8  C   UNL A   1      32.564  27.508  23.964  1.00  0.00     0.194 C 
ATOM      9  N   UNL A   1      31.865  27.201  22.711  1.00  0.00    -0.324 N 
ATOM     10  C   UNL A   1      30.231  28.191  24.079  1.00  0.00     0.081 C 
ATOM     11  C   UNL A   1      30.695  28.065  22.641  1.00  0.00     0.263 C 
ATOM     12  H   UNL A   1      32.481  27.418  21.928  1.00  0.00     0.348 HD
BRANCH   9  13
ATOM     13  C   UNL A   1      31.665  25.782  22.393  1.00  0.00     0.365 C 
BRANCH  13  14
ATOM     14  C   UNL A   1      32.664  25.176  21.409  1.00  0.00     0.293 C 
ATOM     15  O   UNL A   1      33.240  25.868  20.564  1.00  0.00    -0.267 OA
ATOM     16  N   UNL A   1      32.965  23.839  21.452  1.00  0.00    -0.262 N 
ATOM     17  H   UNL A   1      33.693  23.523  20.869  1.00  0.00     0.191 HD
BRANCH  16  18
ATOM     18  N   UNL A   1      32.328  22.888  22.249  1.00  0.00    -0.263 N 
ATOM     19  C   UNL A   1      32.969  22.213  23.277  1.00  0.00     0.279 C 
ATOM     20  H   UNL A   1      31.381  22.687  22.074  1.00  0.00     0.191 HD
ATOM     21  O   UNL A   1      32.536  21.091  23.584  1.00  0.00    -0.266 OA
BRANCH  19  22
ATOM     22  C   UNL A   1      34.083  22.858  23.947  1.00  0.00     0.094 A 
ATOM     23  C   UNL A   1      35.443  22.701  23.739  1.00  0.00     0.026 A 
ATOM     24  S   UNL A   1      33.774  24.060  25.130  1.00  0.00    -0.139 S 
ATOM     25  C   UNL A   1      36.228  23.540  24.582  1.00  0.00     0.012 A 
ATOM     26  C   UNL A   1      35.444  24.333  25.389  1.00  0.00     0.065 A 
ENDBRANCH  19  22
ENDBRANCH  16  18
ENDBRANCH  13  14
ENDBRANCH   9  13
ENDBRANCH   3   6
ENDBRANCH   1   2
BRANCH   1  27
ATOM     27  C   UNL A   1      34.828  28.947  27.190  1.00  0.00     0.042 C 
BRANCH  27  28
ATOM     28  C   UNL A   1      35.236  30.329  27.679  1.00  0.00     0.118 C 
BRANCH  28  29
ATOM     29  N   UNL A   1      35.276  30.413  29.125  1.00  0.00    -0.352 N 
ATOM     30  C   UNL A   1      36.252  30.035  30.016  1.00  0.00     0.251 C 
ATOM     31  H   UNL A   1      34.471  30.804  29.537  1.00  0.00     0.163 HD
ATOM     32  O   UNL A   1      35.970  30.003  31.213  1.00  0.00    -0.269 OA
BRANCH  30  33
ATOM     33  C   UNL A   1      37.619  29.649  29.575  1.00  0.00     0.039 A 
ATOM     34  C   UNL A   1      38.502  29.134  30.531  1.00  0.00     0.014 A 
ATOM     35  C   UNL A   1      38.079  29.853  28.271  1.00  0.00     0.014 A 
ATOM     36  C   UNL A   1      39.814  28.800  30.177  1.00  0.00     0.010 A 
ATOM     37  C   UNL A   1      39.356  29.427  27.894  1.00  0.00     0.010 A 
ATOM     38  C   UNL A   1      40.250  28.923  28.848  1.00  0.00    -0.014 A 
BRANCH  38  39
ATOM     39  C   UNL A   1      41.648  28.579  28.462  1.00  0.00     0.031 A 
ATOM     40  C   UNL A   1      42.716  29.645  28.439  1.00  0.00     0.074 A 
ATOM     41  C   UNL A   1      41.957  27.317  28.105  1.00  0.00     0.049 A 
ATOM     42  N   UNL A   1      43.979  29.545  28.105  1.00  0.00    -0.248 NA
ATOM     43  C   UNL A   1      42.308  31.007  28.813  1.00  0.00     0.031 C 
ATOM     44  C   UNL A   1      41.010  26.203  28.027  1.00  0.00     0.029 A 
ATOM     45  N   UNL A   1      43.155  26.757  27.736  1.00  0.00    -0.354 N 
ATOM     46  C   UNL A   1      44.506  30.827  28.213  1.00  0.00     0.074 A 
ATOM     47  C   UNL A   1      43.414  31.699  28.586  1.00  0.00     0.031 C 
ATOM     48  C   UNL A   1      41.667  25.090  27.662  1.00  0.00     0.029 A 
ATOM     49  C   UNL A   1      43.074  25.414  27.449  1.00  0.00     0.049 A 
ATOM     50  H   UNL A   1      43.995  27.269  27.680  1.00  0.00     0.167 HD
ATOM     51  C   UNL A   1      45.786  31.241  28.047  1.00  0.00     0.037 A 
ATOM     52  C   UNL A   1      44.024  24.540  27.062  1.00  0.00     0.037 A 
ATOM     53  C   UNL A   1      46.880  30.368  27.711  1.00  0.00     0.049 A 
ATOM     54  C   UNL A   1      45.444  25.012  26.915  1.00  0.00     0.074 A 
ATOM     55  C   UNL A   1      48.222  30.680  27.574  1.00  0.00     0.029 A 
ATOM     56  N   UNL A   1      46.761  29.008  27.464  1.00  0.00    -0.354 N 
ATOM     57  N   UNL A   1      45.932  26.220  27.078  1.00  0.00    -0.248 NA
ATOM     58  C   UNL A   1      46.446  24.003  26.547  1.00  0.00     0.031 C 
ATOM     59  C   UNL A   1      48.909  29.515  27.213  1.00  0.00     0.029 A 
ATOM     60  C   UNL A   1      48.001  28.469  27.166  1.00  0.00     0.049 A 
ATOM     61  H   UNL A   1      45.918  28.501  27.496  1.00  0.00     0.167 HD
ATOM     62  C   UNL A   1      47.298  26.112  26.846  1.00  0.00     0.074 A 
ATOM     63  C   UNL A   1      47.563  24.718  26.553  1.00  0.00     0.031 C 
ATOM     64  C   UNL A   1      48.249  27.079  26.872  1.00  0.00     0.037 A 
BRANCH  51  65
ATOM     65  C   UNL A   1      46.073  32.705  28.243  1.00  0.00     0.058 A 
ATOM     66  C   UNL A   1      45.988  33.621  27.181  1.00  0.00     0.135 A 
ATOM     67  C   UNL A   1      46.420  33.206  29.509  1.00  0.00     0.135 A 
ATOM     68  F   UNL A   1      45.674  33.196  25.946  1.00  0.00    -0.206 F 
ATOM     69  C   UNL A   1      46.270  34.972  27.357  1.00  0.00     0.059 A 
ATOM     70  C   UNL A   1      46.679  34.559  29.714  1.00  0.00     0.059 A 
ATOM     71  F   UNL A   1      46.514  32.377  30.560  1.00  0.00    -0.206 F 
ATOM     72  C   UNL A   1      46.620  35.430  28.628  1.00  0.00     0.060 A 
BRANCH  72  73
ATOM     73  S   UNL A   1      46.992  37.184  28.839  1.00  0.00     0.124 S 
ATOM     74  O   UNL A   1      46.286  37.770  27.705  1.00  0.00    -0.237 OA
ATOM     75  O   UNL A   1      46.425  37.469  30.154  1.00  0.00    -0.237 OA
ATOM     76  O   UNL A   1      48.449  37.234  28.766  1.00  0.00    -0.744 OA
ENDBRANCH  72  73
ENDBRANCH  51  65
BRANCH  52  77
ATOM     77  C   UNL A   1      43.661  23.119  26.812  1.00  0.00     0.058 A 
ATOM     78  C   UNL A   1      43.332  22.260  27.870  1.00  0.00     0.135 A 
ATOM     79  C   UNL A   1      43.610  22.601  25.508  1.00  0.00     0.135 A 
ATOM     80  F   UNL A   1      43.372  22.708  29.134  1.00  0.00    -0.206 F 
ATOM     81  C   UNL A   1      42.972  20.935  27.648  1.00  0.00     0.059 A 
ATOM     82  C   UNL A   1      43.232  21.286  25.259  1.00  0.00     0.059 A 
ATOM     83  F   UNL A   1      43.901  23.387  24.460  1.00  0.00    -0.206 F 
ATOM     84  C   UNL A   1      42.921  20.458  26.337  1.00  0.00     0.060 A 
BRANCH  84  85
ATOM     85  S   UNL A   1      42.390  18.754  26.053  1.00  0.00     0.124 S 
ATOM     86  O   UNL A   1      42.615  18.153  27.363  1.00  0.00    -0.237 OA
ATOM     87  O   UNL A   1      40.995  18.929  25.661  1.00  0.00    -0.237 OA
ATOM     88  O   UNL A   1      43.278  18.300  24.988  1.00  0.00    -0.744 OA
ENDBRANCH  84  85
ENDBRANCH  52  77
BRANCH  64  89
ATOM     89  C   UNL A   1      49.665  26.659  26.593  1.00  0.00     0.058 A 
ATOM     90  C   UNL A   1      50.522  26.235  27.620  1.00  0.00     0.135 A 
ATOM     91  C   UNL A   1      50.161  26.653  25.279  1.00  0.00     0.135 A 
ATOM     92  F   UNL A   1      50.097  26.227  28.894  1.00  0.00    -0.206 F 
ATOM     93  C   UNL A   1      51.831  25.847  27.359  1.00  0.00     0.059 A 
ATOM     94  C   UNL A   1      51.460  26.245  24.992  1.00  0.00     0.059 A 
ATOM     95  F   UNL A   1      49.378  27.039  24.258  1.00  0.00    -0.206 F 
ATOM     96  C   UNL A   1      52.293  25.859  26.041  1.00  0.00     0.060 A 
BRANCH  96  97
ATOM     97  S   UNL A   1      53.991  25.342  25.712  1.00  0.00     0.124 S 
ATOM     98  O   UNL A   1      53.781  24.110  24.959  1.00  0.00    -0.237 OA
ATOM     99  O   UNL A   1      54.521  26.468  24.949  1.00  0.00    -0.237 OA
ATOM    100  O   UNL A   1      54.560  25.175  27.045  1.00  0.00    -0.744 OA
ENDBRANCH  96  97
ENDBRANCH  64  89
ENDBRANCH  38  39
ENDBRANCH  30  33
ENDBRANCH  28  29
ENDBRANCH  27  28
ENDBRANCH   1  27
TORSDOF 17
ENDMDL
