MODEL 1
REMARK VINA RESULT:     -12.5      0.000      0.000
REMARK SMILES CN(C)C(=O)[C@@H]1CC=CC[C@H]1C(=O)N1CCC(C(=O)NCCCNC(=O)c2ccc(-c3c4nc(c(-c5c(F)cc(S(=O)(=O)[O-])cc5F)c5ccc([nH]5)c(-c5c(F)cc(S(=O)(=O)[O-])cc5F)c5nc(c(-c6c(F)cc(S(=O)(=O)[O-])cc6F)c6ccc3[nH]6)C=C5)C=C4)cc2)CC1
REMARK SMILES IDX 22 1 21 2 20 3 18 4 19 5 17 7 12 8 13 9 14 10 15 11 94 12
REMARK SMILES IDX 16 13 93 14 11 15 6 16 7 17 8 18 10 19 9 20 4 21 1 22 2 23
REMARK SMILES IDX 3 24 5 25 23 26 24 27 25 28 26 30 27 31 28 32 92 33 29 34
REMARK SMILES IDX 91 35 30 36 31 37 32 38 85 39 33 40 90 41 84 42 86 43 34 44
REMARK SMILES IDX 89 45 83 46 82 47 35 49 69 50 48 51 68 52 49 53 52 54 67 55
REMARK SMILES IDX 87 56 50 57 51 58 66 60 88 61 53 62 36 63 37 64 46 65 38 66
REMARK SMILES IDX 39 67 45 68 47 69 40 70 41 71 42 72 43 73 44 74 70 75 71 76
REMARK SMILES IDX 80 77 72 78 73 79 79 80 81 81 74 82 75 83 76 84 77 85 78 86
REMARK SMILES IDX 54 87 55 88 64 89 56 90 57 91 63 92 65 93 58 94 59 95 60 96
REMARK SMILES IDX 61 97 62 98
REMARK H PARENT 20 6 24 29 86 48 52 59
REMARK Flexibility Score: inf
ROOT
ATOM      1  C   UNL A   1      33.420  28.965  27.252  1.00  0.00     0.042 C 
ENDROOT
BRANCH   1   2
ATOM      2  C   UNL A   1      32.672  29.629  26.102  1.00  0.00     0.117 C 
BRANCH   2   3
ATOM      3  N   UNL A   1      33.411  29.556  24.846  1.00  0.00    -0.356 N 
ATOM      4  C   UNL A   1      33.536  28.558  23.930  1.00  0.00     0.223 C 
ATOM      5  O   UNL A   1      34.242  28.770  22.940  1.00  0.00    -0.275 OA
ATOM      6  H   UNL A   1      33.909  30.375  24.622  1.00  0.00     0.163 HD
BRANCH   4   7
ATOM      7  C   UNL A   1      32.786  27.242  24.066  1.00  0.00     0.082 C 
ATOM      8  C   UNL A   1      33.472  23.523  22.623  1.00  0.00     0.226 C 
ATOM      9  O   UNL A   1      33.694  23.762  21.431  1.00  0.00    -0.275 OA
ATOM     10  N   UNL A   1      32.772  24.439  23.395  1.00  0.00    -0.342 N 
ATOM     11  C   UNL A   1      31.779  25.295  22.760  1.00  0.00     0.120 C 
ATOM     12  C   UNL A   1      33.116  24.817  24.745  1.00  0.00     0.120 C 
ATOM     13  C   UNL A   1      32.201  26.755  22.735  1.00  0.00     0.035 C 
ATOM     14  C   UNL A   1      33.660  26.232  24.813  1.00  0.00     0.035 C 
BRANCH   8  15
ATOM     15  C   UNL A   1      33.672  22.086  23.150  1.00  0.00     0.095 C 
ATOM     16  C   UNL A   1      34.392  21.828  24.487  1.00  0.00     0.095 C 
ATOM     17  C   UNL A   1      34.537  20.309  24.713  1.00  0.00     0.041 C 
ATOM     18  C   UNL A   1      33.230  19.589  24.556  1.00  0.00    -0.030 C 
ATOM     19  C   UNL A   1      32.267  21.438  23.172  1.00  0.00     0.041 C 
ATOM     20  C   UNL A   1      32.201  20.111  23.875  1.00  0.00    -0.030 C 
BRANCH  16  21
ATOM     21  C   UNL A   1      35.789  22.443  24.527  1.00  0.00     0.226 C 
ATOM     22  C   UNL A   1      37.491  23.723  25.730  1.00  0.00     0.146 C 
ATOM     23  N   UNL A   1      36.193  23.067  25.708  1.00  0.00    -0.349 N 
ATOM     24  C   UNL A   1      35.422  23.104  26.944  1.00  0.00     0.146 C 
ATOM     25  O   UNL A   1      36.532  22.371  23.548  1.00  0.00    -0.275 OA
ENDBRANCH  16  21
ENDBRANCH   8  15
ENDBRANCH   4   7
ENDBRANCH   2   3
ENDBRANCH   1   2
BRANCH   1  26
ATOM     26  C   UNL A   1      34.845  29.471  27.432  1.00  0.00     0.118 C 
BRANCH  26  27
ATOM     27  N   UNL A   1      34.972  30.424  28.526  1.00  0.00    -0.352 N 
ATOM     28  C   UNL A   1      36.021  30.645  29.385  1.00  0.00     0.251 C 
ATOM     29  H   UNL A   1      34.187  30.999  28.671  1.00  0.00     0.163 HD
ATOM     30  O   UNL A   1      35.865  31.375  30.361  1.00  0.00    -0.269 OA
BRANCH  28  31
ATOM     31  C   UNL A   1      37.323  29.983  29.154  1.00  0.00     0.039 A 
ATOM     32  C   UNL A   1      37.826  29.915  27.852  1.00  0.00     0.014 A 
ATOM     33  C   UNL A   1      38.056  29.449  30.217  1.00  0.00     0.014 A 
ATOM     34  C   UNL A   1      39.107  29.404  27.632  1.00  0.00     0.010 A 
ATOM     35  C   UNL A   1      39.363  29.017  30.008  1.00  0.00     0.010 A 
ATOM     36  C   UNL A   1      39.908  29.005  28.716  1.00  0.00    -0.014 A 
BRANCH  36  37
ATOM     37  C   UNL A   1      41.334  28.630  28.529  1.00  0.00     0.031 A 
ATOM     38  C   UNL A   1      42.412  29.677  28.586  1.00  0.00     0.074 A 
ATOM     39  C   UNL A   1      41.645  27.353  28.222  1.00  0.00     0.049 A 
ATOM     40  N   UNL A   1      43.692  29.557  28.342  1.00  0.00    -0.248 NA
ATOM     41  C   UNL A   1      41.996  31.044  28.942  1.00  0.00     0.031 C 
ATOM     42  C   UNL A   1      40.682  26.255  28.092  1.00  0.00     0.029 A 
ATOM     43  N   UNL A   1      42.853  26.763  27.947  1.00  0.00    -0.354 N 
ATOM     44  C   UNL A   1      44.232  30.827  28.510  1.00  0.00     0.074 A 
ATOM     45  C   UNL A   1      43.133  31.714  28.828  1.00  0.00     0.031 C 
ATOM     46  C   UNL A   1      41.337  25.126  27.781  1.00  0.00     0.029 A 
ATOM     47  C   UNL A   1      42.758  25.425  27.639  1.00  0.00     0.049 A 
ATOM     48  H   UNL A   1      43.708  27.250  27.968  1.00  0.00     0.167 HD
ATOM     49  C   UNL A   1      45.528  31.210  28.431  1.00  0.00     0.037 A 
ATOM     50  C   UNL A   1      43.704  24.541  27.262  1.00  0.00     0.037 A 
ATOM     51  C   UNL A   1      46.618  30.318  28.130  1.00  0.00     0.049 A 
ATOM     52  C   UNL A   1      45.130  25.006  27.140  1.00  0.00     0.074 A 
ATOM     53  C   UNL A   1      47.971  30.601  28.080  1.00  0.00     0.029 A 
ATOM     54  N   UNL A   1      46.481  28.971  27.826  1.00  0.00    -0.354 N 
ATOM     55  N   UNL A   1      45.631  26.197  27.370  1.00  0.00    -0.248 NA
ATOM     56  C   UNL A   1      46.120  24.011  26.706  1.00  0.00     0.031 C 
ATOM     57  C   UNL A   1      48.649  29.438  27.698  1.00  0.00     0.029 A 
ATOM     58  C   UNL A   1      47.722  28.418  27.558  1.00  0.00     0.049 A 
ATOM     59  H   UNL A   1      45.628  28.481  27.804  1.00  0.00     0.167 HD
ATOM     60  C   UNL A   1      46.995  26.088  27.123  1.00  0.00     0.074 A 
ATOM     61  C   UNL A   1      47.245  24.711  26.751  1.00  0.00     0.031 C 
ATOM     62  C   UNL A   1      47.955  27.043  27.191  1.00  0.00     0.037 A 
BRANCH  49  63
ATOM     63  C   UNL A   1      45.853  32.657  28.686  1.00  0.00     0.058 A 
ATOM     64  C   UNL A   1      45.869  33.598  27.645  1.00  0.00     0.135 A 
ATOM     65  C   UNL A   1      46.075  33.122  29.993  1.00  0.00     0.135 A 
ATOM     66  F   UNL A   1      45.677  33.205  26.375  1.00  0.00    -0.206 F 
ATOM     67  C   UNL A   1      46.105  34.947  27.887  1.00  0.00     0.059 A 
ATOM     68  C   UNL A   1      46.288  34.471  30.262  1.00  0.00     0.059 A 
ATOM     69  F   UNL A   1      46.074  32.264  31.025  1.00  0.00    -0.206 F 
ATOM     70  C   UNL A   1      46.308  35.375  29.201  1.00  0.00     0.060 A 
BRANCH  70  71
ATOM     71  S   UNL A   1      46.576  37.136  29.498  1.00  0.00     0.124 S 
ATOM     72  O   UNL A   1      45.269  37.549  30.000  1.00  0.00    -0.237 OA
ATOM     73  O   UNL A   1      47.656  37.124  30.479  1.00  0.00    -0.237 OA
ATOM     74  O   UNL A   1      46.934  37.654  28.181  1.00  0.00    -0.744 OA
ENDBRANCH  70  71
ENDBRANCH  49  63
BRANCH  50  75
ATOM     75  C   UNL A   1      43.337  23.131  26.957  1.00  0.00     0.058 A 
ATOM     76  C   UNL A   1      43.025  22.228  27.983  1.00  0.00     0.135 A 
ATOM     77  C   UNL A   1      43.315  22.651  25.637  1.00  0.00     0.135 A 
ATOM     78  F   UNL A   1      43.038  22.636  29.262  1.00  0.00    -0.206 F 
ATOM     79  C   UNL A   1      42.733  20.894  27.719  1.00  0.00     0.059 A 
ATOM     80  C   UNL A   1      42.998  21.329  25.344  1.00  0.00     0.059 A 
ATOM     81  F   UNL A   1      43.592  23.477  24.615  1.00  0.00    -0.206 F 
ATOM     82  C   UNL A   1      42.727  20.452  26.393  1.00  0.00     0.060 A 
BRANCH  82  83
ATOM     83  S   UNL A   1      42.342  18.720  26.061  1.00  0.00     0.124 S 
ATOM     84  O   UNL A   1      42.629  18.104  27.351  1.00  0.00    -0.237 OA
ATOM     85  O   UNL A   1      40.935  18.783  25.682  1.00  0.00    -0.237 OA
ATOM     86  O   UNL A   1      43.261  18.374  24.979  1.00  0.00    -0.744 OA
ENDBRANCH  82  83
ENDBRANCH  50  75
BRANCH  62  87
ATOM     87  C   UNL A   1      49.365  26.633  26.870  1.00  0.00     0.058 A 
ATOM     88  C   UNL A   1      50.214  26.100  27.853  1.00  0.00     0.135 A 
ATOM     89  C   UNL A   1      49.853  26.719  25.556  1.00  0.00     0.135 A 
ATOM     90  F   UNL A   1      49.800  26.007  29.126  1.00  0.00    -0.206 F 
ATOM     91  C   UNL A   1      51.504  25.681  27.547  1.00  0.00     0.059 A 
ATOM     92  C   UNL A   1      51.130  26.278  25.222  1.00  0.00     0.059 A 
ATOM     93  F   UNL A   1      49.079  27.214  24.577  1.00  0.00    -0.206 F 
ATOM     94  C   UNL A   1      51.951  25.768  26.227  1.00  0.00     0.060 A 
BRANCH  94  95
ATOM     95  S   UNL A   1      53.610  25.172  25.837  1.00  0.00     0.124 S 
ATOM     96  O   UNL A   1      54.007  26.083  24.768  1.00  0.00    -0.237 OA
ATOM     97  O   UNL A   1      54.310  25.343  27.107  1.00  0.00    -0.237 OA
ATOM     98  O   UNL A   1      53.389  23.788  25.433  1.00  0.00    -0.744 OA
ENDBRANCH  94  95
ENDBRANCH  62  87
ENDBRANCH  36  37
ENDBRANCH  28  31
ENDBRANCH  26  27
ENDBRANCH   1  26
TORSDOF 15
ENDMDL
MODEL 2
REMARK VINA RESULT:     -12.4      4.108      7.242
REMARK SMILES CN(C)C(=O)[C@@H]1CC=CC[C@H]1C(=O)N1CCC(C(=O)NCCCNC(=O)c2ccc(-c3c4nc(c(-c5c(F)cc(S(=O)(=O)[O-])cc5F)c5ccc([nH]5)c(-c5c(F)cc(S(=O)(=O)[O-])cc5F)c5nc(c(-c6c(F)cc(S(=O)(=O)[O-])cc6F)c6ccc3[nH]6)C=C5)C=C4)cc2)CC1
REMARK SMILES IDX 22 1 21 2 20 3 18 4 19 5 17 7 12 8 13 9 14 10 15 11 94 12
REMARK SMILES IDX 16 13 93 14 11 15 6 16 7 17 8 18 10 19 9 20 4 21 1 22 2 23
REMARK SMILES IDX 3 24 5 25 23 26 24 27 25 28 26 30 27 31 28 32 92 33 29 34
REMARK SMILES IDX 91 35 30 36 31 37 32 38 85 39 33 40 90 41 84 42 86 43 34 44
REMARK SMILES IDX 89 45 83 46 82 47 35 49 69 50 48 51 68 52 49 53 52 54 67 55
REMARK SMILES IDX 87 56 50 57 51 58 66 60 88 61 53 62 36 63 37 64 46 65 38 66
REMARK SMILES IDX 39 67 45 68 47 69 40 70 41 71 42 72 43 73 44 74 70 75 71 76
REMARK SMILES IDX 80 77 72 78 73 79 79 80 81 81 74 82 75 83 76 84 77 85 78 86
REMARK SMILES IDX 54 87 55 88 64 89 56 90 57 91 63 92 65 93 58 94 59 95 60 96
REMARK SMILES IDX 61 97 62 98
REMARK H PARENT 20 6 24 29 86 48 52 59
REMARK Flexibility Score: inf
ROOT
ATOM      1  C   UNL A   1      33.163  33.455  28.049  1.00  0.00     0.042 C 
ENDROOT
BRANCH   1   2
ATOM      2  C   UNL A   1      33.539  34.717  28.817  1.00  0.00     0.117 C 
BRANCH   2   3
ATOM      3  N   UNL A   1      33.004  34.717  30.175  1.00  0.00    -0.356 N 
ATOM      4  C   UNL A   1      33.620  34.654  31.386  1.00  0.00     0.223 C 
ATOM      5  O   UNL A   1      32.909  34.669  32.395  1.00  0.00    -0.275 OA
ATOM      6  H   UNL A   1      32.022  34.774  30.222  1.00  0.00     0.163 HD
BRANCH   4   7
ATOM      7  C   UNL A   1      35.134  34.633  31.519  1.00  0.00     0.082 C 
ATOM      8  C   UNL A   1      37.682  32.262  33.586  1.00  0.00     0.226 C 
ATOM      9  O   UNL A   1      37.159  32.262  34.706  1.00  0.00    -0.275 OA
ATOM     10  N   UNL A   1      37.395  33.280  32.688  1.00  0.00    -0.342 N 
ATOM     11  C   UNL A   1      37.060  34.604  33.193  1.00  0.00     0.120 C 
ATOM     12  C   UNL A   1      37.139  33.092  31.279  1.00  0.00     0.120 C 
ATOM     13  C   UNL A   1      35.608  34.974  32.937  1.00  0.00     0.035 C 
ATOM     14  C   UNL A   1      35.680  33.328  30.935  1.00  0.00     0.035 C 
BRANCH   8  15
ATOM     15  C   UNL A   1      38.889  31.338  33.322  1.00  0.00     0.095 C 
ATOM     16  C   UNL A   1      40.057  31.259  34.323  1.00  0.00     0.095 C 
ATOM     17  C   UNL A   1      41.162  30.342  33.759  1.00  0.00     0.041 C 
ATOM     18  C   UNL A   1      40.621  29.013  33.321  1.00  0.00    -0.030 C 
ATOM     19  C   UNL A   1      38.304  29.926  33.080  1.00  0.00     0.041 C 
ATOM     20  C   UNL A   1      39.326  28.825  33.033  1.00  0.00    -0.030 C 
BRANCH  16  21
ATOM     21  C   UNL A   1      40.681  32.626  34.602  1.00  0.00     0.226 C 
ATOM     22  C   UNL A   1      41.824  34.140  36.145  1.00  0.00     0.146 C 
ATOM     23  N   UNL A   1      41.296  32.820  35.839  1.00  0.00    -0.349 N 
ATOM     24  C   UNL A   1      41.472  31.795  36.860  1.00  0.00     0.146 C 
ATOM     25  O   UNL A   1      40.649  33.513  33.749  1.00  0.00    -0.275 OA
ENDBRANCH  16  21
ENDBRANCH   8  15
ENDBRANCH   4   7
ENDBRANCH   2   3
ENDBRANCH   1   2
BRANCH   1  26
ATOM     26  C   UNL A   1      34.273  32.415  27.994  1.00  0.00     0.118 C 
BRANCH  26  27
ATOM     27  N   UNL A   1      33.769  31.060  27.815  1.00  0.00    -0.352 N 
ATOM     28  C   UNL A   1      34.445  29.863  27.802  1.00  0.00     0.251 C 
ATOM     29  H   UNL A   1      32.797  30.990  27.685  1.00  0.00     0.163 HD
ATOM     30  O   UNL A   1      33.860  28.839  27.456  1.00  0.00    -0.269 OA
BRANCH  28  31
ATOM     31  C   UNL A   1      35.875  29.812  28.175  1.00  0.00     0.039 A 
ATOM     32  C   UNL A   1      36.220  29.535  29.500  1.00  0.00     0.014 A 
ATOM     33  C   UNL A   1      36.873  30.017  27.219  1.00  0.00     0.014 A 
ATOM     34  C   UNL A   1      37.563  29.363  29.843  1.00  0.00     0.010 A 
ATOM     35  C   UNL A   1      38.203  29.765  27.543  1.00  0.00     0.010 A 
ATOM     36  C   UNL A   1      38.561  29.418  28.854  1.00  0.00    -0.014 A 
BRANCH  36  37
ATOM     37  C   UNL A   1      39.971  29.061  29.157  1.00  0.00     0.031 A 
ATOM     38  C   UNL A   1      40.910  30.085  29.731  1.00  0.00     0.074 A 
ATOM     39  C   UNL A   1      40.424  27.832  28.833  1.00  0.00     0.049 A 
ATOM     40  N   UNL A   1      42.195  29.989  29.959  1.00  0.00    -0.248 NA
ATOM     41  C   UNL A   1      40.338  31.397  30.073  1.00  0.00     0.031 C 
ATOM     42  C   UNL A   1      39.619  26.765  28.228  1.00  0.00     0.029 A 
ATOM     43  N   UNL A   1      41.672  27.273  28.950  1.00  0.00    -0.354 N 
ATOM     44  C   UNL A   1      42.585  31.223  30.466  1.00  0.00     0.074 A 
ATOM     45  C   UNL A   1      41.411  32.070  30.465  1.00  0.00     0.031 C 
ATOM     46  C   UNL A   1      40.389  25.681  28.044  1.00  0.00     0.029 A 
ATOM     47  C   UNL A   1      41.750  25.986  28.469  1.00  0.00     0.049 A 
ATOM     48  H   UNL A   1      42.440  27.748  29.341  1.00  0.00     0.167 HD
ATOM     49  C   UNL A   1      43.805  31.605  30.913  1.00  0.00     0.037 A 
ATOM     50  C   UNL A   1      42.803  25.152  28.360  1.00  0.00     0.037 A 
ATOM     51  C   UNL A   1      44.964  30.751  30.927  1.00  0.00     0.049 A 
ATOM     52  C   UNL A   1      44.156  25.619  28.826  1.00  0.00     0.074 A 
ATOM     53  C   UNL A   1      46.230  31.030  31.411  1.00  0.00     0.029 A 
ATOM     54  N   UNL A   1      45.002  29.455  30.433  1.00  0.00    -0.354 N 
ATOM     55  N   UNL A   1      44.490  26.767  29.366  1.00  0.00    -0.248 NA
ATOM     56  C   UNL A   1      45.276  24.681  28.667  1.00  0.00     0.031 C 
ATOM     57  C   UNL A   1      47.047  29.921  31.165  1.00  0.00     0.029 A 
ATOM     58  C   UNL A   1      46.278  28.933  30.573  1.00  0.00     0.049 A 
ATOM     59  H   UNL A   1      44.236  28.978  30.042  1.00  0.00     0.167 HD
ATOM     60  C   UNL A   1      45.854  26.682  29.624  1.00  0.00     0.074 A 
ATOM     61  C   UNL A   1      46.278  25.363  29.205  1.00  0.00     0.031 C 
ATOM     62  C   UNL A   1      46.683  27.614  30.153  1.00  0.00     0.037 A 
BRANCH  49  63
ATOM     63  C   UNL A   1      43.955  33.005  31.443  1.00  0.00     0.058 A 
ATOM     64  C   UNL A   1      44.039  34.109  30.580  1.00  0.00     0.135 A 
ATOM     65  C   UNL A   1      43.939  33.255  32.826  1.00  0.00     0.135 A 
ATOM     66  F   UNL A   1      44.074  33.927  29.250  1.00  0.00    -0.206 F 
ATOM     67  C   UNL A   1      44.112  35.410  31.067  1.00  0.00     0.059 A 
ATOM     68  C   UNL A   1      43.986  34.549  33.335  1.00  0.00     0.059 A 
ATOM     69  F   UNL A   1      43.863  32.235  33.695  1.00  0.00    -0.206 F 
ATOM     70  C   UNL A   1      44.079  35.620  32.447  1.00  0.00     0.060 A 
BRANCH  70  71
ATOM     71  S   UNL A   1      44.139  37.319  33.058  1.00  0.00     0.124 S 
ATOM     72  O   UNL A   1      42.908  37.391  33.839  1.00  0.00    -0.237 OA
ATOM     73  O   UNL A   1      45.379  37.328  33.828  1.00  0.00    -0.237 OA
ATOM     74  O   UNL A   1      44.155  38.120  31.838  1.00  0.00    -0.744 OA
ENDBRANCH  70  71
ENDBRANCH  49  63
BRANCH  50  75
ATOM     75  C   UNL A   1      42.631  23.795  27.774  1.00  0.00     0.058 A 
ATOM     76  C   UNL A   1      42.437  22.673  28.594  1.00  0.00     0.135 A 
ATOM     77  C   UNL A   1      42.679  23.587  26.385  1.00  0.00     0.135 A 
ATOM     78  F   UNL A   1      42.390  22.818  29.927  1.00  0.00    -0.206 F 
ATOM     79  C   UNL A   1      42.329  21.391  28.064  1.00  0.00     0.059 A 
ATOM     80  C   UNL A   1      42.544  22.318  25.830  1.00  0.00     0.059 A 
ATOM     81  F   UNL A   1      42.848  24.627  25.554  1.00  0.00    -0.206 F 
ATOM     82  C   UNL A   1      42.388  21.224  26.678  1.00  0.00     0.060 A 
BRANCH  82  83
ATOM     83  S   UNL A   1      42.241  19.556  26.001  1.00  0.00     0.124 S 
ATOM     84  O   UNL A   1      40.807  19.472  25.744  1.00  0.00    -0.237 OA
ATOM     85  O   UNL A   1      43.098  19.624  24.823  1.00  0.00    -0.237 OA
ATOM     86  O   UNL A   1      42.738  18.710  27.083  1.00  0.00    -0.744 OA
ENDBRANCH  82  83
ENDBRANCH  50  75
BRANCH  62  87
ATOM     87  C   UNL A   1      48.129  27.240  30.323  1.00  0.00     0.058 A 
ATOM     88  C   UNL A   1      49.098  27.615  29.379  1.00  0.00     0.135 A 
ATOM     89  C   UNL A   1      48.561  26.552  31.469  1.00  0.00     0.135 A 
ATOM     90  F   UNL A   1      48.737  28.265  28.261  1.00  0.00    -0.206 F 
ATOM     91  C   UNL A   1      50.442  27.308  29.557  1.00  0.00     0.059 A 
ATOM     92  C   UNL A   1      49.905  26.260  31.681  1.00  0.00     0.059 A 
ATOM     93  F   UNL A   1      47.676  26.177  32.406  1.00  0.00    -0.206 F 
ATOM     94  C   UNL A   1      50.837  26.634  30.715  1.00  0.00     0.060 A 
BRANCH  94  95
ATOM     95  S   UNL A   1      52.592  26.287  30.955  1.00  0.00     0.124 S 
ATOM     96  O   UNL A   1      53.061  26.168  29.578  1.00  0.00    -0.237 OA
ATOM     97  O   UNL A   1      53.048  27.471  31.679  1.00  0.00    -0.237 OA
ATOM     98  O   UNL A   1      52.592  25.050  31.727  1.00  0.00    -0.744 OA
ENDBRANCH  94  95
ENDBRANCH  62  87
ENDBRANCH  36  37
ENDBRANCH  28  31
ENDBRANCH  26  27
ENDBRANCH   1  26
TORSDOF 15
ENDMDL
MODEL 3
REMARK VINA RESULT:     -12.2      2.324      8.934
REMARK SMILES CN(C)C(=O)[C@@H]1CC=CC[C@H]1C(=O)N1CCC(C(=O)NCCCNC(=O)c2ccc(-c3c4nc(c(-c5c(F)cc(S(=O)(=O)[O-])cc5F)c5ccc([nH]5)c(-c5c(F)cc(S(=O)(=O)[O-])cc5F)c5nc(c(-c6c(F)cc(S(=O)(=O)[O-])cc6F)c6ccc3[nH]6)C=C5)C=C4)cc2)CC1
REMARK SMILES IDX 22 1 21 2 20 3 18 4 19 5 17 7 12 8 13 9 14 10 15 11 94 12
REMARK SMILES IDX 16 13 93 14 11 15 6 16 7 17 8 18 10 19 9 20 4 21 1 22 2 23
REMARK SMILES IDX 3 24 5 25 23 26 24 27 25 28 26 30 27 31 28 32 92 33 29 34
REMARK SMILES IDX 91 35 30 36 31 37 32 38 85 39 33 40 90 41 84 42 86 43 34 44
REMARK SMILES IDX 89 45 83 46 82 47 35 49 69 50 48 51 68 52 49 53 52 54 67 55
REMARK SMILES IDX 87 56 50 57 51 58 66 60 88 61 53 62 36 63 37 64 46 65 38 66
REMARK SMILES IDX 39 67 45 68 47 69 40 70 41 71 42 72 43 73 44 74 70 75 71 76
REMARK SMILES IDX 80 77 72 78 73 79 79 80 81 81 74 82 75 83 76 84 77 85 78 86
REMARK SMILES IDX 54 87 55 88 64 89 56 90 57 91 63 92 65 93 58 94 59 95 60 96
REMARK SMILES IDX 61 97 62 98
REMARK H PARENT 20 6 24 29 86 48 52 59
REMARK Flexibility Score: inf
ROOT
ATOM      1  C   UNL A   1      38.264  20.156  24.989  1.00  0.00     0.042 C 
ENDROOT
BRANCH   1   2
ATOM      2  C   UNL A   1      37.188  21.236  24.995  1.00  0.00     0.117 C 
BRANCH   2   3
ATOM      3  N   UNL A   1      36.203  21.029  26.051  1.00  0.00    -0.356 N 
ATOM      4  C   UNL A   1      35.034  21.665  26.331  1.00  0.00     0.223 C 
ATOM      5  O   UNL A   1      34.387  21.277  27.309  1.00  0.00    -0.275 OA
ATOM      6  H   UNL A   1      36.424  20.297  26.672  1.00  0.00     0.163 HD
BRANCH   4   7
ATOM      7  C   UNL A   1      34.489  22.774  25.446  1.00  0.00     0.082 C 
ATOM      8  C   UNL A   1      32.329  26.108  26.226  1.00  0.00     0.226 C 
ATOM      9  O   UNL A   1      31.426  25.652  26.936  1.00  0.00    -0.275 OA
ATOM     10  N   UNL A   1      33.040  25.265  25.384  1.00  0.00    -0.342 N 
ATOM     11  C   UNL A   1      32.386  24.085  24.836  1.00  0.00     0.120 C 
ATOM     12  C   UNL A   1      34.471  25.301  25.193  1.00  0.00     0.120 C 
ATOM     13  C   UNL A   1      32.956  22.792  25.396  1.00  0.00     0.035 C 
ATOM     14  C   UNL A   1      35.153  24.100  25.821  1.00  0.00     0.035 C 
BRANCH   8  15
ATOM     15  C   UNL A   1      32.430  27.635  26.030  1.00  0.00     0.095 C 
ATOM     16  C   UNL A   1      31.656  28.339  24.899  1.00  0.00     0.095 C 
ATOM     17  C   UNL A   1      32.020  29.837  24.877  1.00  0.00     0.041 C 
ATOM     18  C   UNL A   1      31.871  30.473  26.228  1.00  0.00    -0.030 C 
ATOM     19  C   UNL A   1      32.064  28.268  27.394  1.00  0.00     0.041 C 
ATOM     20  C   UNL A   1      31.873  29.758  27.361  1.00  0.00    -0.030 C 
BRANCH  16  21
ATOM     21  C   UNL A   1      31.977  27.759  23.522  1.00  0.00     0.226 C 
ATOM     22  C   UNL A   1      31.379  26.270  21.676  1.00  0.00     0.146 C 
ATOM     23  N   UNL A   1      31.048  26.888  22.951  1.00  0.00    -0.349 N 
ATOM     24  C   UNL A   1      29.749  26.552  23.520  1.00  0.00     0.146 C 
ATOM     25  O   UNL A   1      33.016  28.069  22.941  1.00  0.00    -0.275 OA
ENDBRANCH  16  21
ENDBRANCH   8  15
ENDBRANCH   4   7
ENDBRANCH   2   3
ENDBRANCH   1   2
BRANCH   1  26
ATOM     26  C   UNL A   1      39.399  20.413  25.971  1.00  0.00     0.118 C 
BRANCH  26  27
ATOM     27  N   UNL A   1      40.346  19.309  26.041  1.00  0.00    -0.352 N 
ATOM     28  C   UNL A   1      41.717  19.328  26.132  1.00  0.00     0.251 C 
ATOM     29  H   UNL A   1      39.943  18.412  26.021  1.00  0.00     0.163 HD
ATOM     30  O   UNL A   1      42.350  18.283  25.997  1.00  0.00    -0.269 OA
BRANCH  28  31
ATOM     31  C   UNL A   1      42.429  20.604  26.361  1.00  0.00     0.039 A 
ATOM     32  C   UNL A   1      43.038  21.243  25.279  1.00  0.00     0.014 A 
ATOM     33  C   UNL A   1      42.480  21.179  27.634  1.00  0.00     0.014 A 
ATOM     34  C   UNL A   1      43.608  22.506  25.453  1.00  0.00     0.010 A 
ATOM     35  C   UNL A   1      42.975  22.470  27.790  1.00  0.00     0.010 A 
ATOM     36  C   UNL A   1      43.528  23.155  26.698  1.00  0.00    -0.014 A 
BRANCH  36  37
ATOM     37  C   UNL A   1      43.963  24.566  26.865  1.00  0.00     0.031 A 
ATOM     38  C   UNL A   1      45.410  24.942  26.704  1.00  0.00     0.074 A 
ATOM     39  C   UNL A   1      43.060  25.494  27.245  1.00  0.00     0.049 A 
ATOM     40  N   UNL A   1      45.991  26.095  26.915  1.00  0.00    -0.248 NA
ATOM     41  C   UNL A   1      46.332  23.878  26.272  1.00  0.00     0.031 C 
ATOM     42  C   UNL A   1      41.634  25.242  27.477  1.00  0.00     0.029 A 
ATOM     43  N   UNL A   1      43.205  26.831  27.519  1.00  0.00    -0.354 N 
ATOM     44  C   UNL A   1      47.340  25.897  26.646  1.00  0.00     0.074 A 
ATOM     45  C   UNL A   1      47.502  24.500  26.306  1.00  0.00     0.031 C 
ATOM     46  C   UNL A   1      41.036  26.388  27.841  1.00  0.00     0.029 A 
ATOM     47  C   UNL A   1      42.039  27.444  27.918  1.00  0.00     0.049 A 
ATOM     48  H   UNL A   1      44.063  27.307  27.439  1.00  0.00     0.167 HD
ATOM     49  C   UNL A   1      48.346  26.804  26.658  1.00  0.00     0.037 A 
ATOM     50  C   UNL A   1      41.806  28.709  28.321  1.00  0.00     0.037 A 
ATOM     51  C   UNL A   1      48.174  28.197  26.982  1.00  0.00     0.049 A 
ATOM     52  C   UNL A   1      42.951  29.684  28.366  1.00  0.00     0.074 A 
ATOM     53  C   UNL A   1      49.122  29.204  26.970  1.00  0.00     0.029 A 
ATOM     54  N   UNL A   1      46.979  28.779  27.378  1.00  0.00    -0.354 N 
ATOM     55  N   UNL A   1      44.208  29.494  28.043  1.00  0.00    -0.248 NA
ATOM     56  C   UNL A   1      42.650  31.044  28.834  1.00  0.00     0.031 C 
ATOM     57  C   UNL A   1      48.512  30.386  27.406  1.00  0.00     0.029 A 
ATOM     58  C   UNL A   1      47.172  30.125  27.643  1.00  0.00     0.049 A 
ATOM     59  H   UNL A   1      46.120  28.305  27.459  1.00  0.00     0.167 HD
ATOM     60  C   UNL A   1      44.842  30.713  28.253  1.00  0.00     0.074 A 
ATOM     61  C   UNL A   1      43.827  31.640  28.706  1.00  0.00     0.031 C 
ATOM     62  C   UNL A   1      46.149  31.036  28.091  1.00  0.00     0.037 A 
BRANCH  49  63
ATOM     63  C   UNL A   1      49.727  26.330  26.298  1.00  0.00     0.058 A 
ATOM     64  C   UNL A   1      50.215  26.426  24.985  1.00  0.00     0.135 A 
ATOM     65  C   UNL A   1      50.600  25.844  27.286  1.00  0.00     0.135 A 
ATOM     66  F   UNL A   1      49.418  26.870  23.999  1.00  0.00    -0.206 F 
ATOM     67  C   UNL A   1      51.514  26.049  24.662  1.00  0.00     0.059 A 
ATOM     68  C   UNL A   1      51.912  25.485  26.990  1.00  0.00     0.059 A 
ATOM     69  F   UNL A   1      50.184  25.728  28.557  1.00  0.00    -0.206 F 
ATOM     70  C   UNL A   1      52.357  25.585  25.673  1.00  0.00     0.060 A 
BRANCH  70  71
ATOM     71  S   UNL A   1      54.051  25.135  25.238  1.00  0.00     0.124 S 
ATOM     72  O   UNL A   1      53.906  23.714  24.935  1.00  0.00    -0.237 OA
ATOM     73  O   UNL A   1      54.319  26.002  24.095  1.00  0.00    -0.237 OA
ATOM     74  O   UNL A   1      54.807  25.444  26.448  1.00  0.00    -0.744 OA
ENDBRANCH  70  71
ENDBRANCH  49  63
BRANCH  50  75
ATOM     75  C   UNL A   1      40.437  29.128  28.730  1.00  0.00     0.058 A 
ATOM     76  C   UNL A   1      39.475  29.485  27.774  1.00  0.00     0.135 A 
ATOM     77  C   UNL A   1      40.070  29.202  30.084  1.00  0.00     0.135 A 
ATOM     78  F   UNL A   1      39.779  29.437  26.467  1.00  0.00    -0.206 F 
ATOM     79  C   UNL A   1      38.210  29.930  28.142  1.00  0.00     0.059 A 
ATOM     80  C   UNL A   1      38.801  29.616  30.477  1.00  0.00     0.059 A 
ATOM     81  F   UNL A   1      40.946  28.858  31.040  1.00  0.00    -0.206 F 
ATOM     82  C   UNL A   1      37.883  29.997  29.499  1.00  0.00     0.060 A 
BRANCH  82  83
ATOM     83  S   UNL A   1      36.236  30.571  29.965  1.00  0.00     0.124 S 
ATOM     84  O   UNL A   1      35.446  30.158  28.811  1.00  0.00    -0.237 OA
ATOM     85  O   UNL A   1      35.992  29.838  31.201  1.00  0.00    -0.237 OA
ATOM     86  O   UNL A   1      36.416  32.012  30.123  1.00  0.00    -0.744 OA
ENDBRANCH  82  83
ENDBRANCH  50  75
BRANCH  62  87
ATOM     87  C   UNL A   1      46.556  32.451  28.394  1.00  0.00     0.058 A 
ATOM     88  C   UNL A   1      47.071  32.812  29.649  1.00  0.00     0.135 A 
ATOM     89  C   UNL A   1      46.488  33.443  27.402  1.00  0.00     0.135 A 
ATOM     90  F   UNL A   1      47.147  31.904  30.634  1.00  0.00    -0.206 F 
ATOM     91  C   UNL A   1      47.489  34.111  29.916  1.00  0.00     0.059 A 
ATOM     92  C   UNL A   1      46.928  34.742  27.638  1.00  0.00     0.059 A 
ATOM     93  F   UNL A   1      46.011  33.148  26.182  1.00  0.00    -0.206 F 
ATOM     94  C   UNL A   1      47.419  35.068  28.901  1.00  0.00     0.060 A 
BRANCH  94  95
ATOM     95  S   UNL A   1      48.013  36.737  29.248  1.00  0.00     0.124 S 
ATOM     96  O   UNL A   1      47.625  36.905  30.645  1.00  0.00    -0.237 OA
ATOM     97  O   UNL A   1      49.446  36.616  28.999  1.00  0.00    -0.237 OA
ATOM     98  O   UNL A   1      47.285  37.564  28.291  1.00  0.00    -0.744 OA
ENDBRANCH  94  95
ENDBRANCH  62  87
ENDBRANCH  36  37
ENDBRANCH  28  31
ENDBRANCH  26  27
ENDBRANCH   1  26
TORSDOF 15
ENDMDL
