MODEL 1
REMARK VINA RESULT:     -10.9      0.000      0.000
REMARK SMILES CCc1ccc(C(=O)NCCCNC(=O)c2ccc(-c3c4nc(c(-c5c(F)cc(S(=O)(=O)[O-])cc5F)c5ccc([nH]5)c(-c5c(F)cc(S(=O)(=O)[O-])cc5F)c5nc(c(-c6c(F)cc(S(=O)(=O)[O-])cc6F)c6ccc3[nH]6)C=C5)C=C4)cc2)cc1S(=O)(=O)C(CC)CC
REMARK SMILES IDX 11 1 10 2 9 3 7 4 8 5 6 7 3 8 4 9 83 10 5 11 82 12 2 13 1 14
REMARK SMILES IDX 84 15 85 16 86 17 87 18 88 19 89 20 90 21 91 22 12 23 13 24
REMARK SMILES IDX 14 25 15 27 16 28 17 29 81 30 18 31 80 32 19 33 20 34 21 35
REMARK SMILES IDX 74 36 22 37 79 38 73 39 75 40 23 41 78 42 72 43 71 44 24 46
REMARK SMILES IDX 58 47 37 48 57 49 38 50 41 51 56 52 76 53 39 54 40 55 55 57
REMARK SMILES IDX 77 58 42 59 25 60 26 61 35 62 27 63 28 64 34 65 36 66 29 67
REMARK SMILES IDX 30 68 31 69 32 70 33 71 59 72 60 73 69 74 61 75 62 76 68 77
REMARK SMILES IDX 70 78 63 79 64 80 65 81 66 82 67 83 43 84 44 85 53 86 45 87
REMARK SMILES IDX 46 88 52 89 54 90 47 91 48 92 49 93 50 94 51 95
REMARK H PARENT 9 6 13 26 75 45 41 56
REMARK Flexibility Score: inf
ROOT
ATOM      1  C   UNL A   1      36.075  33.421  28.437  1.00  0.00     0.042 C 
ENDROOT
BRANCH   1   2
ATOM      2  C   UNL A   1      35.151  32.256  28.072  1.00  0.00     0.118 C 
BRANCH   2   3
ATOM      3  N   UNL A   1      33.802  32.718  27.789  1.00  0.00    -0.352 N 
ATOM      4  C   UNL A   1      32.687  32.119  27.265  1.00  0.00     0.251 C 
ATOM      5  O   UNL A   1      31.664  32.804  27.196  1.00  0.00    -0.269 OA
ATOM      6  H   UNL A   1      33.660  33.663  28.024  1.00  0.00     0.163 HD
BRANCH   4   7
ATOM      7  C   UNL A   1      32.619  30.694  26.830  1.00  0.00     0.041 A 
ATOM      8  C   UNL A   1      32.622  27.924  26.101  1.00  0.00    -0.030 A 
ATOM      9  C   UNL A   1      33.251  28.401  27.276  1.00  0.00     0.006 A 
ATOM     10  C   UNL A   1      31.998  28.868  25.275  1.00  0.00     0.071 A 
ATOM     11  C   UNL A   1      33.266  29.753  27.625  1.00  0.00     0.014 A 
ATOM     12  C   UNL A   1      31.954  30.228  25.701  1.00  0.00     0.034 A 
BRANCH   8  13
ATOM     13  C   UNL A   1      32.688  26.434  25.933  1.00  0.00     0.033 C 
ATOM     14  C   UNL A   1      34.047  25.957  25.430  1.00  0.00     0.009 C 
ENDBRANCH   8  13
BRANCH  10  15
ATOM     15  S   UNL A   1      31.290  28.734  23.628  1.00  0.00     0.181 S 
ATOM     16  O   UNL A   1      30.154  29.642  23.666  1.00  0.00    -0.223 OA
ATOM     17  O   UNL A   1      32.407  29.070  22.756  1.00  0.00    -0.223 OA
BRANCH  15  18
ATOM     18  C   UNL A   1      30.672  27.192  23.035  1.00  0.00     0.113 C 
BRANCH  18  19
ATOM     19  C   UNL A   1      31.610  26.405  22.086  1.00  0.00     0.017 C 
ATOM     20  C   UNL A   1      32.149  25.047  22.497  1.00  0.00     0.005 C 
ENDBRANCH  18  19
BRANCH  18  21
ATOM     21  C   UNL A   1      29.806  26.366  24.000  1.00  0.00     0.017 C 
ATOM     22  C   UNL A   1      28.314  26.684  23.912  1.00  0.00     0.005 C 
ENDBRANCH  18  21
ENDBRANCH  15  18
ENDBRANCH  10  15
ENDBRANCH   4   7
ENDBRANCH   2   3
ENDBRANCH   1   2
BRANCH   1  23
ATOM     23  C   UNL A   1      36.755  33.258  29.797  1.00  0.00     0.118 C 
BRANCH  23  24
ATOM     24  N   UNL A   1      36.172  32.173  30.573  1.00  0.00    -0.352 N 
ATOM     25  C   UNL A   1      36.603  30.881  30.740  1.00  0.00     0.251 C 
ATOM     26  H   UNL A   1      35.342  32.400  31.052  1.00  0.00     0.163 HD
ATOM     27  O   UNL A   1      35.859  30.066  31.279  1.00  0.00    -0.269 OA
BRANCH  25  28
ATOM     28  C   UNL A   1      37.942  30.460  30.270  1.00  0.00     0.039 A 
ATOM     29  C   UNL A   1      38.969  30.331  31.210  1.00  0.00     0.014 A 
ATOM     30  C   UNL A   1      38.205  30.254  28.913  1.00  0.00     0.014 A 
ATOM     31  C   UNL A   1      40.249  29.952  30.796  1.00  0.00     0.010 A 
ATOM     32  C   UNL A   1      39.470  29.828  28.508  1.00  0.00     0.010 A 
ATOM     33  C   UNL A   1      40.505  29.679  29.444  1.00  0.00    -0.014 A 
BRANCH  33  34
ATOM     34  C   UNL A   1      41.849  29.239  28.992  1.00  0.00     0.031 A 
ATOM     35  C   UNL A   1      42.976  30.230  28.894  1.00  0.00     0.074 A 
ATOM     36  C   UNL A   1      42.038  27.960  28.617  1.00  0.00     0.049 A 
ATOM     37  N   UNL A   1      44.194  30.056  28.449  1.00  0.00    -0.248 NA
ATOM     38  C   UNL A   1      42.689  31.606  29.334  1.00  0.00     0.031 C 
ATOM     39  C   UNL A   1      41.011  26.916  28.627  1.00  0.00     0.029 A 
ATOM     40  N   UNL A   1      43.155  27.322  28.137  1.00  0.00    -0.354 N 
ATOM     41  C   UNL A   1      44.813  31.297  28.539  1.00  0.00     0.074 A 
ATOM     42  C   UNL A   1      43.825  32.226  29.044  1.00  0.00     0.031 C 
ATOM     43  C   UNL A   1      41.548  25.766  28.185  1.00  0.00     0.029 A 
ATOM     44  C   UNL A   1      42.945  25.998  27.832  1.00  0.00     0.049 A 
ATOM     45  H   UNL A   1      44.024  27.770  28.024  1.00  0.00     0.167 HD
ATOM     46  C   UNL A   1      46.094  31.629  28.243  1.00  0.00     0.037 A 
ATOM     47  C   UNL A   1      43.783  25.077  27.316  1.00  0.00     0.037 A 
ATOM     48  C   UNL A   1      47.080  30.695  27.764  1.00  0.00     0.049 A 
ATOM     49  C   UNL A   1      45.203  25.464  27.014  1.00  0.00     0.074 A 
ATOM     50  C   UNL A   1      48.416  30.922  27.481  1.00  0.00     0.029 A 
ATOM     51  N   UNL A   1      46.839  29.354  27.503  1.00  0.00    -0.354 N 
ATOM     52  N   UNL A   1      45.785  26.631  27.148  1.00  0.00    -0.248 NA
ATOM     53  C   UNL A   1      46.085  24.407  26.498  1.00  0.00     0.031 C 
ATOM     54  C   UNL A   1      48.975  29.724  27.022  1.00  0.00     0.029 A 
ATOM     55  C   UNL A   1      47.998  28.743  27.053  1.00  0.00     0.049 A 
ATOM     56  H   UNL A   1      45.971  28.903  27.619  1.00  0.00     0.167 HD
ATOM     57  C   UNL A   1      47.104  26.447  26.752  1.00  0.00     0.074 A 
ATOM     58  C   UNL A   1      47.238  25.052  26.385  1.00  0.00     0.031 C 
ATOM     59  C   UNL A   1      48.113  27.351  26.697  1.00  0.00     0.037 A 
BRANCH  46  60
ATOM     60  C   UNL A   1      46.500  33.063  28.435  1.00  0.00     0.058 A 
ATOM     61  C   UNL A   1      47.014  33.523  29.657  1.00  0.00     0.135 A 
ATOM     62  C   UNL A   1      46.400  33.984  27.380  1.00  0.00     0.135 A 
ATOM     63  F   UNL A   1      47.118  32.688  30.703  1.00  0.00    -0.206 F 
ATOM     64  C   UNL A   1      47.384  34.852  29.838  1.00  0.00     0.059 A 
ATOM     65  C   UNL A   1      46.787  35.313  27.530  1.00  0.00     0.059 A 
ATOM     66  F   UNL A   1      45.917  33.597  26.188  1.00  0.00    -0.206 F 
ATOM     67  C   UNL A   1      47.262  35.741  28.768  1.00  0.00     0.060 A 
BRANCH  67  68
ATOM     68  S   UNL A   1      47.742  37.463  29.017  1.00  0.00     0.124 S 
ATOM     69  O   UNL A   1      46.516  38.163  28.646  1.00  0.00    -0.237 OA
ATOM     70  O   UNL A   1      48.082  37.494  30.437  1.00  0.00    -0.237 OA
ATOM     71  O   UNL A   1      48.867  37.637  28.104  1.00  0.00    -0.744 OA
ENDBRANCH  67  68
ENDBRANCH  46  60
BRANCH  47  72
ATOM     72  C   UNL A   1      43.298  23.694  27.075  1.00  0.00     0.058 A 
ATOM     73  C   UNL A   1      42.998  23.252  25.778  1.00  0.00     0.135 A 
ATOM     74  C   UNL A   1      43.153  22.779  28.129  1.00  0.00     0.135 A 
ATOM     75  F   UNL A   1      43.117  24.093  24.740  1.00  0.00    -0.206 F 
ATOM     76  C   UNL A   1      42.557  21.956  25.535  1.00  0.00     0.059 A 
ATOM     77  C   UNL A   1      42.734  21.471  27.908  1.00  0.00     0.059 A 
ATOM     78  F   UNL A   1      43.445  23.149  29.385  1.00  0.00    -0.206 F 
ATOM     79  C   UNL A   1      42.430  21.071  26.607  1.00  0.00     0.060 A 
BRANCH  79  80
ATOM     80  S   UNL A   1      41.910  19.373  26.275  1.00  0.00     0.124 S 
ATOM     81  O   UNL A   1      40.472  19.536  26.099  1.00  0.00    -0.237 OA
ATOM     82  O   UNL A   1      42.668  19.047  25.071  1.00  0.00    -0.237 OA
ATOM     83  O   UNL A   1      42.324  18.656  27.478  1.00  0.00    -0.744 OA
ENDBRANCH  79  80
ENDBRANCH  47  72
BRANCH  59  84
ATOM     84  C   UNL A   1      49.458  26.854  26.249  1.00  0.00     0.058 A 
ATOM     85  C   UNL A   1      49.889  26.998  24.922  1.00  0.00     0.135 A 
ATOM     86  C   UNL A   1      50.345  26.271  27.169  1.00  0.00     0.135 A 
ATOM     87  F   UNL A   1      49.075  27.543  24.003  1.00  0.00    -0.206 F 
ATOM     88  C   UNL A   1      51.146  26.563  24.516  1.00  0.00     0.059 A 
ATOM     89  C   UNL A   1      51.614  25.849  26.790  1.00  0.00     0.059 A 
ATOM     90  F   UNL A   1      49.982  26.118  28.453  1.00  0.00    -0.206 F 
ATOM     91  C   UNL A   1      52.003  25.990  25.458  1.00  0.00     0.060 A 
BRANCH  91  92
ATOM     92  S   UNL A   1      53.646  25.460  24.930  1.00  0.00     0.124 S 
ATOM     93  O   UNL A   1      53.575  24.020  25.151  1.00  0.00    -0.237 OA
ATOM     94  O   UNL A   1      53.681  25.887  23.535  1.00  0.00    -0.237 OA
ATOM     95  O   UNL A   1      54.540  26.190  25.824  1.00  0.00    -0.744 OA
ENDBRANCH  91  92
ENDBRANCH  59  84
ENDBRANCH  33  34
ENDBRANCH  25  28
ENDBRANCH  23  24
ENDBRANCH   1  23
TORSDOF 18
ENDMDL
MODEL 2
REMARK VINA RESULT:     -10.8      6.457     12.062
REMARK SMILES CCc1ccc(C(=O)NCCCNC(=O)c2ccc(-c3c4nc(c(-c5c(F)cc(S(=O)(=O)[O-])cc5F)c5ccc([nH]5)c(-c5c(F)cc(S(=O)(=O)[O-])cc5F)c5nc(c(-c6c(F)cc(S(=O)(=O)[O-])cc6F)c6ccc3[nH]6)C=C5)C=C4)cc2)cc1S(=O)(=O)C(CC)CC
REMARK SMILES IDX 11 1 10 2 9 3 7 4 8 5 6 7 3 8 4 9 83 10 5 11 82 12 2 13 1 14
REMARK SMILES IDX 84 15 85 16 86 17 87 18 88 19 89 20 90 21 91 22 12 23 13 24
REMARK SMILES IDX 14 25 15 27 16 28 17 29 81 30 18 31 80 32 19 33 20 34 21 35
REMARK SMILES IDX 74 36 22 37 79 38 73 39 75 40 23 41 78 42 72 43 71 44 24 46
REMARK SMILES IDX 58 47 37 48 57 49 38 50 41 51 56 52 76 53 39 54 40 55 55 57
REMARK SMILES IDX 77 58 42 59 25 60 26 61 35 62 27 63 28 64 34 65 36 66 29 67
REMARK SMILES IDX 30 68 31 69 32 70 33 71 59 72 60 73 69 74 61 75 62 76 68 77
REMARK SMILES IDX 70 78 63 79 64 80 65 81 66 82 67 83 43 84 44 85 53 86 45 87
REMARK SMILES IDX 46 88 52 89 54 90 47 91 48 92 49 93 50 94 51 95
REMARK H PARENT 9 6 13 26 75 45 41 56
REMARK Flexibility Score: inf
ROOT
ATOM      1  C   UNL A   1      39.058  22.067  26.232  1.00  0.00     0.042 C 
ENDROOT
BRANCH   1   2
ATOM      2  C   UNL A   1      37.629  22.447  25.837  1.00  0.00     0.118 C 
BRANCH   2   3
ATOM      3  N   UNL A   1      37.508  22.632  24.400  1.00  0.00    -0.352 N 
ATOM      4  C   UNL A   1      36.470  22.978  23.574  1.00  0.00     0.251 C 
ATOM      5  O   UNL A   1      36.725  23.090  22.374  1.00  0.00    -0.269 OA
ATOM      6  H   UNL A   1      38.351  22.477  23.918  1.00  0.00     0.163 HD
BRANCH   4   7
ATOM      7  C   UNL A   1      35.085  23.275  24.039  1.00  0.00     0.041 A 
ATOM      8  C   UNL A   1      32.380  23.685  24.888  1.00  0.00    -0.030 A 
ATOM      9  C   UNL A   1      32.931  22.394  24.704  1.00  0.00     0.006 A 
ATOM     10  C   UNL A   1      33.208  24.783  24.620  1.00  0.00     0.071 A 
ATOM     11  C   UNL A   1      34.244  22.191  24.273  1.00  0.00     0.014 A 
ATOM     12  C   UNL A   1      34.568  24.546  24.268  1.00  0.00     0.034 A 
BRANCH   8  13
ATOM     13  C   UNL A   1      30.966  23.681  25.392  1.00  0.00     0.033 C 
ATOM     14  C   UNL A   1      30.677  22.512  26.328  1.00  0.00     0.009 C 
ENDBRANCH   8  13
BRANCH  10  15
ATOM     15  S   UNL A   1      32.861  26.544  24.515  1.00  0.00     0.181 S 
ATOM     16  O   UNL A   1      32.413  26.888  25.855  1.00  0.00    -0.223 OA
ATOM     17  O   UNL A   1      34.121  27.105  24.049  1.00  0.00    -0.223 OA
BRANCH  15  18
ATOM     18  C   UNL A   1      31.631  27.156  23.409  1.00  0.00     0.113 C 
BRANCH  18  19
ATOM     19  C   UNL A   1      31.493  28.697  23.332  1.00  0.00     0.017 C 
ATOM     20  C   UNL A   1      30.123  29.347  23.418  1.00  0.00     0.005 C 
ENDBRANCH  18  19
BRANCH  18  21
ATOM     21  C   UNL A   1      31.408  26.372  22.106  1.00  0.00     0.017 C 
ATOM     22  C   UNL A   1      32.698  26.047  21.354  1.00  0.00     0.005 C 
ENDBRANCH  18  21
ENDBRANCH  15  18
ENDBRANCH  10  15
ENDBRANCH   4   7
ENDBRANCH   2   3
ENDBRANCH   1   2
BRANCH   1  23
ATOM     23  C   UNL A   1      39.829  23.204  26.902  1.00  0.00     0.118 C 
BRANCH  23  24
ATOM     24  N   UNL A   1      40.942  23.666  26.085  1.00  0.00    -0.352 N 
ATOM     25  C   UNL A   1      41.640  24.846  26.135  1.00  0.00     0.251 C 
ATOM     26  H   UNL A   1      41.241  23.035  25.390  1.00  0.00     0.163 HD
ATOM     27  O   UNL A   1      42.419  25.121  25.226  1.00  0.00    -0.269 OA
BRANCH  25  28
ATOM     28  C   UNL A   1      41.457  25.789  27.261  1.00  0.00     0.039 A 
ATOM     29  C   UNL A   1      42.369  26.839  27.409  1.00  0.00     0.014 A 
ATOM     30  C   UNL A   1      40.436  25.612  28.200  1.00  0.00     0.014 A 
ATOM     31  C   UNL A   1      42.234  27.735  28.472  1.00  0.00     0.010 A 
ATOM     32  C   UNL A   1      40.273  26.537  29.231  1.00  0.00     0.010 A 
ATOM     33  C   UNL A   1      41.173  27.603  29.380  1.00  0.00    -0.014 A 
BRANCH  33  34
ATOM     34  C   UNL A   1      40.993  28.569  30.493  1.00  0.00     0.031 A 
ATOM     35  C   UNL A   1      41.832  28.457  31.736  1.00  0.00     0.074 A 
ATOM     36  C   UNL A   1      40.034  29.511  30.406  1.00  0.00     0.049 A 
ATOM     37  N   UNL A   1      41.769  29.154  32.842  1.00  0.00    -0.248 NA
ATOM     38  C   UNL A   1      42.864  27.407  31.746  1.00  0.00     0.031 C 
ATOM     39  C   UNL A   1      39.129  29.693  29.269  1.00  0.00     0.029 A 
ATOM     40  N   UNL A   1      39.650  30.483  31.296  1.00  0.00    -0.354 N 
ATOM     41  C   UNL A   1      42.737  28.620  33.683  1.00  0.00     0.074 A 
ATOM     42  C   UNL A   1      43.348  27.515  32.976  1.00  0.00     0.031 C 
ATOM     43  C   UNL A   1      38.302  30.720  29.526  1.00  0.00     0.029 A 
ATOM     44  C   UNL A   1      38.596  31.249  30.854  1.00  0.00     0.049 A 
ATOM     45  H   UNL A   1      40.087  30.621  32.167  1.00  0.00     0.167 HD
ATOM     46  C   UNL A   1      43.096  29.025  34.926  1.00  0.00     0.037 A 
ATOM     47  C   UNL A   1      37.935  32.256  31.456  1.00  0.00     0.037 A 
ATOM     48  C   UNL A   1      42.503  30.141  35.615  1.00  0.00     0.049 A 
ATOM     49  C   UNL A   1      38.364  32.700  32.827  1.00  0.00     0.074 A 
ATOM     50  C   UNL A   1      42.829  30.660  36.856  1.00  0.00     0.029 A 
ATOM     51  N   UNL A   1      41.463  30.915  35.120  1.00  0.00    -0.354 N 
ATOM     52  N   UNL A   1      39.313  32.213  33.591  1.00  0.00    -0.248 NA
ATOM     53  C   UNL A   1      37.640  33.835  33.416  1.00  0.00     0.031 C 
ATOM     54  C   UNL A   1      41.967  31.731  37.123  1.00  0.00     0.029 A 
ATOM     55  C   UNL A   1      41.129  31.901  36.033  1.00  0.00     0.049 A 
ATOM     56  H   UNL A   1      41.027  30.783  34.247  1.00  0.00     0.167 HD
ATOM     57  C   UNL A   1      39.313  32.993  34.741  1.00  0.00     0.074 A 
ATOM     58  C   UNL A   1      38.277  33.991  34.568  1.00  0.00     0.031 C 
ATOM     59  C   UNL A   1      40.098  32.891  35.841  1.00  0.00     0.037 A 
BRANCH  46  60
ATOM     60  C   UNL A   1      44.187  28.255  35.617  1.00  0.00     0.058 A 
ATOM     61  C   UNL A   1      43.899  27.163  36.451  1.00  0.00     0.135 A 
ATOM     62  C   UNL A   1      45.536  28.595  35.427  1.00  0.00     0.135 A 
ATOM     63  F   UNL A   1      42.626  26.804  36.679  1.00  0.00    -0.206 F 
ATOM     64  C   UNL A   1      44.908  26.454  37.097  1.00  0.00     0.059 A 
ATOM     65  C   UNL A   1      46.563  27.885  36.044  1.00  0.00     0.059 A 
ATOM     66  F   UNL A   1      45.868  29.629  34.638  1.00  0.00    -0.206 F 
ATOM     67  C   UNL A   1      46.237  26.827  36.890  1.00  0.00     0.060 A 
BRANCH  67  68
ATOM     68  S   UNL A   1      47.535  25.902  37.737  1.00  0.00     0.124 S 
ATOM     69  O   UNL A   1      47.713  26.694  38.950  1.00  0.00    -0.237 OA
ATOM     70  O   UNL A   1      46.919  24.591  37.923  1.00  0.00    -0.237 OA
ATOM     71  O   UNL A   1      48.648  25.938  36.794  1.00  0.00    -0.744 OA
ENDBRANCH  67  68
ENDBRANCH  46  60
BRANCH  47  72
ATOM     72  C   UNL A   1      36.812  32.926  30.752  1.00  0.00     0.058 A 
ATOM     73  C   UNL A   1      35.480  32.635  31.081  1.00  0.00     0.135 A 
ATOM     74  C   UNL A   1      37.046  33.889  29.758  1.00  0.00     0.135 A 
ATOM     75  F   UNL A   1      35.208  31.718  32.021  1.00  0.00    -0.206 F 
ATOM     76  C   UNL A   1      34.418  33.264  30.441  1.00  0.00     0.059 A 
ATOM     77  C   UNL A   1      36.001  34.547  29.118  1.00  0.00     0.059 A 
ATOM     78  F   UNL A   1      38.304  34.215  29.421  1.00  0.00    -0.206 F 
ATOM     79  C   UNL A   1      34.688  34.221  29.461  1.00  0.00     0.060 A 
BRANCH  79  80
ATOM     80  S   UNL A   1      33.305  35.074  28.673  1.00  0.00     0.124 S 
ATOM     81  O   UNL A   1      32.704  33.999  27.893  1.00  0.00    -0.237 OA
ATOM     82  O   UNL A   1      32.532  35.537  29.822  1.00  0.00    -0.237 OA
ATOM     83  O   UNL A   1      33.957  36.128  27.902  1.00  0.00    -0.744 OA
ENDBRANCH  79  80
ENDBRANCH  47  72
BRANCH  59  84
ATOM     84  C   UNL A   1      39.888  33.901  36.933  1.00  0.00     0.058 A 
ATOM     85  C   UNL A   1      40.421  35.195  36.848  1.00  0.00     0.135 A 
ATOM     86  C   UNL A   1      39.105  33.584  38.054  1.00  0.00     0.135 A 
ATOM     87  F   UNL A   1      41.183  35.545  35.798  1.00  0.00    -0.206 F 
ATOM     88  C   UNL A   1      40.201  36.138  37.847  1.00  0.00     0.059 A 
ATOM     89  C   UNL A   1      38.854  34.517  39.055  1.00  0.00     0.059 A 
ATOM     90  F   UNL A   1      38.566  32.360  38.179  1.00  0.00    -0.206 F 
ATOM     91  C   UNL A   1      39.416  35.789  38.947  1.00  0.00     0.060 A 
BRANCH  91  92
ATOM     92  S   UNL A   1      39.106  37.030  40.222  1.00  0.00     0.124 S 
ATOM     93  O   UNL A   1      38.184  36.321  41.103  1.00  0.00    -0.237 OA
ATOM     94  O   UNL A   1      40.441  37.268  40.761  1.00  0.00    -0.237 OA
ATOM     95  O   UNL A   1      38.530  38.145  39.477  1.00  0.00    -0.744 OA
ENDBRANCH  91  92
ENDBRANCH  59  84
ENDBRANCH  33  34
ENDBRANCH  25  28
ENDBRANCH  23  24
ENDBRANCH   1  23
TORSDOF 18
ENDMDL
MODEL 3
REMARK VINA RESULT:     -10.8      1.702      2.940
REMARK SMILES CCc1ccc(C(=O)NCCCNC(=O)c2ccc(-c3c4nc(c(-c5c(F)cc(S(=O)(=O)[O-])cc5F)c5ccc([nH]5)c(-c5c(F)cc(S(=O)(=O)[O-])cc5F)c5nc(c(-c6c(F)cc(S(=O)(=O)[O-])cc6F)c6ccc3[nH]6)C=C5)C=C4)cc2)cc1S(=O)(=O)C(CC)CC
REMARK SMILES IDX 11 1 10 2 9 3 7 4 8 5 6 7 3 8 4 9 83 10 5 11 82 12 2 13 1 14
REMARK SMILES IDX 84 15 85 16 86 17 87 18 88 19 89 20 90 21 91 22 12 23 13 24
REMARK SMILES IDX 14 25 15 27 16 28 17 29 81 30 18 31 80 32 19 33 20 34 21 35
REMARK SMILES IDX 74 36 22 37 79 38 73 39 75 40 23 41 78 42 72 43 71 44 24 46
REMARK SMILES IDX 58 47 37 48 57 49 38 50 41 51 56 52 76 53 39 54 40 55 55 57
REMARK SMILES IDX 77 58 42 59 25 60 26 61 35 62 27 63 28 64 34 65 36 66 29 67
REMARK SMILES IDX 30 68 31 69 32 70 33 71 59 72 60 73 69 74 61 75 62 76 68 77
REMARK SMILES IDX 70 78 63 79 64 80 65 81 66 82 67 83 43 84 44 85 53 86 45 87
REMARK SMILES IDX 46 88 52 89 54 90 47 91 48 92 49 93 50 94 51 95
REMARK H PARENT 9 6 13 26 75 45 41 56
REMARK Flexibility Score: inf
ROOT
ATOM      1  C   UNL A   1      35.109  29.695  27.619  1.00  0.00     0.042 C 
ENDROOT
BRANCH   1   2
ATOM      2  C   UNL A   1      33.808  29.775  26.816  1.00  0.00     0.118 C 
BRANCH   2   3
ATOM      3  N   UNL A   1      32.705  29.153  27.532  1.00  0.00    -0.352 N 
ATOM      4  C   UNL A   1      31.883  28.090  27.265  1.00  0.00     0.251 C 
ATOM      5  O   UNL A   1      31.054  27.795  28.128  1.00  0.00    -0.269 OA
ATOM      6  H   UNL A   1      32.508  29.589  28.392  1.00  0.00     0.163 HD
BRANCH   4   7
ATOM      7  C   UNL A   1      31.964  27.247  26.038  1.00  0.00     0.041 A 
ATOM      8  C   UNL A   1      31.955  25.665  23.651  1.00  0.00    -0.030 A 
ATOM      9  C   UNL A   1      30.959  26.633  23.924  1.00  0.00     0.006 A 
ATOM     10  C   UNL A   1      32.959  25.484  24.610  1.00  0.00     0.071 A 
ATOM     11  C   UNL A   1      30.951  27.394  25.095  1.00  0.00     0.014 A 
ATOM     12  C   UNL A   1      32.975  26.335  25.753  1.00  0.00     0.034 A 
BRANCH   8  13
ATOM     13  C   UNL A   1      31.800  24.986  22.321  1.00  0.00     0.033 C 
ATOM     14  C   UNL A   1      32.627  25.645  21.222  1.00  0.00     0.009 C 
ENDBRANCH   8  13
BRANCH  10  15
ATOM     15  S   UNL A   1      34.255  24.249  24.767  1.00  0.00     0.181 S 
ATOM     16  O   UNL A   1      34.882  24.238  23.454  1.00  0.00    -0.223 OA
ATOM     17  O   UNL A   1      35.039  24.728  25.897  1.00  0.00    -0.223 OA
BRANCH  15  18
ATOM     18  C   UNL A   1      33.861  22.570  25.141  1.00  0.00     0.113 C 
BRANCH  18  19
ATOM     19  C   UNL A   1      32.976  21.833  24.105  1.00  0.00     0.017 C 
ATOM     20  C   UNL A   1      32.297  20.527  24.472  1.00  0.00     0.005 C 
ENDBRANCH  18  19
BRANCH  18  21
ATOM     21  C   UNL A   1      34.941  21.739  25.851  1.00  0.00     0.017 C 
ATOM     22  C   UNL A   1      35.869  20.990  24.895  1.00  0.00     0.005 C 
ENDBRANCH  18  21
ENDBRANCH  15  18
ENDBRANCH  10  15
ENDBRANCH   4   7
ENDBRANCH   2   3
ENDBRANCH   1   2
BRANCH   1  23
ATOM     23  C   UNL A   1      35.587  31.049  28.141  1.00  0.00     0.118 C 
BRANCH  23  24
ATOM     24  N   UNL A   1      35.512  31.133  29.593  1.00  0.00    -0.352 N 
ATOM     25  C   UNL A   1      36.406  30.716  30.545  1.00  0.00     0.251 C 
ATOM     26  H   UNL A   1      34.694  31.555  29.945  1.00  0.00     0.163 HD
ATOM     27  O   UNL A   1      36.063  30.703  31.725  1.00  0.00    -0.269 OA
BRANCH  25  28
ATOM     28  C   UNL A   1      37.767  30.275  30.168  1.00  0.00     0.039 A 
ATOM     29  C   UNL A   1      38.155  30.377  28.828  1.00  0.00     0.014 A 
ATOM     30  C   UNL A   1      38.635  29.709  31.107  1.00  0.00     0.014 A 
ATOM     31  C   UNL A   1      39.428  29.952  28.437  1.00  0.00     0.010 A 
ATOM     32  C   UNL A   1      39.922  29.332  30.724  1.00  0.00     0.010 A 
ATOM     33  C   UNL A   1      40.329  29.444  29.386  1.00  0.00    -0.014 A 
BRANCH  33  34
ATOM     34  C   UNL A   1      41.697  29.024  28.993  1.00  0.00     0.031 A 
ATOM     35  C   UNL A   1      42.818  30.025  28.966  1.00  0.00     0.074 A 
ATOM     36  C   UNL A   1      41.916  27.752  28.606  1.00  0.00     0.049 A 
ATOM     37  N   UNL A   1      44.058  29.869  28.579  1.00  0.00    -0.248 NA
ATOM     38  C   UNL A   1      42.498  31.390  29.415  1.00  0.00     0.031 C 
ATOM     39  C   UNL A   1      40.899  26.700  28.549  1.00  0.00     0.029 A 
ATOM     40  N   UNL A   1      43.061  27.132  28.171  1.00  0.00    -0.354 N 
ATOM     41  C   UNL A   1      44.661  31.113  28.719  1.00  0.00     0.074 A 
ATOM     42  C   UNL A   1      43.641  32.025  29.191  1.00  0.00     0.031 C 
ATOM     43  C   UNL A   1      41.467  25.562  28.114  1.00  0.00     0.029 A 
ATOM     44  C   UNL A   1      42.878  25.812  27.833  1.00  0.00     0.049 A 
ATOM     45  H   UNL A   1      43.930  27.589  28.107  1.00  0.00     0.167 HD
ATOM     46  C   UNL A   1      45.951  31.460  28.491  1.00  0.00     0.037 A 
ATOM     47  C   UNL A   1      43.747  24.907  27.343  1.00  0.00     0.037 A 
ATOM     48  C   UNL A   1      46.968  30.543  28.045  1.00  0.00     0.049 A 
ATOM     49  C   UNL A   1      45.177  25.310  27.117  1.00  0.00     0.074 A 
ATOM     50  C   UNL A   1      48.314  30.786  27.831  1.00  0.00     0.029 A 
ATOM     51  N   UNL A   1      46.752  29.204  27.750  1.00  0.00    -0.354 N 
ATOM     52  N   UNL A   1      45.742  26.480  27.299  1.00  0.00    -0.248 NA
ATOM     53  C   UNL A   1      46.092  24.270  26.627  1.00  0.00     0.031 C 
ATOM     54  C   UNL A   1      48.906  29.600  27.380  1.00  0.00     0.029 A 
ATOM     55  C   UNL A   1      47.937  28.611  27.346  1.00  0.00     0.049 A 
ATOM     56  H   UNL A   1      45.884  28.744  27.817  1.00  0.00     0.167 HD
ATOM     57  C   UNL A   1      47.080  26.314  26.964  1.00  0.00     0.074 A 
ATOM     58  C   UNL A   1      47.244  24.926  26.580  1.00  0.00     0.031 C 
ATOM     59  C   UNL A   1      48.082  27.226  26.973  1.00  0.00     0.037 A 
BRANCH  46  60
ATOM     60  C   UNL A   1      46.335  32.894  28.726  1.00  0.00     0.058 A 
ATOM     61  C   UNL A   1      46.230  33.858  27.711  1.00  0.00     0.135 A 
ATOM     62  C   UNL A   1      46.789  33.318  29.986  1.00  0.00     0.135 A 
ATOM     63  F   UNL A   1      45.816  33.504  26.484  1.00  0.00    -0.206 F 
ATOM     64  C   UNL A   1      46.592  35.184  27.926  1.00  0.00     0.059 A 
ATOM     65  C   UNL A   1      47.133  34.645  30.230  1.00  0.00     0.059 A 
ATOM     66  F   UNL A   1      46.906  32.439  30.993  1.00  0.00    -0.206 F 
ATOM     67  C   UNL A   1      47.047  35.567  29.189  1.00  0.00     0.060 A 
BRANCH  67  68
ATOM     68  S   UNL A   1      47.516  37.290  29.452  1.00  0.00     0.124 S 
ATOM     69  O   UNL A   1      47.179  37.471  30.860  1.00  0.00    -0.237 OA
ATOM     70  O   UNL A   1      48.943  37.280  29.140  1.00  0.00    -0.237 OA
ATOM     71  O   UNL A   1      46.677  38.019  28.506  1.00  0.00    -0.744 OA
ENDBRANCH  67  68
ENDBRANCH  46  60
BRANCH  47  72
ATOM     72  C   UNL A   1      43.288  23.524  27.055  1.00  0.00     0.058 A 
ATOM     73  C   UNL A   1      43.070  23.098  25.737  1.00  0.00     0.135 A 
ATOM     74  C   UNL A   1      43.084  22.595  28.087  1.00  0.00     0.135 A 
ATOM     75  F   UNL A   1      43.246  23.952  24.719  1.00  0.00    -0.206 F 
ATOM     76  C   UNL A   1      42.653  21.802  25.451  1.00  0.00     0.059 A 
ATOM     77  C   UNL A   1      42.688  21.287  27.824  1.00  0.00     0.059 A 
ATOM     78  F   UNL A   1      43.297  22.950  29.364  1.00  0.00    -0.206 F 
ATOM     79  C   UNL A   1      42.467  20.902  26.502  1.00  0.00     0.060 A 
BRANCH  79  80
ATOM     80  S   UNL A   1      41.979  19.206  26.118  1.00  0.00     0.124 S 
ATOM     81  O   UNL A   1      42.812  18.918  24.956  1.00  0.00    -0.237 OA
ATOM     82  O   UNL A   1      42.331  18.498  27.346  1.00  0.00    -0.237 OA
ATOM     83  O   UNL A   1      40.547  19.320  25.859  1.00  0.00    -0.744 OA
ENDBRANCH  79  80
ENDBRANCH  47  72
BRANCH  59  84
ATOM     84  C   UNL A   1      49.452  26.748  26.583  1.00  0.00     0.058 A 
ATOM     85  C   UNL A   1      50.329  26.188  27.522  1.00  0.00     0.135 A 
ATOM     86  C   UNL A   1      49.871  26.809  25.244  1.00  0.00     0.135 A 
ATOM     87  F   UNL A   1      49.976  26.113  28.816  1.00  0.00    -0.206 F 
ATOM     88  C   UNL A   1      51.586  25.720  27.153  1.00  0.00     0.059 A 
ATOM     89  C   UNL A   1      51.115  26.328  24.848  1.00  0.00     0.059 A 
ATOM     90  F   UNL A   1      49.065  27.331  24.306  1.00  0.00    -0.206 F 
ATOM     91  C   UNL A   1      51.970  25.794  25.812  1.00  0.00     0.060 A 
BRANCH  91  92
ATOM     92  S   UNL A   1      53.589  25.152  25.336  1.00  0.00     0.124 S 
ATOM     93  O   UNL A   1      53.797  25.809  24.050  1.00  0.00    -0.237 OA
ATOM     94  O   UNL A   1      54.443  25.609  26.427  1.00  0.00    -0.237 OA
ATOM     95  O   UNL A   1      53.377  23.709  25.277  1.00  0.00    -0.744 OA
ENDBRANCH  91  92
ENDBRANCH  59  84
ENDBRANCH  33  34
ENDBRANCH  25  28
ENDBRANCH  23  24
ENDBRANCH   1  23
TORSDOF 18
ENDMDL
