MODEL 1
REMARK VINA RESULT:     -12.7      0.000      0.000
REMARK SMILES CC(=O)OCC1=C(C(=O)NCCCNC(=O)c2ccc(-c3c4nc(c(-c5c(F)cc(S(=O)(=O)[O-])cc5F)c5ccc([nH]5)c(-c5c(F)cc(S(=O)(=O)[O-])cc5F)c5nc(c(-c6c(F)cc(S(=O)(=O)[O-])cc6F)c6ccc3[nH]6)C=C5)C=C4)cc2)N2C(=O)[C@H](NC(=O)C3CCCCC3)[C@@H]2SC1
REMARK SMILES IDX 12 1 11 2 10 3 8 4 9 5 7 7 6 8 98 9 83 10 97 11 84 12 96 13
REMARK SMILES IDX 85 14 86 15 5 16 4 17 2 18 1 19 3 20 87 21 88 22 89 24 90 25
REMARK SMILES IDX 91 26 95 27 92 28 94 29 93 30 13 31 14 32 15 33 16 35 17 36
REMARK SMILES IDX 18 37 82 38 19 39 81 40 20 41 21 42 22 43 75 44 23 45 80 46
REMARK SMILES IDX 74 47 76 48 24 49 79 50 73 51 72 52 25 54 59 55 38 56 58 57
REMARK SMILES IDX 39 58 42 59 57 60 77 61 40 62 41 63 56 65 78 66 43 67 26 68
REMARK SMILES IDX 27 69 36 70 28 71 29 72 35 73 37 74 30 75 31 76 32 77 33 78
REMARK SMILES IDX 34 79 60 80 61 81 70 82 62 83 63 84 69 85 71 86 64 87 65 88
REMARK SMILES IDX 66 89 67 90 68 91 44 92 45 93 54 94 46 95 47 96 53 97 55 98
REMARK SMILES IDX 48 99 49 100 50 101 51 102 52 103
REMARK H PARENT 10 6 87 23 14 34 76 53 42 64
REMARK Flexibility Score: inf
ROOT
ATOM      1  C   UNL A   1      33.874  30.754  27.319  1.00  0.00     0.042 C 
ENDROOT
BRANCH   1   2
ATOM      2  C   UNL A   1      33.241  29.638  26.497  1.00  0.00     0.118 C 
BRANCH   2   3
ATOM      3  N   UNL A   1      33.674  29.527  25.119  1.00  0.00    -0.351 N 
ATOM      4  C   UNL A   1      33.082  29.010  24.002  1.00  0.00     0.268 C 
ATOM      5  O   UNL A   1      33.644  29.272  22.939  1.00  0.00    -0.268 OA
ATOM      6  H   UNL A   1      34.572  29.897  24.956  1.00  0.00     0.163 HD
BRANCH   4   7
ATOM      7  C   UNL A   1      31.894  28.060  24.056  1.00  0.00     0.114 C 
ATOM      8  C   UNL A   1      30.688  28.292  23.472  1.00  0.00     0.007 C 
ATOM      9  C   UNL A   1      29.501  27.356  23.584  1.00  0.00     0.108 C 
ATOM     10  N   UNL A   1      32.129  26.849  24.672  1.00  0.00    -0.290 N 
ATOM     11  S   UNL A   1      29.933  25.622  23.766  1.00  0.00    -0.129 SA
ATOM     12  C   UNL A   1      33.152  25.955  24.613  1.00  0.00     0.253 C 
ATOM     13  C   UNL A   1      31.119  25.905  25.107  1.00  0.00     0.181 C 
ATOM     14  O   UNL A   1      34.266  25.948  24.140  1.00  0.00    -0.272 OA
ATOM     15  C   UNL A   1      32.260  24.832  25.214  1.00  0.00     0.205 C 
BRANCH   8  16
ATOM     16  C   UNL A   1      30.382  29.435  22.526  1.00  0.00     0.267 C 
BRANCH  16  17
ATOM     17  O   UNL A   1      29.076  29.238  21.960  1.00  0.00    -0.461 OA
BRANCH  17  18
ATOM     18  C   UNL A   1      28.226  30.293  21.901  1.00  0.00     0.302 C 
ATOM     19  C   UNL A   1      27.675  30.568  23.267  1.00  0.00     0.139 C 
ATOM     20  O   UNL A   1      27.924  30.903  20.887  1.00  0.00    -0.253 OA
ENDBRANCH  17  18
ENDBRANCH  16  17
ENDBRANCH   8  16
BRANCH  15  21
ATOM     21  N   UNL A   1      32.128  23.623  24.362  1.00  0.00    -0.342 N 
ATOM     22  C   UNL A   1      32.920  22.535  24.178  1.00  0.00     0.223 C 
ATOM     23  H   UNL A   1      31.304  23.607  23.825  1.00  0.00     0.164 HD
ATOM     24  O   UNL A   1      32.424  21.625  23.506  1.00  0.00    -0.275 OA
BRANCH  22  25
ATOM     25  C   UNL A   1      34.385  22.458  24.641  1.00  0.00     0.078 C 
ATOM     26  C   UNL A   1      34.869  21.129  25.228  1.00  0.00     0.013 C 
ATOM     27  C   UNL A   1      35.285  22.851  23.443  1.00  0.00     0.013 C 
ATOM     28  C   UNL A   1      36.363  21.149  25.563  1.00  0.00     0.001 C 
ATOM     29  C   UNL A   1      36.775  22.842  23.768  1.00  0.00     0.001 C 
ATOM     30  C   UNL A   1      37.211  21.507  24.354  1.00  0.00     0.000 C 
ENDBRANCH  22  25
ENDBRANCH  15  21
ENDBRANCH   4   7
ENDBRANCH   2   3
ENDBRANCH   1   2
BRANCH   1  31
ATOM     31  C   UNL A   1      35.208  30.428  27.978  1.00  0.00     0.118 C 
BRANCH  31  32
ATOM     32  N   UNL A   1      35.267  30.698  29.409  1.00  0.00    -0.352 N 
ATOM     33  C   UNL A   1      36.294  30.685  30.327  1.00  0.00     0.251 C 
ATOM     34  H   UNL A   1      34.396  30.938  29.799  1.00  0.00     0.163 HD
ATOM     35  O   UNL A   1      36.019  30.900  31.507  1.00  0.00    -0.269 OA
BRANCH  33  36
ATOM     36  C   UNL A   1      37.695  30.371  29.956  1.00  0.00     0.039 A 
ATOM     37  C   UNL A   1      38.578  29.950  30.960  1.00  0.00     0.014 A 
ATOM     38  C   UNL A   1      38.178  30.512  28.658  1.00  0.00     0.014 A 
ATOM     39  C   UNL A   1      39.893  29.585  30.643  1.00  0.00     0.010 A 
ATOM     40  C   UNL A   1      39.442  30.034  28.320  1.00  0.00     0.010 A 
ATOM     41  C   UNL A   1      40.323  29.569  29.307  1.00  0.00    -0.014 A 
BRANCH  41  42
ATOM     42  C   UNL A   1      41.682  29.102  28.913  1.00  0.00     0.031 A 
ATOM     43  C   UNL A   1      42.826  30.087  28.840  1.00  0.00     0.074 A 
ATOM     44  C   UNL A   1      41.871  27.826  28.516  1.00  0.00     0.049 A 
ATOM     45  N   UNL A   1      44.028  29.925  28.347  1.00  0.00    -0.248 NA
ATOM     46  C   UNL A   1      42.569  31.448  29.340  1.00  0.00     0.031 C 
ATOM     47  C   UNL A   1      40.840  26.786  28.468  1.00  0.00     0.029 A 
ATOM     48  N   UNL A   1      42.998  27.188  28.058  1.00  0.00    -0.354 N 
ATOM     49  C   UNL A   1      44.643  31.171  28.423  1.00  0.00     0.074 A 
ATOM     50  C   UNL A   1      43.671  32.088  28.976  1.00  0.00     0.031 C 
ATOM     51  C   UNL A   1      41.385  25.640  28.028  1.00  0.00     0.029 A 
ATOM     52  C   UNL A   1      42.794  25.868  27.725  1.00  0.00     0.049 A 
ATOM     53  H   UNL A   1      43.872  27.634  27.974  1.00  0.00     0.167 HD
ATOM     54  C   UNL A   1      45.908  31.515  28.087  1.00  0.00     0.037 A 
ATOM     55  C   UNL A   1      43.642  24.948  27.226  1.00  0.00     0.037 A 
ATOM     56  C   UNL A   1      46.905  30.579  27.639  1.00  0.00     0.049 A 
ATOM     57  C   UNL A   1      45.072  25.334  26.963  1.00  0.00     0.074 A 
ATOM     58  C   UNL A   1      48.245  30.811  27.377  1.00  0.00     0.029 A 
ATOM     59  N   UNL A   1      46.680  29.231  27.415  1.00  0.00    -0.354 N 
ATOM     60  N   UNL A   1      45.646  26.506  27.095  1.00  0.00    -0.248 NA
ATOM     61  C   UNL A   1      45.974  24.273  26.492  1.00  0.00     0.031 C 
ATOM     62  C   UNL A   1      48.828  29.602  26.980  1.00  0.00     0.029 A 
ATOM     63  C   UNL A   1      47.856  28.616  27.023  1.00  0.00     0.049 A 
ATOM     64  H   UNL A   1      45.812  28.778  27.521  1.00  0.00     0.167 HD
ATOM     65  C   UNL A   1      46.982  26.313  26.760  1.00  0.00     0.074 A 
ATOM     66  C   UNL A   1      47.133  24.912  26.426  1.00  0.00     0.031 C 
ATOM     67  C   UNL A   1      47.993  27.214  26.730  1.00  0.00     0.037 A 
BRANCH  54  68
ATOM     68  C   UNL A   1      46.308  32.959  28.218  1.00  0.00     0.058 A 
ATOM     69  C   UNL A   1      46.154  33.865  27.159  1.00  0.00     0.135 A 
ATOM     70  C   UNL A   1      46.786  33.456  29.442  1.00  0.00     0.135 A 
ATOM     71  F   UNL A   1      45.717  33.439  25.963  1.00  0.00    -0.206 F 
ATOM     72  C   UNL A   1      46.473  35.211  27.301  1.00  0.00     0.059 A 
ATOM     73  C   UNL A   1      47.087  34.804  29.615  1.00  0.00     0.059 A 
ATOM     74  F   UNL A   1      46.953  32.631  30.488  1.00  0.00    -0.206 F 
ATOM     75  C   UNL A   1      46.936  35.672  28.534  1.00  0.00     0.060 A 
BRANCH  75  76
ATOM     76  S   UNL A   1      47.310  37.429  28.715  1.00  0.00     0.124 S 
ATOM     77  O   UNL A   1      46.343  38.027  27.799  1.00  0.00    -0.237 OA
ATOM     78  O   UNL A   1      47.064  37.657  30.134  1.00  0.00    -0.237 OA
ATOM     79  O   UNL A   1      48.706  37.523  28.302  1.00  0.00    -0.744 OA
ENDBRANCH  75  76
ENDBRANCH  54  68
BRANCH  55  80
ATOM     80  C   UNL A   1      43.179  23.560  26.963  1.00  0.00     0.058 A 
ATOM     81  C   UNL A   1      43.004  22.650  28.017  1.00  0.00     0.135 A 
ATOM     82  C   UNL A   1      42.933  23.105  25.659  1.00  0.00     0.135 A 
ATOM     83  F   UNL A   1      43.229  23.039  29.281  1.00  0.00    -0.206 F 
ATOM     84  C   UNL A   1      42.639  21.328  27.787  1.00  0.00     0.059 A 
ATOM     85  C   UNL A   1      42.544  21.793  25.405  1.00  0.00     0.059 A 
ATOM     86  F   UNL A   1      43.063  23.942  24.618  1.00  0.00    -0.206 F 
ATOM     87  C   UNL A   1      42.419  20.907  26.476  1.00  0.00     0.060 A 
BRANCH  87  88
ATOM     88  S   UNL A   1      41.935  19.192  26.180  1.00  0.00     0.124 S 
ATOM     89  O   UNL A   1      42.311  18.562  27.440  1.00  0.00    -0.237 OA
ATOM     90  O   UNL A   1      40.503  19.311  25.927  1.00  0.00    -0.237 OA
ATOM     91  O   UNL A   1      42.738  18.816  25.020  1.00  0.00    -0.744 OA
ENDBRANCH  87  88
ENDBRANCH  55  80
BRANCH  67  92
ATOM     92  C   UNL A   1      49.362  26.705  26.385  1.00  0.00     0.058 A 
ATOM     93  C   UNL A   1      49.883  26.811  25.087  1.00  0.00     0.135 A 
ATOM     94  C   UNL A   1      50.178  26.145  27.380  1.00  0.00     0.135 A 
ATOM     95  F   UNL A   1      49.138  27.335  24.101  1.00  0.00    -0.206 F 
ATOM     96  C   UNL A   1      51.161  26.357  24.781  1.00  0.00     0.059 A 
ATOM     97  C   UNL A   1      51.468  25.704  27.102  1.00  0.00     0.059 A 
ATOM     98  F   UNL A   1      49.728  26.031  28.639  1.00  0.00    -0.206 F 
ATOM     99  C   UNL A   1      51.945  25.803  25.795  1.00  0.00     0.060 A 
BRANCH  99 100
ATOM    100  S   UNL A   1      53.613  25.241  25.396  1.00  0.00     0.124 S 
ATOM    101  O   UNL A   1      54.395  25.869  26.456  1.00  0.00    -0.237 OA
ATOM    102  O   UNL A   1      53.484  23.788  25.480  1.00  0.00    -0.237 OA
ATOM    103  O   UNL A   1      53.836  25.767  24.053  1.00  0.00    -0.744 OA
ENDBRANCH  99 100
ENDBRANCH  67  92
ENDBRANCH  41  42
ENDBRANCH  33  36
ENDBRANCH  31  32
ENDBRANCH   1  31
TORSDOF 18
ENDMDL
MODEL 2
REMARK VINA RESULT:     -11.2      5.794     10.210
REMARK SMILES CC(=O)OCC1=C(C(=O)NCCCNC(=O)c2ccc(-c3c4nc(c(-c5c(F)cc(S(=O)(=O)[O-])cc5F)c5ccc([nH]5)c(-c5c(F)cc(S(=O)(=O)[O-])cc5F)c5nc(c(-c6c(F)cc(S(=O)(=O)[O-])cc6F)c6ccc3[nH]6)C=C5)C=C4)cc2)N2C(=O)[C@H](NC(=O)C3CCCCC3)[C@@H]2SC1
REMARK SMILES IDX 12 1 11 2 10 3 8 4 9 5 7 7 6 8 98 9 83 10 97 11 84 12 96 13
REMARK SMILES IDX 85 14 86 15 5 16 4 17 2 18 1 19 3 20 87 21 88 22 89 24 90 25
REMARK SMILES IDX 91 26 95 27 92 28 94 29 93 30 13 31 14 32 15 33 16 35 17 36
REMARK SMILES IDX 18 37 82 38 19 39 81 40 20 41 21 42 22 43 75 44 23 45 80 46
REMARK SMILES IDX 74 47 76 48 24 49 79 50 73 51 72 52 25 54 59 55 38 56 58 57
REMARK SMILES IDX 39 58 42 59 57 60 77 61 40 62 41 63 56 65 78 66 43 67 26 68
REMARK SMILES IDX 27 69 36 70 28 71 29 72 35 73 37 74 30 75 31 76 32 77 33 78
REMARK SMILES IDX 34 79 60 80 61 81 70 82 62 83 63 84 69 85 71 86 64 87 65 88
REMARK SMILES IDX 66 89 67 90 68 91 44 92 45 93 54 94 46 95 47 96 53 97 55 98
REMARK SMILES IDX 48 99 49 100 50 101 51 102 52 103
REMARK H PARENT 10 6 87 23 14 34 76 53 42 64
REMARK Flexibility Score: inf
ROOT
ATOM      1  C   UNL A   1      32.653  31.690  26.255  1.00  0.00     0.042 C 
ENDROOT
BRANCH   1   2
ATOM      2  C   UNL A   1      32.796  30.179  26.117  1.00  0.00     0.118 C 
BRANCH   2   3
ATOM      3  N   UNL A   1      33.480  29.702  24.932  1.00  0.00    -0.351 N 
ATOM      4  C   UNL A   1      33.095  28.888  23.906  1.00  0.00     0.268 C 
ATOM      5  O   UNL A   1      33.857  28.858  22.941  1.00  0.00    -0.268 OA
ATOM      6  H   UNL A   1      34.405  30.030  24.850  1.00  0.00     0.163 HD
BRANCH   4   7
ATOM      7  C   UNL A   1      31.885  27.967  23.987  1.00  0.00     0.114 C 
ATOM      8  C   UNL A   1      30.685  28.207  23.395  1.00  0.00     0.007 C 
ATOM      9  C   UNL A   1      29.477  27.302  23.534  1.00  0.00     0.108 C 
ATOM     10  N   UNL A   1      32.094  26.770  24.639  1.00  0.00    -0.290 N 
ATOM     11  S   UNL A   1      29.871  25.564  23.767  1.00  0.00    -0.129 SA
ATOM     12  C   UNL A   1      33.096  25.851  24.607  1.00  0.00     0.253 C 
ATOM     13  C   UNL A   1      31.063  25.861  25.101  1.00  0.00     0.181 C 
ATOM     14  O   UNL A   1      34.210  25.805  24.135  1.00  0.00    -0.272 OA
ATOM     15  C   UNL A   1      32.180  24.767  25.240  1.00  0.00     0.205 C 
BRANCH   8  16
ATOM     16  C   UNL A   1      30.404  29.328  22.416  1.00  0.00     0.267 C 
BRANCH  16  17
ATOM     17  O   UNL A   1      29.603  30.328  23.066  1.00  0.00    -0.461 OA
BRANCH  17  18
ATOM     18  C   UNL A   1      28.422  30.684  22.503  1.00  0.00     0.302 C 
ATOM     19  C   UNL A   1      27.648  31.536  23.463  1.00  0.00     0.139 C 
ATOM     20  O   UNL A   1      28.028  30.334  21.401  1.00  0.00    -0.253 OA
ENDBRANCH  17  18
ENDBRANCH  16  17
ENDBRANCH   8  16
BRANCH  15  21
ATOM     21  N   UNL A   1      32.021  23.537  24.424  1.00  0.00    -0.342 N 
ATOM     22  C   UNL A   1      32.813  22.449  24.234  1.00  0.00     0.223 C 
ATOM     23  H   UNL A   1      31.175  23.502  23.923  1.00  0.00     0.164 HD
ATOM     24  O   UNL A   1      32.296  21.519  23.605  1.00  0.00    -0.275 OA
BRANCH  22  25
ATOM     25  C   UNL A   1      34.296  22.393  24.637  1.00  0.00     0.078 C 
ATOM     26  C   UNL A   1      34.815  21.082  25.235  1.00  0.00     0.013 C 
ATOM     27  C   UNL A   1      35.142  22.762  23.393  1.00  0.00     0.013 C 
ATOM     28  C   UNL A   1      36.321  21.120  25.506  1.00  0.00     0.001 C 
ATOM     29  C   UNL A   1      36.644  22.770  23.654  1.00  0.00     0.001 C 
ATOM     30  C   UNL A   1      37.115  21.453  24.254  1.00  0.00     0.000 C 
ENDBRANCH  22  25
ENDBRANCH  15  21
ENDBRANCH   4   7
ENDBRANCH   2   3
ENDBRANCH   1   2
BRANCH   1  31
ATOM     31  C   UNL A   1      32.230  32.202  27.626  1.00  0.00     0.118 C 
BRANCH  31  32
ATOM     32  N   UNL A   1      32.409  33.634  27.828  1.00  0.00    -0.352 N 
ATOM     33  C   UNL A   1      33.369  34.380  28.475  1.00  0.00     0.251 C 
ATOM     34  H   UNL A   1      31.700  34.180  27.417  1.00  0.00     0.163 HD
ATOM     35  O   UNL A   1      33.214  35.599  28.531  1.00  0.00    -0.269 OA
BRANCH  33  36
ATOM     36  C   UNL A   1      34.541  33.766  29.146  1.00  0.00     0.039 A 
ATOM     37  C   UNL A   1      35.821  34.247  28.834  1.00  0.00     0.014 A 
ATOM     38  C   UNL A   1      34.424  32.710  30.044  1.00  0.00     0.014 A 
ATOM     39  C   UNL A   1      36.950  33.738  29.489  1.00  0.00     0.010 A 
ATOM     40  C   UNL A   1      35.527  32.290  30.785  1.00  0.00     0.010 A 
ATOM     41  C   UNL A   1      36.808  32.791  30.515  1.00  0.00    -0.014 A 
BRANCH  41  42
ATOM     42  C   UNL A   1      37.971  32.288  31.302  1.00  0.00     0.031 A 
ATOM     43  C   UNL A   1      38.804  31.145  30.770  1.00  0.00     0.074 A 
ATOM     44  C   UNL A   1      38.215  32.777  32.535  1.00  0.00     0.049 A 
ATOM     45  N   UNL A   1      39.730  30.446  31.374  1.00  0.00    -0.248 NA
ATOM     46  C   UNL A   1      38.522  30.696  29.396  1.00  0.00     0.031 C 
ATOM     47  C   UNL A   1      37.448  33.833  33.204  1.00  0.00     0.029 A 
ATOM     48  N   UNL A   1      39.173  32.438  33.461  1.00  0.00    -0.354 N 
ATOM     49  C   UNL A   1      40.095  29.444  30.479  1.00  0.00     0.074 A 
ATOM     50  C   UNL A   1      39.265  29.602  29.306  1.00  0.00     0.031 C 
ATOM     51  C   UNL A   1      37.976  34.066  34.416  1.00  0.00     0.029 A 
ATOM     52  C   UNL A   1      39.094  33.155  34.633  1.00  0.00     0.049 A 
ATOM     53  H   UNL A   1      39.852  31.743  33.300  1.00  0.00     0.167 HD
ATOM     54  C   UNL A   1      41.050  28.493  30.612  1.00  0.00     0.037 A 
ATOM     55  C   UNL A   1      39.833  33.082  35.757  1.00  0.00     0.037 A 
ATOM     56  C   UNL A   1      41.947  28.404  31.734  1.00  0.00     0.049 A 
ATOM     57  C   UNL A   1      40.959  32.086  35.833  1.00  0.00     0.074 A 
ATOM     58  C   UNL A   1      43.018  27.545  31.912  1.00  0.00     0.029 A 
ATOM     59  N   UNL A   1      41.896  29.220  32.853  1.00  0.00    -0.354 N 
ATOM     60  N   UNL A   1      41.321  31.185  34.951  1.00  0.00    -0.248 NA
ATOM     61  C   UNL A   1      41.782  32.102  37.050  1.00  0.00     0.031 C 
ATOM     62  C   UNL A   1      43.607  27.832  33.148  1.00  0.00     0.029 A 
ATOM     63  C   UNL A   1      42.919  28.888  33.724  1.00  0.00     0.049 A 
ATOM     64  H   UNL A   1      41.232  29.930  33.005  1.00  0.00     0.167 HD
ATOM     65  C   UNL A   1      42.436  30.554  35.492  1.00  0.00     0.074 A 
ATOM     66  C   UNL A   1      42.692  31.179  36.772  1.00  0.00     0.031 C 
ATOM     67  C   UNL A   1      43.179  29.546  34.976  1.00  0.00     0.037 A 
BRANCH  54  68
ATOM     68  C   UNL A   1      41.206  27.486  29.506  1.00  0.00     0.058 A 
ATOM     69  C   UNL A   1      42.322  27.491  28.657  1.00  0.00     0.135 A 
ATOM     70  C   UNL A   1      40.260  26.461  29.341  1.00  0.00     0.135 A 
ATOM     71  F   UNL A   1      43.247  28.459  28.762  1.00  0.00    -0.206 F 
ATOM     72  C   UNL A   1      42.490  26.525  27.672  1.00  0.00     0.059 A 
ATOM     73  C   UNL A   1      40.420  25.469  28.377  1.00  0.00     0.059 A 
ATOM     74  F   UNL A   1      39.172  26.410  30.126  1.00  0.00    -0.206 F 
ATOM     75  C   UNL A   1      41.535  25.515  27.541  1.00  0.00     0.060 A 
BRANCH  75  76
ATOM     76  S   UNL A   1      41.786  24.246  26.282  1.00  0.00     0.124 S 
ATOM     77  O   UNL A   1      40.560  23.464  26.411  1.00  0.00    -0.237 OA
ATOM     78  O   UNL A   1      41.909  25.035  25.062  1.00  0.00    -0.237 OA
ATOM     79  O   UNL A   1      43.007  23.574  26.716  1.00  0.00    -0.744 OA
ENDBRANCH  75  76
ENDBRANCH  54  68
BRANCH  55  80
ATOM     80  C   UNL A   1      39.559  33.993  36.900  1.00  0.00     0.058 A 
ATOM     81  C   UNL A   1      40.075  35.299  36.916  1.00  0.00     0.135 A 
ATOM     82  C   UNL A   1      38.808  33.573  38.007  1.00  0.00     0.135 A 
ATOM     83  F   UNL A   1      40.801  35.744  35.879  1.00  0.00    -0.206 F 
ATOM     84  C   UNL A   1      39.890  36.143  38.005  1.00  0.00     0.059 A 
ATOM     85  C   UNL A   1      38.588  34.408  39.099  1.00  0.00     0.059 A 
ATOM     86  F   UNL A   1      38.274  32.342  38.030  1.00  0.00    -0.206 F 
ATOM     87  C   UNL A   1      39.151  35.685  39.096  1.00  0.00     0.060 A 
BRANCH  87  88
ATOM     88  S   UNL A   1      38.902  36.786  40.506  1.00  0.00     0.124 S 
ATOM     89  O   UNL A   1      38.050  35.972  41.365  1.00  0.00    -0.237 OA
ATOM     90  O   UNL A   1      40.265  37.002  40.977  1.00  0.00    -0.237 OA
ATOM     91  O   UNL A   1      38.264  37.954  39.904  1.00  0.00    -0.744 OA
ENDBRANCH  87  88
ENDBRANCH  55  80
BRANCH  67  92
ATOM     92  C   UNL A   1      44.377  29.098  35.763  1.00  0.00     0.058 A 
ATOM     93  C   UNL A   1      45.634  29.696  35.595  1.00  0.00     0.135 A 
ATOM     94  C   UNL A   1      44.249  28.089  36.730  1.00  0.00     0.135 A 
ATOM     95  F   UNL A   1      45.807  30.662  34.679  1.00  0.00    -0.206 F 
ATOM     96  C   UNL A   1      46.734  29.291  36.344  1.00  0.00     0.059 A 
ATOM     97  C   UNL A   1      45.330  27.683  37.506  1.00  0.00     0.059 A 
ATOM     98  F   UNL A   1      43.064  27.494  36.934  1.00  0.00    -0.206 F 
ATOM     99  C   UNL A   1      46.572  28.281  37.295  1.00  0.00     0.060 A 
BRANCH  99 100
ATOM    100  S   UNL A   1      47.997  27.779  38.282  1.00  0.00     0.124 S 
ATOM    101  O   UNL A   1      47.562  26.480  38.784  1.00  0.00    -0.237 OA
ATOM    102  O   UNL A   1      49.071  27.749  37.293  1.00  0.00    -0.237 OA
ATOM    103  O   UNL A   1      48.106  28.836  39.282  1.00  0.00    -0.744 OA
ENDBRANCH  99 100
ENDBRANCH  67  92
ENDBRANCH  41  42
ENDBRANCH  33  36
ENDBRANCH  31  32
ENDBRANCH   1  31
TORSDOF 18
ENDMDL
MODEL 3
REMARK VINA RESULT:     -11.2      4.682      5.621
REMARK SMILES CC(=O)OCC1=C(C(=O)NCCCNC(=O)c2ccc(-c3c4nc(c(-c5c(F)cc(S(=O)(=O)[O-])cc5F)c5ccc([nH]5)c(-c5c(F)cc(S(=O)(=O)[O-])cc5F)c5nc(c(-c6c(F)cc(S(=O)(=O)[O-])cc6F)c6ccc3[nH]6)C=C5)C=C4)cc2)N2C(=O)[C@H](NC(=O)C3CCCCC3)[C@@H]2SC1
REMARK SMILES IDX 12 1 11 2 10 3 8 4 9 5 7 7 6 8 98 9 83 10 97 11 84 12 96 13
REMARK SMILES IDX 85 14 86 15 5 16 4 17 2 18 1 19 3 20 87 21 88 22 89 24 90 25
REMARK SMILES IDX 91 26 95 27 92 28 94 29 93 30 13 31 14 32 15 33 16 35 17 36
REMARK SMILES IDX 18 37 82 38 19 39 81 40 20 41 21 42 22 43 75 44 23 45 80 46
REMARK SMILES IDX 74 47 76 48 24 49 79 50 73 51 72 52 25 54 59 55 38 56 58 57
REMARK SMILES IDX 39 58 42 59 57 60 77 61 40 62 41 63 56 65 78 66 43 67 26 68
REMARK SMILES IDX 27 69 36 70 28 71 29 72 35 73 37 74 30 75 31 76 32 77 33 78
REMARK SMILES IDX 34 79 60 80 61 81 70 82 62 83 63 84 69 85 71 86 64 87 65 88
REMARK SMILES IDX 66 89 67 90 68 91 44 92 45 93 54 94 46 95 47 96 53 97 55 98
REMARK SMILES IDX 48 99 49 100 50 101 51 102 52 103
REMARK H PARENT 10 6 87 23 14 34 76 53 42 64
REMARK Flexibility Score: inf
ROOT
ATOM      1  C   UNL A   1      33.400  29.472  27.154  1.00  0.00     0.042 C 
ENDROOT
BRANCH   1   2
ATOM      2  C   UNL A   1      33.848  28.212  26.423  1.00  0.00     0.118 C 
BRANCH   2   3
ATOM      3  N   UNL A   1      34.093  28.343  25.001  1.00  0.00    -0.351 N 
ATOM      4  C   UNL A   1      33.354  28.015  23.900  1.00  0.00     0.268 C 
ATOM      5  O   UNL A   1      33.771  28.463  22.833  1.00  0.00    -0.268 OA
ATOM      6  H   UNL A   1      34.963  28.750  24.786  1.00  0.00     0.163 HD
BRANCH   4   7
ATOM      7  C   UNL A   1      32.177  27.051  23.948  1.00  0.00     0.114 C 
ATOM      8  C   UNL A   1      30.872  27.411  23.817  1.00  0.00     0.007 C 
ATOM      9  C   UNL A   1      29.712  26.440  23.922  1.00  0.00     0.108 C 
ATOM     10  N   UNL A   1      32.507  25.715  24.040  1.00  0.00    -0.290 N 
ATOM     11  S   UNL A   1      30.091  24.766  23.394  1.00  0.00    -0.129 SA
ATOM     12  C   UNL A   1      33.432  24.937  23.416  1.00  0.00     0.253 C 
ATOM     13  C   UNL A   1      31.603  24.636  24.386  1.00  0.00     0.181 C 
ATOM     14  O   UNL A   1      34.380  25.137  22.690  1.00  0.00    -0.272 OA
ATOM     15  C   UNL A   1      32.677  23.640  23.822  1.00  0.00     0.205 C 
BRANCH   8  16
ATOM     16  C   UNL A   1      30.383  28.790  23.425  1.00  0.00     0.267 C 
BRANCH  16  17
ATOM     17  O   UNL A   1      29.512  28.672  22.289  1.00  0.00    -0.461 OA
BRANCH  17  18
ATOM     18  C   UNL A   1      28.663  29.693  22.010  1.00  0.00     0.302 C 
ATOM     19  C   UNL A   1      27.609  29.768  23.072  1.00  0.00     0.139 C 
ATOM     20  O   UNL A   1      28.722  30.415  21.028  1.00  0.00    -0.253 OA
ENDBRANCH  17  18
ENDBRANCH  16  17
ENDBRANCH   8  16
BRANCH  15  21
ATOM     21  N   UNL A   1      32.265  22.781  22.684  1.00  0.00    -0.342 N 
ATOM     22  C   UNL A   1      32.153  21.436  22.538  1.00  0.00     0.223 C 
ATOM     23  H   UNL A   1      32.025  23.287  21.874  1.00  0.00     0.164 HD
ATOM     24  O   UNL A   1      31.619  21.057  21.490  1.00  0.00    -0.275 OA
BRANCH  22  25
ATOM     25  C   UNL A   1      32.757  20.418  23.521  1.00  0.00     0.078 C 
ATOM     26  C   UNL A   1      32.285  20.478  24.977  1.00  0.00     0.013 C 
ATOM     27  C   UNL A   1      32.501  18.999  22.955  1.00  0.00     0.013 C 
ATOM     28  C   UNL A   1      32.884  19.359  25.832  1.00  0.00     0.001 C 
ATOM     29  C   UNL A   1      33.072  17.882  23.821  1.00  0.00     0.001 C 
ATOM     30  C   UNL A   1      32.583  17.984  25.258  1.00  0.00     0.000 C 
ENDBRANCH  22  25
ENDBRANCH  15  21
ENDBRANCH   4   7
ENDBRANCH   2   3
ENDBRANCH   1   2
BRANCH   1  31
ATOM     31  C   UNL A   1      34.420  30.601  27.231  1.00  0.00     0.118 C 
BRANCH  31  32
ATOM     32  N   UNL A   1      34.201  31.551  28.314  1.00  0.00    -0.352 N 
ATOM     33  C   UNL A   1      34.913  31.861  29.451  1.00  0.00     0.251 C 
ATOM     34  H   UNL A   1      33.377  32.080  28.211  1.00  0.00     0.163 HD
ATOM     35  O   UNL A   1      34.433  32.685  30.228  1.00  0.00    -0.269 OA
BRANCH  33  36
ATOM     36  C   UNL A   1      36.197  31.203  29.795  1.00  0.00     0.039 A 
ATOM     37  C   UNL A   1      37.392  31.790  29.355  1.00  0.00     0.014 A 
ATOM     38  C   UNL A   1      36.261  30.009  30.507  1.00  0.00     0.014 A 
ATOM     39  C   UNL A   1      38.628  31.235  29.709  1.00  0.00     0.010 A 
ATOM     40  C   UNL A   1      37.486  29.526  30.964  1.00  0.00     0.010 A 
ATOM     41  C   UNL A   1      38.689  30.126  30.568  1.00  0.00    -0.014 A 
BRANCH  41  42
ATOM     42  C   UNL A   1      39.982  29.558  31.045  1.00  0.00     0.031 A 
ATOM     43  C   UNL A   1      40.695  30.188  32.219  1.00  0.00     0.074 A 
ATOM     44  C   UNL A   1      40.571  28.551  30.366  1.00  0.00     0.049 A 
ATOM     45  N   UNL A   1      41.904  29.966  32.669  1.00  0.00    -0.248 NA
ATOM     46  C   UNL A   1      39.974  31.243  32.951  1.00  0.00     0.031 C 
ATOM     47  C   UNL A   1      40.030  27.895  29.172  1.00  0.00     0.029 A 
ATOM     48  N   UNL A   1      41.770  27.912  30.572  1.00  0.00    -0.354 N 
ATOM     49  C   UNL A   1      42.106  30.889  33.691  1.00  0.00     0.074 A 
ATOM     50  C   UNL A   1      40.911  31.699  33.771  1.00  0.00     0.031 C 
ATOM     51  C   UNL A   1      40.879  26.938  28.768  1.00  0.00     0.029 A 
ATOM     52  C   UNL A   1      42.045  26.933  29.645  1.00  0.00     0.049 A 
ATOM     53  H   UNL A   1      42.377  28.136  31.314  1.00  0.00     0.167 HD
ATOM     54  C   UNL A   1      43.178  31.034  34.504  1.00  0.00     0.037 A 
ATOM     55  C   UNL A   1      43.117  26.128  29.512  1.00  0.00     0.037 A 
ATOM     56  C   UNL A   1      44.321  30.159  34.494  1.00  0.00     0.049 A 
ATOM     57  C   UNL A   1      44.248  26.241  30.498  1.00  0.00     0.074 A 
ATOM     58  C   UNL A   1      45.409  30.157  35.350  1.00  0.00     0.029 A 
ATOM     59  N   UNL A   1      44.509  29.115  33.604  1.00  0.00    -0.354 N 
ATOM     60  N   UNL A   1      44.392  27.086  31.491  1.00  0.00    -0.248 NA
ATOM     61  C   UNL A   1      45.356  25.287  30.354  1.00  0.00     0.031 C 
ATOM     62  C   UNL A   1      46.264  29.118  34.968  1.00  0.00     0.029 A 
ATOM     63  C   UNL A   1      45.692  28.458  33.892  1.00  0.00     0.049 A 
ATOM     64  H   UNL A   1      43.892  28.875  32.875  1.00  0.00     0.167 HD
ATOM     65  C   UNL A   1      45.588  26.740  32.111  1.00  0.00     0.074 A 
ATOM     66  C   UNL A   1      46.124  25.607  31.386  1.00  0.00     0.031 C 
ATOM     67  C   UNL A   1      46.190  27.310  33.181  1.00  0.00     0.037 A 
BRANCH  54  68
ATOM     68  C   UNL A   1      43.164  32.160  35.501  1.00  0.00     0.058 A 
ATOM     69  C   UNL A   1      43.696  33.421  35.196  1.00  0.00     0.135 A 
ATOM     70  C   UNL A   1      42.546  31.994  36.752  1.00  0.00     0.135 A 
ATOM     71  F   UNL A   1      44.313  33.628  34.022  1.00  0.00    -0.206 F 
ATOM     72  C   UNL A   1      43.632  34.475  36.101  1.00  0.00     0.059 A 
ATOM     73  C   UNL A   1      42.448  33.042  37.662  1.00  0.00     0.059 A 
ATOM     74  F   UNL A   1      42.021  30.807  37.095  1.00  0.00    -0.206 F 
ATOM     75  C   UNL A   1      43.003  34.277  37.330  1.00  0.00     0.060 A 
BRANCH  75  76
ATOM     76  S   UNL A   1      42.892  35.667  38.479  1.00  0.00     0.124 S 
ATOM     77  O   UNL A   1      43.565  36.720  37.724  1.00  0.00    -0.237 OA
ATOM     78  O   UNL A   1      41.452  35.825  38.642  1.00  0.00    -0.237 OA
ATOM     79  O   UNL A   1      43.605  35.188  39.659  1.00  0.00    -0.744 OA
ENDBRANCH  75  76
ENDBRANCH  54  68
BRANCH  55  80
ATOM     80  C   UNL A   1      43.172  25.120  28.420  1.00  0.00     0.058 A 
ATOM     81  C   UNL A   1      42.858  23.775  28.668  1.00  0.00     0.135 A 
ATOM     82  C   UNL A   1      43.566  25.470  27.120  1.00  0.00     0.135 A 
ATOM     83  F   UNL A   1      42.477  23.393  29.897  1.00  0.00    -0.206 F 
ATOM     84  C   UNL A   1      42.970  22.804  27.679  1.00  0.00     0.059 A 
ATOM     85  C   UNL A   1      43.663  24.520  26.107  1.00  0.00     0.059 A 
ATOM     86  F   UNL A   1      43.855  26.746  26.825  1.00  0.00    -0.206 F 
ATOM     87  C   UNL A   1      43.382  23.186  26.402  1.00  0.00     0.060 A 
BRANCH  87  88
ATOM     88  S   UNL A   1      43.516  21.926  25.116  1.00  0.00     0.124 S 
ATOM     89  O   UNL A   1      43.425  22.734  23.905  1.00  0.00    -0.237 OA
ATOM     90  O   UNL A   1      44.821  21.335  25.393  1.00  0.00    -0.237 OA
ATOM     91  O   UNL A   1      42.375  21.056  25.384  1.00  0.00    -0.744 OA
ENDBRANCH  87  88
ENDBRANCH  55  80
BRANCH  67  92
ATOM     92  C   UNL A   1      47.461  26.682  33.676  1.00  0.00     0.058 A 
ATOM     93  C   UNL A   1      47.452  25.644  34.618  1.00  0.00     0.135 A 
ATOM     94  C   UNL A   1      48.700  27.098  33.163  1.00  0.00     0.135 A 
ATOM     95  F   UNL A   1      46.292  25.215  35.141  1.00  0.00    -0.206 F 
ATOM     96  C   UNL A   1      48.632  25.052  35.054  1.00  0.00     0.059 A 
ATOM     97  C   UNL A   1      49.891  26.506  33.568  1.00  0.00     0.059 A 
ATOM     98  F   UNL A   1      48.759  28.082  32.252  1.00  0.00    -0.206 F 
ATOM     99  C   UNL A   1      49.847  25.492  34.525  1.00  0.00     0.060 A 
BRANCH  99 100
ATOM    100  S   UNL A   1      51.374  24.701  35.075  1.00  0.00     0.124 S 
ATOM    101  O   UNL A   1      51.538  25.276  36.406  1.00  0.00    -0.237 OA
ATOM    102  O   UNL A   1      51.026  23.283  35.036  1.00  0.00    -0.237 OA
ATOM    103  O   UNL A   1      52.353  25.126  34.079  1.00  0.00    -0.744 OA
ENDBRANCH  99 100
ENDBRANCH  67  92
ENDBRANCH  41  42
ENDBRANCH  33  36
ENDBRANCH  31  32
ENDBRANCH   1  31
TORSDOF 18
ENDMDL
