MODEL 1
REMARK VINA RESULT:     -12.4      0.000      0.000
REMARK SMILES O=C(NCCCNC(=O)[C@@H]1CCC[N@@H+](Cc2ccc(F)cc2Cl)C1)c1ccc(-c2c3nc(c(-c4c(F)cc(S(=O)(=O)[O-])cc4F)c4ccc([nH]4)c(-c4c(F)cc(S(=O)(=O)[O-])cc4F)c4nc(c(-c5c(F)cc(S(=O)(=O)[O-])cc5F)c5ccc2[nH]5)C=C4)C=C3)cc1
REMARK SMILES IDX 4 1 3 2 1 3 2 4 25 6 26 7 90 8 27 9 89 10 28 11 29 12 30 13
REMARK SMILES IDX 83 14 31 15 88 16 82 17 84 18 32 19 87 20 81 21 80 22 33 24
REMARK SMILES IDX 67 25 46 26 66 27 47 28 50 29 65 30 85 31 48 32 49 33 64 35
REMARK SMILES IDX 86 36 51 37 34 38 35 39 44 40 36 41 37 42 43 43 45 44 38 45
REMARK SMILES IDX 39 46 40 47 41 48 42 49 68 50 69 51 78 52 70 53 71 54 77 55
REMARK SMILES IDX 79 56 72 57 73 58 74 59 75 60 76 61 52 62 53 63 62 64 54 65
REMARK SMILES IDX 55 66 61 67 63 68 56 69 57 70 58 71 59 72 60 73 5 74 6 75
REMARK SMILES IDX 7 76 8 77 9 79 10 80 11 81 24 82 12 83 14 84 13 85 15 87
REMARK SMILES IDX 16 88 17 89 22 90 18 91 21 92 23 93 19 94 20 95
REMARK H PARENT 3 5 84 23 50 34 7 78 14 86
REMARK Flexibility Score: inf
ROOT
ATOM      1  C   UNL A   1      40.991  23.003  27.305  1.00  0.00     0.118 C 
ENDROOT
BRANCH   1   2
ATOM      2  N   UNL A   1      41.326  23.885  26.200  1.00  0.00    -0.352 N 
ATOM      3  O   UNL A   1      41.365  25.799  25.028  1.00  0.00    -0.269 OA
ATOM      4  C   UNL A   1      41.306  25.255  26.132  1.00  0.00     0.251 C 
ATOM      5  H   UNL A   1      41.609  23.430  25.374  1.00  0.00     0.163 HD
BRANCH   4   6
ATOM      6  C   UNL A   1      41.201  26.083  27.358  1.00  0.00     0.039 A 
ATOM      7  C   UNL A   1      42.149  27.063  27.652  1.00  0.00     0.014 A 
ATOM      8  C   UNL A   1      40.090  25.929  28.195  1.00  0.00     0.014 A 
ATOM      9  C   UNL A   1      42.072  27.782  28.839  1.00  0.00     0.010 A 
ATOM     10  C   UNL A   1      39.950  26.737  29.331  1.00  0.00     0.010 A 
ATOM     11  C   UNL A   1      40.948  27.662  29.672  1.00  0.00    -0.014 A 
BRANCH  11  12
ATOM     12  C   UNL A   1      40.790  28.601  30.814  1.00  0.00     0.031 A 
ATOM     13  C   UNL A   1      41.667  28.515  32.031  1.00  0.00     0.074 A 
ATOM     14  C   UNL A   1      39.836  29.552  30.731  1.00  0.00     0.049 A 
ATOM     15  N   UNL A   1      41.646  29.254  33.112  1.00  0.00    -0.248 NA
ATOM     16  C   UNL A   1      42.692  27.460  32.048  1.00  0.00     0.031 C 
ATOM     17  C   UNL A   1      38.909  29.718  29.608  1.00  0.00     0.029 A 
ATOM     18  N   UNL A   1      39.494  30.566  31.590  1.00  0.00    -0.354 N 
ATOM     19  C   UNL A   1      42.635  28.744  33.946  1.00  0.00     0.074 A 
ATOM     20  C   UNL A   1      43.224  27.616  33.253  1.00  0.00     0.031 C 
ATOM     21  C   UNL A   1      38.142  30.797  29.820  1.00  0.00     0.029 A 
ATOM     22  C   UNL A   1      38.466  31.354  31.127  1.00  0.00     0.049 A 
ATOM     23  H   UNL A   1      39.941  30.715  32.454  1.00  0.00     0.167 HD
ATOM     24  C   UNL A   1      43.014  29.180  35.171  1.00  0.00     0.037 A 
ATOM     25  C   UNL A   1      37.832  32.397  31.696  1.00  0.00     0.037 A 
ATOM     26  C   UNL A   1      42.429  30.316  35.842  1.00  0.00     0.049 A 
ATOM     27  C   UNL A   1      38.266  32.852  33.057  1.00  0.00     0.074 A 
ATOM     28  C   UNL A   1      42.770  30.861  37.067  1.00  0.00     0.029 A 
ATOM     29  N   UNL A   1      41.378  31.077  35.347  1.00  0.00    -0.354 N 
ATOM     30  N   UNL A   1      39.222  32.373  33.817  1.00  0.00    -0.248 NA
ATOM     31  C   UNL A   1      37.534  33.981  33.644  1.00  0.00     0.031 C 
ATOM     32  C   UNL A   1      41.897  31.920  37.336  1.00  0.00     0.029 A 
ATOM     33  C   UNL A   1      41.044  32.072  36.255  1.00  0.00     0.049 A 
ATOM     34  H   UNL A   1      40.935  30.932  34.481  1.00  0.00     0.167 HD
ATOM     35  C   UNL A   1      39.217  33.151  34.967  1.00  0.00     0.074 A 
ATOM     36  C   UNL A   1      38.175  34.144  34.793  1.00  0.00     0.031 C 
ATOM     37  C   UNL A   1      40.002  33.050  36.068  1.00  0.00     0.037 A 
BRANCH  24  38
ATOM     38  C   UNL A   1      44.101  28.421  35.884  1.00  0.00     0.058 A 
ATOM     39  C   UNL A   1      45.460  28.721  35.701  1.00  0.00     0.135 A 
ATOM     40  C   UNL A   1      43.776  27.409  36.804  1.00  0.00     0.135 A 
ATOM     41  F   UNL A   1      45.831  29.668  34.825  1.00  0.00    -0.206 F 
ATOM     42  C   UNL A   1      46.457  28.031  36.384  1.00  0.00     0.059 A 
ATOM     43  C   UNL A   1      44.755  26.723  37.518  1.00  0.00     0.059 A 
ATOM     44  F   UNL A   1      42.492  27.081  37.020  1.00  0.00    -0.206 F 
ATOM     45  C   UNL A   1      46.094  27.033  37.291  1.00  0.00     0.060 A 
BRANCH  45  46
ATOM     46  S   UNL A   1      47.401  26.148  38.170  1.00  0.00     0.124 S 
ATOM     47  O   UNL A   1      46.979  24.762  38.001  1.00  0.00    -0.237 OA
ATOM     48  O   UNL A   1      48.596  26.541  37.431  1.00  0.00    -0.237 OA
ATOM     49  O   UNL A   1      47.310  26.670  39.530  1.00  0.00    -0.744 OA
ENDBRANCH  45  46
ENDBRANCH  24  38
BRANCH  25  50
ATOM     50  C   UNL A   1      36.714  33.060  30.974  1.00  0.00     0.058 A 
ATOM     51  C   UNL A   1      35.381  32.853  31.354  1.00  0.00     0.135 A 
ATOM     52  C   UNL A   1      36.963  33.950  29.917  1.00  0.00     0.135 A 
ATOM     53  F   UNL A   1      35.093  32.009  32.356  1.00  0.00    -0.206 F 
ATOM     54  C   UNL A   1      34.332  33.498  30.707  1.00  0.00     0.059 A 
ATOM     55  C   UNL A   1      35.933  34.629  29.274  1.00  0.00     0.059 A 
ATOM     56  F   UNL A   1      38.224  34.199  29.528  1.00  0.00    -0.206 F 
ATOM     57  C   UNL A   1      34.619  34.388  29.671  1.00  0.00     0.060 A 
BRANCH  57  58
ATOM     58  S   UNL A   1      33.255  35.266  28.878  1.00  0.00     0.124 S 
ATOM     59  O   UNL A   1      33.965  36.298  28.133  1.00  0.00    -0.237 OA
ATOM     60  O   UNL A   1      32.634  34.214  28.081  1.00  0.00    -0.237 OA
ATOM     61  O   UNL A   1      32.459  35.737  30.008  1.00  0.00    -0.744 OA
ENDBRANCH  57  58
ENDBRANCH  25  50
BRANCH  37  62
ATOM     62  C   UNL A   1      39.779  34.057  37.161  1.00  0.00     0.058 A 
ATOM     63  C   UNL A   1      38.992  33.763  38.286  1.00  0.00     0.135 A 
ATOM     64  C   UNL A   1      40.390  35.320  37.099  1.00  0.00     0.135 A 
ATOM     65  F   UNL A   1      38.379  32.573  38.389  1.00  0.00    -0.206 F 
ATOM     66  C   UNL A   1      38.800  34.693  39.301  1.00  0.00     0.059 A 
ATOM     67  C   UNL A   1      40.233  36.257  38.115  1.00  0.00     0.059 A 
ATOM     68  F   UNL A   1      41.157  35.649  36.047  1.00  0.00    -0.206 F 
ATOM     69  C   UNL A   1      39.425  35.939  39.206  1.00  0.00     0.060 A 
BRANCH  69  70
ATOM     70  S   UNL A   1      39.192  37.128  40.544  1.00  0.00     0.124 S 
ATOM     71  O   UNL A   1      40.554  37.607  40.751  1.00  0.00    -0.237 OA
ATOM     72  O   UNL A   1      38.266  38.089  39.949  1.00  0.00    -0.237 OA
ATOM     73  O   UNL A   1      38.637  36.320  41.625  1.00  0.00    -0.744 OA
ENDBRANCH  69  70
ENDBRANCH  37  62
ENDBRANCH  11  12
ENDBRANCH   4   6
ENDBRANCH   1   2
BRANCH   1  74
ATOM     74  C   UNL A   1      39.966  21.952  26.909  1.00  0.00     0.042 C 
BRANCH  74  75
ATOM     75  C   UNL A   1      38.931  22.438  25.898  1.00  0.00     0.117 C 
BRANCH  75  76
ATOM     76  N   UNL A   1      37.869  21.477  25.670  1.00  0.00    -0.356 N 
ATOM     77  C   UNL A   1      36.620  21.500  25.164  1.00  0.00     0.228 C 
ATOM     78  H   UNL A   1      38.127  20.572  25.961  1.00  0.00     0.163 HD
ATOM     79  O   UNL A   1      36.082  20.381  25.111  1.00  0.00    -0.275 OA
BRANCH  77  80
ATOM     80  C   UNL A   1      35.878  22.703  24.565  1.00  0.00     0.133 C 
ATOM     81  C   UNL A   1      35.711  24.039  25.280  1.00  0.00     0.025 C 
ATOM     82  C   UNL A   1      34.480  22.229  24.110  1.00  0.00     0.276 C 
ATOM     83  C   UNL A   1      34.684  23.985  26.401  1.00  0.00     0.062 C 
ATOM     84  N   UNL A   1      33.571  22.076  25.253  1.00  0.00    -0.330 N 
ATOM     85  C   UNL A   1      33.371  23.336  25.979  1.00  0.00     0.262 C 
ATOM     86  H   UNL A   1      34.042  21.446  25.902  1.00  0.00     0.348 HD
BRANCH  84  87
ATOM     87  C   UNL A   1      32.305  21.390  24.912  1.00  0.00     0.300 C 
BRANCH  87  88
ATOM     88  C   UNL A   1      32.454  19.938  24.492  1.00  0.00     0.025 A 
ATOM     89  C   UNL A   1      32.830  18.986  25.460  1.00  0.00     0.014 A 
ATOM     90  C   UNL A   1      32.357  19.524  23.149  1.00  0.00     0.052 A 
ATOM     91  C   UNL A   1      33.199  17.696  25.085  1.00  0.00     0.040 A 
ATOM     92  C   UNL A   1      32.716  18.227  22.778  1.00  0.00     0.060 A 
ATOM     93  Cl  UNL A   1      31.831  20.581  21.888  1.00  0.00    -0.084 Cl
ATOM     94  C   UNL A   1      33.155  17.335  23.746  1.00  0.00     0.124 A 
ATOM     95  F   UNL A   1      33.548  16.108  23.384  1.00  0.00    -0.207 F 
ENDBRANCH  87  88
ENDBRANCH  84  87
ENDBRANCH  77  80
ENDBRANCH  75  76
ENDBRANCH  74  75
ENDBRANCH   1  74
TORSDOF 15
ENDMDL
MODEL 2
REMARK VINA RESULT:     -12.2      4.925     10.285
REMARK SMILES O=C(NCCCNC(=O)[C@@H]1CCC[N@@H+](Cc2ccc(F)cc2Cl)C1)c1ccc(-c2c3nc(c(-c4c(F)cc(S(=O)(=O)[O-])cc4F)c4ccc([nH]4)c(-c4c(F)cc(S(=O)(=O)[O-])cc4F)c4nc(c(-c5c(F)cc(S(=O)(=O)[O-])cc5F)c5ccc2[nH]5)C=C4)C=C3)cc1
REMARK SMILES IDX 4 1 3 2 1 3 2 4 25 6 26 7 90 8 27 9 89 10 28 11 29 12 30 13
REMARK SMILES IDX 83 14 31 15 88 16 82 17 84 18 32 19 87 20 81 21 80 22 33 24
REMARK SMILES IDX 67 25 46 26 66 27 47 28 50 29 65 30 85 31 48 32 49 33 64 35
REMARK SMILES IDX 86 36 51 37 34 38 35 39 44 40 36 41 37 42 43 43 45 44 38 45
REMARK SMILES IDX 39 46 40 47 41 48 42 49 68 50 69 51 78 52 70 53 71 54 77 55
REMARK SMILES IDX 79 56 72 57 73 58 74 59 75 60 76 61 52 62 53 63 62 64 54 65
REMARK SMILES IDX 55 66 61 67 63 68 56 69 57 70 58 71 59 72 60 73 5 74 6 75
REMARK SMILES IDX 7 76 8 77 9 79 10 80 11 81 24 82 12 83 14 84 13 85 15 87
REMARK SMILES IDX 16 88 17 89 22 90 18 91 21 92 23 93 19 94 20 95
REMARK H PARENT 3 5 84 23 50 34 7 78 14 86
REMARK Flexibility Score: inf
ROOT
ATOM      1  C   UNL A   1      33.694  28.287  26.892  1.00  0.00     0.118 C 
ENDROOT
BRANCH   1   2
ATOM      2  N   UNL A   1      33.566  29.670  27.314  1.00  0.00    -0.352 N 
ATOM      3  O   UNL A   1      34.016  31.507  28.524  1.00  0.00    -0.269 OA
ATOM      4  C   UNL A   1      34.428  30.449  28.044  1.00  0.00     0.251 C 
ATOM      5  H   UNL A   1      32.734  30.116  27.036  1.00  0.00     0.163 HD
BRANCH   4   6
ATOM      6  C   UNL A   1      35.832  30.033  28.274  1.00  0.00     0.039 A 
ATOM      7  C   UNL A   1      36.806  30.198  27.288  1.00  0.00     0.014 A 
ATOM      8  C   UNL A   1      36.202  29.534  29.528  1.00  0.00     0.014 A 
ATOM      9  C   UNL A   1      38.102  29.738  27.497  1.00  0.00     0.010 A 
ATOM     10  C   UNL A   1      37.535  29.181  29.778  1.00  0.00     0.010 A 
ATOM     11  C   UNL A   1      38.495  29.267  28.759  1.00  0.00    -0.014 A 
BRANCH  11  12
ATOM     12  C   UNL A   1      39.935  28.992  29.012  1.00  0.00     0.031 A 
ATOM     13  C   UNL A   1      40.835  30.022  29.634  1.00  0.00     0.074 A 
ATOM     14  C   UNL A   1      40.421  27.779  28.677  1.00  0.00     0.049 A 
ATOM     15  N   UNL A   1      42.112  29.937  29.908  1.00  0.00    -0.248 NA
ATOM     16  C   UNL A   1      40.234  31.318  29.983  1.00  0.00     0.031 C 
ATOM     17  C   UNL A   1      39.646  26.707  28.045  1.00  0.00     0.029 A 
ATOM     18  N   UNL A   1      41.670  27.232  28.830  1.00  0.00    -0.354 N 
ATOM     19  C   UNL A   1      42.475  31.169  30.440  1.00  0.00     0.074 A 
ATOM     20  C   UNL A   1      41.284  31.994  30.430  1.00  0.00     0.031 C 
ATOM     21  C   UNL A   1      40.418  25.619  27.913  1.00  0.00     0.029 A 
ATOM     22  C   UNL A   1      41.762  25.937  28.377  1.00  0.00     0.049 A 
ATOM     23  H   UNL A   1      42.428  27.721  29.226  1.00  0.00     0.167 HD
ATOM     24  C   UNL A   1      43.686  31.569  30.897  1.00  0.00     0.037 A 
ATOM     25  C   UNL A   1      42.815  25.099  28.315  1.00  0.00     0.037 A 
ATOM     26  C   UNL A   1      44.860  30.730  30.916  1.00  0.00     0.049 A 
ATOM     27  C   UNL A   1      44.146  25.572  28.818  1.00  0.00     0.074 A 
ATOM     28  C   UNL A   1      46.124  31.029  31.395  1.00  0.00     0.029 A 
ATOM     29  N   UNL A   1      44.916  29.429  30.432  1.00  0.00    -0.354 N 
ATOM     30  N   UNL A   1      44.460  26.732  29.343  1.00  0.00    -0.248 NA
ATOM     31  C   UNL A   1      45.267  24.630  28.714  1.00  0.00     0.031 C 
ATOM     32  C   UNL A   1      46.956  29.930  31.158  1.00  0.00     0.029 A 
ATOM     33  C   UNL A   1      46.199  28.923  30.579  1.00  0.00     0.049 A 
ATOM     34  H   UNL A   1      44.158  28.939  30.042  1.00  0.00     0.167 HD
ATOM     35  C   UNL A   1      45.814  26.655  29.646  1.00  0.00     0.074 A 
ATOM     36  C   UNL A   1      46.252  25.328  29.262  1.00  0.00     0.031 C 
ATOM     37  C   UNL A   1      46.620  27.600  30.190  1.00  0.00     0.037 A 
BRANCH  24  38
ATOM     38  C   UNL A   1      43.819  32.982  31.396  1.00  0.00     0.058 A 
ATOM     39  C   UNL A   1      44.193  34.038  30.549  1.00  0.00     0.135 A 
ATOM     40  C   UNL A   1      43.520  33.296  32.733  1.00  0.00     0.135 A 
ATOM     41  F   UNL A   1      44.504  33.797  29.265  1.00  0.00    -0.206 F 
ATOM     42  C   UNL A   1      44.288  35.347  31.014  1.00  0.00     0.059 A 
ATOM     43  C   UNL A   1      43.584  34.601  33.214  1.00  0.00     0.059 A 
ATOM     44  F   UNL A   1      43.156  32.327  33.588  1.00  0.00    -0.206 F 
ATOM     45  C   UNL A   1      43.982  35.618  32.348  1.00  0.00     0.060 A 
BRANCH  45  46
ATOM     46  S   UNL A   1      44.108  37.322  32.934  1.00  0.00     0.124 S 
ATOM     47  O   UNL A   1      43.870  38.071  31.705  1.00  0.00    -0.237 OA
ATOM     48  O   UNL A   1      43.046  37.389  33.932  1.00  0.00    -0.237 OA
ATOM     49  O   UNL A   1      45.467  37.400  33.463  1.00  0.00    -0.744 OA
ENDBRANCH  45  46
ENDBRANCH  24  38
BRANCH  25  50
ATOM     50  C   UNL A   1      42.639  23.739  27.741  1.00  0.00     0.058 A 
ATOM     51  C   UNL A   1      42.693  23.523  26.357  1.00  0.00     0.135 A 
ATOM     52  C   UNL A   1      42.457  22.621  28.571  1.00  0.00     0.135 A 
ATOM     53  F   UNL A   1      42.860  24.560  25.523  1.00  0.00    -0.206 F 
ATOM     54  C   UNL A   1      42.565  22.249  25.814  1.00  0.00     0.059 A 
ATOM     55  C   UNL A   1      42.357  21.334  28.054  1.00  0.00     0.059 A 
ATOM     56  F   UNL A   1      42.419  22.772  29.905  1.00  0.00    -0.206 F 
ATOM     57  C   UNL A   1      42.402  21.160  26.672  1.00  0.00     0.060 A 
BRANCH  57  58
ATOM     58  S   UNL A   1      42.298  19.504  25.961  1.00  0.00     0.124 S 
ATOM     59  O   UNL A   1      43.196  19.619  24.819  1.00  0.00    -0.237 OA
ATOM     60  O   UNL A   1      42.765  18.667  27.061  1.00  0.00    -0.237 OA
ATOM     61  O   UNL A   1      40.881  19.366  25.639  1.00  0.00    -0.744 OA
ENDBRANCH  57  58
ENDBRANCH  25  50
BRANCH  37  62
ATOM     62  C   UNL A   1      48.055  27.221  30.425  1.00  0.00     0.058 A 
ATOM     63  C   UNL A   1      49.058  27.514  29.488  1.00  0.00     0.135 A 
ATOM     64  C   UNL A   1      48.436  26.588  31.619  1.00  0.00     0.135 A 
ATOM     65  F   UNL A   1      48.745  28.110  28.326  1.00  0.00    -0.206 F 
ATOM     66  C   UNL A   1      50.387  27.172  29.716  1.00  0.00     0.059 A 
ATOM     67  C   UNL A   1      49.762  26.261  31.880  1.00  0.00     0.059 A 
ATOM     68  F   UNL A   1      47.515  26.291  32.550  1.00  0.00    -0.206 F 
ATOM     69  C   UNL A   1      50.729  26.546  30.917  1.00  0.00     0.060 A 
BRANCH  69  70
ATOM     70  S   UNL A   1      52.461  26.134  31.215  1.00  0.00     0.124 S 
ATOM     71  O   UNL A   1      52.344  24.840  31.880  1.00  0.00    -0.237 OA
ATOM     72  O   UNL A   1      53.012  26.104  29.863  1.00  0.00    -0.237 OA
ATOM     73  O   UNL A   1      52.932  27.232  32.053  1.00  0.00    -0.744 OA
ENDBRANCH  69  70
ENDBRANCH  37  62
ENDBRANCH  11  12
ENDBRANCH   4   6
ENDBRANCH   1   2
BRANCH   1  74
ATOM     74  C   UNL A   1      33.681  28.147  25.378  1.00  0.00     0.042 C 
BRANCH  74  75
ATOM     75  C   UNL A   1      32.679  27.121  24.854  1.00  0.00     0.117 C 
BRANCH  75  76
ATOM     76  N   UNL A   1      33.246  26.235  23.856  1.00  0.00    -0.356 N 
ATOM     77  C   UNL A   1      34.088  25.181  23.848  1.00  0.00     0.228 C 
ATOM     78  H   UNL A   1      32.937  26.461  22.949  1.00  0.00     0.163 HD
ATOM     79  O   UNL A   1      34.249  24.681  22.722  1.00  0.00    -0.275 OA
BRANCH  77  80
ATOM     80  C   UNL A   1      34.742  24.500  25.057  1.00  0.00     0.133 C 
ATOM     81  C   UNL A   1      36.092  23.794  25.007  1.00  0.00     0.025 C 
ATOM     82  C   UNL A   1      33.716  23.522  25.671  1.00  0.00     0.276 C 
ATOM     83  C   UNL A   1      36.028  22.447  24.304  1.00  0.00     0.062 C 
ATOM     84  N   UNL A   1      33.610  22.291  24.876  1.00  0.00    -0.330 N 
ATOM     85  C   UNL A   1      34.884  21.568  24.796  1.00  0.00     0.262 C 
ATOM     86  H   UNL A   1      33.393  22.591  23.926  1.00  0.00     0.348 HD
BRANCH  84  87
ATOM     87  C   UNL A   1      32.472  21.431  25.268  1.00  0.00     0.300 C 
BRANCH  87  88
ATOM     88  C   UNL A   1      32.511  20.019  24.711  1.00  0.00     0.025 A 
ATOM     89  C   UNL A   1      32.836  18.956  25.577  1.00  0.00     0.014 A 
ATOM     90  C   UNL A   1      32.362  19.741  23.338  1.00  0.00     0.052 A 
ATOM     91  C   UNL A   1      33.107  17.685  25.075  1.00  0.00     0.040 A 
ATOM     92  C   UNL A   1      32.622  18.464  22.839  1.00  0.00     0.060 A 
ATOM     93  Cl  UNL A   1      31.890  20.947  22.194  1.00  0.00    -0.084 Cl
ATOM     94  C   UNL A   1      33.014  17.457  23.709  1.00  0.00     0.124 A 
ATOM     95  F   UNL A   1      33.313  16.245  23.225  1.00  0.00    -0.207 F 
ENDBRANCH  87  88
ENDBRANCH  84  87
ENDBRANCH  77  80
ENDBRANCH  75  76
ENDBRANCH  74  75
ENDBRANCH   1  74
TORSDOF 15
ENDMDL
MODEL 3
REMARK VINA RESULT:     -12.1      5.105      9.886
REMARK SMILES O=C(NCCCNC(=O)[C@@H]1CCC[N@@H+](Cc2ccc(F)cc2Cl)C1)c1ccc(-c2c3nc(c(-c4c(F)cc(S(=O)(=O)[O-])cc4F)c4ccc([nH]4)c(-c4c(F)cc(S(=O)(=O)[O-])cc4F)c4nc(c(-c5c(F)cc(S(=O)(=O)[O-])cc5F)c5ccc2[nH]5)C=C4)C=C3)cc1
REMARK SMILES IDX 4 1 3 2 1 3 2 4 25 6 26 7 90 8 27 9 89 10 28 11 29 12 30 13
REMARK SMILES IDX 83 14 31 15 88 16 82 17 84 18 32 19 87 20 81 21 80 22 33 24
REMARK SMILES IDX 67 25 46 26 66 27 47 28 50 29 65 30 85 31 48 32 49 33 64 35
REMARK SMILES IDX 86 36 51 37 34 38 35 39 44 40 36 41 37 42 43 43 45 44 38 45
REMARK SMILES IDX 39 46 40 47 41 48 42 49 68 50 69 51 78 52 70 53 71 54 77 55
REMARK SMILES IDX 79 56 72 57 73 58 74 59 75 60 76 61 52 62 53 63 62 64 54 65
REMARK SMILES IDX 55 66 61 67 63 68 56 69 57 70 58 71 59 72 60 73 5 74 6 75
REMARK SMILES IDX 7 76 8 77 9 79 10 80 11 81 24 82 12 83 14 84 13 85 15 87
REMARK SMILES IDX 16 88 17 89 22 90 18 91 21 92 23 93 19 94 20 95
REMARK H PARENT 3 5 84 23 50 34 7 78 14 86
REMARK Flexibility Score: inf
ROOT
ATOM      1  C   UNL A   1      34.029  28.388  26.832  1.00  0.00     0.118 C 
ENDROOT
BRANCH   1   2
ATOM      2  N   UNL A   1      33.915  29.718  27.403  1.00  0.00    -0.352 N 
ATOM      3  O   UNL A   1      34.391  31.410  28.800  1.00  0.00    -0.269 OA
ATOM      4  C   UNL A   1      34.790  30.408  28.205  1.00  0.00     0.251 C 
ATOM      5  H   UNL A   1      33.084  30.198  27.183  1.00  0.00     0.163 HD
BRANCH   4   6
ATOM      6  C   UNL A   1      36.193  29.960  28.374  1.00  0.00     0.039 A 
ATOM      7  C   UNL A   1      37.140  30.150  27.367  1.00  0.00     0.014 A 
ATOM      8  C   UNL A   1      36.592  29.403  29.594  1.00  0.00     0.014 A 
ATOM      9  C   UNL A   1      38.433  29.662  27.517  1.00  0.00     0.010 A 
ATOM     10  C   UNL A   1      37.924  29.018  29.789  1.00  0.00     0.010 A 
ATOM     11  C   UNL A   1      38.856  29.132  28.745  1.00  0.00    -0.014 A 
BRANCH  11  12
ATOM     12  C   UNL A   1      40.297  28.824  28.943  1.00  0.00     0.031 A 
ATOM     13  C   UNL A   1      40.881  27.498  28.543  1.00  0.00     0.074 A 
ATOM     14  C   UNL A   1      41.084  29.775  29.489  1.00  0.00     0.049 A 
ATOM     15  N   UNL A   1      42.115  27.076  28.660  1.00  0.00    -0.248 NA
ATOM     16  C   UNL A   1      39.967  26.514  27.945  1.00  0.00     0.031 C 
ATOM     17  C   UNL A   1      40.623  31.092  29.939  1.00  0.00     0.029 A 
ATOM     18  N   UNL A   1      42.431  29.796  29.746  1.00  0.00    -0.354 N 
ATOM     19  C   UNL A   1      42.124  25.774  28.174  1.00  0.00     0.074 A 
ATOM     20  C   UNL A   1      40.764  25.466  27.779  1.00  0.00     0.031 C 
ATOM     21  C   UNL A   1      41.672  31.808  30.365  1.00  0.00     0.029 A 
ATOM     22  C   UNL A   1      42.868  30.979  30.294  1.00  0.00     0.049 A 
ATOM     23  H   UNL A   1      43.028  29.036  29.555  1.00  0.00     0.167 HD
ATOM     24  C   UNL A   1      43.170  24.920  28.065  1.00  0.00     0.037 A 
ATOM     25  C   UNL A   1      44.089  31.354  30.718  1.00  0.00     0.037 A 
ATOM     26  C   UNL A   1      44.523  25.246  28.447  1.00  0.00     0.049 A 
ATOM     27  C   UNL A   1      45.227  30.385  30.595  1.00  0.00     0.074 A 
ATOM     28  C   UNL A   1      45.660  24.464  28.339  1.00  0.00     0.029 A 
ATOM     29  N   UNL A   1      44.921  26.449  29.015  1.00  0.00    -0.354 N 
ATOM     30  N   UNL A   1      45.219  29.168  30.106  1.00  0.00    -0.248 NA
ATOM     31  C   UNL A   1      46.536  30.832  31.086  1.00  0.00     0.031 C 
ATOM     32  C   UNL A   1      46.735  25.173  28.884  1.00  0.00     0.029 A 
ATOM     33  C   UNL A   1      46.281  26.420  29.284  1.00  0.00     0.049 A 
ATOM     34  H   UNL A   1      44.326  27.211  29.199  1.00  0.00     0.167 HD
ATOM     35  C   UNL A   1      46.525  28.708  30.218  1.00  0.00     0.074 A 
ATOM     36  C   UNL A   1      47.298  29.785  30.803  1.00  0.00     0.031 C 
ATOM     37  C   UNL A   1      47.036  27.500  29.870  1.00  0.00     0.037 A 
BRANCH  24  38
ATOM     38  C   UNL A   1      42.900  23.539  27.530  1.00  0.00     0.058 A 
ATOM     39  C   UNL A   1      43.054  23.226  26.170  1.00  0.00     0.135 A 
ATOM     40  C   UNL A   1      42.529  22.499  28.400  1.00  0.00     0.135 A 
ATOM     41  F   UNL A   1      43.393  24.182  25.290  1.00  0.00    -0.206 F 
ATOM     42  C   UNL A   1      42.827  21.940  25.688  1.00  0.00     0.059 A 
ATOM     43  C   UNL A   1      42.322  21.200  27.944  1.00  0.00     0.059 A 
ATOM     44  F   UNL A   1      42.369  22.741  29.711  1.00  0.00    -0.206 F 
ATOM     45  C   UNL A   1      42.461  20.933  26.584  1.00  0.00     0.060 A 
BRANCH  45  46
ATOM     46  S   UNL A   1      42.172  19.270  25.942  1.00  0.00     0.124 S 
ATOM     47  O   UNL A   1      42.985  19.281  24.730  1.00  0.00    -0.237 OA
ATOM     48  O   UNL A   1      42.665  18.427  27.027  1.00  0.00    -0.237 OA
ATOM     49  O   UNL A   1      40.729  19.232  25.729  1.00  0.00    -0.744 OA
ENDBRANCH  45  46
ENDBRANCH  24  38
BRANCH  25  50
ATOM     50  C   UNL A   1      44.280  32.705  31.308  1.00  0.00     0.058 A 
ATOM     51  C   UNL A   1      44.556  33.817  30.501  1.00  0.00     0.135 A 
ATOM     52  C   UNL A   1      44.144  32.917  32.690  1.00  0.00     0.135 A 
ATOM     53  F   UNL A   1      44.698  33.665  29.176  1.00  0.00    -0.206 F 
ATOM     54  C   UNL A   1      44.700  35.091  31.041  1.00  0.00     0.059 A 
ATOM     55  C   UNL A   1      44.254  34.185  33.250  1.00  0.00     0.059 A 
ATOM     56  F   UNL A   1      43.860  31.888  33.504  1.00  0.00    -0.206 F 
ATOM     57  C   UNL A   1      44.542  35.265  32.418  1.00  0.00     0.060 A 
BRANCH  57  58
ATOM     58  S   UNL A   1      44.670  36.931  33.102  1.00  0.00     0.124 S 
ATOM     59  O   UNL A   1      44.122  37.735  32.017  1.00  0.00    -0.237 OA
ATOM     60  O   UNL A   1      43.850  36.834  34.304  1.00  0.00    -0.237 OA
ATOM     61  O   UNL A   1      46.102  37.085  33.342  1.00  0.00    -0.744 OA
ENDBRANCH  57  58
ENDBRANCH  25  50
BRANCH  37  62
ATOM     62  C   UNL A   1      48.507  27.292  30.091  1.00  0.00     0.058 A 
ATOM     63  C   UNL A   1      49.001  26.719  31.274  1.00  0.00     0.135 A 
ATOM     64  C   UNL A   1      49.431  27.636  29.092  1.00  0.00     0.135 A 
ATOM     65  F   UNL A   1      48.160  26.382  32.264  1.00  0.00    -0.206 F 
ATOM     66  C   UNL A   1      50.363  26.516  31.468  1.00  0.00     0.059 A 
ATOM     67  C   UNL A   1      50.795  27.417  29.253  1.00  0.00     0.059 A 
ATOM     68  F   UNL A   1      49.010  28.181  27.939  1.00  0.00    -0.206 F 
ATOM     69  C   UNL A   1      51.253  26.868  30.451  1.00  0.00     0.060 A 
BRANCH  69  70
ATOM     70  S   UNL A   1      53.016  26.573  30.702  1.00  0.00     0.124 S 
ATOM     71  O   UNL A   1      53.450  27.849  31.262  1.00  0.00    -0.237 OA
ATOM     72  O   UNL A   1      53.015  25.442  31.626  1.00  0.00    -0.237 OA
ATOM     73  O   UNL A   1      53.506  26.277  29.359  1.00  0.00    -0.744 OA
ENDBRANCH  69  70
ENDBRANCH  37  62
ENDBRANCH  11  12
ENDBRANCH   4   6
ENDBRANCH   1   2
BRANCH   1  74
ATOM     74  C   UNL A   1      33.615  28.355  25.369  1.00  0.00     0.042 C 
BRANCH  74  75
ATOM     75  C   UNL A   1      32.685  27.200  25.009  1.00  0.00     0.117 C 
BRANCH  75  76
ATOM     76  N   UNL A   1      33.240  26.322  23.996  1.00  0.00    -0.356 N 
ATOM     77  C   UNL A   1      34.032  25.232  23.973  1.00  0.00     0.228 C 
ATOM     78  H   UNL A   1      32.967  26.593  23.089  1.00  0.00     0.163 HD
ATOM     79  O   UNL A   1      34.203  24.763  22.835  1.00  0.00    -0.275 OA
BRANCH  77  80
ATOM     80  C   UNL A   1      34.620  24.480  25.175  1.00  0.00     0.133 C 
ATOM     81  C   UNL A   1      35.966  23.764  25.153  1.00  0.00     0.025 C 
ATOM     82  C   UNL A   1      33.558  23.481  25.684  1.00  0.00     0.276 C 
ATOM     83  C   UNL A   1      35.927  22.457  24.376  1.00  0.00     0.062 C 
ATOM     84  N   UNL A   1      33.482  22.296  24.820  1.00  0.00    -0.330 N 
ATOM     85  C   UNL A   1      34.753  21.565  24.763  1.00  0.00     0.262 C 
ATOM     86  H   UNL A   1      33.315  22.649  23.877  1.00  0.00     0.348 HD
BRANCH  84  87
ATOM     87  C   UNL A   1      32.320  21.428  25.109  1.00  0.00     0.300 C 
BRANCH  87  88
ATOM     88  C   UNL A   1      32.443  19.999  24.609  1.00  0.00     0.025 A 
ATOM     89  C   UNL A   1      32.777  18.985  25.528  1.00  0.00     0.014 A 
ATOM     90  C   UNL A   1      32.364  19.664  23.243  1.00  0.00     0.052 A 
ATOM     91  C   UNL A   1      33.124  17.710  25.088  1.00  0.00     0.040 A 
ATOM     92  C   UNL A   1      32.701  18.382  22.806  1.00  0.00     0.060 A 
ATOM     93  Cl  UNL A   1      31.889  20.804  22.034  1.00  0.00    -0.084 Cl
ATOM     94  C   UNL A   1      33.099  17.427  23.729  1.00  0.00     0.124 A 
ATOM     95  F   UNL A   1      33.471  16.213  23.305  1.00  0.00    -0.207 F 
ENDBRANCH  87  88
ENDBRANCH  84  87
ENDBRANCH  77  80
ENDBRANCH  75  76
ENDBRANCH  74  75
ENDBRANCH   1  74
TORSDOF 15
ENDMDL
