MODEL 1
REMARK VINA RESULT:     -13.3      0.000      0.000
REMARK SMILES Cc1c(CC(=O)NCCCNC(=O)c2ccc(-c3c4nc(c(-c5c(F)cc(S(=O)(=O)[O-])cc5F)c5ccc([nH]5)c(-c5c(F)cc(S(=O)(=O)[O-])cc5F)c5nc(c(-c6c(F)cc(S(=O)(=O)[O-])cc6F)c6ccc3[nH]6)C=C5)C=C4)cc2)c2ccccc2n1C(=O)c1ccc(Cl)cc1
REMARK SMILES IDX 9 1 8 2 7 3 5 4 6 5 4 7 3 8 1 9 2 10 86 11 80 12 85 13 81 14
REMARK SMILES IDX 84 15 82 16 83 17 87 18 88 19 89 20 90 21 95 22 91 23 94 24
REMARK SMILES IDX 92 25 93 26 10 27 11 28 12 29 13 31 14 32 15 33 79 34 16 35
REMARK SMILES IDX 78 36 17 37 18 38 19 39 72 40 20 41 77 42 71 43 73 44 21 45
REMARK SMILES IDX 76 46 70 47 69 48 22 50 56 51 35 52 55 53 36 54 39 55 54 56
REMARK SMILES IDX 74 57 37 58 38 59 53 61 75 62 40 63 23 64 24 65 33 66 25 67
REMARK SMILES IDX 26 68 32 69 34 70 27 71 28 72 29 73 30 74 31 75 57 76 58 77
REMARK SMILES IDX 67 78 59 79 60 80 66 81 68 82 61 83 62 84 63 85 64 86 65 87
REMARK SMILES IDX 41 88 42 89 51 90 43 91 44 92 50 93 52 94 45 95 46 96 47 97
REMARK SMILES IDX 48 98 49 99
REMARK H PARENT 7 6 11 30 73 49 39 60
REMARK Flexibility Score: inf
ROOT
ATOM      1  C   UNL A   1      38.051  22.385  25.569  1.00  0.00     0.042 C 
ENDROOT
BRANCH   1   2
ATOM      2  C   UNL A   1      37.220  23.652  25.780  1.00  0.00     0.117 C 
BRANCH   2   3
ATOM      3  N   UNL A   1      35.904  23.361  26.324  1.00  0.00    -0.356 N 
ATOM      4  C   UNL A   1      34.698  23.921  26.027  1.00  0.00     0.224 C 
ATOM      5  O   UNL A   1      33.710  23.534  26.658  1.00  0.00    -0.275 OA
ATOM      6  H   UNL A   1      35.881  22.654  27.008  1.00  0.00     0.163 HD
BRANCH   4   7
ATOM      7  C   UNL A   1      34.575  24.944  24.912  1.00  0.00     0.138 C 
BRANCH   7   8
ATOM      8  C   UNL A   1      33.361  25.818  25.035  1.00  0.00    -0.010 A 
ATOM      9  C   UNL A   1      31.612  24.361  23.777  1.00  0.00     0.065 C 
ATOM     10  C   UNL A   1      32.094  25.570  24.525  1.00  0.00     0.028 A 
ATOM     11  N   UNL A   1      31.268  26.671  24.810  1.00  0.00    -0.280 N 
ATOM     12  C   UNL A   1      33.296  27.044  25.752  1.00  0.00     0.004 A 
ATOM     13  C   UNL A   1      31.982  27.519  25.676  1.00  0.00     0.056 A 
ATOM     14  C   UNL A   1      34.255  27.777  26.490  1.00  0.00     0.010 A 
ATOM     15  C   UNL A   1      31.614  28.676  26.397  1.00  0.00     0.027 A 
ATOM     16  C   UNL A   1      33.897  28.961  27.136  1.00  0.00     0.001 A 
ATOM     17  C   UNL A   1      32.585  29.397  27.097  1.00  0.00     0.002 A 
BRANCH  11  18
ATOM     18  C   UNL A   1      29.952  26.876  24.293  1.00  0.00     0.262 C 
ATOM     19  O   UNL A   1      29.058  26.132  24.651  1.00  0.00    -0.268 OA
BRANCH  18  20
ATOM     20  C   UNL A   1      29.578  27.935  23.340  1.00  0.00     0.040 A 
ATOM     21  C   UNL A   1      30.557  28.628  22.621  1.00  0.00     0.015 A 
ATOM     22  C   UNL A   1      28.227  28.275  23.233  1.00  0.00     0.015 A 
ATOM     23  C   UNL A   1      30.185  29.751  21.878  1.00  0.00     0.021 A 
ATOM     24  C   UNL A   1      27.861  29.393  22.484  1.00  0.00     0.021 A 
ATOM     25  C   UNL A   1      28.844  30.143  21.835  1.00  0.00     0.041 A 
ATOM     26  Cl  UNL A   1      28.405  31.590  21.015  1.00  0.00    -0.084 Cl
ENDBRANCH  18  20
ENDBRANCH  11  18
ENDBRANCH   7   8
ENDBRANCH   4   7
ENDBRANCH   2   3
ENDBRANCH   1   2
BRANCH   1  27
ATOM     27  C   UNL A   1      39.296  22.320  26.457  1.00  0.00     0.118 C 
BRANCH  27  28
ATOM     28  N   UNL A   1      40.547  22.188  25.734  1.00  0.00    -0.352 N 
ATOM     29  C   UNL A   1      41.726  22.879  25.715  1.00  0.00     0.251 C 
ATOM     30  H   UNL A   1      40.546  21.424  25.113  1.00  0.00     0.163 HD
ATOM     31  O   UNL A   1      42.649  22.357  25.083  1.00  0.00    -0.269 OA
BRANCH  29  32
ATOM     32  C   UNL A   1      41.927  24.230  26.298  1.00  0.00     0.039 A 
ATOM     33  C   UNL A   1      42.718  24.518  27.410  1.00  0.00     0.014 A 
ATOM     34  C   UNL A   1      41.152  25.260  25.731  1.00  0.00     0.014 A 
ATOM     35  C   UNL A   1      42.588  25.736  28.056  1.00  0.00     0.010 A 
ATOM     36  C   UNL A   1      41.045  26.494  26.352  1.00  0.00     0.010 A 
ATOM     37  C   UNL A   1      41.698  26.692  27.562  1.00  0.00    -0.014 A 
BRANCH  37  38
ATOM     38  C   UNL A   1      41.547  27.928  28.315  1.00  0.00     0.031 A 
ATOM     39  C   UNL A   1      42.683  28.875  28.144  1.00  0.00     0.074 A 
ATOM     40  C   UNL A   1      40.435  28.210  29.025  1.00  0.00     0.049 A 
ATOM     41  N   UNL A   1      43.537  29.271  29.032  1.00  0.00    -0.248 NA
ATOM     42  C   UNL A   1      43.013  29.293  26.771  1.00  0.00     0.031 C 
ATOM     43  C   UNL A   1      39.168  27.473  29.061  1.00  0.00     0.029 A 
ATOM     44  N   UNL A   1      40.173  29.286  29.815  1.00  0.00    -0.354 N 
ATOM     45  C   UNL A   1      44.371  30.173  28.374  1.00  0.00     0.074 A 
ATOM     46  C   UNL A   1      44.126  30.001  26.967  1.00  0.00     0.031 C 
ATOM     47  C   UNL A   1      38.213  28.246  29.627  1.00  0.00     0.029 A 
ATOM     48  C   UNL A   1      38.826  29.466  30.120  1.00  0.00     0.049 A 
ATOM     49  H   UNL A   1      40.877  29.889  30.144  1.00  0.00     0.167 HD
ATOM     50  C   UNL A   1      45.022  31.165  29.042  1.00  0.00     0.037 A 
ATOM     51  C   UNL A   1      38.268  30.579  30.668  1.00  0.00     0.037 A 
ATOM     52  C   UNL A   1      45.116  30.877  30.449  1.00  0.00     0.049 A 
ATOM     53  C   UNL A   1      39.372  31.328  31.330  1.00  0.00     0.074 A 
ATOM     54  C   UNL A   1      45.701  29.869  31.192  1.00  0.00     0.029 A 
ATOM     55  N   UNL A   1      44.224  31.491  31.294  1.00  0.00    -0.354 N 
ATOM     56  N   UNL A   1      40.031  30.883  32.366  1.00  0.00    -0.248 NA
ATOM     57  C   UNL A   1      40.061  32.338  30.539  1.00  0.00     0.031 C 
ATOM     58  C   UNL A   1      44.785  29.615  32.254  1.00  0.00     0.029 A 
ATOM     59  C   UNL A   1      43.735  30.527  32.141  1.00  0.00     0.049 A 
ATOM     60  H   UNL A   1      43.981  32.445  31.293  1.00  0.00     0.167 HD
ATOM     61  C   UNL A   1      41.352  31.234  32.129  1.00  0.00     0.074 A 
ATOM     62  C   UNL A   1      41.299  32.179  31.014  1.00  0.00     0.031 C 
ATOM     63  C   UNL A   1      42.386  30.520  32.663  1.00  0.00     0.037 A 
BRANCH  50  64
ATOM     64  C   UNL A   1      45.241  32.548  28.474  1.00  0.00     0.058 A 
ATOM     65  C   UNL A   1      46.554  33.026  28.285  1.00  0.00     0.135 A 
ATOM     66  C   UNL A   1      44.221  33.521  28.367  1.00  0.00     0.135 A 
ATOM     67  F   UNL A   1      47.604  32.195  28.380  1.00  0.00    -0.206 F 
ATOM     68  C   UNL A   1      46.833  34.377  28.066  1.00  0.00     0.059 A 
ATOM     69  C   UNL A   1      44.472  34.860  28.096  1.00  0.00     0.059 A 
ATOM     70  F   UNL A   1      42.937  33.242  28.619  1.00  0.00    -0.206 F 
ATOM     71  C   UNL A   1      45.783  35.288  27.985  1.00  0.00     0.060 A 
BRANCH  71  72
ATOM     72  S   UNL A   1      46.140  37.042  27.801  1.00  0.00     0.124 S 
ATOM     73  O   UNL A   1      46.339  37.150  26.361  1.00  0.00    -0.237 OA
ATOM     74  O   UNL A   1      44.923  37.652  28.326  1.00  0.00    -0.237 OA
ATOM     75  O   UNL A   1      47.333  37.231  28.621  1.00  0.00    -0.744 OA
ENDBRANCH  71  72
ENDBRANCH  50  64
BRANCH  51  76
ATOM     76  C   UNL A   1      36.978  31.230  30.292  1.00  0.00     0.058 A 
ATOM     77  C   UNL A   1      36.173  31.867  31.256  1.00  0.00     0.135 A 
ATOM     78  C   UNL A   1      36.654  31.499  28.946  1.00  0.00     0.135 A 
ATOM     79  F   UNL A   1      36.419  31.689  32.563  1.00  0.00    -0.206 F 
ATOM     80  C   UNL A   1      35.148  32.757  30.908  1.00  0.00     0.059 A 
ATOM     81  C   UNL A   1      35.633  32.374  28.576  1.00  0.00     0.059 A 
ATOM     82  F   UNL A   1      37.383  30.990  27.942  1.00  0.00    -0.206 F 
ATOM     83  C   UNL A   1      34.900  33.023  29.561  1.00  0.00     0.060 A 
BRANCH  83  84
ATOM     84  S   UNL A   1      33.703  34.302  29.107  1.00  0.00     0.124 S 
ATOM     85  O   UNL A   1      34.559  35.317  28.502  1.00  0.00    -0.237 OA
ATOM     86  O   UNL A   1      32.820  33.586  28.194  1.00  0.00    -0.237 OA
ATOM     87  O   UNL A   1      33.104  34.675  30.387  1.00  0.00    -0.744 OA
ENDBRANCH  83  84
ENDBRANCH  51  76
BRANCH  63  88
ATOM     88  C   UNL A   1      42.082  29.495  33.727  1.00  0.00     0.058 A 
ATOM     89  C   UNL A   1      41.597  28.197  33.474  1.00  0.00     0.135 A 
ATOM     90  C   UNL A   1      42.463  29.786  35.046  1.00  0.00     0.135 A 
ATOM     91  F   UNL A   1      41.303  27.806  32.226  1.00  0.00    -0.206 F 
ATOM     92  C   UNL A   1      41.467  27.247  34.492  1.00  0.00     0.059 A 
ATOM     93  C   UNL A   1      42.370  28.846  36.069  1.00  0.00     0.059 A 
ATOM     94  F   UNL A   1      42.990  30.984  35.342  1.00  0.00    -0.206 F 
ATOM     95  C   UNL A   1      41.859  27.581  35.789  1.00  0.00     0.060 A 
BRANCH  95  96
ATOM     96  S   UNL A   1      41.738  26.348  37.105  1.00  0.00     0.124 S 
ATOM     97  O   UNL A   1      40.436  26.649  37.692  1.00  0.00    -0.237 OA
ATOM     98  O   UNL A   1      41.828  25.088  36.376  1.00  0.00    -0.237 OA
ATOM     99  O   UNL A   1      42.888  26.643  37.958  1.00  0.00    -0.744 OA
ENDBRANCH  95  96
ENDBRANCH  63  88
ENDBRANCH  37  38
ENDBRANCH  29  32
ENDBRANCH  27  28
ENDBRANCH   1  27
TORSDOF 16
ENDMDL
MODEL 2
REMARK VINA RESULT:     -13.0      2.393      3.413
REMARK SMILES Cc1c(CC(=O)NCCCNC(=O)c2ccc(-c3c4nc(c(-c5c(F)cc(S(=O)(=O)[O-])cc5F)c5ccc([nH]5)c(-c5c(F)cc(S(=O)(=O)[O-])cc5F)c5nc(c(-c6c(F)cc(S(=O)(=O)[O-])cc6F)c6ccc3[nH]6)C=C5)C=C4)cc2)c2ccccc2n1C(=O)c1ccc(Cl)cc1
REMARK SMILES IDX 9 1 8 2 7 3 5 4 6 5 4 7 3 8 1 9 2 10 86 11 80 12 85 13 81 14
REMARK SMILES IDX 84 15 82 16 83 17 87 18 88 19 89 20 90 21 95 22 91 23 94 24
REMARK SMILES IDX 92 25 93 26 10 27 11 28 12 29 13 31 14 32 15 33 79 34 16 35
REMARK SMILES IDX 78 36 17 37 18 38 19 39 72 40 20 41 77 42 71 43 73 44 21 45
REMARK SMILES IDX 76 46 70 47 69 48 22 50 56 51 35 52 55 53 36 54 39 55 54 56
REMARK SMILES IDX 74 57 37 58 38 59 53 61 75 62 40 63 23 64 24 65 33 66 25 67
REMARK SMILES IDX 26 68 32 69 34 70 27 71 28 72 29 73 30 74 31 75 57 76 58 77
REMARK SMILES IDX 67 78 59 79 60 80 66 81 68 82 61 83 62 84 63 85 64 86 65 87
REMARK SMILES IDX 41 88 42 89 51 90 43 91 44 92 50 93 52 94 45 95 46 96 47 97
REMARK SMILES IDX 48 98 49 99
REMARK H PARENT 7 6 11 30 73 49 39 60
REMARK Flexibility Score: inf
ROOT
ATOM      1  C   UNL A   1      40.952  20.681  27.394  1.00  0.00     0.042 C 
ENDROOT
BRANCH   1   2
ATOM      2  C   UNL A   1      40.166  21.044  26.133  1.00  0.00     0.117 C 
BRANCH   2   3
ATOM      3  N   UNL A   1      39.594  22.378  26.208  1.00  0.00    -0.356 N 
ATOM      4  C   UNL A   1      38.308  22.785  26.012  1.00  0.00     0.224 C 
ATOM      5  O   UNL A   1      38.066  23.993  26.090  1.00  0.00    -0.275 OA
ATOM      6  H   UNL A   1      40.230  23.095  26.434  1.00  0.00     0.163 HD
BRANCH   4   7
ATOM      7  C   UNL A   1      37.205  21.770  25.767  1.00  0.00     0.138 C 
BRANCH   7   8
ATOM      8  C   UNL A   1      35.918  22.388  25.307  1.00  0.00    -0.010 A 
ATOM      9  C   UNL A   1      36.529  22.948  22.842  1.00  0.00     0.065 C 
ATOM     10  C   UNL A   1      35.641  22.913  24.052  1.00  0.00     0.028 A 
ATOM     11  N   UNL A   1      34.342  23.450  24.063  1.00  0.00    -0.280 N 
ATOM     12  C   UNL A   1      34.730  22.494  26.082  1.00  0.00     0.004 A 
ATOM     13  C   UNL A   1      33.742  23.074  25.278  1.00  0.00     0.056 A 
ATOM     14  C   UNL A   1      34.409  22.112  27.405  1.00  0.00     0.010 A 
ATOM     15  C   UNL A   1      32.425  23.198  25.771  1.00  0.00     0.027 A 
ATOM     16  C   UNL A   1      33.122  22.310  27.907  1.00  0.00     0.001 A 
ATOM     17  C   UNL A   1      32.139  22.838  27.091  1.00  0.00     0.002 A 
BRANCH  11  18
ATOM     18  C   UNL A   1      33.763  24.239  23.022  1.00  0.00     0.262 C 
ATOM     19  O   UNL A   1      33.733  23.789  21.891  1.00  0.00    -0.268 OA
BRANCH  18  20
ATOM     20  C   UNL A   1      33.187  25.582  23.207  1.00  0.00     0.040 A 
ATOM     21  C   UNL A   1      33.783  26.503  24.073  1.00  0.00     0.015 A 
ATOM     22  C   UNL A   1      31.990  25.879  22.548  1.00  0.00     0.015 A 
ATOM     23  C   UNL A   1      33.107  27.688  24.372  1.00  0.00     0.021 A 
ATOM     24  C   UNL A   1      31.323  27.067  22.846  1.00  0.00     0.021 A 
ATOM     25  C   UNL A   1      31.869  27.951  23.779  1.00  0.00     0.041 A 
ATOM     26  Cl  UNL A   1      30.986  29.356  24.237  1.00  0.00    -0.084 Cl
ENDBRANCH  18  20
ENDBRANCH  11  18
ENDBRANCH   7   8
ENDBRANCH   4   7
ENDBRANCH   2   3
ENDBRANCH   1   2
BRANCH   1  27
ATOM     27  C   UNL A   1      42.002  19.593  27.162  1.00  0.00     0.118 C 
BRANCH  27  28
ATOM     28  N   UNL A   1      42.727  19.709  25.911  1.00  0.00    -0.352 N 
ATOM     29  C   UNL A   1      43.559  20.644  25.362  1.00  0.00     0.251 C 
ATOM     30  H   UNL A   1      42.588  18.934  25.320  1.00  0.00     0.163 HD
ATOM     31  O   UNL A   1      44.137  20.312  24.324  1.00  0.00    -0.269 OA
BRANCH  29  32
ATOM     32  C   UNL A   1      43.719  22.034  25.862  1.00  0.00     0.039 A 
ATOM     33  C   UNL A   1      44.406  22.399  27.019  1.00  0.00     0.014 A 
ATOM     34  C   UNL A   1      43.009  23.022  25.152  1.00  0.00     0.014 A 
ATOM     35  C   UNL A   1      44.229  23.662  27.560  1.00  0.00     0.010 A 
ATOM     36  C   UNL A   1      42.858  24.298  25.670  1.00  0.00     0.010 A 
ATOM     37  C   UNL A   1      43.398  24.582  26.918  1.00  0.00    -0.014 A 
BRANCH  37  38
ATOM     38  C   UNL A   1      43.190  25.870  27.562  1.00  0.00     0.031 A 
ATOM     39  C   UNL A   1      44.274  26.855  27.292  1.00  0.00     0.074 A 
ATOM     40  C   UNL A   1      42.074  26.156  28.263  1.00  0.00     0.049 A 
ATOM     41  N   UNL A   1      45.115  27.372  28.128  1.00  0.00    -0.248 NA
ATOM     42  C   UNL A   1      44.566  27.167  25.882  1.00  0.00     0.031 C 
ATOM     43  C   UNL A   1      40.848  25.361  28.383  1.00  0.00     0.029 A 
ATOM     44  N   UNL A   1      41.764  27.283  28.959  1.00  0.00    -0.354 N 
ATOM     45  C   UNL A   1      45.894  28.254  27.380  1.00  0.00     0.074 A 
ATOM     46  C   UNL A   1      45.642  27.946  25.998  1.00  0.00     0.031 C 
ATOM     47  C   UNL A   1      39.860  26.131  28.893  1.00  0.00     0.029 A 
ATOM     48  C   UNL A   1      40.412  27.420  29.268  1.00  0.00     0.049 A 
ATOM     49  H   UNL A   1      42.439  27.948  29.223  1.00  0.00     0.167 HD
ATOM     50  C   UNL A   1      46.499  29.333  27.949  1.00  0.00     0.037 A 
ATOM     51  C   UNL A   1      39.803  28.547  29.726  1.00  0.00     0.037 A 
ATOM     52  C   UNL A   1      46.623  29.174  29.374  1.00  0.00     0.049 A 
ATOM     53  C   UNL A   1      40.874  29.406  30.302  1.00  0.00     0.074 A 
ATOM     54  C   UNL A   1      47.269  28.267  30.193  1.00  0.00     0.029 A 
ATOM     55  N   UNL A   1      45.710  29.814  30.176  1.00  0.00    -0.354 N 
ATOM     56  N   UNL A   1      41.566  29.088  31.363  1.00  0.00    -0.248 NA
ATOM     57  C   UNL A   1      41.500  30.377  29.415  1.00  0.00     0.031 C 
ATOM     58  C   UNL A   1      46.379  28.062  31.288  1.00  0.00     0.029 A 
ATOM     59  C   UNL A   1      45.282  28.905  31.111  1.00  0.00     0.049 A 
ATOM     60  H   UNL A   1      45.417  30.751  30.096  1.00  0.00     0.167 HD
ATOM     61  C   UNL A   1      42.865  29.485  31.075  1.00  0.00     0.074 A 
ATOM     62  C   UNL A   1      42.750  30.324  29.883  1.00  0.00     0.031 C 
ATOM     63  C   UNL A   1      43.941  28.875  31.653  1.00  0.00     0.037 A 
BRANCH  50  64
ATOM     64  C   UNL A   1      46.639  30.670  27.259  1.00  0.00     0.058 A 
ATOM     65  C   UNL A   1      47.908  31.276  27.161  1.00  0.00     0.135 A 
ATOM     66  C   UNL A   1      45.542  31.502  26.935  1.00  0.00     0.135 A 
ATOM     67  F   UNL A   1      49.020  30.587  27.460  1.00  0.00    -0.206 F 
ATOM     68  C   UNL A   1      48.068  32.623  26.826  1.00  0.00     0.059 A 
ATOM     69  C   UNL A   1      45.683  32.828  26.547  1.00  0.00     0.059 A 
ATOM     70  F   UNL A   1      44.274  31.102  27.076  1.00  0.00    -0.206 F 
ATOM     71  C   UNL A   1      46.946  33.393  26.532  1.00  0.00     0.060 A 
BRANCH  71  72
ATOM     72  S   UNL A   1      47.137  35.151  26.195  1.00  0.00     0.124 S 
ATOM     73  O   UNL A   1      45.760  35.547  25.924  1.00  0.00    -0.237 OA
ATOM     74  O   UNL A   1      47.708  35.635  27.447  1.00  0.00    -0.237 OA
ATOM     75  O   UNL A   1      48.040  35.178  25.049  1.00  0.00    -0.744 OA
ENDBRANCH  71  72
ENDBRANCH  50  64
BRANCH  51  76
ATOM     76  C   UNL A   1      38.477  29.094  29.314  1.00  0.00     0.058 A 
ATOM     77  C   UNL A   1      37.490  29.411  30.268  1.00  0.00     0.135 A 
ATOM     78  C   UNL A   1      38.258  29.594  28.014  1.00  0.00     0.135 A 
ATOM     79  F   UNL A   1      37.622  28.997  31.537  1.00  0.00    -0.206 F 
ATOM     80  C   UNL A   1      36.385  30.218  29.964  1.00  0.00     0.059 A 
ATOM     81  C   UNL A   1      37.161  30.392  27.686  1.00  0.00     0.059 A 
ATOM     82  F   UNL A   1      39.155  29.401  27.036  1.00  0.00    -0.206 F 
ATOM     83  C   UNL A   1      36.242  30.725  28.673  1.00  0.00     0.060 A 
BRANCH  83  84
ATOM     84  S   UNL A   1      34.921  31.910  28.318  1.00  0.00     0.124 S 
ATOM     85  O   UNL A   1      35.630  32.937  27.562  1.00  0.00    -0.237 OA
ATOM     86  O   UNL A   1      33.975  31.099  27.560  1.00  0.00    -0.237 OA
ATOM     87  O   UNL A   1      34.466  32.318  29.645  1.00  0.00    -0.744 OA
ENDBRANCH  83  84
ENDBRANCH  51  76
BRANCH  63  88
ATOM     88  C   UNL A   1      43.702  27.933  32.808  1.00  0.00     0.058 A 
ATOM     89  C   UNL A   1      43.668  26.530  32.702  1.00  0.00     0.135 A 
ATOM     90  C   UNL A   1      43.681  28.475  34.102  1.00  0.00     0.135 A 
ATOM     91  F   UNL A   1      43.784  25.927  31.510  1.00  0.00    -0.206 F 
ATOM     92  C   UNL A   1      43.582  25.707  33.830  1.00  0.00     0.059 A 
ATOM     93  C   UNL A   1      43.624  27.674  35.239  1.00  0.00     0.059 A 
ATOM     94  F   UNL A   1      43.772  29.803  34.274  1.00  0.00    -0.206 F 
ATOM     95  C   UNL A   1      43.563  26.291  35.098  1.00  0.00     0.060 A 
BRANCH  95  96
ATOM     96  S   UNL A   1      43.498  25.237  36.565  1.00  0.00     0.124 S 
ATOM     97  O   UNL A   1      44.245  24.060  36.134  1.00  0.00    -0.237 OA
ATOM     98  O   UNL A   1      44.144  26.059  37.582  1.00  0.00    -0.237 OA
ATOM     99  O   UNL A   1      42.066  25.024  36.771  1.00  0.00    -0.744 OA
ENDBRANCH  95  96
ENDBRANCH  63  88
ENDBRANCH  37  38
ENDBRANCH  29  32
ENDBRANCH  27  28
ENDBRANCH   1  27
TORSDOF 16
ENDMDL
MODEL 3
REMARK VINA RESULT:     -13.0      3.533      9.606
REMARK SMILES Cc1c(CC(=O)NCCCNC(=O)c2ccc(-c3c4nc(c(-c5c(F)cc(S(=O)(=O)[O-])cc5F)c5ccc([nH]5)c(-c5c(F)cc(S(=O)(=O)[O-])cc5F)c5nc(c(-c6c(F)cc(S(=O)(=O)[O-])cc6F)c6ccc3[nH]6)C=C5)C=C4)cc2)c2ccccc2n1C(=O)c1ccc(Cl)cc1
REMARK SMILES IDX 9 1 8 2 7 3 5 4 6 5 4 7 3 8 1 9 2 10 86 11 80 12 85 13 81 14
REMARK SMILES IDX 84 15 82 16 83 17 87 18 88 19 89 20 90 21 95 22 91 23 94 24
REMARK SMILES IDX 92 25 93 26 10 27 11 28 12 29 13 31 14 32 15 33 79 34 16 35
REMARK SMILES IDX 78 36 17 37 18 38 19 39 72 40 20 41 77 42 71 43 73 44 21 45
REMARK SMILES IDX 76 46 70 47 69 48 22 50 56 51 35 52 55 53 36 54 39 55 54 56
REMARK SMILES IDX 74 57 37 58 38 59 53 61 75 62 40 63 23 64 24 65 33 66 25 67
REMARK SMILES IDX 26 68 32 69 34 70 27 71 28 72 29 73 30 74 31 75 57 76 58 77
REMARK SMILES IDX 67 78 59 79 60 80 66 81 68 82 61 83 62 84 63 85 64 86 65 87
REMARK SMILES IDX 41 88 42 89 51 90 43 91 44 92 50 93 52 94 45 95 46 96 47 97
REMARK SMILES IDX 48 98 49 99
REMARK H PARENT 7 6 11 30 73 49 39 60
REMARK Flexibility Score: inf
ROOT
ATOM      1  C   UNL A   1      33.122  28.879  27.208  1.00  0.00     0.042 C 
ENDROOT
BRANCH   1   2
ATOM      2  C   UNL A   1      31.827  28.561  26.457  1.00  0.00     0.117 C 
BRANCH   2   3
ATOM      3  N   UNL A   1      32.078  28.126  25.093  1.00  0.00    -0.356 N 
ATOM      4  C   UNL A   1      32.439  26.898  24.625  1.00  0.00     0.224 C 
ATOM      5  O   UNL A   1      32.639  26.778  23.412  1.00  0.00    -0.275 OA
ATOM      6  H   UNL A   1      31.969  28.822  24.405  1.00  0.00     0.163 HD
BRANCH   4   7
ATOM      7  C   UNL A   1      32.533  25.710  25.565  1.00  0.00     0.138 C 
BRANCH   7   8
ATOM      8  C   UNL A   1      32.977  24.447  24.887  1.00  0.00    -0.010 A 
ATOM      9  C   UNL A   1      30.733  23.685  23.813  1.00  0.00     0.065 C 
ATOM     10  C   UNL A   1      32.191  23.569  24.152  1.00  0.00     0.028 A 
ATOM     11  N   UNL A   1      32.985  22.482  23.748  1.00  0.00    -0.280 N 
ATOM     12  C   UNL A   1      34.312  23.958  24.843  1.00  0.00     0.004 A 
ATOM     13  C   UNL A   1      34.319  22.792  24.070  1.00  0.00     0.056 A 
ATOM     14  C   UNL A   1      35.528  24.439  25.382  1.00  0.00     0.010 A 
ATOM     15  C   UNL A   1      35.545  22.157  23.774  1.00  0.00     0.027 A 
ATOM     16  C   UNL A   1      36.723  23.759  25.146  1.00  0.00     0.001 A 
ATOM     17  C   UNL A   1      36.730  22.635  24.340  1.00  0.00     0.002 A 
BRANCH  11  18
ATOM     18  C   UNL A   1      32.501  21.285  23.134  1.00  0.00     0.262 C 
ATOM     19  O   UNL A   1      32.052  21.344  22.005  1.00  0.00    -0.268 OA
BRANCH  18  20
ATOM     20  C   UNL A   1      32.500  19.956  23.769  1.00  0.00     0.040 A 
ATOM     21  C   UNL A   1      32.598  19.827  25.159  1.00  0.00     0.015 A 
ATOM     22  C   UNL A   1      32.473  18.832  22.939  1.00  0.00     0.015 A 
ATOM     23  C   UNL A   1      32.789  18.558  25.709  1.00  0.00     0.021 A 
ATOM     24  C   UNL A   1      32.659  17.567  23.496  1.00  0.00     0.021 A 
ATOM     25  C   UNL A   1      32.846  17.439  24.874  1.00  0.00     0.041 A 
ATOM     26  Cl  UNL A   1      33.198  15.893  25.544  1.00  0.00    -0.084 Cl
ENDBRANCH  18  20
ENDBRANCH  11  18
ENDBRANCH   7   8
ENDBRANCH   4   7
ENDBRANCH   2   3
ENDBRANCH   1   2
BRANCH   1  27
ATOM     27  C   UNL A   1      33.612  30.313  26.990  1.00  0.00     0.118 C 
BRANCH  27  28
ATOM     28  N   UNL A   1      33.862  31.058  28.210  1.00  0.00    -0.352 N 
ATOM     29  C   UNL A   1      34.982  31.424  28.903  1.00  0.00     0.251 C 
ATOM     30  H   UNL A   1      33.033  31.372  28.638  1.00  0.00     0.163 HD
ATOM     31  O   UNL A   1      34.808  32.221  29.829  1.00  0.00    -0.269 OA
BRANCH  29  32
ATOM     32  C   UNL A   1      36.337  30.855  28.688  1.00  0.00     0.039 A 
ATOM     33  C   UNL A   1      36.609  29.526  28.365  1.00  0.00     0.014 A 
ATOM     34  C   UNL A   1      37.413  31.723  28.954  1.00  0.00     0.014 A 
ATOM     35  C   UNL A   1      37.896  29.030  28.498  1.00  0.00     0.010 A 
ATOM     36  C   UNL A   1      38.707  31.242  29.054  1.00  0.00     0.010 A 
ATOM     37  C   UNL A   1      38.926  29.877  28.911  1.00  0.00    -0.014 A 
BRANCH  37  38
ATOM     38  C   UNL A   1      40.246  29.294  29.102  1.00  0.00     0.031 A 
ATOM     39  C   UNL A   1      40.645  29.176  30.532  1.00  0.00     0.074 A 
ATOM     40  C   UNL A   1      40.987  28.831  28.075  1.00  0.00     0.049 A 
ATOM     41  N   UNL A   1      41.605  29.786  31.150  1.00  0.00    -0.248 NA
ATOM     42  C   UNL A   1      39.752  28.416  31.422  1.00  0.00     0.031 C 
ATOM     43  C   UNL A   1      40.595  28.669  26.672  1.00  0.00     0.029 A 
ATOM     44  N   UNL A   1      42.246  28.316  28.091  1.00  0.00    -0.354 N 
ATOM     45  C   UNL A   1      41.576  29.303  32.457  1.00  0.00     0.074 A 
ATOM     46  C   UNL A   1      40.317  28.624  32.611  1.00  0.00     0.031 C 
ATOM     47  C   UNL A   1      41.495  27.881  26.040  1.00  0.00     0.029 A 
ATOM     48  C   UNL A   1      42.594  27.602  26.946  1.00  0.00     0.049 A 
ATOM     49  H   UNL A   1      42.861  28.437  28.849  1.00  0.00     0.167 HD
ATOM     50  C   UNL A   1      42.691  29.286  33.239  1.00  0.00     0.037 A 
ATOM     51  C   UNL A   1      43.674  26.787  26.805  1.00  0.00     0.037 A 
ATOM     52  C   UNL A   1      43.687  30.203  32.751  1.00  0.00     0.049 A 
ATOM     53  C   UNL A   1      44.647  27.182  27.860  1.00  0.00     0.074 A 
ATOM     54  C   UNL A   1      43.731  31.571  32.561  1.00  0.00     0.029 A 
ATOM     55  N   UNL A   1      44.729  29.693  32.015  1.00  0.00    -0.354 N 
ATOM     56  N   UNL A   1      45.252  28.339  27.892  1.00  0.00    -0.248 NA
ATOM     57  C   UNL A   1      44.570  26.483  29.135  1.00  0.00     0.031 C 
ATOM     58  C   UNL A   1      44.460  31.751  31.350  1.00  0.00     0.029 A 
ATOM     59  C   UNL A   1      44.879  30.495  30.912  1.00  0.00     0.049 A 
ATOM     60  H   UNL A   1      45.267  28.899  32.238  1.00  0.00     0.167 HD
ATOM     61  C   UNL A   1      45.260  28.703  29.232  1.00  0.00     0.074 A 
ATOM     62  C   UNL A   1      44.876  27.492  29.955  1.00  0.00     0.031 C 
ATOM     63  C   UNL A   1      45.301  30.013  29.614  1.00  0.00     0.037 A 
BRANCH  50  64
ATOM     64  C   UNL A   1      43.006  28.178  34.217  1.00  0.00     0.058 A 
ATOM     65  C   UNL A   1      43.208  28.485  35.578  1.00  0.00     0.135 A 
ATOM     66  C   UNL A   1      43.386  26.874  33.825  1.00  0.00     0.135 A 
ATOM     67  F   UNL A   1      42.900  29.699  36.059  1.00  0.00    -0.206 F 
ATOM     68  C   UNL A   1      43.799  27.583  36.466  1.00  0.00     0.059 A 
ATOM     69  C   UNL A   1      43.925  25.944  34.705  1.00  0.00     0.059 A 
ATOM     70  F   UNL A   1      43.348  26.469  32.551  1.00  0.00    -0.206 F 
ATOM     71  C   UNL A   1      44.164  26.318  36.015  1.00  0.00     0.060 A 
BRANCH  71  72
ATOM     72  S   UNL A   1      45.015  25.187  37.128  1.00  0.00     0.124 S 
ATOM     73  O   UNL A   1      44.278  25.392  38.370  1.00  0.00    -0.237 OA
ATOM     74  O   UNL A   1      44.809  23.904  36.466  1.00  0.00    -0.237 OA
ATOM     75  O   UNL A   1      46.389  25.678  37.120  1.00  0.00    -0.744 OA
ENDBRANCH  71  72
ENDBRANCH  50  64
BRANCH  51  76
ATOM     76  C   UNL A   1      43.727  25.457  26.130  1.00  0.00     0.058 A 
ATOM     77  C   UNL A   1      44.752  25.142  25.217  1.00  0.00     0.135 A 
ATOM     78  C   UNL A   1      42.953  24.369  26.584  1.00  0.00     0.135 A 
ATOM     79  F   UNL A   1      45.555  26.108  24.745  1.00  0.00    -0.206 F 
ATOM     80  C   UNL A   1      45.027  23.825  24.823  1.00  0.00     0.059 A 
ATOM     81  C   UNL A   1      43.202  23.052  26.199  1.00  0.00     0.059 A 
ATOM     82  F   UNL A   1      41.984  24.540  27.495  1.00  0.00    -0.206 F 
ATOM     83  C   UNL A   1      44.259  22.782  25.340  1.00  0.00     0.060 A 
BRANCH  83  84
ATOM     84  S   UNL A   1      44.719  21.069  24.978  1.00  0.00     0.124 S 
ATOM     85  O   UNL A   1      43.742  20.321  25.763  1.00  0.00    -0.237 OA
ATOM     86  O   UNL A   1      44.557  21.005  23.530  1.00  0.00    -0.237 OA
ATOM     87  O   UNL A   1      46.098  20.980  25.453  1.00  0.00    -0.744 OA
ENDBRANCH  83  84
ENDBRANCH  51  76
BRANCH  63  88
ATOM     88  C   UNL A   1      45.597  31.061  28.570  1.00  0.00     0.058 A 
ATOM     89  C   UNL A   1      44.643  31.605  27.689  1.00  0.00     0.135 A 
ATOM     90  C   UNL A   1      46.865  31.662  28.585  1.00  0.00     0.135 A 
ATOM     91  F   UNL A   1      43.380  31.155  27.681  1.00  0.00    -0.206 F 
ATOM     92  C   UNL A   1      44.949  32.672  26.839  1.00  0.00     0.059 A 
ATOM     93  C   UNL A   1      47.182  32.744  27.769  1.00  0.00     0.059 A 
ATOM     94  F   UNL A   1      47.800  31.230  29.447  1.00  0.00    -0.206 F 
ATOM     95  C   UNL A   1      46.224  33.238  26.888  1.00  0.00     0.060 A 
BRANCH  95  96
ATOM     96  S   UNL A   1      46.618  34.648  25.828  1.00  0.00     0.124 S 
ATOM     97  O   UNL A   1      46.443  35.776  26.737  1.00  0.00    -0.237 OA
ATOM     98  O   UNL A   1      47.990  34.372  25.420  1.00  0.00    -0.237 OA
ATOM     99  O   UNL A   1      45.630  34.556  24.754  1.00  0.00    -0.744 OA
ENDBRANCH  95  96
ENDBRANCH  63  88
ENDBRANCH  37  38
ENDBRANCH  29  32
ENDBRANCH  27  28
ENDBRANCH   1  27
TORSDOF 16
ENDMDL
