MODEL 1
REMARK VINA RESULT:     -14.1      0.000      0.000
REMARK SMILES Cc1ccc(S(=O)(=O)n2cc(C(=O)C(=O)N[C@@H](Cc3cnc[nH]3)C(=O)NCCCNC(=O)c3ccc(-c4c5nc(c(-c6c(F)cc(S(=O)(=O)[O-])cc6F)c6ccc([nH]6)c(-c6c(F)cc(S(=O)(=O)[O-])cc6F)c6nc(c(-c7c(F)cc(S(=O)(=O)[O-])cc7F)c7ccc4[nH]7)C=C6)C=C5)cc3)c3ccccc32)cc1
REMARK SMILES IDX 27 1 26 2 24 3 25 4 17 6 16 7 14 8 15 9 12 11 13 12 11 13
REMARK SMILES IDX 9 14 10 15 104 16 99 17 103 18 100 19 102 20 101 21 6 22
REMARK SMILES IDX 7 23 8 24 5 25 1 26 2 27 3 28 106 29 4 30 105 31 18 32 19 33
REMARK SMILES IDX 20 34 23 35 21 36 22 37 28 39 29 40 30 41 31 42 32 44 33 45
REMARK SMILES IDX 34 46 98 47 35 48 97 49 36 50 37 51 38 52 91 53 39 54 96 55
REMARK SMILES IDX 90 56 92 57 40 58 95 59 89 60 88 61 41 63 75 64 54 65 74 66
REMARK SMILES IDX 55 67 58 68 73 69 93 70 56 71 57 72 72 74 94 75 59 76 42 77
REMARK SMILES IDX 43 78 52 79 44 80 45 81 51 82 53 83 46 84 47 85 48 86 49 87
REMARK SMILES IDX 50 88 76 89 77 90 86 91 78 92 79 93 85 94 87 95 80 96 81 97
REMARK SMILES IDX 82 98 83 99 84 100 60 101 61 102 70 103 62 104 63 105 69 106
REMARK SMILES IDX 71 107 64 108 65 109 66 110 67 111 68 112
REMARK H PARENT 26 5 16 10 23 38 30 43 92 62 58 73
REMARK Flexibility Score: inf
ROOT
ATOM      1  C   UNL A   1      32.860  30.461  25.820  1.00  0.00     0.117 C 
ENDROOT
BRANCH   1   2
ATOM      2  N   UNL A   1      33.593  29.661  24.857  1.00  0.00    -0.354 N 
ATOM      3  C   UNL A   1      33.130  28.804  23.902  1.00  0.00     0.242 C 
ATOM      4  O   UNL A   1      33.909  28.505  22.989  1.00  0.00    -0.273 OA
ATOM      5  H   UNL A   1      34.572  29.750  24.900  1.00  0.00     0.163 HD
BRANCH   3   6
ATOM      6  C   UNL A   1      31.675  28.273  23.875  1.00  0.00     0.177 C 
BRANCH   6   7
ATOM      7  N   UNL A   1      31.081  28.194  25.220  1.00  0.00    -0.337 N 
ATOM      8  C   UNL A   1      30.669  27.102  25.966  1.00  0.00     0.293 C 
ATOM      9  O   UNL A   1      30.425  27.280  27.158  1.00  0.00    -0.265 OA
ATOM     10  H   UNL A   1      30.955  29.064  25.665  1.00  0.00     0.164 HD
BRANCH   8  11
ATOM     11  C   UNL A   1      30.457  25.696  25.335  1.00  0.00     0.252 C 
ATOM     12  O   UNL A   1      29.319  25.361  25.022  1.00  0.00    -0.283 OA
BRANCH  11  13
ATOM     13  C   UNL A   1      31.559  24.722  25.161  1.00  0.00     0.054 A 
ATOM     14  N   UNL A   1      33.080  23.115  25.489  1.00  0.00    -0.240 N 
ATOM     15  C   UNL A   1      32.148  23.906  26.112  1.00  0.00     0.117 A 
ATOM     16  C   UNL A   1      33.141  23.380  24.137  1.00  0.00     0.065 A 
ATOM     17  C   UNL A   1      32.230  24.422  23.915  1.00  0.00     0.012 A 
ATOM     18  C   UNL A   1      33.912  22.828  23.096  1.00  0.00     0.028 A 
ATOM     19  C   UNL A   1      32.123  24.940  22.602  1.00  0.00     0.011 A 
ATOM     20  C   UNL A   1      33.781  23.367  21.814  1.00  0.00     0.002 A 
ATOM     21  C   UNL A   1      32.904  24.415  21.569  1.00  0.00     0.001 A 
BRANCH  14  22
ATOM     22  S   UNL A   1      34.031  21.944  26.284  1.00  0.00     0.268 S 
ATOM     23  O   UNL A   1      33.414  21.768  27.577  1.00  0.00    -0.201 OA
ATOM     24  O   UNL A   1      35.412  22.391  26.146  1.00  0.00    -0.201 OA
BRANCH  22  25
ATOM     25  C   UNL A   1      33.889  20.410  25.403  1.00  0.00     0.088 A 
ATOM     26  C   UNL A   1      33.819  16.571  23.459  1.00  0.00     0.044 C 
ATOM     27  C   UNL A   1      33.837  17.913  24.130  1.00  0.00    -0.051 A 
ATOM     28  C   UNL A   1      35.059  18.535  24.411  1.00  0.00     0.005 A 
ATOM     29  C   UNL A   1      32.645  18.567  24.465  1.00  0.00     0.005 A 
ATOM     30  C   UNL A   1      35.088  19.775  25.051  1.00  0.00     0.022 A 
ATOM     31  C   UNL A   1      32.665  19.818  25.092  1.00  0.00     0.022 A 
ENDBRANCH  22  25
ENDBRANCH  14  22
ENDBRANCH  11  13
ENDBRANCH   8  11
ENDBRANCH   6   7
BRANCH   6  32
ATOM     32  C   UNL A   1      30.768  28.900  22.787  1.00  0.00     0.090 C 
BRANCH  32  33
ATOM     33  C   UNL A   1      29.306  28.986  23.074  1.00  0.00     0.037 A 
ATOM     34  C   UNL A   1      28.453  30.062  23.222  1.00  0.00     0.134 A 
ATOM     35  N   UNL A   1      28.490  27.881  23.217  1.00  0.00    -0.348 N 
ATOM     36  N   UNL A   1      27.155  29.644  23.345  1.00  0.00    -0.245 NA
ATOM     37  C   UNL A   1      27.202  28.331  23.318  1.00  0.00     0.196 A 
ATOM     38  H   UNL A   1      28.782  26.942  23.242  1.00  0.00     0.167 HD
ENDBRANCH  32  33
ENDBRANCH   6  32
ENDBRANCH   3   6
ENDBRANCH   1   2
BRANCH   1  39
ATOM     39  C   UNL A   1      33.242  30.225  27.263  1.00  0.00     0.042 C 
BRANCH  39  40
ATOM     40  C   UNL A   1      34.728  29.984  27.408  1.00  0.00     0.118 C 
BRANCH  40  41
ATOM     41  N   UNL A   1      35.522  31.166  27.735  1.00  0.00    -0.352 N 
ATOM     42  C   UNL A   1      36.788  31.214  28.310  1.00  0.00     0.251 C 
ATOM     43  H   UNL A   1      35.112  32.036  27.523  1.00  0.00     0.163 HD
ATOM     44  O   UNL A   1      37.276  32.276  28.679  1.00  0.00    -0.269 OA
BRANCH  42  45
ATOM     45  C   UNL A   1      37.555  29.951  28.408  1.00  0.00     0.039 A 
ATOM     46  C   UNL A   1      37.523  29.219  29.600  1.00  0.00     0.014 A 
ATOM     47  C   UNL A   1      38.510  29.676  27.440  1.00  0.00     0.014 A 
ATOM     48  C   UNL A   1      38.592  28.376  29.914  1.00  0.00     0.010 A 
ATOM     49  C   UNL A   1      39.644  29.005  27.829  1.00  0.00     0.010 A 
ATOM     50  C   UNL A   1      39.700  28.363  29.074  1.00  0.00    -0.014 A 
BRANCH  50  51
ATOM     51  C   UNL A   1      40.996  27.758  29.372  1.00  0.00     0.031 A 
ATOM     52  C   UNL A   1      41.276  26.380  28.882  1.00  0.00     0.074 A 
ATOM     53  C   UNL A   1      41.997  28.524  29.860  1.00  0.00     0.049 A 
ATOM     54  N   UNL A   1      42.343  25.710  29.143  1.00  0.00    -0.248 NA
ATOM     55  C   UNL A   1      40.338  25.633  28.045  1.00  0.00     0.031 C 
ATOM     56  C   UNL A   1      43.432  28.269  29.747  1.00  0.00     0.029 A 
ATOM     57  N   UNL A   1      41.915  29.617  30.724  1.00  0.00    -0.354 N 
ATOM     58  C   UNL A   1      42.360  24.590  28.339  1.00  0.00     0.074 A 
ATOM     59  C   UNL A   1      41.083  24.591  27.671  1.00  0.00     0.031 C 
ATOM     60  C   UNL A   1      44.084  28.998  30.665  1.00  0.00     0.029 A 
ATOM     61  C   UNL A   1      43.084  29.618  31.512  1.00  0.00     0.049 A 
ATOM     62  H   UNL A   1      41.177  30.267  30.774  1.00  0.00     0.167 HD
ATOM     63  C   UNL A   1      43.499  23.845  28.268  1.00  0.00     0.037 A 
ATOM     64  C   UNL A   1      43.017  29.443  32.868  1.00  0.00     0.037 A 
ATOM     65  C   UNL A   1      44.483  24.328  29.233  1.00  0.00     0.049 A 
ATOM     66  C   UNL A   1      43.680  28.177  33.366  1.00  0.00     0.074 A 
ATOM     67  C   UNL A   1      45.555  25.201  29.136  1.00  0.00     0.029 A 
ATOM     68  N   UNL A   1      44.229  24.163  30.588  1.00  0.00    -0.354 N 
ATOM     69  N   UNL A   1      44.046  27.193  32.592  1.00  0.00    -0.248 NA
ATOM     70  C   UNL A   1      43.978  27.910  34.771  1.00  0.00     0.031 C 
ATOM     71  C   UNL A   1      45.894  25.622  30.448  1.00  0.00     0.029 A 
ATOM     72  C   UNL A   1      45.048  24.983  31.338  1.00  0.00     0.049 A 
ATOM     73  H   UNL A   1      43.557  23.548  30.962  1.00  0.00     0.167 HD
ATOM     74  C   UNL A   1      44.560  26.170  33.348  1.00  0.00     0.074 A 
ATOM     75  C   UNL A   1      44.527  26.683  34.704  1.00  0.00     0.031 C 
ATOM     76  C   UNL A   1      44.949  24.984  32.790  1.00  0.00     0.037 A 
BRANCH  63  77
ATOM     77  C   UNL A   1      43.810  22.825  27.194  1.00  0.00     0.058 A 
ATOM     78  C   UNL A   1      43.052  21.634  27.100  1.00  0.00     0.135 A 
ATOM     79  C   UNL A   1      44.855  22.926  26.255  1.00  0.00     0.135 A 
ATOM     80  F   UNL A   1      41.985  21.419  27.881  1.00  0.00    -0.206 F 
ATOM     81  C   UNL A   1      43.358  20.601  26.212  1.00  0.00     0.059 A 
ATOM     82  C   UNL A   1      45.218  21.883  25.396  1.00  0.00     0.059 A 
ATOM     83  F   UNL A   1      45.538  24.066  26.089  1.00  0.00    -0.206 F 
ATOM     84  C   UNL A   1      44.464  20.720  25.383  1.00  0.00     0.060 A 
BRANCH  84  85
ATOM     85  S   UNL A   1      44.887  19.348  24.293  1.00  0.00     0.124 S 
ATOM     86  O   UNL A   1      44.096  18.255  24.854  1.00  0.00    -0.237 OA
ATOM     87  O   UNL A   1      44.450  19.846  22.994  1.00  0.00    -0.237 OA
ATOM     88  O   UNL A   1      46.331  19.214  24.460  1.00  0.00    -0.744 OA
ENDBRANCH  84  85
ENDBRANCH  63  77
BRANCH  64  89
ATOM     89  C   UNL A   1      41.842  30.127  33.474  1.00  0.00     0.058 A 
ATOM     90  C   UNL A   1      41.921  31.530  33.575  1.00  0.00     0.135 A 
ATOM     91  C   UNL A   1      40.564  29.550  33.411  1.00  0.00     0.135 A 
ATOM     92  F   UNL A   1      43.119  32.129  33.670  1.00  0.00    -0.206 F 
ATOM     93  C   UNL A   1      40.805  32.334  33.388  1.00  0.00     0.059 A 
ATOM     94  C   UNL A   1      39.427  30.342  33.237  1.00  0.00     0.059 A 
ATOM     95  F   UNL A   1      40.429  28.218  33.327  1.00  0.00    -0.206 F 
ATOM     96  C   UNL A   1      39.580  31.726  33.131  1.00  0.00     0.060 A 
BRANCH  96  97
ATOM     97  S   UNL A   1      38.277  32.753  32.409  1.00  0.00     0.124 S 
ATOM     98  O   UNL A   1      37.880  33.585  33.539  1.00  0.00    -0.237 OA
ATOM     99  O   UNL A   1      39.012  33.441  31.348  1.00  0.00    -0.237 OA
ATOM    100  O   UNL A   1      37.289  31.778  31.964  1.00  0.00    -0.744 OA
ENDBRANCH  96  97
ENDBRANCH  64  89
BRANCH  76 101
ATOM    101  C   UNL A   1      45.326  23.721  33.531  1.00  0.00     0.058 A 
ATOM    102  C   UNL A   1      46.607  23.457  34.041  1.00  0.00     0.135 A 
ATOM    103  C   UNL A   1      44.322  22.788  33.896  1.00  0.00     0.135 A 
ATOM    104  F   UNL A   1      47.623  24.312  33.853  1.00  0.00    -0.206 F 
ATOM    105  C   UNL A   1      46.886  22.326  34.812  1.00  0.00     0.059 A 
ATOM    106  C   UNL A   1      44.565  21.688  34.713  1.00  0.00     0.059 A 
ATOM    107  F   UNL A   1      43.052  22.927  33.480  1.00  0.00    -0.206 F 
ATOM    108  C   UNL A   1      45.859  21.449  35.148  1.00  0.00     0.060 A 
BRANCH 108 109
ATOM    109  S   UNL A   1      46.191  20.027  36.202  1.00  0.00     0.124 S 
ATOM    110  O   UNL A   1      47.641  19.909  36.084  1.00  0.00    -0.237 OA
ATOM    111  O   UNL A   1      45.700  20.463  37.506  1.00  0.00    -0.237 OA
ATOM    112  O   UNL A   1      45.415  18.962  35.575  1.00  0.00    -0.744 OA
ENDBRANCH 108 109
ENDBRANCH  76 101
ENDBRANCH  50  51
ENDBRANCH  42  45
ENDBRANCH  40  41
ENDBRANCH  39  40
ENDBRANCH   1  39
TORSDOF 20
ENDMDL
MODEL 2
REMARK VINA RESULT:     -13.9      4.478     11.453
REMARK SMILES Cc1ccc(S(=O)(=O)n2cc(C(=O)C(=O)N[C@@H](Cc3cnc[nH]3)C(=O)NCCCNC(=O)c3ccc(-c4c5nc(c(-c6c(F)cc(S(=O)(=O)[O-])cc6F)c6ccc([nH]6)c(-c6c(F)cc(S(=O)(=O)[O-])cc6F)c6nc(c(-c7c(F)cc(S(=O)(=O)[O-])cc7F)c7ccc4[nH]7)C=C6)C=C5)cc3)c3ccccc32)cc1
REMARK SMILES IDX 27 1 26 2 24 3 25 4 17 6 16 7 14 8 15 9 12 11 13 12 11 13
REMARK SMILES IDX 9 14 10 15 104 16 99 17 103 18 100 19 102 20 101 21 6 22
REMARK SMILES IDX 7 23 8 24 5 25 1 26 2 27 3 28 106 29 4 30 105 31 18 32 19 33
REMARK SMILES IDX 20 34 23 35 21 36 22 37 28 39 29 40 30 41 31 42 32 44 33 45
REMARK SMILES IDX 34 46 98 47 35 48 97 49 36 50 37 51 38 52 91 53 39 54 96 55
REMARK SMILES IDX 90 56 92 57 40 58 95 59 89 60 88 61 41 63 75 64 54 65 74 66
REMARK SMILES IDX 55 67 58 68 73 69 93 70 56 71 57 72 72 74 94 75 59 76 42 77
REMARK SMILES IDX 43 78 52 79 44 80 45 81 51 82 53 83 46 84 47 85 48 86 49 87
REMARK SMILES IDX 50 88 76 89 77 90 86 91 78 92 79 93 85 94 87 95 80 96 81 97
REMARK SMILES IDX 82 98 83 99 84 100 60 101 61 102 70 103 62 104 63 105 69 106
REMARK SMILES IDX 71 107 64 108 65 109 66 110 67 111 68 112
REMARK H PARENT 26 5 16 10 23 38 30 43 92 62 58 73
REMARK Flexibility Score: inf
ROOT
ATOM      1  C   UNL A   1      36.434  21.935  26.065  1.00  0.00     0.117 C 
ENDROOT
BRANCH   1   2
ATOM      2  N   UNL A   1      35.246  21.611  26.832  1.00  0.00    -0.354 N 
ATOM      3  C   UNL A   1      34.002  21.253  26.403  1.00  0.00     0.242 C 
ATOM      4  O   UNL A   1      33.261  20.700  27.224  1.00  0.00    -0.273 OA
ATOM      5  H   UNL A   1      35.355  21.656  27.809  1.00  0.00     0.163 HD
BRANCH   3   6
ATOM      6  C   UNL A   1      33.526  21.434  24.940  1.00  0.00     0.177 C 
BRANCH   6   7
ATOM      7  N   UNL A   1      34.635  21.756  24.025  1.00  0.00    -0.337 N 
ATOM      8  C   UNL A   1      34.777  22.774  23.096  1.00  0.00     0.293 C 
ATOM      9  O   UNL A   1      35.895  22.968  22.623  1.00  0.00    -0.265 OA
ATOM     10  H   UNL A   1      35.405  21.145  24.083  1.00  0.00     0.164 HD
BRANCH   8  11
ATOM     11  C   UNL A   1      33.570  23.624  22.602  1.00  0.00     0.252 C 
ATOM     12  O   UNL A   1      32.987  23.273  21.582  1.00  0.00    -0.283 OA
BRANCH  11  13
ATOM     13  C   UNL A   1      33.144  24.872  23.273  1.00  0.00     0.054 A 
ATOM     14  N   UNL A   1      32.871  27.015  23.858  1.00  0.00    -0.240 N 
ATOM     15  C   UNL A   1      33.601  26.163  23.067  1.00  0.00     0.117 A 
ATOM     16  C   UNL A   1      31.933  26.330  24.602  1.00  0.00     0.065 A 
ATOM     17  C   UNL A   1      32.119  24.976  24.289  1.00  0.00     0.012 A 
ATOM     18  C   UNL A   1      30.959  26.755  25.525  1.00  0.00     0.028 A 
ATOM     19  C   UNL A   1      31.313  24.025  24.959  1.00  0.00     0.011 A 
ATOM     20  C   UNL A   1      30.184  25.788  26.168  1.00  0.00     0.002 A 
ATOM     21  C   UNL A   1      30.363  24.439  25.897  1.00  0.00     0.001 A 
BRANCH  14  22
ATOM     22  S   UNL A   1      33.089  28.705  23.905  1.00  0.00     0.268 S 
ATOM     23  O   UNL A   1      33.935  29.011  22.777  1.00  0.00    -0.201 OA
ATOM     24  O   UNL A   1      33.487  29.019  25.272  1.00  0.00    -0.201 OA
BRANCH  22  25
ATOM     25  C   UNL A   1      31.517  29.483  23.629  1.00  0.00     0.088 A 
ATOM     26  C   UNL A   1      27.596  31.062  22.822  1.00  0.00     0.044 C 
ATOM     27  C   UNL A   1      28.966  30.520  23.106  1.00  0.00    -0.051 A 
ATOM     28  C   UNL A   1      29.597  29.693  22.168  1.00  0.00     0.005 A 
ATOM     29  C   UNL A   1      29.638  30.845  24.291  1.00  0.00     0.005 A 
ATOM     30  C   UNL A   1      30.864  29.171  22.430  1.00  0.00     0.022 A 
ATOM     31  C   UNL A   1      30.916  30.338  24.553  1.00  0.00     0.022 A 
ENDBRANCH  22  25
ENDBRANCH  14  22
ENDBRANCH  11  13
ENDBRANCH   8  11
ENDBRANCH   6   7
BRANCH   6  32
ATOM     32  C   UNL A   1      32.542  20.353  24.430  1.00  0.00     0.090 C 
BRANCH  32  33
ATOM     33  C   UNL A   1      33.107  19.018  24.073  1.00  0.00     0.037 A 
ATOM     34  C   UNL A   1      32.845  18.151  23.031  1.00  0.00     0.134 A 
ATOM     35  N   UNL A   1      34.111  18.398  24.790  1.00  0.00    -0.348 N 
ATOM     36  N   UNL A   1      33.718  17.096  23.043  1.00  0.00    -0.245 NA
ATOM     37  C   UNL A   1      34.481  17.279  24.097  1.00  0.00     0.196 A 
ATOM     38  H   UNL A   1      34.490  18.706  25.645  1.00  0.00     0.167 HD
ENDBRANCH  32  33
ENDBRANCH   6  32
ENDBRANCH   3   6
ENDBRANCH   1   2
BRANCH   1  39
ATOM     39  C   UNL A   1      36.883  23.375  26.168  1.00  0.00     0.042 C 
BRANCH  39  40
ATOM     40  C   UNL A   1      38.289  23.554  25.641  1.00  0.00     0.118 C 
BRANCH  40  41
ATOM     41  N   UNL A   1      39.355  23.168  26.563  1.00  0.00    -0.352 N 
ATOM     42  C   UNL A   1      40.151  23.998  27.344  1.00  0.00     0.251 C 
ATOM     43  H   UNL A   1      39.531  22.203  26.640  1.00  0.00     0.163 HD
ATOM     44  O   UNL A   1      41.117  23.557  27.955  1.00  0.00    -0.269 OA
BRANCH  42  45
ATOM     45  C   UNL A   1      39.762  25.422  27.467  1.00  0.00     0.039 A 
ATOM     46  C   UNL A   1      40.312  26.363  26.591  1.00  0.00     0.014 A 
ATOM     47  C   UNL A   1      39.100  25.834  28.615  1.00  0.00     0.014 A 
ATOM     48  C   UNL A   1      40.403  27.698  26.989  1.00  0.00     0.010 A 
ATOM     49  C   UNL A   1      39.361  27.098  29.087  1.00  0.00     0.010 A 
ATOM     50  C   UNL A   1      40.026  28.035  28.285  1.00  0.00    -0.014 A 
BRANCH  50  51
ATOM     51  C   UNL A   1      40.293  29.306  28.953  1.00  0.00     0.031 A 
ATOM     52  C   UNL A   1      39.217  30.334  28.999  1.00  0.00     0.074 A 
ATOM     53  C   UNL A   1      41.398  29.441  29.722  1.00  0.00     0.049 A 
ATOM     54  N   UNL A   1      39.351  31.517  29.487  1.00  0.00    -0.248 NA
ATOM     55  C   UNL A   1      37.874  30.097  28.472  1.00  0.00     0.031 C 
ATOM     56  C   UNL A   1      41.587  30.376  30.829  1.00  0.00     0.029 A 
ATOM     57  N   UNL A   1      42.658  28.869  29.542  1.00  0.00    -0.354 N 
ATOM     58  C   UNL A   1      38.102  32.095  29.576  1.00  0.00     0.074 A 
ATOM     59  C   UNL A   1      37.214  31.163  28.928  1.00  0.00     0.031 C 
ATOM     60  C   UNL A   1      42.898  30.500  31.082  1.00  0.00     0.029 A 
ATOM     61  C   UNL A   1      43.608  29.783  30.041  1.00  0.00     0.049 A 
ATOM     62  H   UNL A   1      42.848  27.990  29.140  1.00  0.00     0.167 HD
ATOM     63  C   UNL A   1      37.960  33.257  30.273  1.00  0.00     0.037 A 
ATOM     64  C   UNL A   1      44.532  30.358  29.212  1.00  0.00     0.037 A 
ATOM     65  C   UNL A   1      39.265  33.766  30.685  1.00  0.00     0.049 A 
ATOM     66  C   UNL A   1      44.393  31.858  29.069  1.00  0.00     0.074 A 
ATOM     67  C   UNL A   1      40.000  33.651  31.854  1.00  0.00     0.029 A 
ATOM     68  N   UNL A   1      40.139  34.231  29.712  1.00  0.00    -0.354 N 
ATOM     69  N   UNL A   1      43.346  32.533  29.457  1.00  0.00    -0.248 NA
ATOM     70  C   UNL A   1      45.410  32.720  28.471  1.00  0.00     0.031 C 
ATOM     71  C   UNL A   1      41.348  33.978  31.555  1.00  0.00     0.029 A 
ATOM     72  C   UNL A   1      41.422  34.318  30.216  1.00  0.00     0.049 A 
ATOM     73  H   UNL A   1      39.881  34.465  28.791  1.00  0.00     0.167 HD
ATOM     74  C   UNL A   1      43.499  33.858  29.136  1.00  0.00     0.074 A 
ATOM     75  C   UNL A   1      44.824  33.928  28.551  1.00  0.00     0.031 C 
ATOM     76  C   UNL A   1      42.511  34.775  29.365  1.00  0.00     0.037 A 
BRANCH  63  77
ATOM     77  C   UNL A   1      36.646  33.823  30.767  1.00  0.00     0.058 A 
ATOM     78  C   UNL A   1      35.656  34.237  29.845  1.00  0.00     0.135 A 
ATOM     79  C   UNL A   1      36.306  34.028  32.119  1.00  0.00     0.135 A 
ATOM     80  F   UNL A   1      35.804  34.050  28.527  1.00  0.00    -0.206 F 
ATOM     81  C   UNL A   1      34.474  34.874  30.228  1.00  0.00     0.059 A 
ATOM     82  C   UNL A   1      35.157  34.715  32.525  1.00  0.00     0.059 A 
ATOM     83  F   UNL A   1      37.048  33.520  33.111  1.00  0.00    -0.206 F 
ATOM     84  C   UNL A   1      34.246  35.139  31.571  1.00  0.00     0.060 A 
BRANCH  84  85
ATOM     85  S   UNL A   1      32.749  36.025  32.041  1.00  0.00     0.124 S 
ATOM     86  O   UNL A   1      33.238  36.922  33.085  1.00  0.00    -0.237 OA
ATOM     87  O   UNL A   1      32.364  36.661  30.786  1.00  0.00    -0.237 OA
ATOM     88  O   UNL A   1      31.858  34.965  32.505  1.00  0.00    -0.744 OA
ENDBRANCH  84  85
ENDBRANCH  63  77
BRANCH  64  89
ATOM     89  C   UNL A   1      45.042  29.412  28.182  1.00  0.00     0.058 A 
ATOM     90  C   UNL A   1      45.977  28.455  28.623  1.00  0.00     0.135 A 
ATOM     91  C   UNL A   1      44.270  29.096  27.053  1.00  0.00     0.135 A 
ATOM     92  F   UNL A   1      46.762  28.722  29.680  1.00  0.00    -0.206 F 
ATOM     93  C   UNL A   1      45.985  27.162  28.117  1.00  0.00     0.059 A 
ATOM     94  C   UNL A   1      44.273  27.805  26.520  1.00  0.00     0.059 A 
ATOM     95  F   UNL A   1      43.373  29.975  26.582  1.00  0.00    -0.206 F 
ATOM     96  C   UNL A   1      45.065  26.828  27.127  1.00  0.00     0.060 A 
BRANCH  96  97
ATOM     97  S   UNL A   1      44.751  25.068  26.844  1.00  0.00     0.124 S 
ATOM     98  O   UNL A   1      46.094  24.547  26.625  1.00  0.00    -0.237 OA
ATOM     99  O   UNL A   1      44.125  24.684  28.110  1.00  0.00    -0.237 OA
ATOM    100  O   UNL A   1      43.874  25.068  25.680  1.00  0.00    -0.744 OA
ENDBRANCH  96  97
ENDBRANCH  64  89
BRANCH  76 101
ATOM    101  C   UNL A   1      42.476  36.203  28.869  1.00  0.00     0.058 A 
ATOM    102  C   UNL A   1      43.073  37.286  29.534  1.00  0.00     0.135 A 
ATOM    103  C   UNL A   1      41.958  36.492  27.580  1.00  0.00     0.135 A 
ATOM    104  F   UNL A   1      43.688  37.126  30.714  1.00  0.00    -0.206 F 
ATOM    105  C   UNL A   1      43.109  38.571  28.987  1.00  0.00     0.059 A 
ATOM    106  C   UNL A   1      42.038  37.751  26.992  1.00  0.00     0.059 A 
ATOM    107  F   UNL A   1      41.367  35.544  26.834  1.00  0.00    -0.206 F 
ATOM    108  C   UNL A   1      42.594  38.794  27.714  1.00  0.00     0.060 A 
BRANCH 108 109
ATOM    109  S   UNL A   1      42.700  40.431  26.968  1.00  0.00     0.124 S 
ATOM    110  O   UNL A   1      43.475  40.152  25.763  1.00  0.00    -0.237 OA
ATOM    111  O   UNL A   1      41.299  40.781  26.749  1.00  0.00    -0.237 OA
ATOM    112  O   UNL A   1      43.380  41.217  27.992  1.00  0.00    -0.744 OA
ENDBRANCH 108 109
ENDBRANCH  76 101
ENDBRANCH  50  51
ENDBRANCH  42  45
ENDBRANCH  40  41
ENDBRANCH  39  40
ENDBRANCH   1  39
TORSDOF 20
ENDMDL
MODEL 3
REMARK VINA RESULT:     -13.9      4.402     10.777
REMARK SMILES Cc1ccc(S(=O)(=O)n2cc(C(=O)C(=O)N[C@@H](Cc3cnc[nH]3)C(=O)NCCCNC(=O)c3ccc(-c4c5nc(c(-c6c(F)cc(S(=O)(=O)[O-])cc6F)c6ccc([nH]6)c(-c6c(F)cc(S(=O)(=O)[O-])cc6F)c6nc(c(-c7c(F)cc(S(=O)(=O)[O-])cc7F)c7ccc4[nH]7)C=C6)C=C5)cc3)c3ccccc32)cc1
REMARK SMILES IDX 27 1 26 2 24 3 25 4 17 6 16 7 14 8 15 9 12 11 13 12 11 13
REMARK SMILES IDX 9 14 10 15 104 16 99 17 103 18 100 19 102 20 101 21 6 22
REMARK SMILES IDX 7 23 8 24 5 25 1 26 2 27 3 28 106 29 4 30 105 31 18 32 19 33
REMARK SMILES IDX 20 34 23 35 21 36 22 37 28 39 29 40 30 41 31 42 32 44 33 45
REMARK SMILES IDX 34 46 98 47 35 48 97 49 36 50 37 51 38 52 91 53 39 54 96 55
REMARK SMILES IDX 90 56 92 57 40 58 95 59 89 60 88 61 41 63 75 64 54 65 74 66
REMARK SMILES IDX 55 67 58 68 73 69 93 70 56 71 57 72 72 74 94 75 59 76 42 77
REMARK SMILES IDX 43 78 52 79 44 80 45 81 51 82 53 83 46 84 47 85 48 86 49 87
REMARK SMILES IDX 50 88 76 89 77 90 86 91 78 92 79 93 85 94 87 95 80 96 81 97
REMARK SMILES IDX 82 98 83 99 84 100 60 101 61 102 70 103 62 104 63 105 69 106
REMARK SMILES IDX 71 107 64 108 65 109 66 110 67 111 68 112
REMARK H PARENT 26 5 16 10 23 38 30 43 92 62 58 73
REMARK Flexibility Score: inf
ROOT
ATOM      1  C   UNL A   1      35.357  23.888  25.367  1.00  0.00     0.117 C 
ENDROOT
BRANCH   1   2
ATOM      2  N   UNL A   1      35.256  23.243  24.072  1.00  0.00    -0.354 N 
ATOM      3  C   UNL A   1      34.333  23.413  23.082  1.00  0.00     0.242 C 
ATOM      4  O   UNL A   1      34.640  23.017  21.952  1.00  0.00    -0.273 OA
ATOM      5  H   UNL A   1      35.961  22.585  23.878  1.00  0.00     0.163 HD
BRANCH   3   6
ATOM      6  C   UNL A   1      32.983  24.141  23.300  1.00  0.00     0.177 C 
BRANCH   6   7
ATOM      7  N   UNL A   1      32.345  24.534  22.032  1.00  0.00    -0.337 N 
ATOM      8  C   UNL A   1      32.456  25.695  21.283  1.00  0.00     0.293 C 
ATOM      9  O   UNL A   1      32.005  25.685  20.139  1.00  0.00    -0.265 OA
ATOM     10  H   UNL A   1      31.738  23.858  21.651  1.00  0.00     0.164 HD
BRANCH   8  11
ATOM     11  C   UNL A   1      33.073  27.001  21.861  1.00  0.00     0.252 C 
ATOM     12  O   UNL A   1      34.060  27.475  21.310  1.00  0.00    -0.283 OA
BRANCH  11  13
ATOM     13  C   UNL A   1      32.559  27.653  23.087  1.00  0.00     0.054 A 
ATOM     14  N   UNL A   1      32.267  28.342  25.196  1.00  0.00    -0.240 N 
ATOM     15  C   UNL A   1      32.974  27.479  24.397  1.00  0.00     0.117 A 
ATOM     16  C   UNL A   1      31.377  29.094  24.459  1.00  0.00     0.065 A 
ATOM     17  C   UNL A   1      31.506  28.644  23.138  1.00  0.00     0.012 A 
ATOM     18  C   UNL A   1      30.464  30.104  24.818  1.00  0.00     0.028 A 
ATOM     19  C   UNL A   1      30.659  29.215  22.158  1.00  0.00     0.011 A 
ATOM     20  C   UNL A   1      29.643  30.641  23.824  1.00  0.00     0.002 A 
ATOM     21  C   UNL A   1      29.732  30.198  22.512  1.00  0.00     0.001 A 
BRANCH  14  22
ATOM     22  S   UNL A   1      32.474  28.475  26.883  1.00  0.00     0.268 S 
ATOM     23  O   UNL A   1      33.104  27.241  27.288  1.00  0.00    -0.201 OA
ATOM     24  O   UNL A   1      31.180  28.887  27.413  1.00  0.00    -0.201 OA
BRANCH  22  25
ATOM     25  C   UNL A   1      33.614  29.796  27.208  1.00  0.00     0.088 A 
ATOM     26  C   UNL A   1      36.142  33.126  28.231  1.00  0.00     0.044 C 
ATOM     27  C   UNL A   1      35.266  31.963  27.867  1.00  0.00    -0.051 A 
ATOM     28  C   UNL A   1      33.886  32.147  27.724  1.00  0.00     0.005 A 
ATOM     29  C   UNL A   1      35.812  30.692  27.647  1.00  0.00     0.005 A 
ATOM     30  C   UNL A   1      33.061  31.069  27.402  1.00  0.00     0.022 A 
ATOM     31  C   UNL A   1      34.992  29.609  27.309  1.00  0.00     0.022 A 
ENDBRANCH  22  25
ENDBRANCH  14  22
ENDBRANCH  11  13
ENDBRANCH   8  11
ENDBRANCH   6   7
BRANCH   6  32
ATOM     32  C   UNL A   1      32.041  23.480  24.336  1.00  0.00     0.090 C 
BRANCH  32  33
ATOM     33  C   UNL A   1      31.064  24.361  25.042  1.00  0.00     0.037 A 
ATOM     34  C   UNL A   1      30.858  24.628  26.380  1.00  0.00     0.134 A 
ATOM     35  N   UNL A   1      30.141  25.153  24.388  1.00  0.00    -0.348 N 
ATOM     36  N   UNL A   1      29.925  25.618  26.543  1.00  0.00    -0.245 NA
ATOM     37  C   UNL A   1      29.526  25.931  25.331  1.00  0.00     0.196 A 
ATOM     38  H   UNL A   1      29.960  25.158  23.421  1.00  0.00     0.167 HD
ENDBRANCH  32  33
ENDBRANCH   6  32
ENDBRANCH   3   6
ENDBRANCH   1   2
BRANCH   1  39
ATOM     39  C   UNL A   1      36.395  23.295  26.292  1.00  0.00     0.042 C 
BRANCH  39  40
ATOM     40  C   UNL A   1      37.604  22.809  25.525  1.00  0.00     0.118 C 
BRANCH  40  41
ATOM     41  N   UNL A   1      38.657  22.205  26.338  1.00  0.00    -0.352 N 
ATOM     42  C   UNL A   1      39.697  22.845  27.004  1.00  0.00     0.251 C 
ATOM     43  H   UNL A   1      38.627  21.224  26.426  1.00  0.00     0.163 HD
ATOM     44  O   UNL A   1      40.606  22.205  27.521  1.00  0.00    -0.269 OA
BRANCH  42  45
ATOM     45  C   UNL A   1      39.642  24.320  27.125  1.00  0.00     0.039 A 
ATOM     46  C   UNL A   1      40.318  25.111  26.190  1.00  0.00     0.014 A 
ATOM     47  C   UNL A   1      39.178  24.873  28.310  1.00  0.00     0.014 A 
ATOM     48  C   UNL A   1      40.732  26.395  26.552  1.00  0.00     0.010 A 
ATOM     49  C   UNL A   1      39.747  26.050  28.734  1.00  0.00     0.010 A 
ATOM     50  C   UNL A   1      40.539  26.813  27.865  1.00  0.00    -0.014 A 
BRANCH  50  51
ATOM     51  C   UNL A   1      41.131  27.996  28.484  1.00  0.00     0.031 A 
ATOM     52  C   UNL A   1      40.236  29.105  28.915  1.00  0.00     0.074 A 
ATOM     53  C   UNL A   1      42.424  27.970  28.880  1.00  0.00     0.049 A 
ATOM     54  N   UNL A   1      40.638  30.227  29.400  1.00  0.00    -0.248 NA
ATOM     55  C   UNL A   1      38.780  29.029  28.817  1.00  0.00     0.031 C 
ATOM     56  C   UNL A   1      43.039  28.790  29.922  1.00  0.00     0.029 A 
ATOM     57  N   UNL A   1      43.502  27.309  28.289  1.00  0.00    -0.354 N 
ATOM     58  C   UNL A   1      39.544  30.901  29.901  1.00  0.00     0.074 A 
ATOM     59  C   UNL A   1      38.407  30.106  29.511  1.00  0.00     0.031 C 
ATOM     60  C   UNL A   1      44.370  28.780  29.764  1.00  0.00     0.029 A 
ATOM     61  C   UNL A   1      44.651  28.093  28.518  1.00  0.00     0.049 A 
ATOM     62  H   UNL A   1      43.466  26.454  27.803  1.00  0.00     0.167 HD
ATOM     63  C   UNL A   1      39.745  32.009  30.668  1.00  0.00     0.037 A 
ATOM     64  C   UNL A   1      45.337  28.653  27.476  1.00  0.00     0.037 A 
ATOM     65  C   UNL A   1      41.161  32.367  30.683  1.00  0.00     0.049 A 
ATOM     66  C   UNL A   1      45.323  30.167  27.462  1.00  0.00     0.074 A 
ATOM     67  C   UNL A   1      42.198  32.092  31.559  1.00  0.00     0.029 A 
ATOM     68  N   UNL A   1      41.744  32.835  29.514  1.00  0.00    -0.354 N 
ATOM     69  N   UNL A   1      44.522  30.894  28.190  1.00  0.00    -0.248 NA
ATOM     70  C   UNL A   1      46.199  30.985  26.625  1.00  0.00     0.031 C 
ATOM     71  C   UNL A   1      43.419  32.326  30.876  1.00  0.00     0.029 A 
ATOM     72  C   UNL A   1      43.121  32.769  29.599  1.00  0.00     0.049 A 
ATOM     73  H   UNL A   1      41.246  33.166  28.731  1.00  0.00     0.167 HD
ATOM     74  C   UNL A   1      44.712  32.224  27.908  1.00  0.00     0.074 A 
ATOM     75  C   UNL A   1      45.798  32.228  26.947  1.00  0.00     0.031 C 
ATOM     76  C   UNL A   1      43.945  33.200  28.480  1.00  0.00     0.037 A 
BRANCH  63  77
ATOM     77  C   UNL A   1      38.711  32.643  31.573  1.00  0.00     0.058 A 
ATOM     78  C   UNL A   1      38.216  31.937  32.695  1.00  0.00     0.135 A 
ATOM     79  C   UNL A   1      38.132  33.913  31.382  1.00  0.00     0.135 A 
ATOM     80  F   UNL A   1      38.711  30.743  33.046  1.00  0.00    -0.206 F 
ATOM     81  C   UNL A   1      37.180  32.413  33.501  1.00  0.00     0.059 A 
ATOM     82  C   UNL A   1      37.055  34.387  32.139  1.00  0.00     0.059 A 
ATOM     83  F   UNL A   1      38.624  34.778  30.485  1.00  0.00    -0.206 F 
ATOM     84  C   UNL A   1      36.581  33.627  33.197  1.00  0.00     0.060 A 
BRANCH  84  85
ATOM     85  S   UNL A   1      35.199  34.194  34.205  1.00  0.00     0.124 S 
ATOM     86  O   UNL A   1      34.091  33.399  33.681  1.00  0.00    -0.237 OA
ATOM     87  O   UNL A   1      35.644  33.852  35.551  1.00  0.00    -0.237 OA
ATOM     88  O   UNL A   1      35.127  35.622  33.912  1.00  0.00    -0.744 OA
ENDBRANCH  84  85
ENDBRANCH  63  77
BRANCH  64  89
ATOM     89  C   UNL A   1      45.407  27.756  26.290  1.00  0.00     0.058 A 
ATOM     90  C   UNL A   1      46.453  26.813  26.283  1.00  0.00     0.135 A 
ATOM     91  C   UNL A   1      44.253  27.455  25.549  1.00  0.00     0.135 A 
ATOM     92  F   UNL A   1      47.590  27.067  26.950  1.00  0.00    -0.206 F 
ATOM     93  C   UNL A   1      46.275  25.538  25.762  1.00  0.00     0.059 A 
ATOM     94  C   UNL A   1      44.061  26.183  25.006  1.00  0.00     0.059 A 
ATOM     95  F   UNL A   1      43.231  28.322  25.510  1.00  0.00    -0.206 F 
ATOM     96  C   UNL A   1      45.042  25.209  25.207  1.00  0.00     0.060 A 
BRANCH  96  97
ATOM     97  S   UNL A   1      44.664  23.452  25.000  1.00  0.00     0.124 S 
ATOM     98  O   UNL A   1      45.457  23.103  23.828  1.00  0.00    -0.237 OA
ATOM     99  O   UNL A   1      45.145  22.906  26.270  1.00  0.00    -0.237 OA
ATOM    100  O   UNL A   1      43.219  23.439  24.814  1.00  0.00    -0.744 OA
ENDBRANCH  96  97
ENDBRANCH  64  89
BRANCH  76 101
ATOM    101  C   UNL A   1      43.915  34.662  28.095  1.00  0.00     0.058 A 
ATOM    102  C   UNL A   1      43.397  35.150  26.885  1.00  0.00     0.135 A 
ATOM    103  C   UNL A   1      44.273  35.652  29.046  1.00  0.00     0.135 A 
ATOM    104  F   UNL A   1      42.928  34.321  25.941  1.00  0.00    -0.206 F 
ATOM    105  C   UNL A   1      43.290  36.517  26.614  1.00  0.00     0.059 A 
ATOM    106  C   UNL A   1      44.119  37.017  28.820  1.00  0.00     0.059 A 
ATOM    107  F   UNL A   1      44.775  35.320  30.247  1.00  0.00    -0.206 F 
ATOM    108  C   UNL A   1      43.649  37.443  27.589  1.00  0.00     0.060 A 
BRANCH 108 109
ATOM    109  S   UNL A   1      43.448  39.206  27.279  1.00  0.00     0.124 S 
ATOM    110  O   UNL A   1      44.621  39.493  26.459  1.00  0.00    -0.237 OA
ATOM    111  O   UNL A   1      42.164  39.273  26.586  1.00  0.00    -0.237 OA
ATOM    112  O   UNL A   1      43.456  39.781  28.620  1.00  0.00    -0.744 OA
ENDBRANCH 108 109
ENDBRANCH  76 101
ENDBRANCH  50  51
ENDBRANCH  42  45
ENDBRANCH  40  41
ENDBRANCH  39  40
ENDBRANCH   1  39
TORSDOF 20
ENDMDL
