MODEL 1
REMARK VINA RESULT:     -10.8      0.000      0.000
REMARK SMILES COCC[C@H](NC(=O)c1ccc(C)cc1F)C(=O)NCCCNC(=O)c1ccc(-c2c3nc(c(-c4c(F)cc(S(=O)(=O)[O-])cc4F)c4ccc([nH]4)c(-c4c(F)cc(S(=O)(=O)[O-])cc4F)c4nc(c(-c5c(F)cc(S(=O)(=O)[O-])cc5F)c5ccc2[nH]5)C=C4)C=C3)cc1
REMARK SMILES IDX 21 1 20 2 19 3 17 4 18 5 5 7 4 8 3 9 2 10 1 11 6 12 7 13
REMARK SMILES IDX 8 15 9 16 10 17 15 18 11 19 14 20 16 21 12 22 13 23 22 24
REMARK SMILES IDX 23 25 24 26 25 28 26 29 27 30 91 31 28 32 90 33 29 34 30 35
REMARK SMILES IDX 31 36 84 37 32 38 89 39 83 40 85 41 33 42 88 43 82 44 81 45
REMARK SMILES IDX 34 47 68 48 47 49 67 50 48 51 51 52 66 53 86 54 49 55 50 56
REMARK SMILES IDX 65 58 87 59 52 60 35 61 36 62 45 63 37 64 38 65 44 66 46 67
REMARK SMILES IDX 39 68 40 69 41 70 42 71 43 72 69 73 70 74 79 75 71 76 72 77
REMARK SMILES IDX 78 78 80 79 73 80 74 81 75 82 76 83 77 84 53 85 54 86 63 87
REMARK SMILES IDX 55 88 56 89 62 90 64 91 57 92 58 93 59 94 60 95 61 96
REMARK H PARENT 19 6 6 14 23 27 85 46 51 57
REMARK Flexibility Score: inf
ROOT
ATOM      1  C   UNL A   1      32.148  27.816  26.912  1.00  0.00     0.042 C 
ENDROOT
BRANCH   1   2
ATOM      2  C   UNL A   1      32.132  26.479  26.182  1.00  0.00     0.117 C 
BRANCH   2   3
ATOM      3  N   UNL A   1      33.445  25.870  26.065  1.00  0.00    -0.354 N 
ATOM      4  C   UNL A   1      33.992  25.033  25.146  1.00  0.00     0.242 C 
ATOM      5  O   UNL A   1      35.228  24.946  25.197  1.00  0.00    -0.273 OA
ATOM      6  H   UNL A   1      34.058  26.109  26.797  1.00  0.00     0.163 HD
BRANCH   4   7
ATOM      7  C   UNL A   1      33.204  24.147  24.139  1.00  0.00     0.173 C 
BRANCH   7   8
ATOM      8  C   UNL A   1      33.206  22.630  24.438  1.00  0.00     0.063 C 
BRANCH   8   9
ATOM      9  C   UNL A   1      32.231  21.745  23.643  1.00  0.00     0.162 C 
BRANCH   9  10
ATOM     10  O   UNL A   1      32.643  20.384  23.644  1.00  0.00    -0.385 OA
ATOM     11  C   UNL A   1      33.481  19.985  24.724  1.00  0.00     0.194 C 
ENDBRANCH   9  10
ENDBRANCH   8   9
ENDBRANCH   7   8
BRANCH   7  12
ATOM     12  N   UNL A   1      33.471  24.473  22.737  1.00  0.00    -0.340 N 
ATOM     13  C   UNL A   1      32.995  25.437  21.888  1.00  0.00     0.254 C 
ATOM     14  H   UNL A   1      34.130  23.875  22.316  1.00  0.00     0.164 HD
ATOM     15  O   UNL A   1      33.239  25.341  20.689  1.00  0.00    -0.269 OA
BRANCH  13  16
ATOM     16  C   UNL A   1      32.229  26.588  22.377  1.00  0.00     0.075 A 
ATOM     17  C   UNL A   1      30.864  26.470  22.636  1.00  0.00     0.017 A 
ATOM     18  C   UNL A   1      32.890  27.766  22.713  1.00  0.00     0.136 A 
ATOM     19  C   UNL A   1      30.145  27.564  23.124  1.00  0.00     0.004 A 
ATOM     20  C   UNL A   1      32.183  28.854  23.226  1.00  0.00     0.043 A 
ATOM     21  F   UNL A   1      34.212  27.895  22.534  1.00  0.00    -0.206 F 
ATOM     22  C   UNL A   1      30.796  28.772  23.403  1.00  0.00    -0.048 A 
ATOM     23  C   UNL A   1      30.030  29.958  23.908  1.00  0.00     0.044 C 
ENDBRANCH  13  16
ENDBRANCH   7  12
ENDBRANCH   4   7
ENDBRANCH   2   3
ENDBRANCH   1   2
BRANCH   1  24
ATOM     24  C   UNL A   1      33.544  28.423  27.036  1.00  0.00     0.118 C 
BRANCH  24  25
ATOM     25  N   UNL A   1      33.504  29.832  27.421  1.00  0.00    -0.352 N 
ATOM     26  C   UNL A   1      34.419  30.610  28.093  1.00  0.00     0.251 C 
ATOM     27  H   UNL A   1      32.684  30.305  27.155  1.00  0.00     0.163 HD
ATOM     28  O   UNL A   1      34.077  31.722  28.488  1.00  0.00    -0.269 OA
BRANCH  26  29
ATOM     29  C   UNL A   1      35.794  30.127  28.358  1.00  0.00     0.039 A 
ATOM     30  C   UNL A   1      36.733  30.155  27.321  1.00  0.00     0.014 A 
ATOM     31  C   UNL A   1      36.156  29.602  29.600  1.00  0.00     0.014 A 
ATOM     32  C   UNL A   1      38.046  29.729  27.551  1.00  0.00     0.010 A 
ATOM     33  C   UNL A   1      37.482  29.254  29.852  1.00  0.00     0.010 A 
ATOM     34  C   UNL A   1      38.442  29.312  28.832  1.00  0.00    -0.014 A 
BRANCH  34  35
ATOM     35  C   UNL A   1      39.851  28.944  29.131  1.00  0.00     0.031 A 
ATOM     36  C   UNL A   1      40.782  29.946  29.760  1.00  0.00     0.074 A 
ATOM     37  C   UNL A   1      40.316  27.733  28.764  1.00  0.00     0.049 A 
ATOM     38  N   UNL A   1      42.062  29.842  30.011  1.00  0.00    -0.248 NA
ATOM     39  C   UNL A   1      40.200  31.244  30.132  1.00  0.00     0.031 C 
ATOM     40  C   UNL A   1      39.526  26.685  28.115  1.00  0.00     0.029 A 
ATOM     41  N   UNL A   1      41.568  27.182  28.876  1.00  0.00    -0.354 N 
ATOM     42  C   UNL A   1      42.444  31.065  30.549  1.00  0.00     0.074 A 
ATOM     43  C   UNL A   1      41.270  31.911  30.542  1.00  0.00     0.031 C 
ATOM     44  C   UNL A   1      40.302  25.610  27.914  1.00  0.00     0.029 A 
ATOM     45  C   UNL A   1      41.656  25.905  28.377  1.00  0.00     0.049 A 
ATOM     46  H   UNL A   1      42.332  27.658  29.275  1.00  0.00     0.167 HD
ATOM     47  C   UNL A   1      43.656  31.444  31.025  1.00  0.00     0.037 A 
ATOM     48  C   UNL A   1      42.707  25.067  28.291  1.00  0.00     0.037 A 
ATOM     49  C   UNL A   1      44.815  30.591  31.049  1.00  0.00     0.049 A 
ATOM     50  C   UNL A   1      44.049  25.515  28.799  1.00  0.00     0.074 A 
ATOM     51  C   UNL A   1      46.070  30.856  31.569  1.00  0.00     0.029 A 
ATOM     52  N   UNL A   1      44.867  29.309  30.519  1.00  0.00    -0.354 N 
ATOM     53  N   UNL A   1      44.379  26.655  29.357  1.00  0.00    -0.248 NA
ATOM     54  C   UNL A   1      45.163  24.567  28.658  1.00  0.00     0.031 C 
ATOM     55  C   UNL A   1      46.891  29.750  31.318  1.00  0.00     0.029 A 
ATOM     56  C   UNL A   1      46.138  28.780  30.675  1.00  0.00     0.049 A 
ATOM     57  H   UNL A   1      44.110  28.844  30.095  1.00  0.00     0.167 HD
ATOM     58  C   UNL A   1      45.734  26.555  29.650  1.00  0.00     0.074 A 
ATOM     59  C   UNL A   1      46.159  25.239  29.216  1.00  0.00     0.031 C 
ATOM     60  C   UNL A   1      46.550  27.471  30.229  1.00  0.00     0.037 A 
BRANCH  47  61
ATOM     61  C   UNL A   1      43.779  32.849  31.549  1.00  0.00     0.058 A 
ATOM     62  C   UNL A   1      43.658  33.139  32.918  1.00  0.00     0.135 A 
ATOM     63  C   UNL A   1      44.003  33.922  30.672  1.00  0.00     0.135 A 
ATOM     64  F   UNL A   1      43.432  32.153  33.801  1.00  0.00    -0.206 F 
ATOM     65  C   UNL A   1      43.696  34.447  33.392  1.00  0.00     0.059 A 
ATOM     66  C   UNL A   1      44.075  35.237  31.128  1.00  0.00     0.059 A 
ATOM     67  F   UNL A   1      44.134  33.704  29.354  1.00  0.00    -0.206 F 
ATOM     68  C   UNL A   1      43.893  35.490  32.486  1.00  0.00     0.060 A 
BRANCH  68  69
ATOM     69  S   UNL A   1      43.889  37.186  33.106  1.00  0.00     0.124 S 
ATOM     70  O   UNL A   1      42.672  37.195  33.913  1.00  0.00    -0.237 OA
ATOM     71  O   UNL A   1      45.142  37.253  33.851  1.00  0.00    -0.237 OA
ATOM     72  O   UNL A   1      43.843  37.992  31.890  1.00  0.00    -0.744 OA
ENDBRANCH  68  69
ENDBRANCH  47  61
BRANCH  48  73
ATOM     73  C   UNL A   1      42.513  23.703  27.734  1.00  0.00     0.058 A 
ATOM     74  C   UNL A   1      42.522  23.491  26.348  1.00  0.00     0.135 A 
ATOM     75  C   UNL A   1      42.372  22.581  28.567  1.00  0.00     0.135 A 
ATOM     76  F   UNL A   1      42.645  24.535  25.513  1.00  0.00    -0.206 F 
ATOM     77  C   UNL A   1      42.408  22.217  25.805  1.00  0.00     0.059 A 
ATOM     78  C   UNL A   1      42.276  21.294  28.048  1.00  0.00     0.059 A 
ATOM     79  F   UNL A   1      42.371  22.732  29.901  1.00  0.00    -0.206 F 
ATOM     80  C   UNL A   1      42.296  21.122  26.664  1.00  0.00     0.060 A 
BRANCH  80  81
ATOM     81  S   UNL A   1      42.241  19.465  25.948  1.00  0.00     0.124 S 
ATOM     82  O   UNL A   1      43.150  19.604  24.816  1.00  0.00    -0.237 OA
ATOM     83  O   UNL A   1      42.720  18.639  27.051  1.00  0.00    -0.237 OA
ATOM     84  O   UNL A   1      40.832  19.291  25.611  1.00  0.00    -0.744 OA
ENDBRANCH  80  81
ENDBRANCH  48  73
BRANCH  60  85
ATOM     85  C   UNL A   1      47.988  27.083  30.435  1.00  0.00     0.058 A 
ATOM     86  C   UNL A   1      48.983  27.446  29.516  1.00  0.00     0.135 A 
ATOM     87  C   UNL A   1      48.381  26.393  31.593  1.00  0.00     0.135 A 
ATOM     88  F   UNL A   1      48.658  28.097  28.388  1.00  0.00    -0.206 F 
ATOM     89  C   UNL A   1      50.320  27.127  29.731  1.00  0.00     0.059 A 
ATOM     90  C   UNL A   1      49.715  26.085  31.839  1.00  0.00     0.059 A 
ATOM     91  F   UNL A   1      47.468  26.029  32.506  1.00  0.00    -0.206 F 
ATOM     92  C   UNL A   1      50.678  26.449  30.899  1.00  0.00     0.060 A 
BRANCH  92  93
ATOM     93  S   UNL A   1      52.422  26.086  31.189  1.00  0.00     0.124 S 
ATOM     94  O   UNL A   1      52.951  26.075  29.830  1.00  0.00    -0.237 OA
ATOM     95  O   UNL A   1      52.841  27.207  32.025  1.00  0.00    -0.237 OA
ATOM     96  O   UNL A   1      52.391  24.789  31.862  1.00  0.00    -0.744 OA
ENDBRANCH  92  93
ENDBRANCH  60  85
ENDBRANCH  34  35
ENDBRANCH  26  29
ENDBRANCH  24  25
ENDBRANCH   1  24
TORSDOF 18
ENDMDL
MODEL 2
REMARK VINA RESULT:     -10.7      1.250      2.893
REMARK SMILES COCC[C@H](NC(=O)c1ccc(C)cc1F)C(=O)NCCCNC(=O)c1ccc(-c2c3nc(c(-c4c(F)cc(S(=O)(=O)[O-])cc4F)c4ccc([nH]4)c(-c4c(F)cc(S(=O)(=O)[O-])cc4F)c4nc(c(-c5c(F)cc(S(=O)(=O)[O-])cc5F)c5ccc2[nH]5)C=C4)C=C3)cc1
REMARK SMILES IDX 21 1 20 2 19 3 17 4 18 5 5 7 4 8 3 9 2 10 1 11 6 12 7 13
REMARK SMILES IDX 8 15 9 16 10 17 15 18 11 19 14 20 16 21 12 22 13 23 22 24
REMARK SMILES IDX 23 25 24 26 25 28 26 29 27 30 91 31 28 32 90 33 29 34 30 35
REMARK SMILES IDX 31 36 84 37 32 38 89 39 83 40 85 41 33 42 88 43 82 44 81 45
REMARK SMILES IDX 34 47 68 48 47 49 67 50 48 51 51 52 66 53 86 54 49 55 50 56
REMARK SMILES IDX 65 58 87 59 52 60 35 61 36 62 45 63 37 64 38 65 44 66 46 67
REMARK SMILES IDX 39 68 40 69 41 70 42 71 43 72 69 73 70 74 79 75 71 76 72 77
REMARK SMILES IDX 78 78 80 79 73 80 74 81 75 82 76 83 77 84 53 85 54 86 63 87
REMARK SMILES IDX 55 88 56 89 62 90 64 91 57 92 58 93 59 94 60 95 61 96
REMARK H PARENT 19 6 6 14 23 27 85 46 51 57
REMARK Flexibility Score: inf
ROOT
ATOM      1  C   UNL A   1      31.920  27.836  27.234  1.00  0.00     0.042 C 
ENDROOT
BRANCH   1   2
ATOM      2  C   UNL A   1      31.871  26.596  26.350  1.00  0.00     0.117 C 
BRANCH   2   3
ATOM      3  N   UNL A   1      30.696  26.540  25.499  1.00  0.00    -0.354 N 
ATOM      4  C   UNL A   1      30.508  26.774  24.175  1.00  0.00     0.242 C 
ATOM      5  O   UNL A   1      29.435  26.347  23.722  1.00  0.00    -0.273 OA
ATOM      6  H   UNL A   1      29.875  26.283  25.977  1.00  0.00     0.163 HD
BRANCH   4   7
ATOM      7  C   UNL A   1      31.460  27.583  23.249  1.00  0.00     0.173 C 
BRANCH   7   8
ATOM      8  C   UNL A   1      30.970  28.998  22.858  1.00  0.00     0.063 C 
BRANCH   8   9
ATOM      9  C   UNL A   1      30.003  29.708  23.821  1.00  0.00     0.162 C 
BRANCH   9  10
ATOM     10  O   UNL A   1      28.850  30.189  23.140  1.00  0.00    -0.385 OA
ATOM     11  C   UNL A   1      28.802  31.593  22.905  1.00  0.00     0.194 C 
ENDBRANCH   9  10
ENDBRANCH   8   9
ENDBRANCH   7   8
BRANCH   7  12
ATOM     12  N   UNL A   1      31.984  26.808  22.124  1.00  0.00    -0.340 N 
ATOM     13  C   UNL A   1      32.861  25.760  22.031  1.00  0.00     0.254 C 
ATOM     14  H   UNL A   1      31.634  27.100  21.251  1.00  0.00     0.164 HD
ATOM     15  O   UNL A   1      33.288  25.442  20.925  1.00  0.00    -0.269 OA
BRANCH  13  16
ATOM     16  C   UNL A   1      33.280  24.995  23.211  1.00  0.00     0.075 A 
ATOM     17  C   UNL A   1      34.381  25.404  23.963  1.00  0.00     0.017 A 
ATOM     18  C   UNL A   1      32.497  23.936  23.661  1.00  0.00     0.136 A 
ATOM     19  C   UNL A   1      34.759  24.684  25.099  1.00  0.00     0.004 A 
ATOM     20  C   UNL A   1      32.854  23.229  24.809  1.00  0.00     0.043 A 
ATOM     21  F   UNL A   1      31.398  23.553  22.996  1.00  0.00    -0.206 F 
ATOM     22  C   UNL A   1      34.011  23.577  25.519  1.00  0.00    -0.048 A 
ATOM     23  C   UNL A   1      34.421  22.787  26.726  1.00  0.00     0.044 C 
ENDBRANCH  13  16
ENDBRANCH   7  12
ENDBRANCH   4   7
ENDBRANCH   2   3
ENDBRANCH   1   2
BRANCH   1  24
ATOM     24  C   UNL A   1      33.335  28.368  27.455  1.00  0.00     0.118 C 
BRANCH  24  25
ATOM     25  N   UNL A   1      33.367  29.822  27.592  1.00  0.00    -0.352 N 
ATOM     26  C   UNL A   1      34.347  30.662  28.066  1.00  0.00     0.251 C 
ATOM     27  H   UNL A   1      32.548  30.278  27.293  1.00  0.00     0.163 HD
ATOM     28  O   UNL A   1      34.068  31.839  28.280  1.00  0.00    -0.269 OA
BRANCH  26  29
ATOM     29  C   UNL A   1      35.719  30.171  28.335  1.00  0.00     0.039 A 
ATOM     30  C   UNL A   1      36.656  30.178  27.295  1.00  0.00     0.014 A 
ATOM     31  C   UNL A   1      36.079  29.660  29.583  1.00  0.00     0.014 A 
ATOM     32  C   UNL A   1      37.966  29.744  27.529  1.00  0.00     0.010 A 
ATOM     33  C   UNL A   1      37.403  29.305  29.837  1.00  0.00     0.010 A 
ATOM     34  C   UNL A   1      38.361  29.342  28.814  1.00  0.00    -0.014 A 
BRANCH  34  35
ATOM     35  C   UNL A   1      39.768  28.967  29.115  1.00  0.00     0.031 A 
ATOM     36  C   UNL A   1      40.705  29.965  29.740  1.00  0.00     0.074 A 
ATOM     37  C   UNL A   1      40.225  27.751  28.755  1.00  0.00     0.049 A 
ATOM     38  N   UNL A   1      41.984  29.855  29.992  1.00  0.00    -0.248 NA
ATOM     39  C   UNL A   1      40.131  31.269  30.106  1.00  0.00     0.031 C 
ATOM     40  C   UNL A   1      39.429  26.705  28.110  1.00  0.00     0.029 A 
ATOM     41  N   UNL A   1      41.474  27.193  28.869  1.00  0.00    -0.354 N 
ATOM     42  C   UNL A   1      42.374  31.078  30.524  1.00  0.00     0.074 A 
ATOM     43  C   UNL A   1      41.205  31.931  30.513  1.00  0.00     0.031 C 
ATOM     44  C   UNL A   1      40.199  25.624  27.914  1.00  0.00     0.029 A 
ATOM     45  C   UNL A   1      41.554  25.913  28.376  1.00  0.00     0.049 A 
ATOM     46  H   UNL A   1      42.241  27.666  29.267  1.00  0.00     0.167 HD
ATOM     47  C   UNL A   1      43.588  31.452  30.998  1.00  0.00     0.037 A 
ATOM     48  C   UNL A   1      42.600  25.068  28.295  1.00  0.00     0.037 A 
ATOM     49  C   UNL A   1      44.742  30.592  31.027  1.00  0.00     0.049 A 
ATOM     50  C   UNL A   1      43.944  25.510  28.801  1.00  0.00     0.074 A 
ATOM     51  C   UNL A   1      45.998  30.851  31.546  1.00  0.00     0.029 A 
ATOM     52  N   UNL A   1      44.785  29.307  30.503  1.00  0.00    -0.354 N 
ATOM     53  N   UNL A   1      44.281  26.650  29.353  1.00  0.00    -0.248 NA
ATOM     54  C   UNL A   1      45.052  24.554  28.664  1.00  0.00     0.031 C 
ATOM     55  C   UNL A   1      46.812  29.739  31.300  1.00  0.00     0.029 A 
ATOM     56  C   UNL A   1      46.054  28.771  30.662  1.00  0.00     0.049 A 
ATOM     57  H   UNL A   1      44.026  28.845  30.081  1.00  0.00     0.167 HD
ATOM     58  C   UNL A   1      45.636  26.544  29.647  1.00  0.00     0.074 A 
ATOM     59  C   UNL A   1      46.053  25.223  29.219  1.00  0.00     0.031 C 
ATOM     60  C   UNL A   1      46.458  27.458  30.222  1.00  0.00     0.037 A 
BRANCH  47  61
ATOM     61  C   UNL A   1      43.719  32.858  31.516  1.00  0.00     0.058 A 
ATOM     62  C   UNL A   1      43.483  33.174  32.864  1.00  0.00     0.135 A 
ATOM     63  C   UNL A   1      44.070  33.908  30.652  1.00  0.00     0.135 A 
ATOM     64  F   UNL A   1      43.134  32.211  33.733  1.00  0.00    -0.206 F 
ATOM     65  C   UNL A   1      43.530  34.486  33.324  1.00  0.00     0.059 A 
ATOM     66  C   UNL A   1      44.153  35.225  31.098  1.00  0.00     0.059 A 
ATOM     67  F   UNL A   1      44.315  33.665  29.355  1.00  0.00    -0.206 F 
ATOM     68  C   UNL A   1      43.855  35.507  32.430  1.00  0.00     0.060 A 
BRANCH  68  69
ATOM     69  S   UNL A   1      43.863  37.210  33.028  1.00  0.00     0.124 S 
ATOM     70  O   UNL A   1      42.670  37.226  33.869  1.00  0.00    -0.237 OA
ATOM     71  O   UNL A   1      45.137  37.291  33.735  1.00  0.00    -0.237 OA
ATOM     72  O   UNL A   1      43.779  38.000  31.803  1.00  0.00    -0.744 OA
ENDBRANCH  68  69
ENDBRANCH  47  61
BRANCH  48  73
ATOM     73  C   UNL A   1      42.397  23.702  27.745  1.00  0.00     0.058 A 
ATOM     74  C   UNL A   1      42.384  23.488  26.359  1.00  0.00     0.135 A 
ATOM     75  C   UNL A   1      42.272  22.583  28.582  1.00  0.00     0.135 A 
ATOM     76  F   UNL A   1      42.492  24.529  25.519  1.00  0.00    -0.206 F 
ATOM     77  C   UNL A   1      42.262  22.212  25.821  1.00  0.00     0.059 A 
ATOM     78  C   UNL A   1      42.168  21.294  28.067  1.00  0.00     0.059 A 
ATOM     79  F   UNL A   1      42.292  22.736  29.915  1.00  0.00    -0.206 F 
ATOM     80  C   UNL A   1      42.164  21.119  26.684  1.00  0.00     0.060 A 
BRANCH  80  81
ATOM     81  S   UNL A   1      42.099  19.460  25.972  1.00  0.00     0.124 S 
ATOM     82  O   UNL A   1      42.618  18.650  27.068  1.00  0.00    -0.237 OA
ATOM     83  O   UNL A   1      40.677  19.306  25.684  1.00  0.00    -0.237 OA
ATOM     84  O   UNL A   1      42.960  19.564  24.798  1.00  0.00    -0.744 OA
ENDBRANCH  80  81
ENDBRANCH  48  73
BRANCH  60  85
ATOM     85  C   UNL A   1      47.893  27.061  30.430  1.00  0.00     0.058 A 
ATOM     86  C   UNL A   1      48.897  27.445  29.529  1.00  0.00     0.135 A 
ATOM     87  C   UNL A   1      48.275  26.341  31.574  1.00  0.00     0.135 A 
ATOM     88  F   UNL A   1      48.582  28.126  28.416  1.00  0.00    -0.206 F 
ATOM     89  C   UNL A   1      50.231  27.119  29.747  1.00  0.00     0.059 A 
ATOM     90  C   UNL A   1      49.606  26.024  31.823  1.00  0.00     0.059 A 
ATOM     91  F   UNL A   1      47.354  25.956  32.470  1.00  0.00    -0.206 F 
ATOM     92  C   UNL A   1      50.578  26.411  30.900  1.00  0.00     0.060 A 
BRANCH  92  93
ATOM     93  S   UNL A   1      52.318  26.037  31.196  1.00  0.00     0.124 S 
ATOM     94  O   UNL A   1      52.729  27.172  32.015  1.00  0.00    -0.237 OA
ATOM     95  O   UNL A   1      52.251  24.751  31.884  1.00  0.00    -0.237 OA
ATOM     96  O   UNL A   1      52.889  25.992  29.852  1.00  0.00    -0.744 OA
ENDBRANCH  92  93
ENDBRANCH  60  85
ENDBRANCH  34  35
ENDBRANCH  26  29
ENDBRANCH  24  25
ENDBRANCH   1  24
TORSDOF 18
ENDMDL
MODEL 3
REMARK VINA RESULT:     -10.6      5.156     10.043
REMARK SMILES COCC[C@H](NC(=O)c1ccc(C)cc1F)C(=O)NCCCNC(=O)c1ccc(-c2c3nc(c(-c4c(F)cc(S(=O)(=O)[O-])cc4F)c4ccc([nH]4)c(-c4c(F)cc(S(=O)(=O)[O-])cc4F)c4nc(c(-c5c(F)cc(S(=O)(=O)[O-])cc5F)c5ccc2[nH]5)C=C4)C=C3)cc1
REMARK SMILES IDX 21 1 20 2 19 3 17 4 18 5 5 7 4 8 3 9 2 10 1 11 6 12 7 13
REMARK SMILES IDX 8 15 9 16 10 17 15 18 11 19 14 20 16 21 12 22 13 23 22 24
REMARK SMILES IDX 23 25 24 26 25 28 26 29 27 30 91 31 28 32 90 33 29 34 30 35
REMARK SMILES IDX 31 36 84 37 32 38 89 39 83 40 85 41 33 42 88 43 82 44 81 45
REMARK SMILES IDX 34 47 68 48 47 49 67 50 48 51 51 52 66 53 86 54 49 55 50 56
REMARK SMILES IDX 65 58 87 59 52 60 35 61 36 62 45 63 37 64 38 65 44 66 46 67
REMARK SMILES IDX 39 68 40 69 41 70 42 71 43 72 69 73 70 74 79 75 71 76 72 77
REMARK SMILES IDX 78 78 80 79 73 80 74 81 75 82 76 83 77 84 53 85 54 86 63 87
REMARK SMILES IDX 55 88 56 89 62 90 64 91 57 92 58 93 59 94 60 95 61 96
REMARK H PARENT 19 6 6 14 23 27 85 46 51 57
REMARK Flexibility Score: inf
ROOT
ATOM      1  C   UNL A   1      38.415  22.715  26.088  1.00  0.00     0.042 C 
ENDROOT
BRANCH   1   2
ATOM      2  C   UNL A   1      36.916  22.608  25.845  1.00  0.00     0.117 C 
BRANCH   2   3
ATOM      3  N   UNL A   1      36.296  23.873  25.495  1.00  0.00    -0.354 N 
ATOM      4  C   UNL A   1      35.077  24.191  24.989  1.00  0.00     0.242 C 
ATOM      5  O   UNL A   1      34.771  25.389  25.090  1.00  0.00    -0.273 OA
ATOM      6  H   UNL A   1      36.874  24.654  25.656  1.00  0.00     0.163 HD
BRANCH   4   7
ATOM      7  C   UNL A   1      34.119  23.219  24.243  1.00  0.00     0.173 C 
BRANCH   7   8
ATOM      8  C   UNL A   1      33.994  23.442  22.717  1.00  0.00     0.063 C 
BRANCH   8   9
ATOM      9  C   UNL A   1      33.054  24.560  22.235  1.00  0.00     0.162 C 
BRANCH   9  10
ATOM     10  O   UNL A   1      33.783  25.674  21.736  1.00  0.00    -0.385 OA
ATOM     11  C   UNL A   1      33.393  26.951  22.234  1.00  0.00     0.194 C 
ENDBRANCH   9  10
ENDBRANCH   8   9
ENDBRANCH   7   8
BRANCH   7  12
ATOM     12  N   UNL A   1      32.835  23.026  24.919  1.00  0.00    -0.340 N 
ATOM     13  C   UNL A   1      31.984  21.959  25.035  1.00  0.00     0.254 C 
ATOM     14  H   UNL A   1      32.517  23.830  25.390  1.00  0.00     0.164 HD
ATOM     15  O   UNL A   1      30.859  22.147  25.489  1.00  0.00    -0.269 OA
BRANCH  13  16
ATOM     16  C   UNL A   1      32.390  20.601  24.654  1.00  0.00     0.075 A 
ATOM     17  C   UNL A   1      32.832  19.699  25.621  1.00  0.00     0.017 A 
ATOM     18  C   UNL A   1      32.208  20.168  23.344  1.00  0.00     0.136 A 
ATOM     19  C   UNL A   1      33.195  18.401  25.255  1.00  0.00     0.004 A 
ATOM     20  C   UNL A   1      32.543  18.864  22.977  1.00  0.00     0.043 A 
ATOM     21  F   UNL A   1      31.729  20.990  22.401  1.00  0.00    -0.206 F 
ATOM     22  C   UNL A   1      33.073  17.979  23.925  1.00  0.00    -0.048 A 
ATOM     23  C   UNL A   1      33.478  16.594  23.519  1.00  0.00     0.044 C 
ENDBRANCH  13  16
ENDBRANCH   7  12
ENDBRANCH   4   7
ENDBRANCH   2   3
ENDBRANCH   1   2
BRANCH   1  24
ATOM     24  C   UNL A   1      38.862  24.107  26.529  1.00  0.00     0.118 C 
BRANCH  24  25
ATOM     25  N   UNL A   1      40.050  24.564  25.811  1.00  0.00    -0.352 N 
ATOM     26  C   UNL A   1      40.890  25.627  26.043  1.00  0.00     0.251 C 
ATOM     27  H   UNL A   1      40.289  24.017  25.030  1.00  0.00     0.163 HD
ATOM     28  O   UNL A   1      41.708  25.937  25.180  1.00  0.00    -0.269 OA
BRANCH  26  29
ATOM     29  C   UNL A   1      40.817  26.409  27.299  1.00  0.00     0.039 A 
ATOM     30  C   UNL A   1      41.623  27.545  27.437  1.00  0.00     0.014 A 
ATOM     31  C   UNL A   1      40.003  26.009  28.360  1.00  0.00     0.014 A 
ATOM     32  C   UNL A   1      41.555  28.316  28.603  1.00  0.00     0.010 A 
ATOM     33  C   UNL A   1      39.874  26.820  29.486  1.00  0.00     0.010 A 
ATOM     34  C   UNL A   1      40.649  27.981  29.622  1.00  0.00    -0.014 A 
BRANCH  34  35
ATOM     35  C   UNL A   1      40.485  28.834  30.830  1.00  0.00     0.031 A 
ATOM     36  C   UNL A   1      39.442  29.918  30.860  1.00  0.00     0.074 A 
ATOM     37  C   UNL A   1      41.327  28.683  31.871  1.00  0.00     0.049 A 
ATOM     38  N   UNL A   1      39.211  30.818  31.781  1.00  0.00    -0.248 NA
ATOM     39  C   UNL A   1      38.560  30.019  29.687  1.00  0.00     0.031 C 
ATOM     40  C   UNL A   1      42.403  27.693  31.952  1.00  0.00     0.029 A 
ATOM     41  N   UNL A   1      41.419  29.368  33.057  1.00  0.00    -0.354 N 
ATOM     42  C   UNL A   1      38.174  31.605  31.292  1.00  0.00     0.074 A 
ATOM     43  C   UNL A   1      37.856  31.105  29.972  1.00  0.00     0.031 C 
ATOM     44  C   UNL A   1      43.025  27.815  33.134  1.00  0.00     0.029 A 
ATOM     45  C   UNL A   1      42.425  28.919  33.878  1.00  0.00     0.049 A 
ATOM     46  H   UNL A   1      40.820  30.112  33.296  1.00  0.00     0.167 HD
ATOM     47  C   UNL A   1      37.531  32.636  31.894  1.00  0.00     0.037 A 
ATOM     48  C   UNL A   1      42.827  29.351  35.089  1.00  0.00     0.037 A 
ATOM     49  C   UNL A   1      37.838  33.115  33.216  1.00  0.00     0.049 A 
ATOM     50  C   UNL A   1      42.120  30.513  35.728  1.00  0.00     0.074 A 
ATOM     51  C   UNL A   1      37.203  34.108  33.943  1.00  0.00     0.029 A 
ATOM     52  N   UNL A   1      38.875  32.643  34.010  1.00  0.00    -0.354 N 
ATOM     53  N   UNL A   1      41.105  31.208  35.276  1.00  0.00    -0.248 NA
ATOM     54  C   UNL A   1      42.619  30.954  37.038  1.00  0.00     0.031 C 
ATOM     55  C   UNL A   1      37.882  34.264  35.157  1.00  0.00     0.029 A 
ATOM     56  C   UNL A   1      38.916  33.342  35.206  1.00  0.00     0.049 A 
ATOM     57  H   UNL A   1      39.490  31.917  33.759  1.00  0.00     0.167 HD
ATOM     58  C   UNL A   1      40.831  32.159  36.253  1.00  0.00     0.074 A 
ATOM     59  C   UNL A   1      41.782  31.941  37.325  1.00  0.00     0.031 C 
ATOM     60  C   UNL A   1      39.875  33.122  36.261  1.00  0.00     0.037 A 
BRANCH  47  61
ATOM     61  C   UNL A   1      36.438  33.313  31.113  1.00  0.00     0.058 A 
ATOM     62  C   UNL A   1      36.722  34.161  30.030  1.00  0.00     0.135 A 
ATOM     63  C   UNL A   1      35.090  33.126  31.460  1.00  0.00     0.135 A 
ATOM     64  F   UNL A   1      37.993  34.384  29.661  1.00  0.00    -0.206 F 
ATOM     65  C   UNL A   1      35.715  34.846  29.358  1.00  0.00     0.059 A 
ATOM     66  C   UNL A   1      34.064  33.778  30.781  1.00  0.00     0.059 A 
ATOM     67  F   UNL A   1      34.760  32.321  32.482  1.00  0.00    -0.206 F 
ATOM     68  C   UNL A   1      34.388  34.657  29.750  1.00  0.00     0.060 A 
BRANCH  68  69
ATOM     69  S   UNL A   1      33.095  35.591  28.903  1.00  0.00     0.124 S 
ATOM     70  O   UNL A   1      32.429  34.536  28.145  1.00  0.00    -0.237 OA
ATOM     71  O   UNL A   1      32.332  36.152  30.013  1.00  0.00    -0.237 OA
ATOM     72  O   UNL A   1      33.843  36.560  28.107  1.00  0.00    -0.744 OA
ENDBRANCH  68  69
ENDBRANCH  47  61
BRANCH  48  73
ATOM     73  C   UNL A   1      43.935  28.647  35.786  1.00  0.00     0.058 A 
ATOM     74  C   UNL A   1      45.265  29.048  35.596  1.00  0.00     0.135 A 
ATOM     75  C   UNL A   1      43.688  27.606  36.695  1.00  0.00     0.135 A 
ATOM     76  F   UNL A   1      45.550  30.034  34.731  1.00  0.00    -0.206 F 
ATOM     77  C   UNL A   1      46.312  28.449  36.287  1.00  0.00     0.059 A 
ATOM     78  C   UNL A   1      44.717  27.004  37.413  1.00  0.00     0.059 A 
ATOM     79  F   UNL A   1      42.430  27.196  36.920  1.00  0.00    -0.206 F 
ATOM     80  C   UNL A   1      46.027  27.433  37.202  1.00  0.00     0.060 A 
BRANCH  80  81
ATOM     81  S   UNL A   1      47.386  26.728  38.159  1.00  0.00     0.124 S 
ATOM     82  O   UNL A   1      47.009  27.096  39.519  1.00  0.00    -0.237 OA
ATOM     83  O   UNL A   1      47.286  25.309  37.832  1.00  0.00    -0.237 OA
ATOM     84  O   UNL A   1      48.562  27.405  37.623  1.00  0.00    -0.744 OA
ENDBRANCH  80  81
ENDBRANCH  48  73
BRANCH  60  85
ATOM     85  C   UNL A   1      39.802  34.013  37.469  1.00  0.00     0.058 A 
ATOM     86  C   UNL A   1      40.478  35.241  37.515  1.00  0.00     0.135 A 
ATOM     87  C   UNL A   1      39.001  33.661  38.568  1.00  0.00     0.135 A 
ATOM     88  F   UNL A   1      41.265  35.619  36.495  1.00  0.00    -0.206 F 
ATOM     89  C   UNL A   1      40.373  36.087  38.614  1.00  0.00     0.059 A 
ATOM     90  C   UNL A   1      38.863  34.502  39.667  1.00  0.00     0.059 A 
ATOM     91  F   UNL A   1      38.329  32.500  38.570  1.00  0.00    -0.206 F 
ATOM     92  C   UNL A   1      39.558  35.710  39.685  1.00  0.00     0.060 A 
BRANCH  92  93
ATOM     93  S   UNL A   1      39.391  36.839  41.083  1.00  0.00     0.124 S 
ATOM     94  O   UNL A   1      38.683  37.960  40.474  1.00  0.00    -0.237 OA
ATOM     95  O   UNL A   1      38.621  36.046  42.037  1.00  0.00    -0.237 OA
ATOM     96  O   UNL A   1      40.773  37.106  41.472  1.00  0.00    -0.744 OA
ENDBRANCH  92  93
ENDBRANCH  60  85
ENDBRANCH  34  35
ENDBRANCH  26  29
ENDBRANCH  24  25
ENDBRANCH   1  24
TORSDOF 18
ENDMDL
