MODEL 1
REMARK VINA RESULT:      -9.8      0.000      0.000
REMARK SMILES CCCCCCNC(=O)Oc1cccc(-c2ccc([C@@H](C)C(=O)NCCCNC(=O)c3ccc(-c4c5nc(c(-c6c(F)cc(S(=O)(=O)[O-])cc6F)c6ccc([nH]6)c(-c6c(F)cc(S(=O)(=O)[O-])cc6F)c6nc(c(-c7c(F)cc(S(=O)(=O)[O-])cc7F)c7ccc4[nH]7)C=C6)C=C5)cc3)cc2[N+](=O)[O-])c1
REMARK SMILES IDX 20 1 21 2 19 3 16 4 17 5 98 6 18 7 97 8 15 9 11 10 12 11
REMARK SMILES IDX 102 12 13 13 14 14 10 15 8 16 7 17 9 19 6 20 5 21 4 22 3 23
REMARK SMILES IDX 2 24 1 25 99 26 100 27 101 28 22 29 23 30 24 31 25 33 26 34
REMARK SMILES IDX 27 35 28 36 29 37 30 39 31 40 32 41 96 42 33 43 95 44 34 45
REMARK SMILES IDX 35 46 36 47 89 48 37 49 94 50 88 51 90 52 38 53 93 54 87 55
REMARK SMILES IDX 86 56 39 58 73 59 52 60 72 61 53 62 56 63 71 64 91 65 54 66
REMARK SMILES IDX 55 67 70 69 92 70 57 71 40 72 41 73 50 74 42 75 43 76 49 77
REMARK SMILES IDX 51 78 44 79 45 80 46 81 47 82 48 83 74 84 75 85 84 86 76 87
REMARK SMILES IDX 77 88 83 89 85 90 78 91 79 92 80 93 81 94 82 95 58 96 59 97
REMARK SMILES IDX 68 98 60 99 61 100 67 101 69 102 62 103 63 104 64 105 65 106
REMARK SMILES IDX 66 107
REMARK H PARENT 7 18 24 32 28 38 90 57 56 68
REMARK Flexibility Score: inf
ROOT
ATOM      1  C   UNL A   1      45.576  21.505  25.548  1.00  0.00     0.105 C 
ATOM      2  C   UNL A   1      45.952  20.155  24.940  1.00  0.00     0.023 C 
ENDROOT
BRANCH   1   3
ATOM      3  C   UNL A   1      44.081  21.774  25.634  1.00  0.00    -0.029 A 
ATOM      4  C   UNL A   1      41.263  22.292  25.936  1.00  0.00     0.060 A 
ATOM      5  C   UNL A   1      42.144  23.226  25.362  1.00  0.00     0.016 A 
ATOM      6  C   UNL A   1      41.834  21.058  26.301  1.00  0.00     0.277 A 
ATOM      7  C   UNL A   1      43.502  22.953  25.167  1.00  0.00     0.005 A 
ATOM      8  C   UNL A   1      43.223  20.815  26.194  1.00  0.00     0.090 A 
BRANCH   4   9
ATOM      9  C   UNL A   1      39.846  22.686  26.114  1.00  0.00    -0.008 A 
ATOM     10  C   UNL A   1      37.471  22.393  25.692  1.00  0.00     0.133 A 
ATOM     11  C   UNL A   1      37.154  23.465  26.521  1.00  0.00     0.047 A 
ATOM     12  C   UNL A   1      38.794  21.988  25.498  1.00  0.00     0.056 A 
ATOM     13  C   UNL A   1      38.177  24.149  27.164  1.00  0.00     0.004 A 
ATOM     14  C   UNL A   1      39.505  23.774  26.948  1.00  0.00     0.009 A 
BRANCH  10  15
ATOM     15  O   UNL A   1      36.414  21.860  24.936  1.00  0.00    -0.410 OA
BRANCH  15  16
ATOM     16  C   UNL A   1      35.871  22.569  23.878  1.00  0.00     0.412 C 
ATOM     17  N   UNL A   1      34.533  22.806  24.038  1.00  0.00    -0.321 N 
ATOM     18  H   UNL A   1      34.063  23.228  23.283  1.00  0.00     0.167 HD
ATOM     19  O   UNL A   1      36.477  22.975  22.895  1.00  0.00    -0.224 OA
BRANCH  17  20
ATOM     20  C   UNL A   1      33.740  22.494  25.211  1.00  0.00     0.119 C 
BRANCH  20  21
ATOM     21  C   UNL A   1      33.490  23.736  26.069  1.00  0.00     0.021 C 
BRANCH  21  22
ATOM     22  C   UNL A   1      32.124  24.401  25.852  1.00  0.00     0.002 C 
BRANCH  22  23
ATOM     23  C   UNL A   1      31.175  23.653  24.910  1.00  0.00    -0.000 C 
BRANCH  23  24
ATOM     24  C   UNL A   1      30.660  24.468  23.721  1.00  0.00    -0.003 C 
ATOM     25  C   UNL A   1      31.750  24.825  22.723  1.00  0.00     0.004 C 
ENDBRANCH  23  24
ENDBRANCH  22  23
ENDBRANCH  21  22
ENDBRANCH  20  21
ENDBRANCH  17  20
ENDBRANCH  15  16
ENDBRANCH  10  15
ENDBRANCH   4   9
BRANCH   6  26
ATOM     26  N   UNL A   1      41.012  19.924  26.721  1.00  0.00     0.063 N 
ATOM     27  O   UNL A   1      40.579  19.177  25.830  1.00  0.00    -0.258 OA
ATOM     28  O   UNL A   1      40.730  19.826  27.923  1.00  0.00    -0.258 OA
ENDBRANCH   6  26
ENDBRANCH   1   3
BRANCH   1  29
ATOM     29  C   UNL A   1      46.405  22.693  25.035  1.00  0.00     0.227 C 
ATOM     30  O   UNL A   1      46.846  22.675  23.878  1.00  0.00    -0.274 OA
ATOM     31  N   UNL A   1      46.690  23.806  25.763  1.00  0.00    -0.356 N 
ATOM     32  H   UNL A   1      47.175  24.496  25.258  1.00  0.00     0.163 HD
BRANCH  31  33
ATOM     33  C   UNL A   1      46.416  24.171  27.140  1.00  0.00     0.117 C 
BRANCH  33  34
ATOM     34  C   UNL A   1      45.374  25.282  27.244  1.00  0.00     0.042 C 
BRANCH  34  35
ATOM     35  C   UNL A   1      45.547  26.388  26.214  1.00  0.00     0.118 C 
BRANCH  35  36
ATOM     36  N   UNL A   1      44.422  26.454  25.289  1.00  0.00    -0.352 N 
ATOM     37  C   UNL A   1      43.110  26.800  25.509  1.00  0.00     0.251 C 
ATOM     38  H   UNL A   1      44.636  26.213  24.360  1.00  0.00     0.163 HD
ATOM     39  O   UNL A   1      42.279  26.562  24.635  1.00  0.00    -0.269 OA
BRANCH  37  40
ATOM     40  C   UNL A   1      42.689  27.437  26.778  1.00  0.00     0.039 A 
ATOM     41  C   UNL A   1      41.905  26.705  27.676  1.00  0.00     0.014 A 
ATOM     42  C   UNL A   1      43.019  28.763  27.069  1.00  0.00     0.014 A 
ATOM     43  C   UNL A   1      41.506  27.282  28.886  1.00  0.00     0.010 A 
ATOM     44  C   UNL A   1      42.695  29.306  28.309  1.00  0.00     0.010 A 
ATOM     45  C   UNL A   1      41.927  28.577  29.228  1.00  0.00    -0.014 A 
BRANCH  45  46
ATOM     46  C   UNL A   1      41.563  29.202  30.525  1.00  0.00     0.031 A 
ATOM     47  C   UNL A   1      40.361  30.106  30.611  1.00  0.00     0.074 A 
ATOM     48  C   UNL A   1      42.355  29.025  31.601  1.00  0.00     0.049 A 
ATOM     49  N   UNL A   1      39.951  30.845  31.610  1.00  0.00    -0.248 NA
ATOM     50  C   UNL A   1      39.527  30.216  29.403  1.00  0.00     0.031 C 
ATOM     51  C   UNL A   1      43.567  28.204  31.634  1.00  0.00     0.029 A 
ATOM     52  N   UNL A   1      42.272  29.541  32.871  1.00  0.00    -0.354 N 
ATOM     53  C   UNL A   1      38.830  31.523  31.143  1.00  0.00     0.074 A 
ATOM     54  C   UNL A   1      38.652  31.144  29.759  1.00  0.00     0.031 C 
ATOM     55  C   UNL A   1      44.107  28.263  32.862  1.00  0.00     0.029 A 
ATOM     56  C   UNL A   1      43.307  29.159  33.692  1.00  0.00     0.049 A 
ATOM     57  H   UNL A   1      41.540  30.130  33.166  1.00  0.00     0.167 HD
ATOM     58  C   UNL A   1      38.012  32.369  31.815  1.00  0.00     0.037 A 
ATOM     59  C   UNL A   1      43.591  29.505  34.963  1.00  0.00     0.037 A 
ATOM     60  C   UNL A   1      38.180  32.717  33.201  1.00  0.00     0.049 A 
ATOM     61  C   UNL A   1      42.672  30.450  35.687  1.00  0.00     0.074 A 
ATOM     62  C   UNL A   1      37.375  33.518  33.991  1.00  0.00     0.029 A 
ATOM     63  N   UNL A   1      39.225  32.284  34.005  1.00  0.00    -0.354 N 
ATOM     64  N   UNL A   1      41.585  31.040  35.248  1.00  0.00    -0.248 NA
ATOM     65  C   UNL A   1      43.013  30.778  37.079  1.00  0.00     0.031 C 
ATOM     66  C   UNL A   1      37.953  33.604  35.261  1.00  0.00     0.029 A 
ATOM     67  C   UNL A   1      39.094  32.816  35.278  1.00  0.00     0.049 A 
ATOM     68  H   UNL A   1      39.952  31.687  33.715  1.00  0.00     0.167 HD
ATOM     69  C   UNL A   1      41.097  31.783  36.317  1.00  0.00     0.074 A 
ATOM     70  C   UNL A   1      42.003  31.564  37.426  1.00  0.00     0.031 C 
ATOM     71  C   UNL A   1      39.996  32.572  36.376  1.00  0.00     0.037 A 
BRANCH  58  72
ATOM     72  C   UNL A   1      36.860  32.974  31.060  1.00  0.00     0.058 A 
ATOM     73  C   UNL A   1      37.046  34.026  30.148  1.00  0.00     0.135 A 
ATOM     74  C   UNL A   1      35.556  32.476  31.224  1.00  0.00     0.135 A 
ATOM     75  F   UNL A   1      38.268  34.551  29.962  1.00  0.00    -0.206 F 
ATOM     76  C   UNL A   1      35.979  34.583  29.451  1.00  0.00     0.059 A 
ATOM     77  C   UNL A   1      34.478  32.999  30.515  1.00  0.00     0.059 A 
ATOM     78  F   UNL A   1      35.320  31.470  32.081  1.00  0.00    -0.206 F 
ATOM     79  C   UNL A   1      34.698  34.064  29.643  1.00  0.00     0.060 A 
BRANCH  79  80
ATOM     80  S   UNL A   1      33.326  34.798  28.729  1.00  0.00     0.124 S 
ATOM     81  O   UNL A   1      34.011  35.831  27.958  1.00  0.00    -0.237 OA
ATOM     82  O   UNL A   1      32.820  33.666  27.960  1.00  0.00    -0.237 OA
ATOM     83  O   UNL A   1      32.438  35.286  29.780  1.00  0.00    -0.744 OA
ENDBRANCH  79  80
ENDBRANCH  58  72
BRANCH  59  84
ATOM     84  C   UNL A   1      44.793  28.941  35.635  1.00  0.00     0.058 A 
ATOM     85  C   UNL A   1      44.712  27.752  36.376  1.00  0.00     0.135 A 
ATOM     86  C   UNL A   1      46.047  29.562  35.533  1.00  0.00     0.135 A 
ATOM     87  F   UNL A   1      43.535  27.124  36.508  1.00  0.00    -0.206 F 
ATOM     88  C   UNL A   1      45.828  27.207  37.004  1.00  0.00     0.059 A 
ATOM     89  C   UNL A   1      47.182  29.023  36.130  1.00  0.00     0.059 A 
ATOM     90  F   UNL A   1      46.182  30.693  34.822  1.00  0.00    -0.206 F 
ATOM     91  C   UNL A   1      47.060  27.849  36.872  1.00  0.00     0.060 A 
BRANCH  91  92
ATOM     92  S   UNL A   1      48.513  27.105  37.644  1.00  0.00     0.124 S 
ATOM     93  O   UNL A   1      48.629  27.888  38.869  1.00  0.00    -0.237 OA
ATOM     94  O   UNL A   1      48.095  25.716  37.811  1.00  0.00    -0.237 OA
ATOM     95  O   UNL A   1      49.566  27.319  36.654  1.00  0.00    -0.744 OA
ENDBRANCH  91  92
ENDBRANCH  59  84
BRANCH  71  96
ATOM     96  C   UNL A   1      39.676  33.228  37.690  1.00  0.00     0.058 A 
ATOM     97  C   UNL A   1      38.723  32.695  38.570  1.00  0.00     0.135 A 
ATOM     98  C   UNL A   1      40.395  34.361  38.106  1.00  0.00     0.135 A 
ATOM     99  F   UNL A   1      38.003  31.619  38.214  1.00  0.00    -0.206 F 
ATOM    100  C   UNL A   1      38.486  33.267  39.815  1.00  0.00     0.059 A 
ATOM    101  C   UNL A   1      40.194  34.934  39.358  1.00  0.00     0.059 A 
ATOM    102  F   UNL A   1      41.324  34.905  37.304  1.00  0.00    -0.206 F 
ATOM    103  C   UNL A   1      39.232  34.382  40.203  1.00  0.00     0.060 A 
BRANCH 103 104
ATOM    104  S   UNL A   1      38.958  35.078  41.847  1.00  0.00     0.124 S 
ATOM    105  O   UNL A   1      37.628  35.659  41.703  1.00  0.00    -0.237 OA
ATOM    106  O   UNL A   1      39.043  33.897  42.703  1.00  0.00    -0.237 OA
ATOM    107  O   UNL A   1      40.049  36.034  41.998  1.00  0.00    -0.744 OA
ENDBRANCH 103 104
ENDBRANCH  71  96
ENDBRANCH  45  46
ENDBRANCH  37  40
ENDBRANCH  35  36
ENDBRANCH  34  35
ENDBRANCH  33  34
ENDBRANCH  31  33
ENDBRANCH   1  29
TORSDOF 23
ENDMDL
MODEL 2
REMARK VINA RESULT:      -9.6      1.307      2.003
REMARK SMILES CCCCCCNC(=O)Oc1cccc(-c2ccc([C@@H](C)C(=O)NCCCNC(=O)c3ccc(-c4c5nc(c(-c6c(F)cc(S(=O)(=O)[O-])cc6F)c6ccc([nH]6)c(-c6c(F)cc(S(=O)(=O)[O-])cc6F)c6nc(c(-c7c(F)cc(S(=O)(=O)[O-])cc7F)c7ccc4[nH]7)C=C6)C=C5)cc3)cc2[N+](=O)[O-])c1
REMARK SMILES IDX 20 1 21 2 19 3 16 4 17 5 98 6 18 7 97 8 15 9 11 10 12 11
REMARK SMILES IDX 102 12 13 13 14 14 10 15 8 16 7 17 9 19 6 20 5 21 4 22 3 23
REMARK SMILES IDX 2 24 1 25 99 26 100 27 101 28 22 29 23 30 24 31 25 33 26 34
REMARK SMILES IDX 27 35 28 36 29 37 30 39 31 40 32 41 96 42 33 43 95 44 34 45
REMARK SMILES IDX 35 46 36 47 89 48 37 49 94 50 88 51 90 52 38 53 93 54 87 55
REMARK SMILES IDX 86 56 39 58 73 59 52 60 72 61 53 62 56 63 71 64 91 65 54 66
REMARK SMILES IDX 55 67 70 69 92 70 57 71 40 72 41 73 50 74 42 75 43 76 49 77
REMARK SMILES IDX 51 78 44 79 45 80 46 81 47 82 48 83 74 84 75 85 84 86 76 87
REMARK SMILES IDX 77 88 83 89 85 90 78 91 79 92 80 93 81 94 82 95 58 96 59 97
REMARK SMILES IDX 68 98 60 99 61 100 67 101 69 102 62 103 63 104 64 105 65 106
REMARK SMILES IDX 66 107
REMARK H PARENT 7 18 24 32 28 38 90 57 56 68
REMARK Flexibility Score: inf
ROOT
ATOM      1  C   UNL A   1      45.611  21.593  25.466  1.00  0.00     0.105 C 
ATOM      2  C   UNL A   1      45.976  20.278  24.779  1.00  0.00     0.023 C 
ENDROOT
BRANCH   1   3
ATOM      3  C   UNL A   1      44.118  21.859  25.587  1.00  0.00    -0.029 A 
ATOM      4  C   UNL A   1      41.305  22.368  25.953  1.00  0.00     0.060 A 
ATOM      5  C   UNL A   1      42.173  23.311  25.372  1.00  0.00     0.016 A 
ATOM      6  C   UNL A   1      41.886  21.131  26.292  1.00  0.00     0.277 A 
ATOM      7  C   UNL A   1      43.527  23.042  25.146  1.00  0.00     0.005 A 
ATOM      8  C   UNL A   1      43.273  20.892  26.154  1.00  0.00     0.090 A 
BRANCH   4   9
ATOM      9  C   UNL A   1      39.892  22.758  26.165  1.00  0.00    -0.008 A 
ATOM     10  C   UNL A   1      37.515  22.525  25.720  1.00  0.00     0.133 A 
ATOM     11  C   UNL A   1      37.206  23.523  26.639  1.00  0.00     0.047 A 
ATOM     12  C   UNL A   1      38.834  22.126  25.491  1.00  0.00     0.056 A 
ATOM     13  C   UNL A   1      38.235  24.139  27.339  1.00  0.00     0.004 A 
ATOM     14  C   UNL A   1      39.560  23.772  27.091  1.00  0.00     0.009 A 
BRANCH  10  15
ATOM     15  O   UNL A   1      36.454  22.069  24.920  1.00  0.00    -0.410 OA
BRANCH  15  16
ATOM     16  C   UNL A   1      35.260  22.768  24.861  1.00  0.00     0.412 C 
ATOM     17  N   UNL A   1      34.179  21.988  25.174  1.00  0.00    -0.321 N 
ATOM     18  H   UNL A   1      33.290  22.397  25.067  1.00  0.00     0.167 HD
ATOM     19  O   UNL A   1      35.130  23.952  24.582  1.00  0.00    -0.224 OA
BRANCH  17  20
ATOM     20  C   UNL A   1      34.218  20.618  25.647  1.00  0.00     0.119 C 
BRANCH  20  21
ATOM     21  C   UNL A   1      33.890  19.626  24.530  1.00  0.00     0.021 C 
BRANCH  21  22
ATOM     22  C   UNL A   1      34.746  18.353  24.531  1.00  0.00     0.002 C 
BRANCH  22  23
ATOM     23  C   UNL A   1      34.074  17.112  23.935  1.00  0.00    -0.000 C 
BRANCH  23  24
ATOM     24  C   UNL A   1      33.872  15.948  24.909  1.00  0.00    -0.003 C 
ATOM     25  C   UNL A   1      32.497  15.943  25.559  1.00  0.00     0.004 C 
ENDBRANCH  23  24
ENDBRANCH  22  23
ENDBRANCH  21  22
ENDBRANCH  20  21
ENDBRANCH  17  20
ENDBRANCH  15  16
ENDBRANCH  10  15
ENDBRANCH   4   9
BRANCH   6  26
ATOM     26  N   UNL A   1      41.074  19.991  26.716  1.00  0.00     0.063 N 
ATOM     27  O   UNL A   1      40.693  19.207  25.834  1.00  0.00    -0.258 OA
ATOM     28  O   UNL A   1      40.748  19.924  27.909  1.00  0.00    -0.258 OA
ENDBRANCH   6  26
ENDBRANCH   1   3
BRANCH   1  29
ATOM     29  C   UNL A   1      46.435  22.806  25.010  1.00  0.00     0.227 C 
ATOM     30  O   UNL A   1      46.862  22.851  23.849  1.00  0.00    -0.274 OA
ATOM     31  N   UNL A   1      46.730  23.877  25.795  1.00  0.00    -0.356 N 
ATOM     32  H   UNL A   1      47.211  24.594  25.323  1.00  0.00     0.163 HD
BRANCH  31  33
ATOM     33  C   UNL A   1      46.473  24.166  27.193  1.00  0.00     0.117 C 
BRANCH  33  34
ATOM     34  C   UNL A   1      45.695  25.466  27.379  1.00  0.00     0.042 C 
BRANCH  34  35
ATOM     35  C   UNL A   1      45.870  26.457  26.237  1.00  0.00     0.118 C 
BRANCH  35  36
ATOM     36  N   UNL A   1      44.733  26.447  25.325  1.00  0.00    -0.352 N 
ATOM     37  C   UNL A   1      43.409  26.735  25.552  1.00  0.00     0.251 C 
ATOM     38  H   UNL A   1      44.949  26.194  24.399  1.00  0.00     0.163 HD
ATOM     39  O   UNL A   1      42.581  26.436  24.695  1.00  0.00    -0.269 OA
BRANCH  37  40
ATOM     40  C   UNL A   1      42.971  27.382  26.810  1.00  0.00     0.039 A 
ATOM     41  C   UNL A   1      42.232  26.636  27.734  1.00  0.00     0.014 A 
ATOM     42  C   UNL A   1      43.241  28.729  27.066  1.00  0.00     0.014 A 
ATOM     43  C   UNL A   1      41.819  27.223  28.936  1.00  0.00     0.010 A 
ATOM     44  C   UNL A   1      42.905  29.286  28.297  1.00  0.00     0.010 A 
ATOM     45  C   UNL A   1      42.182  28.544  29.241  1.00  0.00    -0.014 A 
BRANCH  45  46
ATOM     46  C   UNL A   1      41.802  29.183  30.528  1.00  0.00     0.031 A 
ATOM     47  C   UNL A   1      40.576  30.055  30.599  1.00  0.00     0.074 A 
ATOM     48  C   UNL A   1      42.600  29.047  31.605  1.00  0.00     0.049 A 
ATOM     49  N   UNL A   1      40.148  30.801  31.585  1.00  0.00    -0.248 NA
ATOM     50  C   UNL A   1      39.739  30.120  29.390  1.00  0.00     0.031 C 
ATOM     51  C   UNL A   1      43.834  28.260  31.651  1.00  0.00     0.029 A 
ATOM     52  N   UNL A   1      42.504  29.583  32.866  1.00  0.00    -0.354 N 
ATOM     53  C   UNL A   1      39.009  31.440  31.108  1.00  0.00     0.074 A 
ATOM     54  C   UNL A   1      38.838  31.031  29.731  1.00  0.00     0.031 C 
ATOM     55  C   UNL A   1      44.373  28.356  32.877  1.00  0.00     0.029 A 
ATOM     56  C   UNL A   1      43.550  29.244  33.692  1.00  0.00     0.049 A 
ATOM     57  H   UNL A   1      41.757  30.157  33.151  1.00  0.00     0.167 HD
ATOM     58  C   UNL A   1      38.168  32.275  31.765  1.00  0.00     0.037 A 
ATOM     59  C   UNL A   1      43.826  29.621  34.956  1.00  0.00     0.037 A 
ATOM     60  C   UNL A   1      38.328  32.652  33.145  1.00  0.00     0.049 A 
ATOM     61  C   UNL A   1      42.883  30.554  35.664  1.00  0.00     0.074 A 
ATOM     62  C   UNL A   1      37.502  33.446  33.921  1.00  0.00     0.029 A 
ATOM     63  N   UNL A   1      39.385  32.263  33.955  1.00  0.00    -0.354 N 
ATOM     64  N   UNL A   1      41.779  31.106  35.217  1.00  0.00    -0.248 NA
ATOM     65  C   UNL A   1      43.216  30.917  37.049  1.00  0.00     0.031 C 
ATOM     66  C   UNL A   1      38.079  33.571  35.188  1.00  0.00     0.029 A 
ATOM     67  C   UNL A   1      39.241  32.814  35.218  1.00  0.00     0.049 A 
ATOM     68  H   UNL A   1      40.128  31.681  33.675  1.00  0.00     0.167 HD
ATOM     69  C   UNL A   1      41.273  31.855  36.273  1.00  0.00     0.074 A 
ATOM     70  C   UNL A   1      42.185  31.681  37.384  1.00  0.00     0.031 C 
ATOM     71  C   UNL A   1      40.151  32.615  36.319  1.00  0.00     0.037 A 
BRANCH  58  72
ATOM     72  C   UNL A   1      36.999  32.834  31.001  1.00  0.00     0.058 A 
ATOM     73  C   UNL A   1      37.087  34.051  30.304  1.00  0.00     0.135 A 
ATOM     74  C   UNL A   1      35.784  32.132  30.936  1.00  0.00     0.135 A 
ATOM     75  F   UNL A   1      38.219  34.772  30.343  1.00  0.00    -0.206 F 
ATOM     76  C   UNL A   1      36.005  34.566  29.598  1.00  0.00     0.059 A 
ATOM     77  C   UNL A   1      34.697  32.614  30.211  1.00  0.00     0.059 A 
ATOM     78  F   UNL A   1      35.644  30.963  31.581  1.00  0.00    -0.206 F 
ATOM     79  C   UNL A   1      34.813  33.841  29.559  1.00  0.00     0.060 A 
BRANCH  79  80
ATOM     80  S   UNL A   1      33.420  34.524  28.637  1.00  0.00     0.124 S 
ATOM     81  O   UNL A   1      32.550  34.975  29.718  1.00  0.00    -0.237 OA
ATOM     82  O   UNL A   1      34.052  35.578  27.851  1.00  0.00    -0.237 OA
ATOM     83  O   UNL A   1      32.927  33.384  27.870  1.00  0.00    -0.744 OA
ENDBRANCH  79  80
ENDBRANCH  58  72
BRANCH  59  84
ATOM     84  C   UNL A   1      45.043  29.102  35.637  1.00  0.00     0.058 A 
ATOM     85  C   UNL A   1      44.995  27.926  36.400  1.00  0.00     0.135 A 
ATOM     86  C   UNL A   1      46.280  29.755  35.521  1.00  0.00     0.135 A 
ATOM     87  F   UNL A   1      43.835  27.269  36.546  1.00  0.00    -0.206 F 
ATOM     88  C   UNL A   1      46.126  27.423  37.036  1.00  0.00     0.059 A 
ATOM     89  C   UNL A   1      47.430  29.258  36.126  1.00  0.00     0.059 A 
ATOM     90  F   UNL A   1      46.384  30.875  34.789  1.00  0.00    -0.206 F 
ATOM     91  C   UNL A   1      47.341  28.095  36.890  1.00  0.00     0.060 A 
BRANCH  91  92
ATOM     92  S   UNL A   1      48.814  27.404  37.673  1.00  0.00     0.124 S 
ATOM     93  O   UNL A   1      49.659  28.586  37.805  1.00  0.00    -0.237 OA
ATOM     94  O   UNL A   1      48.275  26.862  38.917  1.00  0.00    -0.237 OA
ATOM     95  O   UNL A   1      49.269  26.406  36.710  1.00  0.00    -0.744 OA
ENDBRANCH  91  92
ENDBRANCH  59  84
BRANCH  71  96
ATOM     96  C   UNL A   1      39.814  33.286  37.621  1.00  0.00     0.058 A 
ATOM     97  C   UNL A   1      40.498  34.429  38.061  1.00  0.00     0.135 A 
ATOM     98  C   UNL A   1      38.739  32.822  38.397  1.00  0.00     0.135 A 
ATOM     99  F   UNL A   1      41.538  34.905  37.361  1.00  0.00    -0.206 F 
ATOM    100  C   UNL A   1      40.131  35.086  39.231  1.00  0.00     0.059 A 
ATOM    101  C   UNL A   1      38.338  33.479  39.556  1.00  0.00     0.059 A 
ATOM    102  F   UNL A   1      38.047  31.737  38.014  1.00  0.00    -0.206 F 
ATOM    103  C   UNL A   1      39.045  34.607  39.968  1.00  0.00     0.060 A 
BRANCH 103 104
ATOM    104  S   UNL A   1      38.542  35.506  41.451  1.00  0.00     0.124 S 
ATOM    105  O   UNL A   1      38.389  36.862  40.936  1.00  0.00    -0.237 OA
ATOM    106  O   UNL A   1      37.304  34.826  41.823  1.00  0.00    -0.237 OA
ATOM    107  O   UNL A   1      39.660  35.304  42.367  1.00  0.00    -0.744 OA
ENDBRANCH 103 104
ENDBRANCH  71  96
ENDBRANCH  45  46
ENDBRANCH  37  40
ENDBRANCH  35  36
ENDBRANCH  34  35
ENDBRANCH  33  34
ENDBRANCH  31  33
ENDBRANCH   1  29
TORSDOF 23
ENDMDL
MODEL 3
REMARK VINA RESULT:      -9.4      1.564      2.951
REMARK SMILES CCCCCCNC(=O)Oc1cccc(-c2ccc([C@@H](C)C(=O)NCCCNC(=O)c3ccc(-c4c5nc(c(-c6c(F)cc(S(=O)(=O)[O-])cc6F)c6ccc([nH]6)c(-c6c(F)cc(S(=O)(=O)[O-])cc6F)c6nc(c(-c7c(F)cc(S(=O)(=O)[O-])cc7F)c7ccc4[nH]7)C=C6)C=C5)cc3)cc2[N+](=O)[O-])c1
REMARK SMILES IDX 20 1 21 2 19 3 16 4 17 5 98 6 18 7 97 8 15 9 11 10 12 11
REMARK SMILES IDX 102 12 13 13 14 14 10 15 8 16 7 17 9 19 6 20 5 21 4 22 3 23
REMARK SMILES IDX 2 24 1 25 99 26 100 27 101 28 22 29 23 30 24 31 25 33 26 34
REMARK SMILES IDX 27 35 28 36 29 37 30 39 31 40 32 41 96 42 33 43 95 44 34 45
REMARK SMILES IDX 35 46 36 47 89 48 37 49 94 50 88 51 90 52 38 53 93 54 87 55
REMARK SMILES IDX 86 56 39 58 73 59 52 60 72 61 53 62 56 63 71 64 91 65 54 66
REMARK SMILES IDX 55 67 70 69 92 70 57 71 40 72 41 73 50 74 42 75 43 76 49 77
REMARK SMILES IDX 51 78 44 79 45 80 46 81 47 82 48 83 74 84 75 85 84 86 76 87
REMARK SMILES IDX 77 88 83 89 85 90 78 91 79 92 80 93 81 94 82 95 58 96 59 97
REMARK SMILES IDX 68 98 60 99 61 100 67 101 69 102 62 103 63 104 64 105 65 106
REMARK SMILES IDX 66 107
REMARK H PARENT 7 18 24 32 28 38 90 57 56 68
REMARK Flexibility Score: inf
ROOT
ATOM      1  C   UNL A   1      47.998  25.720  27.948  1.00  0.00     0.105 C 
ATOM      2  C   UNL A   1      48.582  25.665  29.359  1.00  0.00     0.023 C 
ENDROOT
BRANCH   1   3
ATOM      3  C   UNL A   1      46.789  24.825  27.720  1.00  0.00    -0.029 A 
ATOM      4  C   UNL A   1      44.419  23.241  27.300  1.00  0.00     0.060 A 
ATOM      5  C   UNL A   1      45.353  23.487  26.277  1.00  0.00     0.016 A 
ATOM      6  C   UNL A   1      44.745  23.768  28.563  1.00  0.00     0.277 A 
ATOM      7  C   UNL A   1      46.530  24.211  26.495  1.00  0.00     0.005 A 
ATOM      8  C   UNL A   1      45.885  24.582  28.764  1.00  0.00     0.090 A 
BRANCH   4   9
ATOM      9  C   UNL A   1      43.196  22.478  26.960  1.00  0.00    -0.008 A 
ATOM     10  C   UNL A   1      40.782  22.262  26.791  1.00  0.00     0.133 A 
ATOM     11  C   UNL A   1      40.896  20.983  26.256  1.00  0.00     0.047 A 
ATOM     12  C   UNL A   1      41.910  23.017  27.124  1.00  0.00     0.056 A 
ATOM     13  C   UNL A   1      42.159  20.443  26.056  1.00  0.00     0.004 A 
ATOM     14  C   UNL A   1      43.292  21.176  26.420  1.00  0.00     0.009 A 
BRANCH  10  15
ATOM     15  O   UNL A   1      39.485  22.678  27.133  1.00  0.00    -0.410 OA
BRANCH  15  16
ATOM     16  C   UNL A   1      38.898  23.761  26.502  1.00  0.00     0.412 C 
ATOM     17  N   UNL A   1      37.921  23.388  25.619  1.00  0.00    -0.321 N 
ATOM     18  H   UNL A   1      37.522  24.101  25.070  1.00  0.00     0.167 HD
ATOM     19  O   UNL A   1      39.173  24.940  26.686  1.00  0.00    -0.224 OA
BRANCH  17  20
ATOM     20  C   UNL A   1      37.417  22.044  25.415  1.00  0.00     0.119 C 
BRANCH  20  21
ATOM     21  C   UNL A   1      36.765  21.890  24.039  1.00  0.00     0.021 C 
BRANCH  21  22
ATOM     22  C   UNL A   1      36.368  23.210  23.366  1.00  0.00     0.002 C 
BRANCH  22  23
ATOM     23  C   UNL A   1      34.869  23.527  23.380  1.00  0.00    -0.000 C 
BRANCH  23  24
ATOM     24  C   UNL A   1      34.019  22.621  24.274  1.00  0.00    -0.003 C 
ATOM     25  C   UNL A   1      33.048  21.749  23.492  1.00  0.00     0.004 C 
ENDBRANCH  23  24
ENDBRANCH  22  23
ENDBRANCH  21  22
ENDBRANCH  20  21
ENDBRANCH  17  20
ENDBRANCH  15  16
ENDBRANCH  10  15
ENDBRANCH   4   9
BRANCH   6  26
ATOM     26  N   UNL A   1      43.977  23.427  29.761  1.00  0.00     0.063 N 
ATOM     27  O   UNL A   1      44.387  22.478  30.446  1.00  0.00    -0.258 OA
ATOM     28  O   UNL A   1      42.926  24.047  29.971  1.00  0.00    -0.258 OA
ENDBRANCH   6  26
ENDBRANCH   1   3
BRANCH   1  29
ATOM     29  C   UNL A   1      49.041  25.677  26.821  1.00  0.00     0.227 C 
ATOM     30  O   UNL A   1      49.951  24.839  26.864  1.00  0.00    -0.274 OA
ATOM     31  N   UNL A   1      49.037  26.497  25.736  1.00  0.00    -0.356 N 
ATOM     32  H   UNL A   1      49.739  26.288  25.079  1.00  0.00     0.163 HD
BRANCH  31  33
ATOM     33  C   UNL A   1      48.199  27.618  25.360  1.00  0.00     0.117 C 
BRANCH  33  34
ATOM     34  C   UNL A   1      46.936  27.174  24.627  1.00  0.00     0.042 C 
BRANCH  34  35
ATOM     35  C   UNL A   1      45.650  27.726  25.224  1.00  0.00     0.118 C 
BRANCH  35  36
ATOM     36  N   UNL A   1      44.476  26.989  24.773  1.00  0.00    -0.352 N 
ATOM     37  C   UNL A   1      43.320  26.664  25.440  1.00  0.00     0.251 C 
ATOM     38  H   UNL A   1      44.519  26.674  23.842  1.00  0.00     0.163 HD
ATOM     39  O   UNL A   1      42.560  25.836  24.942  1.00  0.00    -0.269 OA
BRANCH  37  40
ATOM     40  C   UNL A   1      42.988  27.284  26.743  1.00  0.00     0.039 A 
ATOM     41  C   UNL A   1      43.504  28.549  27.043  1.00  0.00     0.014 A 
ATOM     42  C   UNL A   1      42.214  26.610  27.692  1.00  0.00     0.014 A 
ATOM     43  C   UNL A   1      43.194  29.160  28.263  1.00  0.00     0.010 A 
ATOM     44  C   UNL A   1      41.836  27.253  28.867  1.00  0.00     0.010 A 
ATOM     45  C   UNL A   1      42.329  28.531  29.171  1.00  0.00    -0.014 A 
BRANCH  45  46
ATOM     46  C   UNL A   1      41.939  29.171  30.454  1.00  0.00     0.031 A 
ATOM     47  C   UNL A   1      40.704  30.030  30.518  1.00  0.00     0.074 A 
ATOM     48  C   UNL A   1      42.735  29.048  31.534  1.00  0.00     0.049 A 
ATOM     49  N   UNL A   1      40.265  30.776  31.499  1.00  0.00    -0.248 NA
ATOM     50  C   UNL A   1      39.869  30.081  29.306  1.00  0.00     0.031 C 
ATOM     51  C   UNL A   1      43.978  28.274  31.586  1.00  0.00     0.029 A 
ATOM     52  N   UNL A   1      42.631  29.589  32.792  1.00  0.00    -0.354 N 
ATOM     53  C   UNL A   1      39.120  31.400  31.017  1.00  0.00     0.074 A 
ATOM     54  C   UNL A   1      38.958  30.984  29.641  1.00  0.00     0.031 C 
ATOM     55  C   UNL A   1      44.513  28.381  32.813  1.00  0.00     0.029 A 
ATOM     56  C   UNL A   1      43.678  29.265  33.622  1.00  0.00     0.049 A 
ATOM     57  H   UNL A   1      41.877  30.156  33.073  1.00  0.00     0.167 HD
ATOM     58  C   UNL A   1      38.269  32.230  31.668  1.00  0.00     0.037 A 
ATOM     59  C   UNL A   1      43.947  29.650  34.885  1.00  0.00     0.037 A 
ATOM     60  C   UNL A   1      38.421  32.614  33.047  1.00  0.00     0.049 A 
ATOM     61  C   UNL A   1      42.992  30.576  35.587  1.00  0.00     0.074 A 
ATOM     62  C   UNL A   1      37.585  33.403  33.817  1.00  0.00     0.029 A 
ATOM     63  N   UNL A   1      39.480  32.240  33.861  1.00  0.00    -0.354 N 
ATOM     64  N   UNL A   1      41.883  31.114  35.134  1.00  0.00    -0.248 NA
ATOM     65  C   UNL A   1      43.317  30.948  36.971  1.00  0.00     0.031 C 
ATOM     66  C   UNL A   1      38.157  33.539  35.085  1.00  0.00     0.029 A 
ATOM     67  C   UNL A   1      39.327  32.794  35.121  1.00  0.00     0.049 A 
ATOM     68  H   UNL A   1      40.230  31.664  33.585  1.00  0.00     0.167 HD
ATOM     69  C   UNL A   1      41.366  31.862  36.185  1.00  0.00     0.074 A 
ATOM     70  C   UNL A   1      42.277  31.703  37.300  1.00  0.00     0.031 C 
ATOM     71  C   UNL A   1      40.236  32.610  36.225  1.00  0.00     0.037 A 
BRANCH  58  72
ATOM     72  C   UNL A   1      37.096  32.773  30.899  1.00  0.00     0.058 A 
ATOM     73  C   UNL A   1      35.816  32.206  31.008  1.00  0.00     0.135 A 
ATOM     74  C   UNL A   1      37.243  33.896  30.067  1.00  0.00     0.135 A 
ATOM     75  F   UNL A   1      35.619  31.123  31.778  1.00  0.00    -0.206 F 
ATOM     76  C   UNL A   1      34.732  32.710  30.296  1.00  0.00     0.059 A 
ATOM     77  C   UNL A   1      36.166  34.435  29.368  1.00  0.00     0.059 A 
ATOM     78  F   UNL A   1      38.444  34.480  29.926  1.00  0.00    -0.206 F 
ATOM     79  C   UNL A   1      34.918  33.825  29.477  1.00  0.00     0.060 A 
BRANCH  79  80
ATOM     80  S   UNL A   1      33.500  34.467  28.562  1.00  0.00     0.124 S 
ATOM     81  O   UNL A   1      32.581  34.796  29.647  1.00  0.00    -0.237 OA
ATOM     82  O   UNL A   1      34.075  35.604  27.853  1.00  0.00    -0.237 OA
ATOM     83  O   UNL A   1      33.100  33.343  27.721  1.00  0.00    -0.744 OA
ENDBRANCH  79  80
ENDBRANCH  58  72
BRANCH  59  84
ATOM     84  C   UNL A   1      45.168  29.147  35.571  1.00  0.00     0.058 A 
ATOM     85  C   UNL A   1      45.139  27.954  36.309  1.00  0.00     0.135 A 
ATOM     86  C   UNL A   1      46.389  29.831  35.485  1.00  0.00     0.135 A 
ATOM     87  F   UNL A   1      43.994  27.266  36.427  1.00  0.00    -0.206 F 
ATOM     88  C   UNL A   1      46.274  27.466  36.950  1.00  0.00     0.059 A 
ATOM     89  C   UNL A   1      47.544  29.351  36.095  1.00  0.00     0.059 A 
ATOM     90  F   UNL A   1      46.475  30.969  34.777  1.00  0.00    -0.206 F 
ATOM     91  C   UNL A   1      47.473  28.170  36.834  1.00  0.00     0.060 A 
BRANCH  91  92
ATOM     92  S   UNL A   1      48.953  27.500  37.622  1.00  0.00     0.124 S 
ATOM     93  O   UNL A   1      49.804  27.230  36.469  1.00  0.00    -0.237 OA
ATOM     94  O   UNL A   1      49.370  28.604  38.481  1.00  0.00    -0.237 OA
ATOM     95  O   UNL A   1      48.452  26.323  38.329  1.00  0.00    -0.744 OA
ENDBRANCH  91  92
ENDBRANCH  59  84
BRANCH  71  96
ATOM     96  C   UNL A   1      39.889  33.283  37.524  1.00  0.00     0.058 A 
ATOM     97  C   UNL A   1      40.522  34.465  37.936  1.00  0.00     0.135 A 
ATOM     98  C   UNL A   1      38.852  32.778  38.325  1.00  0.00     0.135 A 
ATOM     99  F   UNL A   1      41.525  34.982  37.210  1.00  0.00    -0.206 F 
ATOM    100  C   UNL A   1      40.143  35.121  39.103  1.00  0.00     0.059 A 
ATOM    101  C   UNL A   1      38.439  33.431  39.482  1.00  0.00     0.059 A 
ATOM    102  F   UNL A   1      38.209  31.654  37.971  1.00  0.00    -0.206 F 
ATOM    103  C   UNL A   1      39.096  34.599  39.865  1.00  0.00     0.060 A 
BRANCH 103 104
ATOM    104  S   UNL A   1      38.574  35.494  41.344  1.00  0.00     0.124 S 
ATOM    105  O   UNL A   1      37.277  34.885  41.615  1.00  0.00    -0.237 OA
ATOM    106  O   UNL A   1      39.635  35.173  42.295  1.00  0.00    -0.237 OA
ATOM    107  O   UNL A   1      38.536  36.885  40.905  1.00  0.00    -0.744 OA
ENDBRANCH 103 104
ENDBRANCH  71  96
ENDBRANCH  45  46
ENDBRANCH  37  40
ENDBRANCH  35  36
ENDBRANCH  34  35
ENDBRANCH  33  34
ENDBRANCH  31  33
ENDBRANCH   1  29
TORSDOF 23
ENDMDL
