MODEL 1
REMARK VINA RESULT:     -12.5      0.000      0.000
REMARK SMILES CCOc1ccc(-n2ncc(C(=O)NCCCNC(=O)c3ccc(-c4c5nc(c(-c6c(F)cc(S(=O)(=O)[O-])cc6F)c6ccc([nH]6)c(-c6c(F)cc(S(=O)(=O)[O-])cc6F)c6nc(c(-c7c(F)cc(S(=O)(=O)[O-])cc7F)c7ccc4[nH]7)C=C6)C=C5)cc3)c2C)nn1
REMARK SMILES IDX 16 1 15 2 14 3 12 4 13 5 11 7 8 8 9 9 87 10 10 11 88 12 7 13
REMARK SMILES IDX 4 14 5 15 90 16 6 17 89 18 3 19 2 20 1 21 17 22 18 23 19 24
REMARK SMILES IDX 20 26 21 27 22 28 86 29 23 30 85 31 24 32 25 33 26 34 79 35
REMARK SMILES IDX 27 36 84 37 78 38 80 39 28 40 83 41 77 42 76 43 29 45 63 46
REMARK SMILES IDX 42 47 62 48 43 49 46 50 61 51 81 52 44 53 45 54 60 56 82 57
REMARK SMILES IDX 47 58 30 59 31 60 40 61 32 62 33 63 39 64 41 65 34 66 35 67
REMARK SMILES IDX 36 68 37 69 38 70 64 71 65 72 74 73 66 74 67 75 73 76 75 77
REMARK SMILES IDX 68 78 69 79 70 80 71 81 72 82 48 83 49 84 58 85 50 86 51 87
REMARK SMILES IDX 57 88 59 89 52 90 53 91 54 92 55 93 56 94
REMARK H PARENT 14 6 18 25 80 44 46 55
REMARK Flexibility Score: inf
ROOT
ATOM      1  C   UNL A   1      36.516  23.337  24.426  1.00  0.00     0.042 C 
ENDROOT
BRANCH   1   2
ATOM      2  C   UNL A   1      35.236  22.505  24.284  1.00  0.00     0.118 C 
BRANCH   2   3
ATOM      3  N   UNL A   1      34.496  22.428  25.531  1.00  0.00    -0.352 N 
ATOM      4  C   UNL A   1      33.231  22.817  25.892  1.00  0.00     0.254 C 
ATOM      5  O   UNL A   1      32.880  22.538  27.038  1.00  0.00    -0.269 OA
ATOM      6  H   UNL A   1      35.005  22.014  26.265  1.00  0.00     0.163 HD
BRANCH   4   7
ATOM      7  C   UNL A   1      32.326  23.479  24.957  1.00  0.00     0.081 A 
ATOM      8  N   UNL A   1      31.118  25.063  23.935  1.00  0.00    -0.217 N 
ATOM      9  N   UNL A   1      30.687  23.879  23.415  1.00  0.00    -0.174 NA
ATOM     10  C   UNL A   1      32.122  24.861  24.871  1.00  0.00     0.056 A 
ATOM     11  C   UNL A   1      31.487  22.967  23.954  1.00  0.00     0.149 A 
ATOM     12  C   UNL A   1      32.762  25.943  25.679  1.00  0.00     0.068 C 
BRANCH   8  13
ATOM     13  C   UNL A   1      30.507  26.266  23.477  1.00  0.00     0.176 A 
ATOM     14  C   UNL A   1      29.266  28.483  22.545  1.00  0.00     0.233 A 
ATOM     15  C   UNL A   1      28.588  27.699  23.453  1.00  0.00     0.074 A 
ATOM     16  N   UNL A   1      30.510  28.194  22.115  1.00  0.00    -0.110 NA
ATOM     17  C   UNL A   1      29.223  26.563  23.930  1.00  0.00     0.057 A 
ATOM     18  N   UNL A   1      31.147  27.079  22.604  1.00  0.00    -0.127 NA
BRANCH  14  19
ATOM     19  O   UNL A   1      28.616  29.553  21.985  1.00  0.00    -0.477 OA
BRANCH  19  20
ATOM     20  C   UNL A   1      27.490  29.928  22.781  1.00  0.00     0.228 C 
ATOM     21  C   UNL A   1      27.709  31.305  23.391  1.00  0.00     0.049 C 
ENDBRANCH  19  20
ENDBRANCH  14  19
ENDBRANCH   8  13
ENDBRANCH   4   7
ENDBRANCH   2   3
ENDBRANCH   1   2
BRANCH   1  22
ATOM     22  C   UNL A   1      36.973  23.428  25.878  1.00  0.00     0.118 C 
BRANCH  22  23
ATOM     23  N   UNL A   1      37.935  22.374  26.212  1.00  0.00    -0.352 N 
ATOM     24  C   UNL A   1      39.264  22.492  26.581  1.00  0.00     0.251 C 
ATOM     25  H   UNL A   1      37.588  21.454  26.168  1.00  0.00     0.163 HD
ATOM     26  O   UNL A   1      40.014  21.538  26.518  1.00  0.00    -0.269 OA
BRANCH  24  27
ATOM     27  C   UNL A   1      39.744  23.803  27.049  1.00  0.00     0.039 A 
ATOM     28  C   UNL A   1      38.960  24.953  26.905  1.00  0.00     0.014 A 
ATOM     29  C   UNL A   1      40.977  23.848  27.688  1.00  0.00     0.014 A 
ATOM     30  C   UNL A   1      39.389  26.139  27.500  1.00  0.00     0.010 A 
ATOM     31  C   UNL A   1      41.324  24.971  28.393  1.00  0.00     0.010 A 
ATOM     32  C   UNL A   1      40.564  26.133  28.260  1.00  0.00    -0.014 A 
BRANCH  32  33
ATOM     33  C   UNL A   1      40.979  27.303  29.028  1.00  0.00     0.031 A 
ATOM     34  C   UNL A   1      42.075  28.112  28.416  1.00  0.00     0.074 A 
ATOM     35  C   UNL A   1      40.201  27.787  30.021  1.00  0.00     0.049 A 
ATOM     36  N   UNL A   1      43.247  28.381  28.895  1.00  0.00    -0.248 NA
ATOM     37  C   UNL A   1      41.884  28.589  27.035  1.00  0.00     0.031 C 
ATOM     38  C   UNL A   1      38.893  27.283  30.464  1.00  0.00     0.029 A 
ATOM     39  N   UNL A   1      40.329  28.934  30.737  1.00  0.00    -0.354 N 
ATOM     40  C   UNL A   1      43.845  29.252  27.982  1.00  0.00     0.074 A 
ATOM     41  C   UNL A   1      43.060  29.165  26.779  1.00  0.00     0.031 C 
ATOM     42  C   UNL A   1      38.247  28.249  31.151  1.00  0.00     0.029 A 
ATOM     43  C   UNL A   1      39.156  29.362  31.349  1.00  0.00     0.049 A 
ATOM     44  H   UNL A   1      41.181  29.422  30.815  1.00  0.00     0.167 HD
ATOM     45  C   UNL A   1      44.782  30.167  28.366  1.00  0.00     0.037 A 
ATOM     46  C   UNL A   1      38.934  30.567  31.928  1.00  0.00     0.037 A 
ATOM     47  C   UNL A   1      45.294  29.861  29.679  1.00  0.00     0.049 A 
ATOM     48  C   UNL A   1      40.269  31.170  32.193  1.00  0.00     0.074 A 
ATOM     49  C   UNL A   1      45.918  28.770  30.251  1.00  0.00     0.029 A 
ATOM     50  N   UNL A   1      44.850  30.627  30.731  1.00  0.00    -0.354 N 
ATOM     51  N   UNL A   1      41.138  30.676  33.033  1.00  0.00    -0.248 NA
ATOM     52  C   UNL A   1      40.820  32.062  31.183  1.00  0.00     0.031 C 
ATOM     53  C   UNL A   1      45.370  28.682  31.565  1.00  0.00     0.029 A 
ATOM     54  C   UNL A   1      44.506  29.765  31.741  1.00  0.00     0.049 A 
ATOM     55  H   UNL A   1      44.789  31.610  30.755  1.00  0.00     0.167 HD
ATOM     56  C   UNL A   1      42.369  30.845  32.415  1.00  0.00     0.074 A 
ATOM     57  C   UNL A   1      42.119  31.787  31.326  1.00  0.00     0.031 C 
ATOM     58  C   UNL A   1      43.408  29.989  32.656  1.00  0.00     0.037 A 
BRANCH  45  59
ATOM     59  C   UNL A   1      44.969  31.538  27.740  1.00  0.00     0.058 A 
ATOM     60  C   UNL A   1      46.200  31.848  27.121  1.00  0.00     0.135 A 
ATOM     61  C   UNL A   1      44.119  32.642  27.971  1.00  0.00     0.135 A 
ATOM     62  F   UNL A   1      47.090  30.881  26.843  1.00  0.00    -0.206 F 
ATOM     63  C   UNL A   1      46.594  33.159  26.844  1.00  0.00     0.059 A 
ATOM     64  C   UNL A   1      44.467  33.950  27.650  1.00  0.00     0.059 A 
ATOM     65  F   UNL A   1      42.951  32.529  28.611  1.00  0.00    -0.206 F 
ATOM     66  C   UNL A   1      45.726  34.206  27.134  1.00  0.00     0.060 A 
BRANCH  66  67
ATOM     67  S   UNL A   1      46.275  35.905  26.904  1.00  0.00     0.124 S 
ATOM     68  O   UNL A   1      47.065  36.118  28.111  1.00  0.00    -0.237 OA
ATOM     69  O   UNL A   1      47.024  35.816  25.655  1.00  0.00    -0.237 OA
ATOM     70  O   UNL A   1      45.024  36.653  26.826  1.00  0.00    -0.744 OA
ENDBRANCH  66  67
ENDBRANCH  45  59
BRANCH  46  71
ATOM     71  C   UNL A   1      37.670  31.349  31.959  1.00  0.00     0.058 A 
ATOM     72  C   UNL A   1      37.065  31.708  33.176  1.00  0.00     0.135 A 
ATOM     73  C   UNL A   1      37.165  31.988  30.805  1.00  0.00     0.135 A 
ATOM     74  F   UNL A   1      37.494  31.165  34.325  1.00  0.00    -0.206 F 
ATOM     75  C   UNL A   1      36.056  32.675  33.252  1.00  0.00     0.059 A 
ATOM     76  C   UNL A   1      36.152  32.945  30.855  1.00  0.00     0.059 A 
ATOM     77  F   UNL A   1      37.707  31.766  29.598  1.00  0.00    -0.206 F 
ATOM     78  C   UNL A   1      35.620  33.303  32.087  1.00  0.00     0.060 A 
BRANCH  78  79
ATOM     79  S   UNL A   1      34.445  34.674  32.202  1.00  0.00     0.124 S 
ATOM     80  O   UNL A   1      34.218  34.996  30.797  1.00  0.00    -0.237 OA
ATOM     81  O   UNL A   1      33.324  34.061  32.905  1.00  0.00    -0.237 OA
ATOM     82  O   UNL A   1      35.176  35.684  32.963  1.00  0.00    -0.744 OA
ENDBRANCH  78  79
ENDBRANCH  46  71
BRANCH  58  83
ATOM     83  C   UNL A   1      43.302  29.038  33.822  1.00  0.00     0.058 A 
ATOM     84  C   UNL A   1      43.627  29.364  35.150  1.00  0.00     0.135 A 
ATOM     85  C   UNL A   1      42.682  27.798  33.605  1.00  0.00     0.135 A 
ATOM     86  F   UNL A   1      44.121  30.568  35.464  1.00  0.00    -0.206 F 
ATOM     87  C   UNL A   1      43.383  28.485  36.208  1.00  0.00     0.059 A 
ATOM     88  C   UNL A   1      42.400  26.919  34.647  1.00  0.00     0.059 A 
ATOM     89  F   UNL A   1      42.287  27.451  32.369  1.00  0.00    -0.206 F 
ATOM     90  C   UNL A   1      42.766  27.263  35.946  1.00  0.00     0.060 A 
BRANCH  90  91
ATOM     91  S   UNL A   1      42.375  26.164  37.324  1.00  0.00     0.124 S 
ATOM     92  O   UNL A   1      42.685  24.852  36.767  1.00  0.00    -0.237 OA
ATOM     93  O   UNL A   1      43.274  26.636  38.373  1.00  0.00    -0.237 OA
ATOM     94  O   UNL A   1      40.957  26.418  37.572  1.00  0.00    -0.744 OA
ENDBRANCH  90  91
ENDBRANCH  58  83
ENDBRANCH  32  33
ENDBRANCH  24  27
ENDBRANCH  22  23
ENDBRANCH   1  22
TORSDOF 16
ENDMDL
MODEL 2
REMARK VINA RESULT:     -12.2      3.001      9.513
REMARK SMILES CCOc1ccc(-n2ncc(C(=O)NCCCNC(=O)c3ccc(-c4c5nc(c(-c6c(F)cc(S(=O)(=O)[O-])cc6F)c6ccc([nH]6)c(-c6c(F)cc(S(=O)(=O)[O-])cc6F)c6nc(c(-c7c(F)cc(S(=O)(=O)[O-])cc7F)c7ccc4[nH]7)C=C6)C=C5)cc3)c2C)nn1
REMARK SMILES IDX 16 1 15 2 14 3 12 4 13 5 11 7 8 8 9 9 87 10 10 11 88 12 7 13
REMARK SMILES IDX 4 14 5 15 90 16 6 17 89 18 3 19 2 20 1 21 17 22 18 23 19 24
REMARK SMILES IDX 20 26 21 27 22 28 86 29 23 30 85 31 24 32 25 33 26 34 79 35
REMARK SMILES IDX 27 36 84 37 78 38 80 39 28 40 83 41 77 42 76 43 29 45 63 46
REMARK SMILES IDX 42 47 62 48 43 49 46 50 61 51 81 52 44 53 45 54 60 56 82 57
REMARK SMILES IDX 47 58 30 59 31 60 40 61 32 62 33 63 39 64 41 65 34 66 35 67
REMARK SMILES IDX 36 68 37 69 38 70 64 71 65 72 74 73 66 74 67 75 73 76 75 77
REMARK SMILES IDX 68 78 69 79 70 80 71 81 72 82 48 83 49 84 58 85 50 86 51 87
REMARK SMILES IDX 57 88 59 89 52 90 53 91 54 92 55 93 56 94
REMARK H PARENT 14 6 18 25 80 44 46 55
REMARK Flexibility Score: inf
ROOT
ATOM      1  C   UNL A   1      33.558  28.636  25.150  1.00  0.00     0.042 C 
ENDROOT
BRANCH   1   2
ATOM      2  C   UNL A   1      32.098  28.192  25.297  1.00  0.00     0.118 C 
BRANCH   2   3
ATOM      3  N   UNL A   1      31.371  28.294  24.044  1.00  0.00    -0.352 N 
ATOM      4  C   UNL A   1      31.307  27.492  22.933  1.00  0.00     0.254 C 
ATOM      5  O   UNL A   1      30.521  27.840  22.052  1.00  0.00    -0.269 OA
ATOM      6  H   UNL A   1      30.811  29.101  23.980  1.00  0.00     0.163 HD
BRANCH   4   7
ATOM      7  C   UNL A   1      32.087  26.263  22.818  1.00  0.00     0.081 A 
ATOM      8  N   UNL A   1      32.849  24.191  23.193  1.00  0.00    -0.217 N 
ATOM      9  N   UNL A   1      33.743  24.763  22.338  1.00  0.00    -0.174 NA
ATOM     10  C   UNL A   1      31.820  25.070  23.502  1.00  0.00     0.056 A 
ATOM     11  C   UNL A   1      33.217  25.947  22.048  1.00  0.00     0.149 A 
ATOM     12  C   UNL A   1      30.716  24.782  24.465  1.00  0.00     0.068 C 
BRANCH   8  13
ATOM     13  C   UNL A   1      33.087  22.855  23.628  1.00  0.00     0.176 A 
ATOM     14  C   UNL A   1      33.431  20.321  24.513  1.00  0.00     0.233 A 
ATOM     15  C   UNL A   1      32.452  20.547  23.569  1.00  0.00     0.074 A 
ATOM     16  N   UNL A   1      34.216  21.302  25.000  1.00  0.00    -0.110 NA
ATOM     17  C   UNL A   1      32.275  21.844  23.116  1.00  0.00     0.057 A 
ATOM     18  N   UNL A   1      34.054  22.584  24.535  1.00  0.00    -0.127 NA
BRANCH  14  19
ATOM     19  O   UNL A   1      33.551  19.064  25.047  1.00  0.00    -0.477 OA
BRANCH  19  20
ATOM     20  C   UNL A   1      32.651  18.158  24.407  1.00  0.00     0.228 C 
ATOM     21  C   UNL A   1      32.457  16.912  25.260  1.00  0.00     0.049 C 
ENDBRANCH  19  20
ENDBRANCH  14  19
ENDBRANCH   8  13
ENDBRANCH   4   7
ENDBRANCH   2   3
ENDBRANCH   1   2
BRANCH   1  22
ATOM     22  C   UNL A   1      34.167  29.030  26.490  1.00  0.00     0.118 C 
BRANCH  22  23
ATOM     23  N   UNL A   1      34.080  30.475  26.723  1.00  0.00    -0.352 N 
ATOM     24  C   UNL A   1      34.815  31.263  27.592  1.00  0.00     0.251 C 
ATOM     25  H   UNL A   1      33.406  30.950  26.188  1.00  0.00     0.163 HD
ATOM     26  O   UNL A   1      34.424  32.370  27.909  1.00  0.00    -0.269 OA
BRANCH  24  27
ATOM     27  C   UNL A   1      36.078  30.725  28.124  1.00  0.00     0.039 A 
ATOM     28  C   UNL A   1      36.410  29.374  27.969  1.00  0.00     0.014 A 
ATOM     29  C   UNL A   1      36.952  31.615  28.736  1.00  0.00     0.014 A 
ATOM     30  C   UNL A   1      37.680  28.945  28.352  1.00  0.00     0.010 A 
ATOM     31  C   UNL A   1      38.244  31.226  28.974  1.00  0.00     0.010 A 
ATOM     32  C   UNL A   1      38.598  29.885  28.835  1.00  0.00    -0.014 A 
BRANCH  32  33
ATOM     33  C   UNL A   1      39.986  29.521  29.106  1.00  0.00     0.031 A 
ATOM     34  C   UNL A   1      40.342  29.393  30.552  1.00  0.00     0.074 A 
ATOM     35  C   UNL A   1      40.769  29.014  28.129  1.00  0.00     0.049 A 
ATOM     36  N   UNL A   1      41.224  30.053  31.230  1.00  0.00    -0.248 NA
ATOM     37  C   UNL A   1      39.524  28.489  31.380  1.00  0.00     0.031 C 
ATOM     38  C   UNL A   1      40.399  28.737  26.734  1.00  0.00     0.029 A 
ATOM     39  N   UNL A   1      42.015  28.478  28.212  1.00  0.00    -0.354 N 
ATOM     40  C   UNL A   1      41.234  29.484  32.505  1.00  0.00     0.074 A 
ATOM     41  C   UNL A   1      40.036  28.693  32.595  1.00  0.00     0.031 C 
ATOM     42  C   UNL A   1      41.275  27.860  26.200  1.00  0.00     0.029 A 
ATOM     43  C   UNL A   1      42.356  27.654  27.145  1.00  0.00     0.049 A 
ATOM     44  H   UNL A   1      42.624  28.658  28.964  1.00  0.00     0.167 HD
ATOM     45  C   UNL A   1      42.349  29.500  33.293  1.00  0.00     0.037 A 
ATOM     46  C   UNL A   1      43.423  26.821  27.071  1.00  0.00     0.037 A 
ATOM     47  C   UNL A   1      43.315  30.449  32.801  1.00  0.00     0.049 A 
ATOM     48  C   UNL A   1      44.391  27.267  28.110  1.00  0.00     0.074 A 
ATOM     49  C   UNL A   1      43.304  31.806  32.543  1.00  0.00     0.029 A 
ATOM     50  N   UNL A   1      44.412  29.955  32.133  1.00  0.00    -0.354 N 
ATOM     51  N   UNL A   1      45.005  28.419  28.088  1.00  0.00    -0.248 NA
ATOM     52  C   UNL A   1      44.325  26.623  29.414  1.00  0.00     0.031 C 
ATOM     53  C   UNL A   1      44.067  31.959  31.348  1.00  0.00     0.029 A 
ATOM     54  C   UNL A   1      44.559  30.701  30.991  1.00  0.00     0.049 A 
ATOM     55  H   UNL A   1      44.983  29.206  32.419  1.00  0.00     0.167 HD
ATOM     56  C   UNL A   1      45.025  28.839  29.410  1.00  0.00     0.074 A 
ATOM     57  C   UNL A   1      44.680  27.652  30.189  1.00  0.00     0.031 C 
ATOM     58  C   UNL A   1      45.033  30.168  29.733  1.00  0.00     0.037 A 
BRANCH  45  59
ATOM     59  C   UNL A   1      42.736  28.409  34.275  1.00  0.00     0.058 A 
ATOM     60  C   UNL A   1      42.950  28.748  35.630  1.00  0.00     0.135 A 
ATOM     61  C   UNL A   1      43.184  27.123  33.901  1.00  0.00     0.135 A 
ATOM     62  F   UNL A   1      42.561  29.942  36.106  1.00  0.00    -0.206 F 
ATOM     63  C   UNL A   1      43.640  27.916  36.514  1.00  0.00     0.059 A 
ATOM     64  C   UNL A   1      43.823  26.253  34.781  1.00  0.00     0.059 A 
ATOM     65  F   UNL A   1      43.121  26.676  32.643  1.00  0.00    -0.206 F 
ATOM     66  C   UNL A   1      44.092  26.678  36.071  1.00  0.00     0.060 A 
BRANCH  66  67
ATOM     67  S   UNL A   1      45.095  25.656  37.162  1.00  0.00     0.124 S 
ATOM     68  O   UNL A   1      44.645  24.318  36.796  1.00  0.00    -0.237 OA
ATOM     69  O   UNL A   1      46.449  26.011  36.753  1.00  0.00    -0.237 OA
ATOM     70  O   UNL A   1      44.710  26.111  38.495  1.00  0.00    -0.744 OA
ENDBRANCH  66  67
ENDBRANCH  45  59
BRANCH  46  71
ATOM     71  C   UNL A   1      43.506  25.498  26.398  1.00  0.00     0.058 A 
ATOM     72  C   UNL A   1      44.417  25.268  25.353  1.00  0.00     0.135 A 
ATOM     73  C   UNL A   1      42.881  24.353  26.937  1.00  0.00     0.135 A 
ATOM     74  F   UNL A   1      45.072  26.296  24.794  1.00  0.00    -0.206 F 
ATOM     75  C   UNL A   1      44.727  23.979  24.902  1.00  0.00     0.059 A 
ATOM     76  C   UNL A   1      43.164  23.060  26.496  1.00  0.00     0.059 A 
ATOM     77  F   UNL A   1      42.039  24.448  27.978  1.00  0.00    -0.206 F 
ATOM     78  C   UNL A   1      44.109  22.880  25.494  1.00  0.00     0.060 A 
BRANCH  78  79
ATOM     79  S   UNL A   1      44.636  21.210  25.036  1.00  0.00     0.124 S 
ATOM     80  O   UNL A   1      45.981  21.153  25.600  1.00  0.00    -0.237 OA
ATOM     81  O   UNL A   1      43.633  20.380  25.693  1.00  0.00    -0.237 OA
ATOM     82  O   UNL A   1      44.571  21.222  23.577  1.00  0.00    -0.744 OA
ENDBRANCH  78  79
ENDBRANCH  46  71
BRANCH  58  83
ATOM     83  C   UNL A   1      45.320  31.172  28.645  1.00  0.00     0.058 A 
ATOM     84  C   UNL A   1      44.341  31.763  27.826  1.00  0.00     0.135 A 
ATOM     85  C   UNL A   1      46.623  31.684  28.547  1.00  0.00     0.135 A 
ATOM     86  F   UNL A   1      43.053  31.414  27.930  1.00  0.00    -0.206 F 
ATOM     87  C   UNL A   1      44.649  32.785  26.926  1.00  0.00     0.059 A 
ATOM     88  C   UNL A   1      46.947  32.723  27.680  1.00  0.00     0.059 A 
ATOM     89  F   UNL A   1      47.592  31.210  29.348  1.00  0.00    -0.206 F 
ATOM     90  C   UNL A   1      45.957  33.261  26.861  1.00  0.00     0.060 A 
BRANCH  90  91
ATOM     91  S   UNL A   1      46.336  34.639  25.758  1.00  0.00     0.124 S 
ATOM     92  O   UNL A   1      45.435  34.391  24.637  1.00  0.00    -0.237 OA
ATOM     93  O   UNL A   1      46.020  35.803  26.580  1.00  0.00    -0.237 OA
ATOM     94  O   UNL A   1      47.757  34.461  25.466  1.00  0.00    -0.744 OA
ENDBRANCH  90  91
ENDBRANCH  58  83
ENDBRANCH  32  33
ENDBRANCH  24  27
ENDBRANCH  22  23
ENDBRANCH   1  22
TORSDOF 16
ENDMDL
MODEL 3
REMARK VINA RESULT:     -11.6      3.337      5.799
REMARK SMILES CCOc1ccc(-n2ncc(C(=O)NCCCNC(=O)c3ccc(-c4c5nc(c(-c6c(F)cc(S(=O)(=O)[O-])cc6F)c6ccc([nH]6)c(-c6c(F)cc(S(=O)(=O)[O-])cc6F)c6nc(c(-c7c(F)cc(S(=O)(=O)[O-])cc7F)c7ccc4[nH]7)C=C6)C=C5)cc3)c2C)nn1
REMARK SMILES IDX 16 1 15 2 14 3 12 4 13 5 11 7 8 8 9 9 87 10 10 11 88 12 7 13
REMARK SMILES IDX 4 14 5 15 90 16 6 17 89 18 3 19 2 20 1 21 17 22 18 23 19 24
REMARK SMILES IDX 20 26 21 27 22 28 86 29 23 30 85 31 24 32 25 33 26 34 79 35
REMARK SMILES IDX 27 36 84 37 78 38 80 39 28 40 83 41 77 42 76 43 29 45 63 46
REMARK SMILES IDX 42 47 62 48 43 49 46 50 61 51 81 52 44 53 45 54 60 56 82 57
REMARK SMILES IDX 47 58 30 59 31 60 40 61 32 62 33 63 39 64 41 65 34 66 35 67
REMARK SMILES IDX 36 68 37 69 38 70 64 71 65 72 74 73 66 74 67 75 73 76 75 77
REMARK SMILES IDX 68 78 69 79 70 80 71 81 72 82 48 83 49 84 58 85 50 86 51 87
REMARK SMILES IDX 57 88 59 89 52 90 53 91 54 92 55 93 56 94
REMARK H PARENT 14 6 18 25 80 44 46 55
REMARK Flexibility Score: inf
ROOT
ATOM      1  C   UNL A   1      45.580  19.134  25.225  1.00  0.00     0.042 C 
ENDROOT
BRANCH   1   2
ATOM      2  C   UNL A   1      44.050  19.095  25.312  1.00  0.00     0.118 C 
BRANCH   2   3
ATOM      3  N   UNL A   1      43.591  18.456  26.532  1.00  0.00    -0.352 N 
ATOM      4  C   UNL A   1      42.628  18.782  27.453  1.00  0.00     0.254 C 
ATOM      5  O   UNL A   1      42.439  17.970  28.357  1.00  0.00    -0.269 OA
ATOM      6  H   UNL A   1      44.067  17.620  26.740  1.00  0.00     0.163 HD
BRANCH   4   7
ATOM      7  C   UNL A   1      41.830  20.000  27.341  1.00  0.00     0.081 A 
ATOM      8  N   UNL A   1      40.265  21.458  26.678  1.00  0.00    -0.217 N 
ATOM      9  N   UNL A   1      41.143  22.178  27.432  1.00  0.00    -0.174 NA
ATOM     10  C   UNL A   1      40.644  20.125  26.606  1.00  0.00     0.056 A 
ATOM     11  C   UNL A   1      41.999  21.277  27.899  1.00  0.00     0.149 A 
ATOM     12  C   UNL A   1      39.939  19.082  25.802  1.00  0.00     0.068 C 
BRANCH   8  13
ATOM     13  C   UNL A   1      39.154  22.137  26.099  1.00  0.00     0.176 A 
ATOM     14  C   UNL A   1      36.989  23.424  25.109  1.00  0.00     0.233 A 
ATOM     15  C   UNL A   1      37.800  24.109  25.988  1.00  0.00     0.074 A 
ATOM     16  N   UNL A   1      37.235  22.156  24.725  1.00  0.00    -0.110 NA
ATOM     17  C   UNL A   1      38.909  23.451  26.495  1.00  0.00     0.057 A 
ATOM     18  N   UNL A   1      38.345  21.510  25.213  1.00  0.00    -0.127 NA
BRANCH  14  19
ATOM     19  O   UNL A   1      35.834  24.024  24.677  1.00  0.00    -0.477 OA
BRANCH  19  20
ATOM     20  C   UNL A   1      35.002  24.367  25.786  1.00  0.00     0.228 C 
ATOM     21  C   UNL A   1      33.965  25.401  25.369  1.00  0.00     0.049 C 
ENDBRANCH  19  20
ENDBRANCH  14  19
ENDBRANCH   8  13
ENDBRANCH   4   7
ENDBRANCH   2   3
ENDBRANCH   1   2
BRANCH   1  22
ATOM     22  C   UNL A   1      46.099  20.552  25.017  1.00  0.00     0.118 C 
BRANCH  22  23
ATOM     23  N   UNL A   1      45.577  21.146  23.783  1.00  0.00    -0.352 N 
ATOM     24  C   UNL A   1      44.705  22.211  23.629  1.00  0.00     0.251 C 
ATOM     25  H   UNL A   1      45.889  20.731  22.947  1.00  0.00     0.163 HD
ATOM     26  O   UNL A   1      44.118  22.387  22.579  1.00  0.00    -0.269 OA
BRANCH  24  27
ATOM     27  C   UNL A   1      44.507  23.120  24.770  1.00  0.00     0.039 A 
ATOM     28  C   UNL A   1      45.552  23.410  25.654  1.00  0.00     0.014 A 
ATOM     29  C   UNL A   1      43.262  23.723  24.905  1.00  0.00     0.014 A 
ATOM     30  C   UNL A   1      45.360  24.392  26.624  1.00  0.00     0.010 A 
ATOM     31  C   UNL A   1      43.123  24.786  25.759  1.00  0.00     0.010 A 
ATOM     32  C   UNL A   1      44.148  25.090  26.655  1.00  0.00    -0.014 A 
BRANCH  32  33
ATOM     33  C   UNL A   1      43.948  26.228  27.548  1.00  0.00     0.031 A 
ATOM     34  C   UNL A   1      44.917  27.353  27.375  1.00  0.00     0.074 A 
ATOM     35  C   UNL A   1      42.786  26.382  28.219  1.00  0.00     0.049 A 
ATOM     36  N   UNL A   1      45.744  27.849  28.238  1.00  0.00    -0.248 NA
ATOM     37  C   UNL A   1      45.066  27.925  26.026  1.00  0.00     0.031 C 
ATOM     38  C   UNL A   1      41.598  25.518  28.167  1.00  0.00     0.029 A 
ATOM     39  N   UNL A   1      42.350  27.433  28.962  1.00  0.00    -0.354 N 
ATOM     40  C   UNL A   1      46.344  28.942  27.611  1.00  0.00     0.074 A 
ATOM     41  C   UNL A   1      46.053  28.804  26.209  1.00  0.00     0.031 C 
ATOM     42  C   UNL A   1      40.522  26.204  28.610  1.00  0.00     0.029 A 
ATOM     43  C   UNL A   1      40.972  27.478  29.138  1.00  0.00     0.049 A 
ATOM     44  H   UNL A   1      42.960  28.105  29.343  1.00  0.00     0.167 HD
ATOM     45  C   UNL A   1      46.813  30.011  28.319  1.00  0.00     0.037 A 
ATOM     46  C   UNL A   1      40.249  28.513  29.632  1.00  0.00     0.037 A 
ATOM     47  C   UNL A   1      46.928  29.691  29.720  1.00  0.00     0.049 A 
ATOM     48  C   UNL A   1      41.202  29.395  30.359  1.00  0.00     0.074 A 
ATOM     49  C   UNL A   1      47.604  28.731  30.447  1.00  0.00     0.029 A 
ATOM     50  N   UNL A   1      45.970  30.192  30.570  1.00  0.00    -0.354 N 
ATOM     51  N   UNL A   1      41.848  29.040  31.437  1.00  0.00    -0.248 NA
ATOM     52  C   UNL A   1      41.785  30.509  29.625  1.00  0.00     0.031 C 
ATOM     53  C   UNL A   1      46.702  28.356  31.486  1.00  0.00     0.029 A 
ATOM     54  C   UNL A   1      45.565  29.159  31.376  1.00  0.00     0.049 A 
ATOM     55  H   UNL A   1      45.636  31.118  30.595  1.00  0.00     0.167 HD
ATOM     56  C   UNL A   1      43.116  29.583  31.290  1.00  0.00     0.074 A 
ATOM     57  C   UNL A   1      42.988  30.554  30.205  1.00  0.00     0.031 C 
ATOM     58  C   UNL A   1      44.211  28.992  31.858  1.00  0.00     0.037 A 
BRANCH  45  59
ATOM     59  C   UNL A   1      46.810  31.449  27.830  1.00  0.00     0.058 A 
ATOM     60  C   UNL A   1      47.984  32.223  27.964  1.00  0.00     0.135 A 
ATOM     61  C   UNL A   1      45.644  32.178  27.509  1.00  0.00     0.135 A 
ATOM     62  F   UNL A   1      49.157  31.641  28.262  1.00  0.00    -0.206 F 
ATOM     63  C   UNL A   1      47.979  33.617  27.884  1.00  0.00     0.059 A 
ATOM     64  C   UNL A   1      45.627  33.563  27.367  1.00  0.00     0.059 A 
ATOM     65  F   UNL A   1      44.439  31.606  27.417  1.00  0.00    -0.206 F 
ATOM     66  C   UNL A   1      46.788  34.279  27.606  1.00  0.00     0.060 A 
BRANCH  66  67
ATOM     67  S   UNL A   1      46.744  36.078  27.629  1.00  0.00     0.124 S 
ATOM     68  O   UNL A   1      48.152  36.402  27.428  1.00  0.00    -0.237 OA
ATOM     69  O   UNL A   1      45.853  36.376  26.514  1.00  0.00    -0.237 OA
ATOM     70  O   UNL A   1      46.207  36.383  28.952  1.00  0.00    -0.744 OA
ENDBRANCH  66  67
ENDBRANCH  45  59
BRANCH  46  71
ATOM     71  C   UNL A   1      38.881  28.944  29.240  1.00  0.00     0.058 A 
ATOM     72  C   UNL A   1      37.876  29.140  30.202  1.00  0.00     0.135 A 
ATOM     73  C   UNL A   1      38.600  29.428  27.944  1.00  0.00     0.135 A 
ATOM     74  F   UNL A   1      38.065  28.729  31.465  1.00  0.00    -0.206 F 
ATOM     75  C   UNL A   1      36.685  29.816  29.911  1.00  0.00     0.059 A 
ATOM     76  C   UNL A   1      37.416  30.093  27.627  1.00  0.00     0.059 A 
ATOM     77  F   UNL A   1      39.512  29.349  26.962  1.00  0.00    -0.206 F 
ATOM     78  C   UNL A   1      36.473  30.307  28.624  1.00  0.00     0.060 A 
BRANCH  78  79
ATOM     79  S   UNL A   1      35.019  31.331  28.291  1.00  0.00     0.124 S 
ATOM     80  O   UNL A   1      34.622  31.738  29.635  1.00  0.00    -0.237 OA
ATOM     81  O   UNL A   1      35.570  32.381  27.443  1.00  0.00    -0.237 OA
ATOM     82  O   UNL A   1      34.102  30.412  27.622  1.00  0.00    -0.744 OA
ENDBRANCH  78  79
ENDBRANCH  46  71
BRANCH  58  83
ATOM     83  C   UNL A   1      43.995  27.914  32.890  1.00  0.00     0.058 A 
ATOM     84  C   UNL A   1      43.872  26.544  32.599  1.00  0.00     0.135 A 
ATOM     85  C   UNL A   1      44.090  28.271  34.244  1.00  0.00     0.135 A 
ATOM     86  F   UNL A   1      43.885  26.103  31.336  1.00  0.00    -0.206 F 
ATOM     87  C   UNL A   1      43.807  25.578  33.606  1.00  0.00     0.059 A 
ATOM     88  C   UNL A   1      44.060  27.323  35.263  1.00  0.00     0.059 A 
ATOM     89  F   UNL A   1      44.275  29.556  34.589  1.00  0.00    -0.206 F 
ATOM     90  C   UNL A   1      43.905  25.978  34.937  1.00  0.00     0.060 A 
BRANCH  90  91
ATOM     91  S   UNL A   1      43.904  24.721  36.233  1.00  0.00     0.124 S 
ATOM     92  O   UNL A   1      45.194  24.946  36.878  1.00  0.00    -0.237 OA
ATOM     93  O   UNL A   1      42.729  25.077  37.023  1.00  0.00    -0.237 OA
ATOM     94  O   UNL A   1      43.788  23.466  35.492  1.00  0.00    -0.744 OA
ENDBRANCH  90  91
ENDBRANCH  58  83
ENDBRANCH  32  33
ENDBRANCH  24  27
ENDBRANCH  22  23
ENDBRANCH   1  22
TORSDOF 16
ENDMDL
