MODEL 1
REMARK VINA RESULT:     -12.8      0.000      0.000
REMARK SMILES Cc1nc(-c2ccccc2)sc1C(=O)N[C@@H](CC1=c2ccccc2=NC1)C(=O)NCCCNC(=O)c1ccc(-c2c3nc(c(-c4c(F)cc(S(=O)(=O)[O-])cc4F)c4ccc([nH]4)c(-c4c(F)cc(S(=O)(=O)[O-])cc4F)c4nc(c(-c5c(F)cc(S(=O)(=O)[O-])cc5F)c5ccc2[nH]5)C=C4)C=C3)cc1
REMARK SMILES IDX 31 1 30 2 29 3 27 4 28 5 16 7 15 8 13 9 14 10 12 12 1 13
REMARK SMILES IDX 2 14 3 15 4 16 11 17 5 18 6 19 10 20 7 21 9 22 8 23 17 24
REMARK SMILES IDX 18 25 19 26 26 27 20 28 24 29 25 30 21 31 23 32 22 33 32 34
REMARK SMILES IDX 33 35 34 36 35 38 36 39 37 40 101 41 38 42 100 43 39 44
REMARK SMILES IDX 40 45 41 46 94 47 42 48 99 49 93 50 95 51 43 52 98 53 92 54
REMARK SMILES IDX 91 55 44 57 78 58 57 59 77 60 58 61 61 62 76 63 96 64 59 65
REMARK SMILES IDX 60 66 75 68 97 69 62 70 45 71 46 72 55 73 47 74 48 75 54 76
REMARK SMILES IDX 56 77 49 78 50 79 51 80 52 81 53 82 79 83 80 84 89 85 81 86
REMARK SMILES IDX 82 87 88 88 90 89 83 90 84 91 85 92 86 93 87 94 63 95 64 96
REMARK SMILES IDX 73 97 65 98 66 99 72 100 74 101 67 102 68 103 69 104 70 105
REMARK SMILES IDX 71 106
REMARK H PARENT 29 6 15 11 33 37 95 56 61 67
REMARK Flexibility Score: inf
ROOT
ATOM      1  C   UNL A   1      32.788  27.947  26.949  1.00  0.00     0.042 C 
ENDROOT
BRANCH   1   2
ATOM      2  C   UNL A   1      32.595  26.583  26.343  1.00  0.00     0.117 C 
BRANCH   2   3
ATOM      3  N   UNL A   1      31.446  25.861  26.819  1.00  0.00    -0.354 N 
ATOM      4  C   UNL A   1      30.631  25.033  26.120  1.00  0.00     0.242 C 
ATOM      5  O   UNL A   1      29.914  24.265  26.772  1.00  0.00    -0.273 OA
ATOM      6  H   UNL A   1      31.224  25.983  27.771  1.00  0.00     0.163 HD
BRANCH   4   7
ATOM      7  C   UNL A   1      30.599  24.993  24.578  1.00  0.00     0.175 C 
BRANCH   7   8
ATOM      8  N   UNL A   1      30.810  23.685  23.990  1.00  0.00    -0.339 N 
ATOM      9  C   UNL A   1      31.935  22.989  23.633  1.00  0.00     0.263 C 
ATOM     10  O   UNL A   1      31.656  21.931  23.052  1.00  0.00    -0.268 OA
ATOM     11  H   UNL A   1      29.975  23.198  23.808  1.00  0.00     0.164 HD
BRANCH   9  12
ATOM     12  C   UNL A   1      33.318  23.391  23.901  1.00  0.00     0.115 A 
ATOM     13  C   UNL A   1      34.060  25.749  22.916  1.00  0.00     0.068 C 
ATOM     14  C   UNL A   1      34.178  24.468  23.660  1.00  0.00     0.062 A 
ATOM     15  N   UNL A   1      35.432  24.354  24.232  1.00  0.00    -0.241 NA
ATOM     16  C   UNL A   1      35.594  23.203  24.824  1.00  0.00     0.124 A 
ATOM     17  S   UNL A   1      34.251  22.175  24.779  1.00  0.00    -0.108 S 
BRANCH  16  18
ATOM     18  C   UNL A   1      36.845  22.862  25.482  1.00  0.00     0.010 A 
ATOM     19  C   UNL A   1      37.543  23.877  26.151  1.00  0.00     0.011 A 
ATOM     20  C   UNL A   1      37.451  21.615  25.292  1.00  0.00     0.011 A 
ATOM     21  C   UNL A   1      38.842  23.661  26.603  1.00  0.00     0.001 A 
ATOM     22  C   UNL A   1      38.757  21.403  25.739  1.00  0.00     0.001 A 
ATOM     23  C   UNL A   1      39.453  22.428  26.384  1.00  0.00     0.000 A 
ENDBRANCH  16  18
ENDBRANCH   9  12
ENDBRANCH   7   8
BRANCH   7  24
ATOM     24  C   UNL A   1      29.496  25.821  23.863  1.00  0.00     0.068 C 
BRANCH  24  25
ATOM     25  C   UNL A   1      29.793  27.234  23.457  1.00  0.00    -0.037 C 
ATOM     26  C   UNL A   1      28.954  28.243  23.212  1.00  0.00     0.001 A 
ATOM     27  C   UNL A   1      31.215  27.713  23.384  1.00  0.00     0.174 C 
ATOM     28  C   UNL A   1      27.536  28.395  23.158  1.00  0.00     0.010 A 
ATOM     29  C   UNL A   1      29.852  29.414  23.254  1.00  0.00     0.065 A 
ATOM     30  N   UNL A   1      31.129  29.188  23.319  1.00  0.00    -0.280 NA
ATOM     31  C   UNL A   1      27.013  29.629  23.251  1.00  0.00     0.001 A 
ATOM     32  C   UNL A   1      29.203  30.739  23.352  1.00  0.00     0.028 A 
ATOM     33  C   UNL A   1      27.860  30.802  23.388  1.00  0.00     0.002 A 
ENDBRANCH  24  25
ENDBRANCH   7  24
ENDBRANCH   4   7
ENDBRANCH   2   3
ENDBRANCH   1   2
BRANCH   1  34
ATOM     34  C   UNL A   1      33.876  28.753  26.275  1.00  0.00     0.118 C 
BRANCH  34  35
ATOM     35  N   UNL A   1      33.860  30.169  26.628  1.00  0.00    -0.352 N 
ATOM     36  C   UNL A   1      34.703  30.906  27.431  1.00  0.00     0.251 C 
ATOM     37  H   UNL A   1      33.124  30.683  26.224  1.00  0.00     0.163 HD
ATOM     38  O   UNL A   1      34.432  32.062  27.703  1.00  0.00    -0.269 OA
BRANCH  36  39
ATOM     39  C   UNL A   1      35.916  30.270  27.989  1.00  0.00     0.039 A 
ATOM     40  C   UNL A   1      37.123  30.374  27.296  1.00  0.00     0.014 A 
ATOM     41  C   UNL A   1      35.870  29.617  29.219  1.00  0.00     0.014 A 
ATOM     42  C   UNL A   1      38.294  29.904  27.890  1.00  0.00     0.010 A 
ATOM     43  C   UNL A   1      37.049  29.304  29.874  1.00  0.00     0.010 A 
ATOM     44  C   UNL A   1      38.275  29.419  29.209  1.00  0.00    -0.014 A 
BRANCH  44  45
ATOM     45  C   UNL A   1      39.520  29.009  29.903  1.00  0.00     0.031 A 
ATOM     46  C   UNL A   1      39.937  29.702  31.175  1.00  0.00     0.074 A 
ATOM     47  C   UNL A   1      40.302  28.059  29.352  1.00  0.00     0.049 A 
ATOM     48  N   UNL A   1      41.000  29.505  31.911  1.00  0.00    -0.248 NA
ATOM     49  C   UNL A   1      39.073  30.791  31.662  1.00  0.00     0.031 C 
ATOM     50  C   UNL A   1      40.049  27.386  28.074  1.00  0.00     0.029 A 
ATOM     51  N   UNL A   1      41.467  27.489  29.797  1.00  0.00    -0.354 N 
ATOM     52  C   UNL A   1      40.937  30.451  32.927  1.00  0.00     0.074 A 
ATOM     53  C   UNL A   1      39.781  31.277  32.668  1.00  0.00     0.031 C 
ATOM     54  C   UNL A   1      40.996  26.458  27.868  1.00  0.00     0.029 A 
ATOM     55  C   UNL A   1      41.944  26.494  28.976  1.00  0.00     0.049 A 
ATOM     56  H   UNL A   1      41.919  27.766  30.626  1.00  0.00     0.167 HD
ATOM     57  C   UNL A   1      41.744  30.594  34.004  1.00  0.00     0.037 A 
ATOM     58  C   UNL A   1      43.018  25.694  29.110  1.00  0.00     0.037 A 
ATOM     59  C   UNL A   1      42.865  29.735  34.274  1.00  0.00     0.049 A 
ATOM     60  C   UNL A   1      43.875  25.839  30.337  1.00  0.00     0.074 A 
ATOM     61  C   UNL A   1      43.707  29.735  35.371  1.00  0.00     0.029 A 
ATOM     62  N   UNL A   1      43.299  28.716  33.436  1.00  0.00    -0.354 N 
ATOM     63  N   UNL A   1      43.751  26.685  31.333  1.00  0.00    -0.248 NA
ATOM     64  C   UNL A   1      45.008  24.916  30.465  1.00  0.00     0.031 C 
ATOM     65  C   UNL A   1      44.676  28.745  35.176  1.00  0.00     0.029 A 
ATOM     66  C   UNL A   1      44.409  28.095  33.981  1.00  0.00     0.049 A 
ATOM     67  H   UNL A   1      42.878  28.472  32.580  1.00  0.00     0.167 HD
ATOM     68  C   UNL A   1      44.783  26.386  32.215  1.00  0.00     0.074 A 
ATOM     69  C   UNL A   1      45.502  25.263  31.645  1.00  0.00     0.031 C 
ATOM     70  C   UNL A   1      45.112  26.986  33.387  1.00  0.00     0.037 A 
BRANCH  57  71
ATOM     71  C   UNL A   1      41.426  31.702  34.971  1.00  0.00     0.058 A 
ATOM     72  C   UNL A   1      40.453  31.551  35.973  1.00  0.00     0.135 A 
ATOM     73  C   UNL A   1      42.110  32.926  34.906  1.00  0.00     0.135 A 
ATOM     74  F   UNL A   1      39.753  30.410  36.070  1.00  0.00    -0.206 F 
ATOM     75  C   UNL A   1      40.146  32.584  36.852  1.00  0.00     0.059 A 
ATOM     76  C   UNL A   1      41.842  33.963  35.796  1.00  0.00     0.059 A 
ATOM     77  F   UNL A   1      43.048  33.129  33.967  1.00  0.00    -0.206 F 
ATOM     78  C   UNL A   1      40.846  33.787  36.757  1.00  0.00     0.060 A 
BRANCH  78  79
ATOM     79  S   UNL A   1      40.440  35.115  37.910  1.00  0.00     0.124 S 
ATOM     80  O   UNL A   1      40.752  36.297  37.114  1.00  0.00    -0.237 OA
ATOM     81  O   UNL A   1      39.022  34.880  38.166  1.00  0.00    -0.237 OA
ATOM     82  O   UNL A   1      41.327  34.867  39.041  1.00  0.00    -0.744 OA
ENDBRANCH  78  79
ENDBRANCH  57  71
BRANCH  58  83
ATOM     83  C   UNL A   1      43.310  24.661  28.081  1.00  0.00     0.058 A 
ATOM     84  C   UNL A   1      44.152  24.943  26.995  1.00  0.00     0.135 A 
ATOM     85  C   UNL A   1      42.778  23.366  28.174  1.00  0.00     0.135 A 
ATOM     86  F   UNL A   1      44.686  26.166  26.860  1.00  0.00    -0.206 F 
ATOM     87  C   UNL A   1      44.444  23.984  26.029  1.00  0.00     0.059 A 
ATOM     88  C   UNL A   1      43.075  22.383  27.235  1.00  0.00     0.059 A 
ATOM     89  F   UNL A   1      41.984  23.037  29.205  1.00  0.00    -0.206 F 
ATOM     90  C   UNL A   1      43.902  22.705  26.160  1.00  0.00     0.060 A 
BRANCH  90  91
ATOM     91  S   UNL A   1      44.332  21.452  24.932  1.00  0.00     0.124 S 
ATOM     92  O   UNL A   1      45.701  21.125  25.313  1.00  0.00    -0.237 OA
ATOM     93  O   UNL A   1      43.334  20.419  25.187  1.00  0.00    -0.237 OA
ATOM     94  O   UNL A   1      44.179  22.159  23.664  1.00  0.00    -0.744 OA
ENDBRANCH  90  91
ENDBRANCH  58  83
BRANCH  70  95
ATOM     95  C   UNL A   1      46.294  26.427  34.128  1.00  0.00     0.058 A 
ATOM     96  C   UNL A   1      47.590  26.926  33.928  1.00  0.00     0.135 A 
ATOM     97  C   UNL A   1      46.124  25.393  35.064  1.00  0.00     0.135 A 
ATOM     98  F   UNL A   1      47.805  27.913  33.042  1.00  0.00    -0.206 F 
ATOM     99  C   UNL A   1      48.685  26.392  34.598  1.00  0.00     0.059 A 
ATOM    100  C   UNL A   1      47.200  24.865  35.769  1.00  0.00     0.059 A 
ATOM    101  F   UNL A   1      44.903  24.891  35.303  1.00  0.00    -0.206 F 
ATOM    102  C   UNL A   1      48.480  25.358  35.514  1.00  0.00     0.060 A 
BRANCH 102 103
ATOM    103  S   UNL A   1      49.907  24.671  36.375  1.00  0.00     0.124 S 
ATOM    104  O   UNL A   1      49.588  24.983  37.764  1.00  0.00    -0.237 OA
ATOM    105  O   UNL A   1      49.845  23.260  36.011  1.00  0.00    -0.237 OA
ATOM    106  O   UNL A   1      51.033  25.409  35.808  1.00  0.00    -0.744 OA
ENDBRANCH 102 103
ENDBRANCH  70  95
ENDBRANCH  44  45
ENDBRANCH  36  39
ENDBRANCH  34  35
ENDBRANCH   1  34
TORSDOF 18
ENDMDL
MODEL 2
REMARK VINA RESULT:     -12.8      3.330      9.938
REMARK SMILES Cc1nc(-c2ccccc2)sc1C(=O)N[C@@H](CC1=c2ccccc2=NC1)C(=O)NCCCNC(=O)c1ccc(-c2c3nc(c(-c4c(F)cc(S(=O)(=O)[O-])cc4F)c4ccc([nH]4)c(-c4c(F)cc(S(=O)(=O)[O-])cc4F)c4nc(c(-c5c(F)cc(S(=O)(=O)[O-])cc5F)c5ccc2[nH]5)C=C4)C=C3)cc1
REMARK SMILES IDX 31 1 30 2 29 3 27 4 28 5 16 7 15 8 13 9 14 10 12 12 1 13
REMARK SMILES IDX 2 14 3 15 4 16 11 17 5 18 6 19 10 20 7 21 9 22 8 23 17 24
REMARK SMILES IDX 18 25 19 26 26 27 20 28 24 29 25 30 21 31 23 32 22 33 32 34
REMARK SMILES IDX 33 35 34 36 35 38 36 39 37 40 101 41 38 42 100 43 39 44
REMARK SMILES IDX 40 45 41 46 94 47 42 48 99 49 93 50 95 51 43 52 98 53 92 54
REMARK SMILES IDX 91 55 44 57 78 58 57 59 77 60 58 61 61 62 76 63 96 64 59 65
REMARK SMILES IDX 60 66 75 68 97 69 62 70 45 71 46 72 55 73 47 74 48 75 54 76
REMARK SMILES IDX 56 77 49 78 50 79 51 80 52 81 53 82 79 83 80 84 89 85 81 86
REMARK SMILES IDX 82 87 88 88 90 89 83 90 84 91 85 92 86 93 87 94 63 95 64 96
REMARK SMILES IDX 73 97 65 98 66 99 72 100 74 101 67 102 68 103 69 104 70 105
REMARK SMILES IDX 71 106
REMARK H PARENT 29 6 15 11 33 37 95 56 61 67
REMARK Flexibility Score: inf
ROOT
ATOM      1  C   UNL A   1      39.020  22.314  26.150  1.00  0.00     0.042 C 
ENDROOT
BRANCH   1   2
ATOM      2  C   UNL A   1      37.702  22.548  25.460  1.00  0.00     0.117 C 
BRANCH   2   3
ATOM      3  N   UNL A   1      36.651  23.043  26.307  1.00  0.00    -0.354 N 
ATOM      4  C   UNL A   1      35.334  22.716  26.282  1.00  0.00     0.242 C 
ATOM      5  O   UNL A   1      34.665  22.993  27.284  1.00  0.00    -0.273 OA
ATOM      6  H   UNL A   1      36.919  23.701  26.989  1.00  0.00     0.163 HD
BRANCH   4   7
ATOM      7  C   UNL A   1      34.671  21.996  25.089  1.00  0.00     0.175 C 
BRANCH   7   8
ATOM      8  N   UNL A   1      34.508  22.800  23.895  1.00  0.00    -0.339 N 
ATOM      9  C   UNL A   1      33.893  24.000  23.650  1.00  0.00     0.263 C 
ATOM     10  O   UNL A   1      33.895  24.280  22.444  1.00  0.00    -0.268 OA
ATOM     11  H   UNL A   1      34.923  22.404  23.096  1.00  0.00     0.164 HD
BRANCH   9  12
ATOM     12  C   UNL A   1      33.308  24.890  24.656  1.00  0.00     0.115 A 
ATOM     13  C   UNL A   1      31.366  23.848  26.148  1.00  0.00     0.068 C 
ATOM     14  C   UNL A   1      32.339  24.862  25.664  1.00  0.00     0.062 A 
ATOM     15  N   UNL A   1      32.234  26.025  26.407  1.00  0.00    -0.241 NA
ATOM     16  C   UNL A   1      33.020  26.963  25.954  1.00  0.00     0.124 A 
ATOM     17  S   UNL A   1      33.974  26.525  24.628  1.00  0.00    -0.108 S 
BRANCH  16  18
ATOM     18  C   UNL A   1      33.063  28.277  26.576  1.00  0.00     0.010 A 
ATOM     19  C   UNL A   1      31.939  29.107  26.455  1.00  0.00     0.011 A 
ATOM     20  C   UNL A   1      34.251  28.793  27.105  1.00  0.00     0.011 A 
ATOM     21  C   UNL A   1      32.006  30.445  26.834  1.00  0.00     0.001 A 
ATOM     22  C   UNL A   1      34.318  30.138  27.476  1.00  0.00     0.001 A 
ATOM     23  C   UNL A   1      33.201  30.962  27.331  1.00  0.00     0.000 A 
ENDBRANCH  16  18
ENDBRANCH   9  12
ENDBRANCH   7   8
BRANCH   7  24
ATOM     24  C   UNL A   1      35.116  20.537  24.796  1.00  0.00     0.068 C 
BRANCH  24  25
ATOM     25  C   UNL A   1      34.071  19.469  24.659  1.00  0.00    -0.037 C 
ATOM     26  C   UNL A   1      34.208  18.141  24.654  1.00  0.00     0.001 A 
ATOM     27  C   UNL A   1      32.617  19.841  24.614  1.00  0.00     0.174 C 
ATOM     28  C   UNL A   1      35.308  17.232  24.697  1.00  0.00     0.010 A 
ATOM     29  C   UNL A   1      32.823  17.683  24.880  1.00  0.00     0.065 A 
ATOM     30  N   UNL A   1      31.882  18.577  24.840  1.00  0.00    -0.280 NA
ATOM     31  C   UNL A   1      35.081  15.957  25.052  1.00  0.00     0.001 A 
ATOM     32  C   UNL A   1      32.653  16.265  25.264  1.00  0.00     0.028 A 
ATOM     33  C   UNL A   1      33.744  15.488  25.374  1.00  0.00     0.002 A 
ENDBRANCH  24  25
ENDBRANCH   7  24
ENDBRANCH   4   7
ENDBRANCH   2   3
ENDBRANCH   1   2
BRANCH   1  34
ATOM     34  C   UNL A   1      39.611  23.571  26.748  1.00  0.00     0.118 C 
BRANCH  34  35
ATOM     35  N   UNL A   1      40.922  23.916  26.207  1.00  0.00    -0.352 N 
ATOM     36  C   UNL A   1      41.717  25.023  26.410  1.00  0.00     0.251 C 
ATOM     37  H   UNL A   1      41.302  23.246  25.594  1.00  0.00     0.163 HD
ATOM     38  O   UNL A   1      42.729  25.178  25.749  1.00  0.00    -0.269 OA
BRANCH  36  39
ATOM     39  C   UNL A   1      41.310  26.038  27.406  1.00  0.00     0.039 A 
ATOM     40  C   UNL A   1      40.337  25.713  28.353  1.00  0.00     0.014 A 
ATOM     41  C   UNL A   1      41.926  27.287  27.436  1.00  0.00     0.014 A 
ATOM     42  C   UNL A   1      40.059  26.613  29.381  1.00  0.00     0.010 A 
ATOM     43  C   UNL A   1      41.769  28.102  28.544  1.00  0.00     0.010 A 
ATOM     44  C   UNL A   1      40.816  27.790  29.519  1.00  0.00    -0.014 A 
BRANCH  44  45
ATOM     45  C   UNL A   1      40.612  28.714  30.661  1.00  0.00     0.031 A 
ATOM     46  C   UNL A   1      41.460  28.579  31.899  1.00  0.00     0.074 A 
ATOM     47  C   UNL A   1      39.624  29.629  30.603  1.00  0.00     0.049 A 
ATOM     48  N   UNL A   1      41.417  29.273  33.007  1.00  0.00    -0.248 NA
ATOM     49  C   UNL A   1      42.458  27.495  31.917  1.00  0.00     0.031 C 
ATOM     50  C   UNL A   1      38.677  29.788  29.494  1.00  0.00     0.029 A 
ATOM     51  N   UNL A   1      39.251  30.602  31.494  1.00  0.00    -0.354 N 
ATOM     52  C   UNL A   1      42.361  28.698  33.850  1.00  0.00     0.074 A 
ATOM     53  C   UNL A   1      42.903  27.550  33.162  1.00  0.00     0.031 C 
ATOM     54  C   UNL A   1      37.873  30.833  29.746  1.00  0.00     0.029 A 
ATOM     55  C   UNL A   1      38.218  31.393  31.047  1.00  0.00     0.049 A 
ATOM     56  H   UNL A   1      39.683  30.724  32.370  1.00  0.00     0.167 HD
ATOM     57  C   UNL A   1      42.774  29.114  35.070  1.00  0.00     0.037 A 
ATOM     58  C   UNL A   1      37.626  32.458  31.620  1.00  0.00     0.037 A 
ATOM     59  C   UNL A   1      42.259  30.286  35.724  1.00  0.00     0.049 A 
ATOM     60  C   UNL A   1      38.131  32.931  32.955  1.00  0.00     0.074 A 
ATOM     61  C   UNL A   1      42.654  30.848  36.925  1.00  0.00     0.029 A 
ATOM     62  N   UNL A   1      41.235  31.082  35.227  1.00  0.00    -0.354 N 
ATOM     63  N   UNL A   1      39.086  32.425  33.701  1.00  0.00    -0.248 NA
ATOM     64  C   UNL A   1      37.488  34.122  33.521  1.00  0.00     0.031 C 
ATOM     65  C   UNL A   1      41.840  31.958  37.174  1.00  0.00     0.029 A 
ATOM     66  C   UNL A   1      40.971  32.118  36.106  1.00  0.00     0.049 A 
ATOM     67  H   UNL A   1      40.766  30.931  34.374  1.00  0.00     0.167 HD
ATOM     68  C   UNL A   1      39.169  33.247  34.820  1.00  0.00     0.074 A 
ATOM     69  C   UNL A   1      38.186  34.297  34.635  1.00  0.00     0.031 C 
ATOM     70  C   UNL A   1      39.979  33.143  35.903  1.00  0.00     0.037 A 
BRANCH  57  71
ATOM     71  C   UNL A   1      43.843  28.307  35.757  1.00  0.00     0.058 A 
ATOM     72  C   UNL A   1      43.525  27.273  36.653  1.00  0.00     0.135 A 
ATOM     73  C   UNL A   1      45.201  28.560  35.509  1.00  0.00     0.135 A 
ATOM     74  F   UNL A   1      42.243  26.999  36.945  1.00  0.00    -0.206 F 
ATOM     75  C   UNL A   1      44.513  26.541  37.303  1.00  0.00     0.059 A 
ATOM     76  C   UNL A   1      46.207  27.820  36.123  1.00  0.00     0.059 A 
ATOM     77  F   UNL A   1      45.564  29.539  34.665  1.00  0.00    -0.206 F 
ATOM     78  C   UNL A   1      45.853  26.822  37.031  1.00  0.00     0.060 A 
BRANCH  78  79
ATOM     79  S   UNL A   1      47.124  25.859  37.878  1.00  0.00     0.124 S 
ATOM     80  O   UNL A   1      48.272  26.757  37.796  1.00  0.00    -0.237 OA
ATOM     81  O   UNL A   1      46.548  25.688  39.208  1.00  0.00    -0.237 OA
ATOM     82  O   UNL A   1      47.219  24.644  37.078  1.00  0.00    -0.744 OA
ENDBRANCH  78  79
ENDBRANCH  57  71
BRANCH  58  83
ATOM     83  C   UNL A   1      36.529  33.171  30.912  1.00  0.00     0.058 A 
ATOM     84  C   UNL A   1      35.197  33.042  31.332  1.00  0.00     0.135 A 
ATOM     85  C   UNL A   1      36.791  34.014  29.821  1.00  0.00     0.135 A 
ATOM     86  F   UNL A   1      34.895  32.247  32.370  1.00  0.00    -0.206 F 
ATOM     87  C   UNL A   1      34.160  33.710  30.687  1.00  0.00     0.059 A 
ATOM     88  C   UNL A   1      35.775  34.712  29.176  1.00  0.00     0.059 A 
ATOM     89  F   UNL A   1      38.051  34.189  29.393  1.00  0.00    -0.206 F 
ATOM     90  C   UNL A   1      34.460  34.546  29.611  1.00  0.00     0.060 A 
BRANCH  90  91
ATOM     91  S   UNL A   1      33.116  35.452  28.816  1.00  0.00     0.124 S 
ATOM     92  O   UNL A   1      32.444  34.391  28.074  1.00  0.00    -0.237 OA
ATOM     93  O   UNL A   1      32.389  35.990  29.962  1.00  0.00    -0.237 OA
ATOM     94  O   UNL A   1      33.814  36.446  28.006  1.00  0.00    -0.744 OA
ENDBRANCH  90  91
ENDBRANCH  58  83
BRANCH  70  95
ATOM     95  C   UNL A   1      39.836  34.201  36.961  1.00  0.00     0.058 A 
ATOM     96  C   UNL A   1      39.040  34.000  38.099  1.00  0.00     0.135 A 
ATOM     97  C   UNL A   1      40.521  35.422  36.845  1.00  0.00     0.135 A 
ATOM     98  F   UNL A   1      38.363  32.850  38.256  1.00  0.00    -0.206 F 
ATOM     99  C   UNL A   1      38.892  34.988  39.065  1.00  0.00     0.059 A 
ATOM    100  C   UNL A   1      40.413  36.412  37.814  1.00  0.00     0.059 A 
ATOM    101  F   UNL A   1      41.307  35.658  35.783  1.00  0.00    -0.206 F 
ATOM    102  C   UNL A   1      39.580  36.194  38.911  1.00  0.00     0.060 A 
BRANCH 102 103
ATOM    103  S   UNL A   1      39.379  37.469  40.170  1.00  0.00     0.124 S 
ATOM    104  O   UNL A   1      40.752  37.930  40.341  1.00  0.00    -0.237 OA
ATOM    105  O   UNL A   1      38.470  38.409  39.522  1.00  0.00    -0.237 OA
ATOM    106  O   UNL A   1      38.814  36.742  41.303  1.00  0.00    -0.744 OA
ENDBRANCH 102 103
ENDBRANCH  70  95
ENDBRANCH  44  45
ENDBRANCH  36  39
ENDBRANCH  34  35
ENDBRANCH   1  34
TORSDOF 18
ENDMDL
MODEL 3
REMARK VINA RESULT:     -12.6      3.389      9.644
REMARK SMILES Cc1nc(-c2ccccc2)sc1C(=O)N[C@@H](CC1=c2ccccc2=NC1)C(=O)NCCCNC(=O)c1ccc(-c2c3nc(c(-c4c(F)cc(S(=O)(=O)[O-])cc4F)c4ccc([nH]4)c(-c4c(F)cc(S(=O)(=O)[O-])cc4F)c4nc(c(-c5c(F)cc(S(=O)(=O)[O-])cc5F)c5ccc2[nH]5)C=C4)C=C3)cc1
REMARK SMILES IDX 31 1 30 2 29 3 27 4 28 5 16 7 15 8 13 9 14 10 12 12 1 13
REMARK SMILES IDX 2 14 3 15 4 16 11 17 5 18 6 19 10 20 7 21 9 22 8 23 17 24
REMARK SMILES IDX 18 25 19 26 26 27 20 28 24 29 25 30 21 31 23 32 22 33 32 34
REMARK SMILES IDX 33 35 34 36 35 38 36 39 37 40 101 41 38 42 100 43 39 44
REMARK SMILES IDX 40 45 41 46 94 47 42 48 99 49 93 50 95 51 43 52 98 53 92 54
REMARK SMILES IDX 91 55 44 57 78 58 57 59 77 60 58 61 61 62 76 63 96 64 59 65
REMARK SMILES IDX 60 66 75 68 97 69 62 70 45 71 46 72 55 73 47 74 48 75 54 76
REMARK SMILES IDX 56 77 49 78 50 79 51 80 52 81 53 82 79 83 80 84 89 85 81 86
REMARK SMILES IDX 82 87 88 88 90 89 83 90 84 91 85 92 86 93 87 94 63 95 64 96
REMARK SMILES IDX 73 97 65 98 66 99 72 100 74 101 67 102 68 103 69 104 70 105
REMARK SMILES IDX 71 106
REMARK H PARENT 29 6 15 11 33 37 95 56 61 67
REMARK Flexibility Score: inf
ROOT
ATOM      1  C   UNL A   1      35.598  22.780  25.727  1.00  0.00     0.042 C 
ENDROOT
BRANCH   1   2
ATOM      2  C   UNL A   1      35.409  22.061  24.418  1.00  0.00     0.117 C 
BRANCH   2   3
ATOM      3  N   UNL A   1      35.166  22.912  23.285  1.00  0.00    -0.354 N 
ATOM      4  C   UNL A   1      33.971  23.307  22.778  1.00  0.00     0.242 C 
ATOM      5  O   UNL A   1      33.975  24.285  22.021  1.00  0.00    -0.273 OA
ATOM      6  H   UNL A   1      35.965  23.251  22.820  1.00  0.00     0.163 HD
BRANCH   4   7
ATOM      7  C   UNL A   1      32.638  22.615  23.135  1.00  0.00     0.175 C 
BRANCH   7   8
ATOM      8  N   UNL A   1      31.450  23.413  22.910  1.00  0.00    -0.339 N 
ATOM      9  C   UNL A   1      30.915  24.499  23.551  1.00  0.00     0.263 C 
ATOM     10  O   UNL A   1      29.808  24.807  23.089  1.00  0.00    -0.268 OA
ATOM     11  H   UNL A   1      30.916  23.112  22.140  1.00  0.00     0.164 HD
BRANCH   9  12
ATOM     12  C   UNL A   1      31.543  25.252  24.640  1.00  0.00     0.115 A 
ATOM     13  C   UNL A   1      32.220  23.845  26.794  1.00  0.00     0.068 C 
ATOM     14  C   UNL A   1      32.087  25.031  25.909  1.00  0.00     0.062 A 
ATOM     15  N   UNL A   1      32.643  26.147  26.510  1.00  0.00    -0.241 NA
ATOM     16  C   UNL A   1      32.469  27.222  25.792  1.00  0.00     0.124 A 
ATOM     17  S   UNL A   1      31.662  26.986  24.324  1.00  0.00    -0.108 S 
BRANCH  16  18
ATOM     18  C   UNL A   1      32.962  28.515  26.239  1.00  0.00     0.010 A 
ATOM     19  C   UNL A   1      34.275  28.596  26.724  1.00  0.00     0.011 A 
ATOM     20  C   UNL A   1      32.104  29.612  26.380  1.00  0.00     0.011 A 
ATOM     21  C   UNL A   1      34.721  29.748  27.366  1.00  0.00     0.001 A 
ATOM     22  C   UNL A   1      32.551  30.763  27.032  1.00  0.00     0.001 A 
ATOM     23  C   UNL A   1      33.853  30.825  27.532  1.00  0.00     0.000 A 
ENDBRANCH  16  18
ENDBRANCH   9  12
ENDBRANCH   7   8
BRANCH   7  24
ATOM     24  C   UNL A   1      32.471  21.126  22.723  1.00  0.00     0.068 C 
BRANCH  24  25
ATOM     25  C   UNL A   1      32.454  20.072  23.790  1.00  0.00    -0.037 C 
ATOM     26  C   UNL A   1      32.759  18.776  23.709  1.00  0.00     0.001 A 
ATOM     27  C   UNL A   1      32.159  20.448  25.214  1.00  0.00     0.174 C 
ATOM     28  C   UNL A   1      33.129  17.882  22.660  1.00  0.00     0.010 A 
ATOM     29  C   UNL A   1      32.919  18.403  25.129  1.00  0.00     0.065 A 
ATOM     30  N   UNL A   1      32.573  19.280  26.022  1.00  0.00    -0.280 NA
ATOM     31  C   UNL A   1      33.730  16.723  22.978  1.00  0.00     0.001 A 
ATOM     32  C   UNL A   1      33.585  17.111  25.400  1.00  0.00     0.028 A 
ATOM     33  C   UNL A   1      33.991  16.360  24.360  1.00  0.00     0.002 A 
ENDBRANCH  24  25
ENDBRANCH   7  24
ENDBRANCH   4   7
ENDBRANCH   2   3
ENDBRANCH   1   2
BRANCH   1  34
ATOM     34  C   UNL A   1      36.828  23.660  25.753  1.00  0.00     0.118 C 
BRANCH  34  35
ATOM     35  N   UNL A   1      38.082  22.913  25.776  1.00  0.00    -0.352 N 
ATOM     36  C   UNL A   1      39.329  23.262  26.248  1.00  0.00     0.251 C 
ATOM     37  H   UNL A   1      38.027  22.010  25.390  1.00  0.00     0.163 HD
ATOM     38  O   UNL A   1      40.284  22.532  26.048  1.00  0.00    -0.269 OA
BRANCH  36  39
ATOM     39  C   UNL A   1      39.503  24.545  26.964  1.00  0.00     0.039 A 
ATOM     40  C   UNL A   1      39.022  24.669  28.268  1.00  0.00     0.014 A 
ATOM     41  C   UNL A   1      40.184  25.601  26.365  1.00  0.00     0.014 A 
ATOM     42  C   UNL A   1      39.314  25.824  28.995  1.00  0.00     0.010 A 
ATOM     43  C   UNL A   1      40.612  26.668  27.138  1.00  0.00     0.010 A 
ATOM     44  C   UNL A   1      40.162  26.806  28.456  1.00  0.00    -0.014 A 
BRANCH  44  45
ATOM     45  C   UNL A   1      40.573  27.994  29.244  1.00  0.00     0.031 A 
ATOM     46  C   UNL A   1      41.936  28.036  29.887  1.00  0.00     0.074 A 
ATOM     47  C   UNL A   1      39.697  29.000  29.430  1.00  0.00     0.049 A 
ATOM     48  N   UNL A   1      42.467  28.970  30.632  1.00  0.00    -0.248 NA
ATOM     49  C   UNL A   1      42.800  26.856  29.710  1.00  0.00     0.031 C 
ATOM     50  C   UNL A   1      38.316  29.026  28.935  1.00  0.00     0.029 A 
ATOM     51  N   UNL A   1      39.834  30.200  30.080  1.00  0.00    -0.354 N 
ATOM     52  C   UNL A   1      43.709  28.483  31.023  1.00  0.00     0.074 A 
ATOM     53  C   UNL A   1      43.820  27.139  30.505  1.00  0.00     0.031 C 
ATOM     54  C   UNL A   1      37.756  30.205  29.250  1.00  0.00     0.029 A 
ATOM     55  C   UNL A   1      38.720  31.002  30.001  1.00  0.00     0.049 A 
ATOM     56  H   UNL A   1      40.654  30.462  30.557  1.00  0.00     0.167 HD
ATOM     57  C   UNL A   1      44.688  29.112  31.713  1.00  0.00     0.037 A 
ATOM     58  C   UNL A   1      38.506  32.245  30.471  1.00  0.00     0.037 A 
ATOM     59  C   UNL A   1      44.583  30.466  32.183  1.00  0.00     0.049 A 
ATOM     60  C   UNL A   1      39.624  32.943  31.195  1.00  0.00     0.074 A 
ATOM     61  C   UNL A   1      45.538  31.233  32.825  1.00  0.00     0.029 A 
ATOM     62  N   UNL A   1      43.450  31.260  32.056  1.00  0.00    -0.354 N 
ATOM     63  N   UNL A   1      40.825  32.497  31.481  1.00  0.00    -0.248 NA
ATOM     64  C   UNL A   1      39.364  34.313  31.650  1.00  0.00     0.031 C 
ATOM     65  C   UNL A   1      44.968  32.475  33.125  1.00  0.00     0.029 A 
ATOM     66  C   UNL A   1      43.675  32.501  32.626  1.00  0.00     0.049 A 
ATOM     67  H   UNL A   1      42.611  30.980  31.623  1.00  0.00     0.167 HD
ATOM     68  C   UNL A   1      41.470  33.539  32.138  1.00  0.00     0.074 A 
ATOM     69  C   UNL A   1      40.533  34.645  32.179  1.00  0.00     0.031 C 
ATOM     70  C   UNL A   1      42.720  33.579  32.663  1.00  0.00     0.037 A 
BRANCH  57  71
ATOM     71  C   UNL A   1      45.957  28.345  31.977  1.00  0.00     0.058 A 
ATOM     72  C   UNL A   1      47.029  28.358  31.070  1.00  0.00     0.135 A 
ATOM     73  C   UNL A   1      46.109  27.601  33.157  1.00  0.00     0.135 A 
ATOM     74  F   UNL A   1      46.932  29.036  29.916  1.00  0.00    -0.206 F 
ATOM     75  C   UNL A   1      48.192  27.632  31.306  1.00  0.00     0.059 A 
ATOM     76  C   UNL A   1      47.277  26.893  33.430  1.00  0.00     0.059 A 
ATOM     77  F   UNL A   1      45.116  27.549  34.059  1.00  0.00    -0.206 F 
ATOM     78  C   UNL A   1      48.308  26.903  32.490  1.00  0.00     0.060 A 
BRANCH  78  79
ATOM     79  S   UNL A   1      49.826  25.972  32.784  1.00  0.00     0.124 S 
ATOM     80  O   UNL A   1      50.663  26.423  31.677  1.00  0.00    -0.237 OA
ATOM     81  O   UNL A   1      50.224  26.439  34.109  1.00  0.00    -0.237 OA
ATOM     82  O   UNL A   1      49.391  24.582  32.717  1.00  0.00    -0.744 OA
ENDBRANCH  78  79
ENDBRANCH  57  71
BRANCH  58  83
ATOM     83  C   UNL A   1      37.202  32.919  30.228  1.00  0.00     0.058 A 
ATOM     84  C   UNL A   1      36.189  32.899  31.198  1.00  0.00     0.135 A 
ATOM     85  C   UNL A   1      36.952  33.618  29.038  1.00  0.00     0.135 A 
ATOM     86  F   UNL A   1      36.379  32.244  32.353  1.00  0.00    -0.206 F 
ATOM     87  C   UNL A   1      34.968  33.534  30.991  1.00  0.00     0.059 A 
ATOM     88  C   UNL A   1      35.749  34.282  28.818  1.00  0.00     0.059 A 
ATOM     89  F   UNL A   1      37.896  33.687  28.086  1.00  0.00    -0.206 F 
ATOM     90  C   UNL A   1      34.758  34.226  29.798  1.00  0.00     0.060 A 
BRANCH  90  91
ATOM     91  S   UNL A   1      33.192  35.093  29.563  1.00  0.00     0.124 S 
ATOM     92  O   UNL A   1      32.583  34.963  30.881  1.00  0.00    -0.237 OA
ATOM     93  O   UNL A   1      33.636  36.433  29.192  1.00  0.00    -0.237 OA
ATOM     94  O   UNL A   1      32.549  34.337  28.491  1.00  0.00    -0.744 OA
ENDBRANCH  90  91
ENDBRANCH  58  83
BRANCH  70  95
ATOM     95  C   UNL A   1      43.142  34.867  33.315  1.00  0.00     0.058 A 
ATOM     96  C   UNL A   1      43.633  35.944  32.563  1.00  0.00     0.135 A 
ATOM     97  C   UNL A   1      43.032  35.030  34.705  1.00  0.00     0.135 A 
ATOM     98  F   UNL A   1      43.760  35.837  31.229  1.00  0.00    -0.206 F 
ATOM     99  C   UNL A   1      44.043  37.126  33.171  1.00  0.00     0.059 A 
ATOM    100  C   UNL A   1      43.405  36.214  35.331  1.00  0.00     0.059 A 
ATOM    101  F   UNL A   1      42.553  34.035  35.468  1.00  0.00    -0.206 F 
ATOM    102  C   UNL A   1      43.930  37.249  34.557  1.00  0.00     0.060 A 
BRANCH 102 103
ATOM    103  S   UNL A   1      44.466  38.785  35.334  1.00  0.00     0.124 S 
ATOM    104  O   UNL A   1      45.906  38.743  35.102  1.00  0.00    -0.237 OA
ATOM    105  O   UNL A   1      43.731  39.793  34.576  1.00  0.00    -0.237 OA
ATOM    106  O   UNL A   1      44.048  38.627  36.723  1.00  0.00    -0.744 OA
ENDBRANCH 102 103
ENDBRANCH  70  95
ENDBRANCH  44  45
ENDBRANCH  36  39
ENDBRANCH  34  35
ENDBRANCH   1  34
TORSDOF 18
ENDMDL
