MODEL 1
REMARK VINA RESULT:     -13.2      0.000      0.000
REMARK SMILES CN(C(=O)C[C@H]1SC(=O)N(c2cccc(O)c2)C1=O)c1ccccc1C(=O)NCCCNC(=O)c1ccc(-c2c3nc(c(-c4c(F)cc(S(=O)(=O)[O-])cc4F)c4ccc([nH]4)c(-c4c(F)cc(S(=O)(=O)[O-])cc4F)c4nc(c(-c5c(F)cc(S(=O)(=O)[O-])cc5F)c5ccc2[nH]5)C=C4)C=C3)cc1
REMARK SMILES IDX 26 1 27 2 28 3 25 5 20 6 21 7 22 8 24 9 23 10 2 11 1 12 3 13
REMARK SMILES IDX 4 14 5 15 6 16 7 17 18 18 8 19 10 20 19 21 9 22 11 23 12 24
REMARK SMILES IDX 17 25 13 26 15 27 14 28 16 29 29 31 30 32 31 33 32 34 33 35
REMARK SMILES IDX 34 37 35 38 36 39 100 40 37 41 99 42 38 43 39 44 40 45 93 46
REMARK SMILES IDX 41 47 98 48 92 49 94 50 42 51 97 52 91 53 90 54 43 56 77 57
REMARK SMILES IDX 56 58 76 59 57 60 60 61 75 62 95 63 58 64 59 65 74 67 96 68
REMARK SMILES IDX 61 69 44 70 45 71 54 72 46 73 47 74 53 75 55 76 48 77 49 78
REMARK SMILES IDX 50 79 51 80 52 81 78 82 79 83 88 84 80 85 81 86 87 87 89 88
REMARK SMILES IDX 82 89 83 90 84 91 85 92 86 93 62 94 63 95 72 96 64 97 65 98
REMARK SMILES IDX 71 99 73 100 66 101 67 102 68 103 69 104 70 105
REMARK H PARENT 28 4 16 30 32 36 94 55 60 66
REMARK Flexibility Score: inf
ROOT
ATOM      1  C   UNL A   1      31.730  29.037  23.678  1.00  0.00     0.253 C 
ATOM      2  O   UNL A   1      32.460  29.065  22.683  1.00  0.00    -0.269 OA
ATOM      3  N   UNL A   1      32.335  29.221  24.893  1.00  0.00    -0.352 N 
ATOM      4  H   UNL A   1      33.318  29.264  24.855  1.00  0.00     0.163 HD
ENDROOT
BRANCH   1   5
ATOM      5  C   UNL A   1      30.287  28.708  23.483  1.00  0.00     0.063 A 
ATOM      6  C   UNL A   1      29.639  27.458  23.601  1.00  0.00     0.056 A 
ATOM      7  C   UNL A   1      28.244  27.404  23.380  1.00  0.00     0.027 A 
ATOM      8  C   UNL A   1      27.496  28.554  23.111  1.00  0.00     0.002 A 
ATOM      9  C   UNL A   1      29.509  29.855  23.188  1.00  0.00     0.016 A 
ATOM     10  C   UNL A   1      28.127  29.785  23.021  1.00  0.00     0.001 A 
BRANCH   6  11
ATOM     11  N   UNL A   1      30.234  26.258  24.142  1.00  0.00    -0.315 N 
ATOM     12  C   UNL A   1      29.833  25.975  25.517  1.00  0.00     0.153 C 
BRANCH  11  13
ATOM     13  C   UNL A   1      30.929  25.386  23.293  1.00  0.00     0.228 C 
ATOM     14  O   UNL A   1      31.425  25.777  22.230  1.00  0.00    -0.274 OA
BRANCH  13  15
ATOM     15  C   UNL A   1      31.174  23.924  23.699  1.00  0.00     0.125 C 
BRANCH  15  16
ATOM     16  C   UNL A   1      32.238  23.773  24.787  1.00  0.00     0.156 C 
ATOM     17  S   UNL A   1      31.811  22.552  26.059  1.00  0.00    -0.050 SA
ATOM     18  C   UNL A   1      33.644  23.330  24.350  1.00  0.00     0.248 C 
ATOM     19  C   UNL A   1      33.489  22.242  26.436  1.00  0.00     0.293 C 
ATOM     20  N   UNL A   1      34.290  22.695  25.415  1.00  0.00    -0.240 N 
ATOM     21  O   UNL A   1      34.126  23.608  23.259  1.00  0.00    -0.273 OA
ATOM     22  O   UNL A   1      33.792  21.623  27.442  1.00  0.00    -0.261 OA
BRANCH  20  23
ATOM     23  C   UNL A   1      35.696  22.484  25.473  1.00  0.00     0.056 A 
ATOM     24  C   UNL A   1      36.569  23.458  25.964  1.00  0.00     0.027 A 
ATOM     25  C   UNL A   1      36.235  21.272  25.015  1.00  0.00     0.073 A 
ATOM     26  C   UNL A   1      37.952  23.221  25.966  1.00  0.00     0.006 A 
ATOM     27  C   UNL A   1      37.591  20.998  25.147  1.00  0.00     0.117 A 
ATOM     28  C   UNL A   1      38.465  21.978  25.586  1.00  0.00     0.046 A 
BRANCH  27  29
ATOM     29  O   UNL A   1      38.017  19.738  24.851  1.00  0.00    -0.508 OA
ATOM     30  H   UNL A   1      37.405  19.096  24.546  1.00  0.00     0.293 HD
ENDBRANCH  27  29
ENDBRANCH  20  23
ENDBRANCH  15  16
ENDBRANCH  13  15
ENDBRANCH  11  13
ENDBRANCH   6  11
ENDBRANCH   1   5
BRANCH   3  31
ATOM     31  C   UNL A   1      31.785  29.365  26.219  1.00  0.00     0.118 C 
BRANCH  31  32
ATOM     32  C   UNL A   1      32.110  30.663  26.943  1.00  0.00     0.042 C 
BRANCH  32  33
ATOM     33  C   UNL A   1      33.587  30.935  27.184  1.00  0.00     0.118 C 
BRANCH  33  34
ATOM     34  N   UNL A   1      33.883  31.566  28.449  1.00  0.00    -0.352 N 
ATOM     35  C   UNL A   1      35.020  31.483  29.197  1.00  0.00     0.251 C 
ATOM     36  H   UNL A   1      33.168  32.132  28.820  1.00  0.00     0.163 HD
ATOM     37  O   UNL A   1      35.162  32.212  30.174  1.00  0.00    -0.269 OA
BRANCH  35  38
ATOM     38  C   UNL A   1      36.044  30.463  28.924  1.00  0.00     0.039 A 
ATOM     39  C   UNL A   1      36.478  29.725  30.022  1.00  0.00     0.014 A 
ATOM     40  C   UNL A   1      36.766  30.437  27.737  1.00  0.00     0.014 A 
ATOM     41  C   UNL A   1      37.733  29.127  30.015  1.00  0.00     0.010 A 
ATOM     42  C   UNL A   1      37.970  29.720  27.692  1.00  0.00     0.010 A 
ATOM     43  C   UNL A   1      38.517  29.141  28.860  1.00  0.00    -0.014 A 
BRANCH  43  44
ATOM     44  C   UNL A   1      39.962  28.753  28.895  1.00  0.00     0.031 A 
ATOM     45  C   UNL A   1      40.966  29.788  29.345  1.00  0.00     0.074 A 
ATOM     46  C   UNL A   1      40.409  27.512  28.611  1.00  0.00     0.049 A 
ATOM     47  N   UNL A   1      42.241  29.885  29.078  1.00  0.00    -0.248 NA
ATOM     48  C   UNL A   1      40.447  30.881  30.186  1.00  0.00     0.031 C 
ATOM     49  C   UNL A   1      39.579  26.341  28.329  1.00  0.00     0.029 A 
ATOM     50  N   UNL A   1      41.695  27.028  28.523  1.00  0.00    -0.354 N 
ATOM     51  C   UNL A   1      42.643  31.112  29.599  1.00  0.00     0.074 A 
ATOM     52  C   UNL A   1      41.486  31.703  30.234  1.00  0.00     0.031 C 
ATOM     53  C   UNL A   1      40.369  25.271  28.149  1.00  0.00     0.029 A 
ATOM     54  C   UNL A   1      41.760  25.706  28.146  1.00  0.00     0.049 A 
ATOM     55  H   UNL A   1      42.491  27.575  28.711  1.00  0.00     0.167 HD
ATOM     56  C   UNL A   1      43.864  31.692  29.517  1.00  0.00     0.037 A 
ATOM     57  C   UNL A   1      42.807  24.953  27.751  1.00  0.00     0.037 A 
ATOM     58  C   UNL A   1      45.017  31.019  28.978  1.00  0.00     0.049 A 
ATOM     59  C   UNL A   1      44.158  25.608  27.636  1.00  0.00     0.074 A 
ATOM     60  C   UNL A   1      46.303  31.500  28.804  1.00  0.00     0.029 A 
ATOM     61  N   UNL A   1      45.027  29.693  28.566  1.00  0.00    -0.354 N 
ATOM     62  N   UNL A   1      44.503  26.842  27.925  1.00  0.00    -0.248 NA
ATOM     63  C   UNL A   1      45.250  24.788  27.095  1.00  0.00     0.031 C 
ATOM     64  C   UNL A   1      47.082  30.469  28.265  1.00  0.00     0.029 A 
ATOM     65  C   UNL A   1      46.294  29.335  28.144  1.00  0.00     0.049 A 
ATOM     66  H   UNL A   1      44.245  29.095  28.574  1.00  0.00     0.167 HD
ATOM     67  C   UNL A   1      45.850  26.947  27.599  1.00  0.00     0.074 A 
ATOM     68  C   UNL A   1      46.263  25.644  27.115  1.00  0.00     0.031 C 
ATOM     69  C   UNL A   1      46.672  28.024  27.679  1.00  0.00     0.037 A 
BRANCH  56  70
ATOM     70  C   UNL A   1      43.992  33.130  29.944  1.00  0.00     0.058 A 
ATOM     71  C   UNL A   1      43.763  34.208  29.076  1.00  0.00     0.135 A 
ATOM     72  C   UNL A   1      44.355  33.431  31.270  1.00  0.00     0.135 A 
ATOM     73  F   UNL A   1      43.434  33.985  27.794  1.00  0.00    -0.206 F 
ATOM     74  C   UNL A   1      43.923  35.529  29.494  1.00  0.00     0.059 A 
ATOM     75  C   UNL A   1      44.493  34.741  31.718  1.00  0.00     0.059 A 
ATOM     76  F   UNL A   1      44.589  32.441  32.146  1.00  0.00    -0.206 F 
ATOM     77  C   UNL A   1      44.293  35.785  30.817  1.00  0.00     0.060 A 
BRANCH  77  78
ATOM     78  S   UNL A   1      44.508  37.498  31.346  1.00  0.00     0.124 S 
ATOM     79  O   UNL A   1      45.960  37.642  31.283  1.00  0.00    -0.237 OA
ATOM     80  O   UNL A   1      43.755  38.235  30.337  1.00  0.00    -0.237 OA
ATOM     81  O   UNL A   1      43.935  37.516  32.688  1.00  0.00    -0.744 OA
ENDBRANCH  77  78
ENDBRANCH  56  70
BRANCH  57  82
ATOM     82  C   UNL A   1      42.595  23.537  27.335  1.00  0.00     0.058 A 
ATOM     83  C   UNL A   1      42.549  23.174  25.981  1.00  0.00     0.135 A 
ATOM     84  C   UNL A   1      42.463  22.509  28.284  1.00  0.00     0.135 A 
ATOM     85  F   UNL A   1      42.645  24.117  25.031  1.00  0.00    -0.206 F 
ATOM     86  C   UNL A   1      42.394  21.848  25.584  1.00  0.00     0.059 A 
ATOM     87  C   UNL A   1      42.342  21.174  27.913  1.00  0.00     0.059 A 
ATOM     88  F   UNL A   1      42.496  22.796  29.595  1.00  0.00    -0.206 F 
ATOM     89  C   UNL A   1      42.302  20.853  26.558  1.00  0.00     0.060 A 
BRANCH  89  90
ATOM     90  S   UNL A   1      42.188  19.126  26.039  1.00  0.00     0.124 S 
ATOM     91  O   UNL A   1      43.085  19.105  24.890  1.00  0.00    -0.237 OA
ATOM     92  O   UNL A   1      42.653  18.414  27.226  1.00  0.00    -0.237 OA
ATOM     93  O   UNL A   1      40.769  18.961  25.736  1.00  0.00    -0.744 OA
ENDBRANCH  89  90
ENDBRANCH  57  82
BRANCH  69  94
ATOM     94  C   UNL A   1      48.102  27.824  27.270  1.00  0.00     0.058 A 
ATOM     95  C   UNL A   1      49.087  27.457  28.199  1.00  0.00     0.135 A 
ATOM     96  C   UNL A   1      48.477  27.952  25.923  1.00  0.00     0.135 A 
ATOM     97  F   UNL A   1      48.777  27.329  29.498  1.00  0.00    -0.206 F 
ATOM     98  C   UNL A   1      50.404  27.243  27.809  1.00  0.00     0.059 A 
ATOM     99  C   UNL A   1      49.782  27.720  25.507  1.00  0.00     0.059 A 
ATOM    100  F   UNL A   1      47.566  28.292  24.998  1.00  0.00    -0.206 F 
ATOM    101  C   UNL A   1      50.742  27.376  26.460  1.00  0.00     0.060 A 
BRANCH 101 102
ATOM    102  S   UNL A   1      52.448  27.065  25.959  1.00  0.00     0.124 S 
ATOM    103  O   UNL A   1      53.184  27.498  27.140  1.00  0.00    -0.237 OA
ATOM    104  O   UNL A   1      52.443  25.627  25.706  1.00  0.00    -0.237 OA
ATOM    105  O   UNL A   1      52.611  27.902  24.774  1.00  0.00    -0.744 OA
ENDBRANCH 101 102
ENDBRANCH  69  94
ENDBRANCH  43  44
ENDBRANCH  35  38
ENDBRANCH  33  34
ENDBRANCH  32  33
ENDBRANCH  31  32
ENDBRANCH   3  31
TORSDOF 19
ENDMDL
MODEL 2
REMARK VINA RESULT:     -12.9      4.748     10.771
REMARK SMILES CN(C(=O)C[C@H]1SC(=O)N(c2cccc(O)c2)C1=O)c1ccccc1C(=O)NCCCNC(=O)c1ccc(-c2c3nc(c(-c4c(F)cc(S(=O)(=O)[O-])cc4F)c4ccc([nH]4)c(-c4c(F)cc(S(=O)(=O)[O-])cc4F)c4nc(c(-c5c(F)cc(S(=O)(=O)[O-])cc5F)c5ccc2[nH]5)C=C4)C=C3)cc1
REMARK SMILES IDX 26 1 27 2 28 3 25 5 20 6 21 7 22 8 24 9 23 10 2 11 1 12 3 13
REMARK SMILES IDX 4 14 5 15 6 16 7 17 18 18 8 19 10 20 19 21 9 22 11 23 12 24
REMARK SMILES IDX 17 25 13 26 15 27 14 28 16 29 29 31 30 32 31 33 32 34 33 35
REMARK SMILES IDX 34 37 35 38 36 39 100 40 37 41 99 42 38 43 39 44 40 45 93 46
REMARK SMILES IDX 41 47 98 48 92 49 94 50 42 51 97 52 91 53 90 54 43 56 77 57
REMARK SMILES IDX 56 58 76 59 57 60 60 61 75 62 95 63 58 64 59 65 74 67 96 68
REMARK SMILES IDX 61 69 44 70 45 71 54 72 46 73 47 74 53 75 55 76 48 77 49 78
REMARK SMILES IDX 50 79 51 80 52 81 78 82 79 83 88 84 80 85 81 86 87 87 89 88
REMARK SMILES IDX 82 89 83 90 84 91 85 92 86 93 62 94 63 95 72 96 64 97 65 98
REMARK SMILES IDX 71 99 73 100 66 101 67 102 68 103 69 104 70 105
REMARK H PARENT 28 4 16 30 32 36 94 55 60 66
REMARK Flexibility Score: inf
ROOT
ATOM      1  C   UNL A   1      34.295  21.059  25.920  1.00  0.00     0.253 C 
ATOM      2  O   UNL A   1      33.762  21.129  27.031  1.00  0.00    -0.269 OA
ATOM      3  N   UNL A   1      35.482  21.724  25.763  1.00  0.00    -0.352 N 
ATOM      4  H   UNL A   1      35.745  22.274  26.536  1.00  0.00     0.163 HD
ENDROOT
BRANCH   1   5
ATOM      5  C   UNL A   1      33.559  20.353  24.830  1.00  0.00     0.063 A 
ATOM      6  C   UNL A   1      32.702  20.891  23.846  1.00  0.00     0.056 A 
ATOM      7  C   UNL A   1      32.130  20.009  22.902  1.00  0.00     0.027 A 
ATOM      8  C   UNL A   1      32.438  18.645  22.886  1.00  0.00     0.002 A 
ATOM      9  C   UNL A   1      33.839  18.963  24.806  1.00  0.00     0.016 A 
ATOM     10  C   UNL A   1      33.301  18.120  23.836  1.00  0.00     0.001 A 
BRANCH   6  11
ATOM     11  N   UNL A   1      32.522  22.299  23.576  1.00  0.00    -0.315 N 
ATOM     12  C   UNL A   1      33.299  22.781  22.438  1.00  0.00     0.153 C 
BRANCH  11  13
ATOM     13  C   UNL A   1      31.511  23.007  24.238  1.00  0.00     0.228 C 
ATOM     14  O   UNL A   1      31.065  22.631  25.328  1.00  0.00    -0.274 OA
BRANCH  13  15
ATOM     15  C   UNL A   1      30.979  24.333  23.670  1.00  0.00     0.125 C 
BRANCH  15  16
ATOM     16  C   UNL A   1      31.991  25.476  23.765  1.00  0.00     0.156 C 
ATOM     17  S   UNL A   1      31.989  26.571  22.319  1.00  0.00    -0.050 SA
ATOM     18  C   UNL A   1      31.844  26.461  24.936  1.00  0.00     0.248 C 
ATOM     19  C   UNL A   1      32.590  27.925  23.247  1.00  0.00     0.293 C 
ATOM     20  N   UNL A   1      32.402  27.694  24.588  1.00  0.00    -0.240 N 
ATOM     21  O   UNL A   1      31.396  26.139  26.030  1.00  0.00    -0.273 OA
ATOM     22  O   UNL A   1      33.009  28.922  22.683  1.00  0.00    -0.261 OA
BRANCH  20  23
ATOM     23  C   UNL A   1      32.753  28.697  25.534  1.00  0.00     0.056 A 
ATOM     24  C   UNL A   1      33.952  28.652  26.249  1.00  0.00     0.027 A 
ATOM     25  C   UNL A   1      31.870  29.762  25.774  1.00  0.00     0.073 A 
ATOM     26  C   UNL A   1      34.238  29.643  27.200  1.00  0.00     0.006 A 
ATOM     27  C   UNL A   1      32.225  30.807  26.619  1.00  0.00     0.117 A 
ATOM     28  C   UNL A   1      33.389  30.740  27.366  1.00  0.00     0.046 A 
BRANCH  27  29
ATOM     29  O   UNL A   1      31.404  31.893  26.667  1.00  0.00    -0.508 OA
ATOM     30  H   UNL A   1      30.474  31.776  26.702  1.00  0.00     0.293 HD
ENDBRANCH  27  29
ENDBRANCH  20  23
ENDBRANCH  15  16
ENDBRANCH  13  15
ENDBRANCH  11  13
ENDBRANCH   6  11
ENDBRANCH   1   5
BRANCH   3  31
ATOM     31  C   UNL A   1      36.416  21.757  24.664  1.00  0.00     0.118 C 
BRANCH  31  32
ATOM     32  C   UNL A   1      37.806  21.207  24.947  1.00  0.00     0.042 C 
BRANCH  32  33
ATOM     33  C   UNL A   1      38.577  21.897  26.061  1.00  0.00     0.118 C 
BRANCH  33  34
ATOM     34  N   UNL A   1      39.989  22.059  25.803  1.00  0.00    -0.352 N 
ATOM     35  C   UNL A   1      40.821  23.058  26.214  1.00  0.00     0.251 C 
ATOM     36  H   UNL A   1      40.405  21.354  25.257  1.00  0.00     0.163 HD
ATOM     37  O   UNL A   1      42.030  22.958  26.035  1.00  0.00    -0.269 OA
BRANCH  35  38
ATOM     38  C   UNL A   1      40.293  24.311  26.779  1.00  0.00     0.039 A 
ATOM     39  C   UNL A   1      40.847  25.486  26.278  1.00  0.00     0.014 A 
ATOM     40  C   UNL A   1      39.535  24.337  27.943  1.00  0.00     0.014 A 
ATOM     41  C   UNL A   1      40.827  26.651  27.038  1.00  0.00     0.010 A 
ATOM     42  C   UNL A   1      39.404  25.547  28.638  1.00  0.00     0.010 A 
ATOM     43  C   UNL A   1      40.132  26.694  28.248  1.00  0.00    -0.014 A 
BRANCH  43  44
ATOM     44  C   UNL A   1      40.311  27.828  29.209  1.00  0.00     0.031 A 
ATOM     45  C   UNL A   1      41.509  27.797  30.129  1.00  0.00     0.074 A 
ATOM     46  C   UNL A   1      39.502  28.906  29.252  1.00  0.00     0.049 A 
ATOM     47  N   UNL A   1      41.684  28.368  31.290  1.00  0.00    -0.248 NA
ATOM     48  C   UNL A   1      42.653  26.978  29.688  1.00  0.00     0.031 C 
ATOM     49  C   UNL A   1      38.404  29.196  28.329  1.00  0.00     0.029 A 
ATOM     50  N   UNL A   1      39.490  29.975  30.118  1.00  0.00    -0.354 N 
ATOM     51  C   UNL A   1      42.890  27.872  31.778  1.00  0.00     0.074 A 
ATOM     52  C   UNL A   1      43.424  26.987  30.767  1.00  0.00     0.031 C 
ATOM     53  C   UNL A   1      37.860  30.382  28.647  1.00  0.00     0.029 A 
ATOM     54  C   UNL A   1      38.463  30.861  29.884  1.00  0.00     0.049 A 
ATOM     55  H   UNL A   1      40.153  30.096  30.836  1.00  0.00     0.167 HD
ATOM     56  C   UNL A   1      43.469  28.120  32.977  1.00  0.00     0.037 A 
ATOM     57  C   UNL A   1      37.998  31.886  30.626  1.00  0.00     0.037 A 
ATOM     58  C   UNL A   1      42.963  29.097  33.905  1.00  0.00     0.049 A 
ATOM     59  C   UNL A   1      38.627  32.142  31.970  1.00  0.00     0.074 A 
ATOM     60  C   UNL A   1      43.430  29.424  35.166  1.00  0.00     0.029 A 
ATOM     61  N   UNL A   1      41.892  29.942  33.644  1.00  0.00    -0.354 N 
ATOM     62  N   UNL A   1      39.640  31.528  32.535  1.00  0.00    -0.248 NA
ATOM     63  C   UNL A   1      38.020  33.192  32.799  1.00  0.00     0.031 C 
ATOM     64  C   UNL A   1      42.626  30.451  35.674  1.00  0.00     0.029 A 
ATOM     65  C   UNL A   1      41.686  30.793  34.715  1.00  0.00     0.049 A 
ATOM     66  H   UNL A   1      41.358  29.936  32.817  1.00  0.00     0.167 HD
ATOM     67  C   UNL A   1      39.792  32.115  33.786  1.00  0.00     0.074 A 
ATOM     68  C   UNL A   1      38.782  33.151  33.883  1.00  0.00     0.031 C 
ATOM     69  C   UNL A   1      40.676  31.820  34.772  1.00  0.00     0.037 A 
BRANCH  56  70
ATOM     70  C   UNL A   1      44.650  27.277  33.376  1.00  0.00     0.058 A 
ATOM     71  C   UNL A   1      45.979  27.656  33.131  1.00  0.00     0.135 A 
ATOM     72  C   UNL A   1      44.437  26.048  34.027  1.00  0.00     0.135 A 
ATOM     73  F   UNL A   1      46.246  28.808  32.495  1.00  0.00    -0.206 F 
ATOM     74  C   UNL A   1      47.049  26.836  33.484  1.00  0.00     0.059 A 
ATOM     75  C   UNL A   1      45.491  25.225  34.415  1.00  0.00     0.059 A 
ATOM     76  F   UNL A   1      43.188  25.630  34.287  1.00  0.00    -0.206 F 
ATOM     77  C   UNL A   1      46.794  25.619  34.122  1.00  0.00     0.060 A 
BRANCH  77  78
ATOM     78  S   UNL A   1      48.187  24.559  34.565  1.00  0.00     0.124 S 
ATOM     79  O   UNL A   1      49.083  24.765  33.431  1.00  0.00    -0.237 OA
ATOM     80  O   UNL A   1      48.628  25.132  35.832  1.00  0.00    -0.237 OA
ATOM     81  O   UNL A   1      47.589  23.230  34.657  1.00  0.00    -0.744 OA
ENDBRANCH  77  78
ENDBRANCH  56  70
BRANCH  57  82
ATOM     82  C   UNL A   1      36.815  32.668  30.163  1.00  0.00     0.058 A 
ATOM     83  C   UNL A   1      35.509  32.288  30.507  1.00  0.00     0.135 A 
ATOM     84  C   UNL A   1      36.966  33.833  29.391  1.00  0.00     0.135 A 
ATOM     85  F   UNL A   1      35.303  31.171  31.222  1.00  0.00    -0.206 F 
ATOM     86  C   UNL A   1      34.402  33.036  30.114  1.00  0.00     0.059 A 
ATOM     87  C   UNL A   1      35.879  34.616  29.017  1.00  0.00     0.059 A 
ATOM     88  F   UNL A   1      38.192  34.245  29.029  1.00  0.00    -0.206 F 
ATOM     89  C   UNL A   1      34.598  34.206  29.378  1.00  0.00     0.060 A 
BRANCH  89  90
ATOM     90  S   UNL A   1      33.166  35.219  28.945  1.00  0.00     0.124 S 
ATOM     91  O   UNL A   1      33.804  36.401  28.378  1.00  0.00    -0.237 OA
ATOM     92  O   UNL A   1      32.455  34.362  28.001  1.00  0.00    -0.237 OA
ATOM     93  O   UNL A   1      32.496  35.416  30.227  1.00  0.00    -0.744 OA
ENDBRANCH  89  90
ENDBRANCH  57  82
BRANCH  69  94
ATOM     94  C   UNL A   1      40.612  32.653  36.019  1.00  0.00     0.058 A 
ATOM     95  C   UNL A   1      39.706  32.364  37.051  1.00  0.00     0.135 A 
ATOM     96  C   UNL A   1      41.503  33.722  36.202  1.00  0.00     0.135 A 
ATOM     97  F   UNL A   1      38.829  31.356  36.918  1.00  0.00    -0.206 F 
ATOM     98  C   UNL A   1      39.673  33.120  38.217  1.00  0.00     0.059 A 
ATOM     99  C   UNL A   1      41.504  34.477  37.369  1.00  0.00     0.059 A 
ATOM    100  F   UNL A   1      42.394  34.029  35.247  1.00  0.00    -0.206 F 
ATOM    101  C   UNL A   1      40.577  34.174  38.367  1.00  0.00     0.060 A 
BRANCH 101 102
ATOM    102  S   UNL A   1      40.547  35.130  39.897  1.00  0.00     0.124 S 
ATOM    103  O   UNL A   1      41.266  34.248  40.809  1.00  0.00    -0.237 OA
ATOM    104  O   UNL A   1      41.245  36.355  39.516  1.00  0.00    -0.237 OA
ATOM    105  O   UNL A   1      39.121  35.290  40.170  1.00  0.00    -0.744 OA
ENDBRANCH 101 102
ENDBRANCH  69  94
ENDBRANCH  43  44
ENDBRANCH  35  38
ENDBRANCH  33  34
ENDBRANCH  32  33
ENDBRANCH  31  32
ENDBRANCH   3  31
TORSDOF 19
ENDMDL
MODEL 3
REMARK VINA RESULT:     -12.5      4.783     10.944
REMARK SMILES CN(C(=O)C[C@H]1SC(=O)N(c2cccc(O)c2)C1=O)c1ccccc1C(=O)NCCCNC(=O)c1ccc(-c2c3nc(c(-c4c(F)cc(S(=O)(=O)[O-])cc4F)c4ccc([nH]4)c(-c4c(F)cc(S(=O)(=O)[O-])cc4F)c4nc(c(-c5c(F)cc(S(=O)(=O)[O-])cc5F)c5ccc2[nH]5)C=C4)C=C3)cc1
REMARK SMILES IDX 26 1 27 2 28 3 25 5 20 6 21 7 22 8 24 9 23 10 2 11 1 12 3 13
REMARK SMILES IDX 4 14 5 15 6 16 7 17 18 18 8 19 10 20 19 21 9 22 11 23 12 24
REMARK SMILES IDX 17 25 13 26 15 27 14 28 16 29 29 31 30 32 31 33 32 34 33 35
REMARK SMILES IDX 34 37 35 38 36 39 100 40 37 41 99 42 38 43 39 44 40 45 93 46
REMARK SMILES IDX 41 47 98 48 92 49 94 50 42 51 97 52 91 53 90 54 43 56 77 57
REMARK SMILES IDX 56 58 76 59 57 60 60 61 75 62 95 63 58 64 59 65 74 67 96 68
REMARK SMILES IDX 61 69 44 70 45 71 54 72 46 73 47 74 53 75 55 76 48 77 49 78
REMARK SMILES IDX 50 79 51 80 52 81 78 82 79 83 88 84 80 85 81 86 87 87 89 88
REMARK SMILES IDX 82 89 83 90 84 91 85 92 86 93 62 94 63 95 72 96 64 97 65 98
REMARK SMILES IDX 71 99 73 100 66 101 67 102 68 103 69 104 70 105
REMARK H PARENT 28 4 16 30 32 36 94 55 60 66
REMARK Flexibility Score: inf
ROOT
ATOM      1  C   UNL A   1      34.606  20.003  24.927  1.00  0.00     0.253 C 
ATOM      2  O   UNL A   1      33.794  19.225  24.417  1.00  0.00    -0.269 OA
ATOM      3  N   UNL A   1      35.917  19.608  24.932  1.00  0.00    -0.352 N 
ATOM      4  H   UNL A   1      36.068  18.691  24.609  1.00  0.00     0.163 HD
ENDROOT
BRANCH   1   5
ATOM      5  C   UNL A   1      34.082  21.241  25.575  1.00  0.00     0.063 A 
ATOM      6  C   UNL A   1      33.613  22.428  24.970  1.00  0.00     0.056 A 
ATOM      7  C   UNL A   1      33.148  23.467  25.807  1.00  0.00     0.027 A 
ATOM      8  C   UNL A   1      33.090  23.324  27.196  1.00  0.00     0.002 A 
ATOM      9  C   UNL A   1      34.033  21.129  26.987  1.00  0.00     0.016 A 
ATOM     10  C   UNL A   1      33.527  22.150  27.789  1.00  0.00     0.001 A 
BRANCH   6  11
ATOM     11  N   UNL A   1      33.357  22.599  23.558  1.00  0.00    -0.315 N 
ATOM     12  C   UNL A   1      32.223  21.819  23.070  1.00  0.00     0.153 C 
BRANCH  11  13
ATOM     13  C   UNL A   1      34.026  23.606  22.850  1.00  0.00     0.228 C 
ATOM     14  O   UNL A   1      35.261  23.669  22.828  1.00  0.00    -0.274 OA
BRANCH  13  15
ATOM     15  C   UNL A   1      33.246  24.622  22.001  1.00  0.00     0.125 C 
BRANCH  15  16
ATOM     16  C   UNL A   1      32.324  25.517  22.833  1.00  0.00     0.156 C 
ATOM     17  S   UNL A   1      33.208  26.571  24.015  1.00  0.00    -0.050 SA
ATOM     18  C   UNL A   1      31.438  26.521  22.078  1.00  0.00     0.248 C 
ATOM     19  C   UNL A   1      31.935  27.770  24.014  1.00  0.00     0.293 C 
ATOM     20  N   UNL A   1      31.131  27.598  22.914  1.00  0.00    -0.240 N 
ATOM     21  O   UNL A   1      31.001  26.316  20.953  1.00  0.00    -0.273 OA
ATOM     22  O   UNL A   1      31.912  28.646  24.863  1.00  0.00    -0.261 OA
BRANCH  20  23
ATOM     23  C   UNL A   1      30.066  28.510  22.668  1.00  0.00     0.056 A 
ATOM     24  C   UNL A   1      30.272  29.732  22.025  1.00  0.00     0.027 A 
ATOM     25  C   UNL A   1      28.767  28.187  23.093  1.00  0.00     0.073 A 
ATOM     26  C   UNL A   1      29.199  30.616  21.840  1.00  0.00     0.006 A 
ATOM     27  C   UNL A   1      27.690  29.011  22.784  1.00  0.00     0.117 A 
ATOM     28  C   UNL A   1      27.899  30.245  22.191  1.00  0.00     0.046 A 
BRANCH  27  29
ATOM     29  O   UNL A   1      26.438  28.552  23.064  1.00  0.00    -0.508 OA
ATOM     30  H   UNL A   1      25.752  28.648  22.433  1.00  0.00     0.293 HD
ENDBRANCH  27  29
ENDBRANCH  20  23
ENDBRANCH  15  16
ENDBRANCH  13  15
ENDBRANCH  11  13
ENDBRANCH   6  11
ENDBRANCH   1   5
BRANCH   3  31
ATOM     31  C   UNL A   1      37.118  20.303  25.328  1.00  0.00     0.118 C 
BRANCH  31  32
ATOM     32  C   UNL A   1      37.363  21.651  24.667  1.00  0.00     0.042 C 
BRANCH  32  33
ATOM     33  C   UNL A   1      37.972  22.724  25.557  1.00  0.00     0.118 C 
BRANCH  33  34
ATOM     34  N   UNL A   1      39.397  22.598  25.760  1.00  0.00    -0.352 N 
ATOM     35  C   UNL A   1      40.217  23.359  26.539  1.00  0.00     0.251 C 
ATOM     36  H   UNL A   1      39.833  21.864  25.270  1.00  0.00     0.163 HD
ATOM     37  O   UNL A   1      41.380  23.015  26.718  1.00  0.00    -0.269 OA
BRANCH  35  38
ATOM     38  C   UNL A   1      39.770  24.648  27.090  1.00  0.00     0.039 A 
ATOM     39  C   UNL A   1      40.390  25.782  26.571  1.00  0.00     0.014 A 
ATOM     40  C   UNL A   1      39.023  24.735  28.258  1.00  0.00     0.014 A 
ATOM     41  C   UNL A   1      40.446  26.955  27.316  1.00  0.00     0.010 A 
ATOM     42  C   UNL A   1      38.970  25.960  28.939  1.00  0.00     0.010 A 
ATOM     43  C   UNL A   1      39.763  27.055  28.530  1.00  0.00    -0.014 A 
BRANCH  43  44
ATOM     44  C   UNL A   1      40.018  28.188  29.474  1.00  0.00     0.031 A 
ATOM     45  C   UNL A   1      41.243  28.117  30.355  1.00  0.00     0.074 A 
ATOM     46  C   UNL A   1      39.252  29.298  29.534  1.00  0.00     0.049 A 
ATOM     47  N   UNL A   1      41.477  28.690  31.506  1.00  0.00    -0.248 NA
ATOM     48  C   UNL A   1      42.339  27.252  29.885  1.00  0.00     0.031 C 
ATOM     49  C   UNL A   1      38.137  29.623  28.646  1.00  0.00     0.029 A 
ATOM     50  N   UNL A   1      39.310  30.372  30.391  1.00  0.00    -0.354 N 
ATOM     51  C   UNL A   1      42.678  28.151  31.958  1.00  0.00     0.074 A 
ATOM     52  C   UNL A   1      43.145  27.239  30.938  1.00  0.00     0.031 C 
ATOM     53  C   UNL A   1      37.650  30.831  28.970  1.00  0.00     0.029 A 
ATOM     54  C   UNL A   1      38.310  31.296  30.183  1.00  0.00     0.049 A 
ATOM     55  H   UNL A   1      40.000  30.472  31.087  1.00  0.00     0.167 HD
ATOM     56  C   UNL A   1      43.306  28.385  33.135  1.00  0.00     0.037 A 
ATOM     57  C   UNL A   1      37.910  32.344  30.932  1.00  0.00     0.037 A 
ATOM     58  C   UNL A   1      42.868  29.387  34.071  1.00  0.00     0.049 A 
ATOM     59  C   UNL A   1      38.591  32.584  32.252  1.00  0.00     0.074 A 
ATOM     60  C   UNL A   1      43.389  29.705  35.314  1.00  0.00     0.029 A 
ATOM     61  N   UNL A   1      41.823  30.271  33.838  1.00  0.00    -0.354 N 
ATOM     62  N   UNL A   1      39.598  31.935  32.790  1.00  0.00    -0.248 NA
ATOM     63  C   UNL A   1      38.053  33.663  33.091  1.00  0.00     0.031 C 
ATOM     64  C   UNL A   1      42.641  30.766  35.839  1.00  0.00     0.029 A 
ATOM     65  C   UNL A   1      41.684  31.137  34.908  1.00  0.00     0.049 A 
ATOM     66  H   UNL A   1      41.262  30.280  33.029  1.00  0.00     0.167 HD
ATOM     67  C   UNL A   1      39.814  32.525  34.030  1.00  0.00     0.074 A 
ATOM     68  C   UNL A   1      38.848  33.600  34.151  1.00  0.00     0.031 C 
ATOM     69  C   UNL A   1      40.717  32.203  34.990  1.00  0.00     0.037 A 
BRANCH  56  70
ATOM     70  C   UNL A   1      44.466  27.499  33.504  1.00  0.00     0.058 A 
ATOM     71  C   UNL A   1      45.800  27.827  33.215  1.00  0.00     0.135 A 
ATOM     72  C   UNL A   1      44.226  26.283  34.169  1.00  0.00     0.135 A 
ATOM     73  F   UNL A   1      46.090  28.964  32.564  1.00  0.00    -0.206 F 
ATOM     74  C   UNL A   1      46.848  26.968  33.540  1.00  0.00     0.059 A 
ATOM     75  C   UNL A   1      45.260  25.423  34.529  1.00  0.00     0.059 A 
ATOM     76  F   UNL A   1      42.971  25.914  34.470  1.00  0.00    -0.206 F 
ATOM     77  C   UNL A   1      46.568  25.765  34.194  1.00  0.00     0.060 A 
BRANCH  77  78
ATOM     78  S   UNL A   1      47.932  24.654  34.600  1.00  0.00     0.124 S 
ATOM     79  O   UNL A   1      47.356  23.353  34.274  1.00  0.00    -0.237 OA
ATOM     80  O   UNL A   1      48.990  25.119  33.709  1.00  0.00    -0.237 OA
ATOM     81  O   UNL A   1      48.161  24.900  36.021  1.00  0.00    -0.744 OA
ENDBRANCH  77  78
ENDBRANCH  56  70
BRANCH  57  82
ATOM     82  C   UNL A   1      36.743  33.167  30.501  1.00  0.00     0.058 A 
ATOM     83  C   UNL A   1      36.872  34.153  29.511  1.00  0.00     0.135 A 
ATOM     84  C   UNL A   1      35.464  32.965  31.048  1.00  0.00     0.135 A 
ATOM     85  F   UNL A   1      38.074  34.406  28.971  1.00  0.00    -0.206 F 
ATOM     86  C   UNL A   1      35.779  34.897  29.072  1.00  0.00     0.059 A 
ATOM     87  C   UNL A   1      34.351  33.670  30.602  1.00  0.00     0.059 A 
ATOM     88  F   UNL A   1      35.279  32.037  32.000  1.00  0.00    -0.206 F 
ATOM     89  C   UNL A   1      34.520  34.640  29.616  1.00  0.00     0.060 A 
BRANCH  89  90
ATOM     90  S   UNL A   1      33.090  35.546  28.984  1.00  0.00     0.124 S 
ATOM     91  O   UNL A   1      33.732  36.653  28.283  1.00  0.00    -0.237 OA
ATOM     92  O   UNL A   1      32.439  34.548  28.140  1.00  0.00    -0.237 OA
ATOM     93  O   UNL A   1      32.358  35.905  30.195  1.00  0.00    -0.744 OA
ENDBRANCH  89  90
ENDBRANCH  57  82
BRANCH  69  94
ATOM     94  C   UNL A   1      40.726  33.047  36.231  1.00  0.00     0.058 A 
ATOM     95  C   UNL A   1      39.916  32.739  37.334  1.00  0.00     0.135 A 
ATOM     96  C   UNL A   1      41.594  34.146  36.332  1.00  0.00     0.135 A 
ATOM     97  F   UNL A   1      39.066  31.703  37.281  1.00  0.00    -0.206 F 
ATOM     98  C   UNL A   1      39.952  33.507  38.493  1.00  0.00     0.059 A 
ATOM     99  C   UNL A   1      41.663  34.913  37.489  1.00  0.00     0.059 A 
ATOM    100  F   UNL A   1      42.394  34.472  35.306  1.00  0.00    -0.206 F 
ATOM    101  C   UNL A   1      40.830  34.591  38.561  1.00  0.00     0.060 A 
BRANCH 101 102
ATOM    102  S   UNL A   1      40.891  35.562  40.081  1.00  0.00     0.124 S 
ATOM    103  O   UNL A   1      40.685  34.534  41.095  1.00  0.00    -0.237 OA
ATOM    104  O   UNL A   1      42.230  36.142  40.029  1.00  0.00    -0.237 OA
ATOM    105  O   UNL A   1      39.796  36.514  39.920  1.00  0.00    -0.744 OA
ENDBRANCH 101 102
ENDBRANCH  69  94
ENDBRANCH  43  44
ENDBRANCH  35  38
ENDBRANCH  33  34
ENDBRANCH  32  33
ENDBRANCH  31  32
ENDBRANCH   3  31
TORSDOF 19
ENDMDL
