MODEL 1
REMARK VINA RESULT:     -12.5      0.000      0.000
REMARK SMILES O=C(C[C@H](C(=O)NCCCNC(=O)c1ccc(-c2c3nc(c(-c4c(F)cc(S(=O)(=O)[O-])cc4F)c4ccc([nH]4)c(-c4c(F)cc(S(=O)(=O)[O-])cc4F)c4nc(c(-c5c(F)cc(S(=O)(=O)[O-])cc5F)c5ccc2[nH]5)C=C4)C=C3)cc1)c1ccccc1)Nc1ccc(Cl)cc1Cl
REMARK SMILES IDX 9 1 8 2 7 3 5 4 6 5 4 7 3 8 2 9 1 10 86 11 87 13 88 14 93 15
REMARK SMILES IDX 89 16 92 17 94 18 90 19 91 20 80 21 81 22 85 23 82 24 84 25
REMARK SMILES IDX 83 26 10 27 11 28 12 29 13 31 14 32 15 33 79 34 16 35 78 36
REMARK SMILES IDX 17 37 18 38 19 39 72 40 20 41 77 42 71 43 73 44 21 45 76 46
REMARK SMILES IDX 70 47 69 48 22 50 56 51 35 52 55 53 36 54 39 55 54 56 74 57
REMARK SMILES IDX 37 58 38 59 53 61 75 62 40 63 23 64 24 65 33 66 25 67 26 68
REMARK SMILES IDX 32 69 34 70 27 71 28 72 29 73 30 74 31 75 57 76 58 77 67 78
REMARK SMILES IDX 59 79 60 80 66 81 68 82 61 83 62 84 63 85 64 86 65 87 41 88
REMARK SMILES IDX 42 89 51 90 43 91 44 92 50 93 52 94 45 95 46 96 47 97 48 98
REMARK SMILES IDX 49 99
REMARK H PARENT 7 6 86 12 11 30 73 49 39 60
REMARK Flexibility Score: inf
ROOT
ATOM      1  C   UNL A   1      37.145  23.497  25.259  1.00  0.00     0.042 C 
ENDROOT
BRANCH   1   2
ATOM      2  C   UNL A   1      36.472  22.209  25.714  1.00  0.00     0.117 C 
BRANCH   2   3
ATOM      3  N   UNL A   1      35.545  22.428  26.813  1.00  0.00    -0.355 N 
ATOM      4  C   UNL A   1      34.185  22.459  26.883  1.00  0.00     0.228 C 
ATOM      5  O   UNL A   1      33.711  22.416  28.026  1.00  0.00    -0.274 OA
ATOM      6  H   UNL A   1      35.988  22.584  27.679  1.00  0.00     0.163 HD
BRANCH   4   7
ATOM      7  C   UNL A   1      33.242  22.673  25.684  1.00  0.00     0.118 C 
BRANCH   7   8
ATOM      8  C   UNL A   1      33.553  24.090  25.108  1.00  0.00     0.118 C 
BRANCH   8   9
ATOM      9  C   UNL A   1      32.854  25.308  25.702  1.00  0.00     0.225 C 
ATOM     10  O   UNL A   1      31.840  25.167  26.379  1.00  0.00    -0.275 OA
ATOM     11  N   UNL A   1      33.412  26.502  25.316  1.00  0.00    -0.325 N 
ATOM     12  H   UNL A   1      34.276  26.451  24.847  1.00  0.00     0.169 HD
BRANCH  11  13
ATOM     13  C   UNL A   1      32.881  27.795  25.516  1.00  0.00     0.060 A 
ATOM     14  C   UNL A   1      33.433  28.503  26.599  1.00  0.00     0.029 A 
ATOM     15  C   UNL A   1      31.841  28.393  24.785  1.00  0.00     0.066 A 
ATOM     16  C   UNL A   1      32.970  29.768  26.953  1.00  0.00     0.023 A 
ATOM     17  C   UNL A   1      31.380  29.669  25.141  1.00  0.00     0.043 A 
ATOM     18  Cl  UNL A   1      30.944  27.561  23.565  1.00  0.00    -0.082 Cl
ATOM     19  C   UNL A   1      31.941  30.346  26.222  1.00  0.00     0.042 A 
ATOM     20  Cl  UNL A   1      31.345  31.889  26.686  1.00  0.00    -0.084 Cl
ENDBRANCH  11  13
ENDBRANCH   8   9
ENDBRANCH   7   8
BRANCH   7  21
ATOM     21  C   UNL A   1      33.013  21.485  24.751  1.00  0.00    -0.035 A 
ATOM     22  C   UNL A   1      32.614  21.668  23.415  1.00  0.00     0.004 A 
ATOM     23  C   UNL A   1      33.215  20.164  25.177  1.00  0.00     0.004 A 
ATOM     24  C   UNL A   1      32.197  20.588  22.632  1.00  0.00     0.000 A 
ATOM     25  C   UNL A   1      32.803  19.080  24.399  1.00  0.00     0.000 A 
ATOM     26  C   UNL A   1      32.254  19.296  23.141  1.00  0.00     0.000 A 
ENDBRANCH   7  21
ENDBRANCH   4   7
ENDBRANCH   2   3
ENDBRANCH   1   2
BRANCH   1  27
ATOM     27  C   UNL A   1      37.975  24.136  26.361  1.00  0.00     0.118 C 
BRANCH  27  28
ATOM     28  N   UNL A   1      39.399  23.873  26.187  1.00  0.00    -0.352 N 
ATOM     29  C   UNL A   1      40.519  24.551  26.609  1.00  0.00     0.251 C 
ATOM     30  H   UNL A   1      39.595  23.057  25.672  1.00  0.00     0.163 HD
ATOM     31  O   UNL A   1      41.596  24.268  26.083  1.00  0.00    -0.269 OA
BRANCH  29  32
ATOM     32  C   UNL A   1      40.466  25.614  27.644  1.00  0.00     0.039 A 
ATOM     33  C   UNL A   1      41.392  26.665  27.588  1.00  0.00     0.014 A 
ATOM     34  C   UNL A   1      39.581  25.556  28.719  1.00  0.00     0.014 A 
ATOM     35  C   UNL A   1      41.391  27.663  28.571  1.00  0.00     0.010 A 
ATOM     36  C   UNL A   1      39.497  26.611  29.625  1.00  0.00     0.010 A 
ATOM     37  C   UNL A   1      40.419  27.665  29.583  1.00  0.00    -0.014 A 
BRANCH  37  38
ATOM     38  C   UNL A   1      40.365  28.715  30.638  1.00  0.00     0.031 A 
ATOM     39  C   UNL A   1      41.266  28.616  31.848  1.00  0.00     0.074 A 
ATOM     40  C   UNL A   1      39.452  29.704  30.562  1.00  0.00     0.049 A 
ATOM     41  N   UNL A   1      41.261  29.325  32.948  1.00  0.00    -0.248 NA
ATOM     42  C   UNL A   1      42.277  27.545  31.839  1.00  0.00     0.031 C 
ATOM     43  C   UNL A   1      38.487  29.888  29.476  1.00  0.00     0.029 A 
ATOM     44  N   UNL A   1      39.174  30.734  31.427  1.00  0.00    -0.354 N 
ATOM     45  C   UNL A   1      42.229  28.760  33.772  1.00  0.00     0.074 A 
ATOM     46  C   UNL A   1      42.766  27.617  33.068  1.00  0.00     0.031 C 
ATOM     47  C   UNL A   1      37.743  30.977  29.727  1.00  0.00     0.029 A 
ATOM     48  C   UNL A   1      38.142  31.542  31.011  1.00  0.00     0.049 A 
ATOM     49  H   UNL A   1      39.668  30.879  32.266  1.00  0.00     0.167 HD
ATOM     50  C   UNL A   1      42.653  29.168  34.993  1.00  0.00     0.037 A 
ATOM     51  C   UNL A   1      37.573  32.611  31.602  1.00  0.00     0.037 A 
ATOM     52  C   UNL A   1      42.165  30.347  35.659  1.00  0.00     0.049 A 
ATOM     53  C   UNL A   1      38.091  33.075  32.936  1.00  0.00     0.074 A 
ATOM     54  C   UNL A   1      42.585  30.893  36.859  1.00  0.00     0.029 A 
ATOM     55  N   UNL A   1      41.157  31.168  35.175  1.00  0.00    -0.354 N 
ATOM     56  N   UNL A   1      39.041  32.555  33.678  1.00  0.00    -0.248 NA
ATOM     57  C   UNL A   1      37.467  34.274  33.512  1.00  0.00     0.031 C 
ATOM     58  C   UNL A   1      41.809  32.029  37.117  1.00  0.00     0.029 A 
ATOM     59  C   UNL A   1      40.936  32.213  36.057  1.00  0.00     0.049 A 
ATOM     60  H   UNL A   1      40.672  31.030  34.330  1.00  0.00     0.167 HD
ATOM     61  C   UNL A   1      39.143  33.376  34.795  1.00  0.00     0.074 A 
ATOM     62  C   UNL A   1      38.169  34.435  34.626  1.00  0.00     0.031 C 
ATOM     63  C   UNL A   1      39.968  33.265  35.865  1.00  0.00     0.037 A 
BRANCH  50  64
ATOM     64  C   UNL A   1      43.709  28.343  35.680  1.00  0.00     0.058 A 
ATOM     65  C   UNL A   1      45.079  28.563  35.459  1.00  0.00     0.135 A 
ATOM     66  C   UNL A   1      43.349  27.340  36.594  1.00  0.00     0.135 A 
ATOM     67  F   UNL A   1      45.481  29.501  34.586  1.00  0.00    -0.206 F 
ATOM     68  C   UNL A   1      46.051  27.793  36.088  1.00  0.00     0.059 A 
ATOM     69  C   UNL A   1      44.307  26.577  37.258  1.00  0.00     0.059 A 
ATOM     70  F   UNL A   1      42.055  27.087  36.847  1.00  0.00    -0.206 F 
ATOM     71  C   UNL A   1      45.655  26.799  36.984  1.00  0.00     0.060 A 
BRANCH  71  72
ATOM     72  S   UNL A   1      46.929  25.805  37.788  1.00  0.00     0.124 S 
ATOM     73  O   UNL A   1      47.116  26.531  39.040  1.00  0.00    -0.237 OA
ATOM     74  O   UNL A   1      46.284  24.501  37.902  1.00  0.00    -0.237 OA
ATOM     75  O   UNL A   1      48.050  25.867  36.853  1.00  0.00    -0.744 OA
ENDBRANCH  71  72
ENDBRANCH  50  64
BRANCH  51  76
ATOM     76  C   UNL A   1      36.467  33.332  30.919  1.00  0.00     0.058 A 
ATOM     77  C   UNL A   1      35.153  33.257  31.406  1.00  0.00     0.135 A 
ATOM     78  C   UNL A   1      36.700  34.127  29.785  1.00  0.00     0.135 A 
ATOM     79  F   UNL A   1      34.880  32.506  32.483  1.00  0.00    -0.206 F 
ATOM     80  C   UNL A   1      34.107  33.930  30.785  1.00  0.00     0.059 A 
ATOM     81  C   UNL A   1      35.674  34.830  29.162  1.00  0.00     0.059 A 
ATOM     82  F   UNL A   1      37.943  34.247  29.293  1.00  0.00    -0.206 F 
ATOM     83  C   UNL A   1      34.377  34.717  29.664  1.00  0.00     0.060 A 
BRANCH  83  84
ATOM     84  S   UNL A   1      33.018  35.625  28.896  1.00  0.00     0.124 S 
ATOM     85  O   UNL A   1      33.734  36.672  28.177  1.00  0.00    -0.237 OA
ATOM     86  O   UNL A   1      32.389  34.599  28.070  1.00  0.00    -0.237 OA
ATOM     87  O   UNL A   1      32.226  36.070  30.039  1.00  0.00    -0.744 OA
ENDBRANCH  83  84
ENDBRANCH  51  76
BRANCH  63  88
ATOM     88  C   UNL A   1      39.882  34.332  36.920  1.00  0.00     0.058 A 
ATOM     89  C   UNL A   1      40.650  35.503  36.847  1.00  0.00     0.135 A 
ATOM     90  C   UNL A   1      38.978  34.203  37.987  1.00  0.00     0.135 A 
ATOM     91  F   UNL A   1      41.533  35.672  35.851  1.00  0.00    -0.206 F 
ATOM     92  C   UNL A   1      40.540  36.503  37.807  1.00  0.00     0.059 A 
ATOM     93  C   UNL A   1      38.833  35.201  38.944  1.00  0.00     0.059 A 
ATOM     94  F   UNL A   1      38.211  33.106  38.096  1.00  0.00    -0.206 F 
ATOM     95  C   UNL A   1      39.627  36.345  38.852  1.00  0.00     0.060 A 
BRANCH  95  96
ATOM     96  S   UNL A   1      39.466  37.666  40.071  1.00  0.00     0.124 S 
ATOM     97  O   UNL A   1      40.727  38.378  39.902  1.00  0.00    -0.237 OA
ATOM     98  O   UNL A   1      38.272  38.371  39.613  1.00  0.00    -0.237 OA
ATOM     99  O   UNL A   1      39.314  36.946  41.333  1.00  0.00    -0.744 OA
ENDBRANCH  95  96
ENDBRANCH  63  88
ENDBRANCH  37  38
ENDBRANCH  29  32
ENDBRANCH  27  28
ENDBRANCH   1  27
TORSDOF 17
ENDMDL
MODEL 2
REMARK VINA RESULT:     -12.4      1.429      1.964
REMARK SMILES O=C(C[C@H](C(=O)NCCCNC(=O)c1ccc(-c2c3nc(c(-c4c(F)cc(S(=O)(=O)[O-])cc4F)c4ccc([nH]4)c(-c4c(F)cc(S(=O)(=O)[O-])cc4F)c4nc(c(-c5c(F)cc(S(=O)(=O)[O-])cc5F)c5ccc2[nH]5)C=C4)C=C3)cc1)c1ccccc1)Nc1ccc(Cl)cc1Cl
REMARK SMILES IDX 9 1 8 2 7 3 5 4 6 5 4 7 3 8 2 9 1 10 86 11 87 13 88 14 93 15
REMARK SMILES IDX 89 16 92 17 94 18 90 19 91 20 80 21 81 22 85 23 82 24 84 25
REMARK SMILES IDX 83 26 10 27 11 28 12 29 13 31 14 32 15 33 79 34 16 35 78 36
REMARK SMILES IDX 17 37 18 38 19 39 72 40 20 41 77 42 71 43 73 44 21 45 76 46
REMARK SMILES IDX 70 47 69 48 22 50 56 51 35 52 55 53 36 54 39 55 54 56 74 57
REMARK SMILES IDX 37 58 38 59 53 61 75 62 40 63 23 64 24 65 33 66 25 67 26 68
REMARK SMILES IDX 32 69 34 70 27 71 28 72 29 73 30 74 31 75 57 76 58 77 67 78
REMARK SMILES IDX 59 79 60 80 66 81 68 82 61 83 62 84 63 85 64 86 65 87 41 88
REMARK SMILES IDX 42 89 51 90 43 91 44 92 50 93 52 94 45 95 46 96 47 97 48 98
REMARK SMILES IDX 49 99
REMARK H PARENT 7 6 86 12 11 30 73 49 39 60
REMARK Flexibility Score: inf
ROOT
ATOM      1  C   UNL A   1      37.227  22.957  25.717  1.00  0.00     0.042 C 
ENDROOT
BRANCH   1   2
ATOM      2  C   UNL A   1      35.749  23.312  25.619  1.00  0.00     0.117 C 
BRANCH   2   3
ATOM      3  N   UNL A   1      35.214  23.088  24.285  1.00  0.00    -0.355 N 
ATOM      4  C   UNL A   1      34.076  22.491  23.834  1.00  0.00     0.228 C 
ATOM      5  O   UNL A   1      33.804  22.699  22.644  1.00  0.00    -0.274 OA
ATOM      6  H   UNL A   1      35.788  23.437  23.565  1.00  0.00     0.163 HD
BRANCH   4   7
ATOM      7  C   UNL A   1      33.214  21.504  24.642  1.00  0.00     0.118 C 
BRANCH   7   8
ATOM      8  C   UNL A   1      31.838  22.198  24.889  1.00  0.00     0.118 C 
BRANCH   8   9
ATOM      9  C   UNL A   1      31.754  23.720  24.864  1.00  0.00     0.225 C 
ATOM     10  O   UNL A   1      32.036  24.369  25.866  1.00  0.00    -0.275 OA
ATOM     11  N   UNL A   1      31.255  24.221  23.686  1.00  0.00    -0.325 N 
ATOM     12  H   UNL A   1      31.162  23.583  22.942  1.00  0.00     0.169 HD
BRANCH  11  13
ATOM     13  C   UNL A   1      30.859  25.552  23.427  1.00  0.00     0.060 A 
ATOM     14  C   UNL A   1      29.570  25.887  23.881  1.00  0.00     0.029 A 
ATOM     15  C   UNL A   1      31.596  26.521  22.727  1.00  0.00     0.066 A 
ATOM     16  C   UNL A   1      29.022  27.147  23.649  1.00  0.00     0.023 A 
ATOM     17  C   UNL A   1      31.043  27.790  22.498  1.00  0.00     0.043 A 
ATOM     18  Cl  UNL A   1      33.099  26.183  21.946  1.00  0.00    -0.082 Cl
ATOM     19  C   UNL A   1      29.762  28.094  22.954  1.00  0.00     0.042 A 
ATOM     20  Cl  UNL A   1      29.067  29.633  22.635  1.00  0.00    -0.084 Cl
ENDBRANCH  11  13
ENDBRANCH   8   9
ENDBRANCH   7   8
BRANCH   7  21
ATOM     21  C   UNL A   1      33.284  20.029  24.251  1.00  0.00    -0.035 A 
ATOM     22  C   UNL A   1      34.279  19.179  24.769  1.00  0.00     0.004 A 
ATOM     23  C   UNL A   1      32.346  19.451  23.384  1.00  0.00     0.004 A 
ATOM     24  C   UNL A   1      34.474  17.896  24.249  1.00  0.00     0.000 A 
ATOM     25  C   UNL A   1      32.533  18.169  22.863  1.00  0.00     0.000 A 
ATOM     26  C   UNL A   1      33.623  17.407  23.265  1.00  0.00     0.000 A 
ENDBRANCH   7  21
ENDBRANCH   4   7
ENDBRANCH   2   3
ENDBRANCH   1   2
BRANCH   1  27
ATOM     27  C   UNL A   1      38.045  24.064  26.364  1.00  0.00     0.118 C 
BRANCH  27  28
ATOM     28  N   UNL A   1      39.474  23.887  26.129  1.00  0.00    -0.352 N 
ATOM     29  C   UNL A   1      40.569  24.626  26.514  1.00  0.00     0.251 C 
ATOM     30  H   UNL A   1      39.696  23.090  25.596  1.00  0.00     0.163 HD
ATOM     31  O   UNL A   1      41.638  24.412  25.942  1.00  0.00    -0.269 OA
BRANCH  29  32
ATOM     32  C   UNL A   1      40.495  25.672  27.565  1.00  0.00     0.039 A 
ATOM     33  C   UNL A   1      41.403  26.740  27.524  1.00  0.00     0.014 A 
ATOM     34  C   UNL A   1      39.612  25.582  28.638  1.00  0.00     0.014 A 
ATOM     35  C   UNL A   1      41.383  27.724  28.522  1.00  0.00     0.010 A 
ATOM     36  C   UNL A   1      39.509  26.622  29.559  1.00  0.00     0.010 A 
ATOM     37  C   UNL A   1      40.411  27.693  29.533  1.00  0.00    -0.014 A 
BRANCH  37  38
ATOM     38  C   UNL A   1      40.338  28.727  30.603  1.00  0.00     0.031 A 
ATOM     39  C   UNL A   1      41.222  28.613  31.824  1.00  0.00     0.074 A 
ATOM     40  C   UNL A   1      39.421  29.713  30.530  1.00  0.00     0.049 A 
ATOM     41  N   UNL A   1      41.199  29.306  32.934  1.00  0.00    -0.248 NA
ATOM     42  C   UNL A   1      42.238  27.547  31.812  1.00  0.00     0.031 C 
ATOM     43  C   UNL A   1      38.470  29.910  29.433  1.00  0.00     0.029 A 
ATOM     44  N   UNL A   1      39.127  30.729  31.406  1.00  0.00    -0.354 N 
ATOM     45  C   UNL A   1      42.158  28.732  33.763  1.00  0.00     0.074 A 
ATOM     46  C   UNL A   1      42.709  27.602  33.049  1.00  0.00     0.031 C 
ATOM     47  C   UNL A   1      37.718  30.991  29.690  1.00  0.00     0.029 A 
ATOM     48  C   UNL A   1      38.097  31.539  30.988  1.00  0.00     0.049 A 
ATOM     49  H   UNL A   1      39.608  30.863  32.254  1.00  0.00     0.167 HD
ATOM     50  C   UNL A   1      42.563  29.123  34.995  1.00  0.00     0.037 A 
ATOM     51  C   UNL A   1      37.515  32.595  31.587  1.00  0.00     0.037 A 
ATOM     52  C   UNL A   1      42.060  30.289  35.673  1.00  0.00     0.049 A 
ATOM     53  C   UNL A   1      38.013  33.041  32.935  1.00  0.00     0.074 A 
ATOM     54  C   UNL A   1      42.461  30.819  36.887  1.00  0.00     0.029 A 
ATOM     55  N   UNL A   1      41.056  31.114  35.188  1.00  0.00    -0.354 N 
ATOM     56  N   UNL A   1      38.954  32.514  33.682  1.00  0.00    -0.248 NA
ATOM     57  C   UNL A   1      37.375  34.229  33.520  1.00  0.00     0.031 C 
ATOM     58  C   UNL A   1      41.677  31.948  37.151  1.00  0.00     0.029 A 
ATOM     59  C   UNL A   1      40.817  32.144  36.082  1.00  0.00     0.049 A 
ATOM     60  H   UNL A   1      40.583  30.986  34.334  1.00  0.00     0.167 HD
ATOM     61  C   UNL A   1      39.037  33.319  34.813  1.00  0.00     0.074 A 
ATOM     62  C   UNL A   1      38.060  34.375  34.647  1.00  0.00     0.031 C 
ATOM     63  C   UNL A   1      39.848  33.194  35.893  1.00  0.00     0.037 A 
BRANCH  50  64
ATOM     64  C   UNL A   1      43.613  28.293  35.685  1.00  0.00     0.058 A 
ATOM     65  C   UNL A   1      43.272  27.242  36.554  1.00  0.00     0.135 A 
ATOM     66  C   UNL A   1      44.977  28.530  35.453  1.00  0.00     0.135 A 
ATOM     67  F   UNL A   1      41.983  26.979  36.823  1.00  0.00    -0.206 F 
ATOM     68  C   UNL A   1      44.245  26.484  37.197  1.00  0.00     0.059 A 
ATOM     69  C   UNL A   1      45.968  27.763  36.062  1.00  0.00     0.059 A 
ATOM     70  F   UNL A   1      45.362  29.518  34.630  1.00  0.00    -0.206 F 
ATOM     71  C   UNL A   1      45.591  26.754  36.947  1.00  0.00     0.060 A 
BRANCH  71  72
ATOM     72  S   UNL A   1      46.841  25.764  37.794  1.00  0.00     0.124 S 
ATOM     73  O   UNL A   1      48.034  26.584  37.610  1.00  0.00    -0.237 OA
ATOM     74  O   UNL A   1      46.320  25.699  39.155  1.00  0.00    -0.237 OA
ATOM     75  O   UNL A   1      46.829  24.501  37.060  1.00  0.00    -0.744 OA
ENDBRANCH  71  72
ENDBRANCH  50  64
BRANCH  51  76
ATOM     76  C   UNL A   1      36.416  33.323  30.900  1.00  0.00     0.058 A 
ATOM     77  C   UNL A   1      35.095  33.231  31.364  1.00  0.00     0.135 A 
ATOM     78  C   UNL A   1      36.661  34.139  29.785  1.00  0.00     0.135 A 
ATOM     79  F   UNL A   1      34.809  32.458  32.424  1.00  0.00    -0.206 F 
ATOM     80  C   UNL A   1      34.054  33.908  30.739  1.00  0.00     0.059 A 
ATOM     81  C   UNL A   1      35.640  34.847  29.158  1.00  0.00     0.059 A 
ATOM     82  F   UNL A   1      37.911  34.275  29.314  1.00  0.00    -0.206 F 
ATOM     83  C   UNL A   1      34.337  34.717  29.637  1.00  0.00     0.060 A 
BRANCH  83  84
ATOM     84  S   UNL A   1      32.984  35.631  28.865  1.00  0.00     0.124 S 
ATOM     85  O   UNL A   1      33.704  36.696  28.178  1.00  0.00    -0.237 OA
ATOM     86  O   UNL A   1      32.376  34.617  28.008  1.00  0.00    -0.237 OA
ATOM     87  O   UNL A   1      32.170  36.049  30.003  1.00  0.00    -0.744 OA
ENDBRANCH  83  84
ENDBRANCH  51  76
BRANCH  63  88
ATOM     88  C   UNL A   1      39.743  34.245  36.963  1.00  0.00     0.058 A 
ATOM     89  C   UNL A   1      40.432  35.462  36.870  1.00  0.00     0.135 A 
ATOM     90  C   UNL A   1      38.896  34.051  38.067  1.00  0.00     0.135 A 
ATOM     91  F   UNL A   1      41.258  35.695  35.838  1.00  0.00    -0.206 F 
ATOM     92  C   UNL A   1      40.302  36.445  37.845  1.00  0.00     0.059 A 
ATOM     93  C   UNL A   1      38.732  35.029  39.040  1.00  0.00     0.059 A 
ATOM     94  F   UNL A   1      38.205  32.907  38.196  1.00  0.00    -0.206 F 
ATOM     95  C   UNL A   1      39.448  36.221  38.927  1.00  0.00     0.060 A 
BRANCH  95  96
ATOM     96  S   UNL A   1      39.259  37.518  40.167  1.00  0.00     0.124 S 
ATOM     97  O   UNL A   1      38.193  38.327  39.586  1.00  0.00    -0.237 OA
ATOM     98  O   UNL A   1      38.902  36.761  41.362  1.00  0.00    -0.237 OA
ATOM     99  O   UNL A   1      40.576  38.147  40.202  1.00  0.00    -0.744 OA
ENDBRANCH  95  96
ENDBRANCH  63  88
ENDBRANCH  37  38
ENDBRANCH  29  32
ENDBRANCH  27  28
ENDBRANCH   1  27
TORSDOF 17
ENDMDL
MODEL 3
REMARK VINA RESULT:     -12.3      4.838     10.127
REMARK SMILES O=C(C[C@H](C(=O)NCCCNC(=O)c1ccc(-c2c3nc(c(-c4c(F)cc(S(=O)(=O)[O-])cc4F)c4ccc([nH]4)c(-c4c(F)cc(S(=O)(=O)[O-])cc4F)c4nc(c(-c5c(F)cc(S(=O)(=O)[O-])cc5F)c5ccc2[nH]5)C=C4)C=C3)cc1)c1ccccc1)Nc1ccc(Cl)cc1Cl
REMARK SMILES IDX 9 1 8 2 7 3 5 4 6 5 4 7 3 8 2 9 1 10 86 11 87 13 88 14 93 15
REMARK SMILES IDX 89 16 92 17 94 18 90 19 91 20 80 21 81 22 85 23 82 24 84 25
REMARK SMILES IDX 83 26 10 27 11 28 12 29 13 31 14 32 15 33 79 34 16 35 78 36
REMARK SMILES IDX 17 37 18 38 19 39 72 40 20 41 77 42 71 43 73 44 21 45 76 46
REMARK SMILES IDX 70 47 69 48 22 50 56 51 35 52 55 53 36 54 39 55 54 56 74 57
REMARK SMILES IDX 37 58 38 59 53 61 75 62 40 63 23 64 24 65 33 66 25 67 26 68
REMARK SMILES IDX 32 69 34 70 27 71 28 72 29 73 30 74 31 75 57 76 58 77 67 78
REMARK SMILES IDX 59 79 60 80 66 81 68 82 61 83 62 84 63 85 64 86 65 87 41 88
REMARK SMILES IDX 42 89 51 90 43 91 44 92 50 93 52 94 45 95 46 96 47 97 48 98
REMARK SMILES IDX 49 99
REMARK H PARENT 7 6 86 12 11 30 73 49 39 60
REMARK Flexibility Score: inf
ROOT
ATOM      1  C   UNL A   1      33.726  27.479  25.828  1.00  0.00     0.042 C 
ENDROOT
BRANCH   1   2
ATOM      2  C   UNL A   1      33.978  25.977  25.780  1.00  0.00     0.117 C 
BRANCH   2   3
ATOM      3  N   UNL A   1      34.223  25.501  24.428  1.00  0.00    -0.355 N 
ATOM      4  C   UNL A   1      33.512  24.697  23.588  1.00  0.00     0.228 C 
ATOM      5  O   UNL A   1      33.887  24.699  22.408  1.00  0.00    -0.274 OA
ATOM      6  H   UNL A   1      35.070  25.823  24.042  1.00  0.00     0.163 HD
BRANCH   4   7
ATOM      7  C   UNL A   1      32.404  23.721  24.024  1.00  0.00     0.118 C 
BRANCH   7   8
ATOM      8  C   UNL A   1      31.048  24.333  23.552  1.00  0.00     0.118 C 
BRANCH   8   9
ATOM      9  C   UNL A   1      30.624  25.701  24.074  1.00  0.00     0.225 C 
ATOM     10  O   UNL A   1      30.454  25.877  25.276  1.00  0.00    -0.275 OA
ATOM     11  N   UNL A   1      30.375  26.614  23.077  1.00  0.00    -0.325 N 
ATOM     12  H   UNL A   1      30.645  26.354  22.167  1.00  0.00     0.169 HD
BRANCH  11  13
ATOM     13  C   UNL A   1      29.771  27.883  23.217  1.00  0.00     0.060 A 
ATOM     14  C   UNL A   1      28.371  27.893  23.076  1.00  0.00     0.029 A 
ATOM     15  C   UNL A   1      30.433  29.104  23.422  1.00  0.00     0.066 A 
ATOM     16  C   UNL A   1      27.643  29.080  23.133  1.00  0.00     0.023 A 
ATOM     17  C   UNL A   1      29.696  30.297  23.483  1.00  0.00     0.043 A 
ATOM     18  Cl  UNL A   1      32.153  29.260  23.413  1.00  0.00    -0.082 Cl
ATOM     19  C   UNL A   1      28.311  30.279  23.334  1.00  0.00     0.042 A 
ATOM     20  Cl  UNL A   1      27.414  31.745  23.365  1.00  0.00    -0.084 Cl
ENDBRANCH  11  13
ENDBRANCH   8   9
ENDBRANCH   7   8
BRANCH   7  21
ATOM     21  C   UNL A   1      32.682  22.227  23.866  1.00  0.00    -0.035 A 
ATOM     22  C   UNL A   1      32.117  21.482  22.815  1.00  0.00     0.004 A 
ATOM     23  C   UNL A   1      33.534  21.539  24.743  1.00  0.00     0.004 A 
ATOM     24  C   UNL A   1      32.194  20.087  22.796  1.00  0.00     0.000 A 
ATOM     25  C   UNL A   1      33.618  20.146  24.728  1.00  0.00     0.000 A 
ATOM     26  C   UNL A   1      32.913  19.416  23.779  1.00  0.00     0.000 A 
ENDBRANCH   7  21
ENDBRANCH   4   7
ENDBRANCH   2   3
ENDBRANCH   1   2
BRANCH   1  27
ATOM     27  C   UNL A   1      33.406  27.966  27.232  1.00  0.00     0.118 C 
BRANCH  27  28
ATOM     28  N   UNL A   1      33.392  29.423  27.308  1.00  0.00    -0.352 N 
ATOM     29  C   UNL A   1      34.308  30.329  27.790  1.00  0.00     0.251 C 
ATOM     30  H   UNL A   1      32.574  29.835  26.946  1.00  0.00     0.163 HD
ATOM     31  O   UNL A   1      33.926  31.481  27.994  1.00  0.00    -0.269 OA
BRANCH  29  32
ATOM     32  C   UNL A   1      35.714  29.958  28.089  1.00  0.00     0.039 A 
ATOM     33  C   UNL A   1      36.049  29.558  29.391  1.00  0.00     0.014 A 
ATOM     34  C   UNL A   1      36.729  30.078  27.142  1.00  0.00     0.014 A 
ATOM     35  C   UNL A   1      37.374  29.238  29.714  1.00  0.00     0.010 A 
ATOM     36  C   UNL A   1      38.020  29.641  27.428  1.00  0.00     0.010 A 
ATOM     37  C   UNL A   1      38.369  29.243  28.725  1.00  0.00    -0.014 A 
BRANCH  37  38
ATOM     38  C   UNL A   1      39.787  28.891  29.016  1.00  0.00     0.031 A 
ATOM     39  C   UNL A   1      40.721  29.932  29.590  1.00  0.00     0.074 A 
ATOM     40  C   UNL A   1      40.264  27.674  28.683  1.00  0.00     0.049 A 
ATOM     41  N   UNL A   1      42.018  29.881  29.760  1.00  0.00    -0.248 NA
ATOM     42  C   UNL A   1      40.122  31.219  29.982  1.00  0.00     0.031 C 
ATOM     43  C   UNL A   1      39.485  26.593  28.075  1.00  0.00     0.029 A 
ATOM     44  N   UNL A   1      41.527  27.146  28.795  1.00  0.00    -0.354 N 
ATOM     45  C   UNL A   1      42.390  31.136  30.232  1.00  0.00     0.074 A 
ATOM     46  C   UNL A   1      41.192  31.944  30.272  1.00  0.00     0.031 C 
ATOM     47  C   UNL A   1      40.279  25.526  27.891  1.00  0.00     0.029 A 
ATOM     48  C   UNL A   1      41.633  25.859  28.323  1.00  0.00     0.049 A 
ATOM     49  H   UNL A   1      42.286  27.644  29.178  1.00  0.00     0.167 HD
ATOM     50  C   UNL A   1      43.613  31.571  30.621  1.00  0.00     0.037 A 
ATOM     51  C   UNL A   1      42.700  25.042  28.236  1.00  0.00     0.037 A 
ATOM     52  C   UNL A   1      44.790  30.743  30.645  1.00  0.00     0.049 A 
ATOM     53  C   UNL A   1      44.039  25.530  28.718  1.00  0.00     0.074 A 
ATOM     54  C   UNL A   1      46.058  31.062  31.098  1.00  0.00     0.029 A 
ATOM     55  N   UNL A   1      44.839  29.427  30.210  1.00  0.00    -0.354 N 
ATOM     56  N   UNL A   1      44.362  26.705  29.206  1.00  0.00    -0.248 NA
ATOM     57  C   UNL A   1      45.159  24.581  28.645  1.00  0.00     0.031 C 
ATOM     58  C   UNL A   1      46.883  29.947  30.908  1.00  0.00     0.029 A 
ATOM     59  C   UNL A   1      46.118  28.922  30.375  1.00  0.00     0.049 A 
ATOM     60  H   UNL A   1      44.077  28.925  29.839  1.00  0.00     0.167 HD
ATOM     61  C   UNL A   1      45.715  26.628  29.519  1.00  0.00     0.074 A 
ATOM     62  C   UNL A   1      46.147  25.288  29.178  1.00  0.00     0.031 C 
ATOM     63  C   UNL A   1      46.526  27.581  30.041  1.00  0.00     0.037 A 
BRANCH  50  64
ATOM     64  C   UNL A   1      43.738  33.004  31.069  1.00  0.00     0.058 A 
ATOM     65  C   UNL A   1      44.030  34.039  30.165  1.00  0.00     0.135 A 
ATOM     66  C   UNL A   1      43.535  33.351  32.414  1.00  0.00     0.135 A 
ATOM     67  F   UNL A   1      44.248  33.762  28.869  1.00  0.00    -0.206 F 
ATOM     68  C   UNL A   1      44.155  35.359  30.584  1.00  0.00     0.059 A 
ATOM     69  C   UNL A   1      43.625  34.672  32.851  1.00  0.00     0.059 A 
ATOM     70  F   UNL A   1      43.250  32.405  33.323  1.00  0.00    -0.206 F 
ATOM     71  C   UNL A   1      43.953  35.665  31.930  1.00  0.00     0.060 A 
BRANCH  71  72
ATOM     72  S   UNL A   1      44.123  37.383  32.458  1.00  0.00     0.124 S 
ATOM     73  O   UNL A   1      43.114  37.465  33.509  1.00  0.00    -0.237 OA
ATOM     74  O   UNL A   1      45.511  37.437  32.908  1.00  0.00    -0.237 OA
ATOM     75  O   UNL A   1      43.830  38.143  31.246  1.00  0.00    -0.744 OA
ENDBRANCH  71  72
ENDBRANCH  50  64
BRANCH  51  76
ATOM     76  C   UNL A   1      42.537  23.666  27.696  1.00  0.00     0.058 A 
ATOM     77  C   UNL A   1      42.590  23.428  26.314  1.00  0.00     0.135 A 
ATOM     78  C   UNL A   1      42.350  22.564  28.543  1.00  0.00     0.135 A 
ATOM     79  F   UNL A   1      42.763  24.451  25.463  1.00  0.00    -0.206 F 
ATOM     80  C   UNL A   1      42.447  22.148  25.790  1.00  0.00     0.059 A 
ATOM     81  C   UNL A   1      42.229  21.271  28.044  1.00  0.00     0.059 A 
ATOM     82  F   UNL A   1      42.311  22.738  29.874  1.00  0.00    -0.206 F 
ATOM     83  C   UNL A   1      42.269  21.074  26.664  1.00  0.00     0.060 A 
BRANCH  83  84
ATOM     84  S   UNL A   1      42.133  19.411  25.974  1.00  0.00     0.124 S 
ATOM     85  O   UNL A   1      40.698  19.305  25.741  1.00  0.00    -0.237 OA
ATOM     86  O   UNL A   1      42.969  19.503  24.781  1.00  0.00    -0.237 OA
ATOM     87  O   UNL A   1      42.665  18.563  27.038  1.00  0.00    -0.744 OA
ENDBRANCH  83  84
ENDBRANCH  51  76
BRANCH  63  88
ATOM     88  C   UNL A   1      47.955  27.200  30.311  1.00  0.00     0.058 A 
ATOM     89  C   UNL A   1      48.966  27.414  29.363  1.00  0.00     0.135 A 
ATOM     90  C   UNL A   1      48.324  26.668  31.558  1.00  0.00     0.135 A 
ATOM     91  F   UNL A   1      48.665  27.915  28.155  1.00  0.00    -0.206 F 
ATOM     92  C   UNL A   1      50.292  27.093  29.632  1.00  0.00     0.059 A 
ATOM     93  C   UNL A   1      49.647  26.364  31.858  1.00  0.00     0.059 A 
ATOM     94  F   UNL A   1      47.395  26.456  32.504  1.00  0.00    -0.206 F 
ATOM     95  C   UNL A   1      50.624  26.570  30.885  1.00  0.00     0.060 A 
BRANCH  95  96
ATOM     96  S   UNL A   1      52.354  26.193  31.236  1.00  0.00     0.124 S 
ATOM     97  O   UNL A   1      52.935  26.204  29.898  1.00  0.00    -0.237 OA
ATOM     98  O   UNL A   1      52.744  27.298  32.107  1.00  0.00    -0.237 OA
ATOM     99  O   UNL A   1      52.291  24.886  31.883  1.00  0.00    -0.744 OA
ENDBRANCH  95  96
ENDBRANCH  63  88
ENDBRANCH  37  38
ENDBRANCH  29  32
ENDBRANCH  27  28
ENDBRANCH   1  27
TORSDOF 17
ENDMDL
