MODEL 1
REMARK VINA RESULT:     -11.7      0.000      0.000
REMARK SMILES Cn1nnnc1SCC[C@@H]1CCC[C@@]1([NH3+])C(=O)NCCCNC(=O)c1ccc(-c2c3nc(c(-c4c(F)cc(S(=O)(=O)[O-])cc4F)c4ccc([nH]4)c(-c4c(F)cc(S(=O)(=O)[O-])cc4F)c4nc(c(-c5c(F)cc(S(=O)(=O)[O-])cc5F)c5ccc2[nH]5)C=C4)C=C3)cc1
REMARK SMILES IDX 19 1 18 2 16 3 17 4 14 6 10 7 11 8 12 9 13 10 9 11 8 12 7 13
REMARK SMILES IDX 6 14 1 15 2 16 3 17 4 18 5 19 15 20 20 24 21 25 22 26 23 27
REMARK SMILES IDX 24 29 25 30 26 31 90 32 27 33 89 34 28 35 29 36 30 37 83 38
REMARK SMILES IDX 31 39 88 40 82 41 84 42 32 43 87 44 81 45 80 46 33 48 67 49
REMARK SMILES IDX 46 50 66 51 47 52 50 53 65 54 85 55 48 56 49 57 64 59 86 60
REMARK SMILES IDX 51 61 34 62 35 63 44 64 36 65 37 66 43 67 45 68 38 69 39 70
REMARK SMILES IDX 40 71 41 72 42 73 68 74 69 75 78 76 70 77 71 78 77 79 79 80
REMARK SMILES IDX 72 81 73 82 74 83 75 84 76 85 52 86 53 87 62 88 54 89 55 90
REMARK SMILES IDX 61 91 63 92 56 93 57 94 58 95 59 96 60 97
REMARK H PARENT 18 5 15 21 15 22 15 23 22 28 84 47 50 58
REMARK Flexibility Score: inf
ROOT
ATOM      1  C   UNL A   1      36.603  22.202  25.356  1.00  0.00     0.118 C 
ENDROOT
BRANCH   1   2
ATOM      2  N   UNL A   1      35.693  22.100  26.480  1.00  0.00    -0.351 N 
ATOM      3  C   UNL A   1      34.424  21.660  26.647  1.00  0.00     0.281 C 
ATOM      4  O   UNL A   1      34.095  21.515  27.837  1.00  0.00    -0.268 OA
ATOM      5  H   UNL A   1      36.092  22.429  27.319  1.00  0.00     0.163 HD
BRANCH   3   6
ATOM      6  C   UNL A   1      33.330  21.400  25.548  1.00  0.00     0.176 C 
ATOM      7  C   UNL A   1      33.261  22.121  24.192  1.00  0.00     0.061 C 
ATOM      8  C   UNL A   1      32.399  21.175  23.331  1.00  0.00     0.011 C 
ATOM      9  C   UNL A   1      32.955  19.802  23.655  1.00  0.00     0.008 C 
ATOM     10  C   UNL A   1      33.560  19.930  25.056  1.00  0.00     0.079 C 
BRANCH   7  11
ATOM     11  C   UNL A   1      32.777  23.571  24.072  1.00  0.00     0.022 C 
BRANCH  11  12
ATOM     12  C   UNL A   1      33.851  24.628  24.469  1.00  0.00     0.079 C 
BRANCH  12  13
ATOM     13  S   UNL A   1      33.332  25.800  25.779  1.00  0.00    -0.085 SA
BRANCH  13  14
ATOM     14  C   UNL A   1      31.859  25.155  26.433  1.00  0.00     0.209 A 
ATOM     15  C   UNL A   1      29.985  26.253  25.039  1.00  0.00     0.179 C 
ATOM     16  N   UNL A   1      30.580  25.329  25.961  1.00  0.00    -0.224 N 
ATOM     17  N   UNL A   1      29.765  24.427  26.542  1.00  0.00    -0.045 NA
ATOM     18  N   UNL A   1      30.536  23.732  27.361  1.00  0.00    -0.023 NA
ATOM     19  N   UNL A   1      31.833  24.177  27.312  1.00  0.00    -0.102 NA
ENDBRANCH  13  14
ENDBRANCH  12  13
ENDBRANCH  11  12
ENDBRANCH   7  11
BRANCH   6  20
ATOM     20  N   UNL A   1      32.013  21.450  26.227  1.00  0.00    -0.345 N 
ATOM     21  H   UNL A   1      31.961  20.708  26.924  1.00  0.00     0.345 HD
ATOM     22  H   UNL A   1      31.271  21.324  25.539  1.00  0.00     0.345 HD
ATOM     23  H   UNL A   1      31.902  22.355  26.685  1.00  0.00     0.345 HD
ENDBRANCH   6  20
ENDBRANCH   3   6
ENDBRANCH   1   2
BRANCH   1  24
ATOM     24  C   UNL A   1      37.220  23.587  25.198  1.00  0.00     0.042 C 
BRANCH  24  25
ATOM     25  C   UNL A   1      38.066  24.002  26.398  1.00  0.00     0.118 C 
BRANCH  25  26
ATOM     26  N   UNL A   1      39.504  23.890  26.148  1.00  0.00    -0.352 N 
ATOM     27  C   UNL A   1      40.567  24.648  26.584  1.00  0.00     0.251 C 
ATOM     28  H   UNL A   1      39.755  23.138  25.563  1.00  0.00     0.163 HD
ATOM     29  O   UNL A   1      41.685  24.438  26.101  1.00  0.00    -0.269 OA
BRANCH  27  30
ATOM     30  C   UNL A   1      40.402  25.718  27.593  1.00  0.00     0.039 A 
ATOM     31  C   UNL A   1      39.453  25.571  28.613  1.00  0.00     0.014 A 
ATOM     32  C   UNL A   1      41.156  26.888  27.530  1.00  0.00     0.014 A 
ATOM     33  C   UNL A   1      39.331  26.552  29.604  1.00  0.00     0.010 A 
ATOM     34  C   UNL A   1      41.131  27.792  28.585  1.00  0.00     0.010 A 
ATOM     35  C   UNL A   1      40.205  27.651  29.629  1.00  0.00    -0.014 A 
BRANCH  35  36
ATOM     36  C   UNL A   1      40.159  28.687  30.698  1.00  0.00     0.031 A 
ATOM     37  C   UNL A   1      41.052  28.556  31.910  1.00  0.00     0.074 A 
ATOM     38  C   UNL A   1      39.257  29.687  30.633  1.00  0.00     0.049 A 
ATOM     39  N   UNL A   1      41.065  29.262  33.011  1.00  0.00    -0.248 NA
ATOM     40  C   UNL A   1      42.028  27.452  31.901  1.00  0.00     0.031 C 
ATOM     41  C   UNL A   1      38.294  29.894  29.548  1.00  0.00     0.029 A 
ATOM     42  N   UNL A   1      38.991  30.714  31.506  1.00  0.00    -0.354 N 
ATOM     43  C   UNL A   1      42.017  28.665  33.833  1.00  0.00     0.074 A 
ATOM     44  C   UNL A   1      42.508  27.500  33.133  1.00  0.00     0.031 C 
ATOM     45  C   UNL A   1      37.570  30.996  29.803  1.00  0.00     0.029 A 
ATOM     46  C   UNL A   1      37.980  31.548  31.089  1.00  0.00     0.049 A 
ATOM     47  H   UNL A   1      39.480  30.841  32.350  1.00  0.00     0.167 HD
ATOM     48  C   UNL A   1      42.469  29.070  35.044  1.00  0.00     0.037 A 
ATOM     49  C   UNL A   1      37.438  32.633  31.679  1.00  0.00     0.037 A 
ATOM     50  C   UNL A   1      42.018  30.265  35.707  1.00  0.00     0.049 A 
ATOM     51  C   UNL A   1      37.974  33.082  33.013  1.00  0.00     0.074 A 
ATOM     52  C   UNL A   1      42.463  30.809  36.898  1.00  0.00     0.029 A 
ATOM     53  N   UNL A   1      41.023  31.106  35.229  1.00  0.00    -0.354 N 
ATOM     54  N   UNL A   1      38.918  32.539  33.746  1.00  0.00    -0.248 NA
ATOM     55  C   UNL A   1      37.379  34.291  33.596  1.00  0.00     0.031 C 
ATOM     56  C   UNL A   1      41.707  31.955  37.163  1.00  0.00     0.029 A 
ATOM     57  C   UNL A   1      40.827  32.155  36.111  1.00  0.00     0.049 A 
ATOM     58  H   UNL A   1      40.528  30.976  34.388  1.00  0.00     0.167 HD
ATOM     59  C   UNL A   1      39.049  33.357  34.863  1.00  0.00     0.074 A 
ATOM     60  C   UNL A   1      38.098  34.438  34.701  1.00  0.00     0.031 C 
ATOM     61  C   UNL A   1      39.880  33.227  35.927  1.00  0.00     0.037 A 
BRANCH  48  62
ATOM     62  C   UNL A   1      43.518  28.225  35.719  1.00  0.00     0.058 A 
ATOM     63  C   UNL A   1      43.177  27.212  36.631  1.00  0.00     0.135 A 
ATOM     64  C   UNL A   1      44.880  28.410  35.431  1.00  0.00     0.135 A 
ATOM     65  F   UNL A   1      41.892  26.998  36.956  1.00  0.00    -0.206 F 
ATOM     66  C   UNL A   1      44.148  26.444  37.264  1.00  0.00     0.059 A 
ATOM     67  C   UNL A   1      45.867  27.629  36.027  1.00  0.00     0.059 A 
ATOM     68  F   UNL A   1      45.266  29.362  34.566  1.00  0.00    -0.206 F 
ATOM     69  C   UNL A   1      45.492  26.660  36.956  1.00  0.00     0.060 A 
BRANCH  69  70
ATOM     70  S   UNL A   1      46.739  25.653  37.786  1.00  0.00     0.124 S 
ATOM     71  O   UNL A   1      46.008  24.409  38.006  1.00  0.00    -0.237 OA
ATOM     72  O   UNL A   1      47.804  25.592  36.789  1.00  0.00    -0.237 OA
ATOM     73  O   UNL A   1      47.051  26.418  38.988  1.00  0.00    -0.744 OA
ENDBRANCH  69  70
ENDBRANCH  48  62
BRANCH  49  74
ATOM     74  C   UNL A   1      36.349  33.386  31.000  1.00  0.00     0.058 A 
ATOM     75  C   UNL A   1      35.035  33.351  31.488  1.00  0.00     0.135 A 
ATOM     76  C   UNL A   1      36.600  34.171  29.862  1.00  0.00     0.135 A 
ATOM     77  F   UNL A   1      34.741  32.611  32.569  1.00  0.00    -0.206 F 
ATOM     78  C   UNL A   1      34.005  34.050  30.867  1.00  0.00     0.059 A 
ATOM     79  C   UNL A   1      35.591  34.901  29.239  1.00  0.00     0.059 A 
ATOM     80  F   UNL A   1      37.843  34.256  29.364  1.00  0.00    -0.206 F 
ATOM     81  C   UNL A   1      34.295  34.826  29.743  1.00  0.00     0.060 A 
BRANCH  81  82
ATOM     82  S   UNL A   1      32.959  35.768  28.975  1.00  0.00     0.124 S 
ATOM     83  O   UNL A   1      32.354  34.766  28.105  1.00  0.00    -0.237 OA
ATOM     84  O   UNL A   1      32.166  36.174  30.131  1.00  0.00    -0.237 OA
ATOM     85  O   UNL A   1      33.662  36.853  28.295  1.00  0.00    -0.744 OA
ENDBRANCH  81  82
ENDBRANCH  49  74
BRANCH  61  86
ATOM     86  C   UNL A   1      39.826  34.296  36.983  1.00  0.00     0.058 A 
ATOM     87  C   UNL A   1      40.480  35.526  36.822  1.00  0.00     0.135 A 
ATOM     88  C   UNL A   1      39.059  34.106  38.144  1.00  0.00     0.135 A 
ATOM     89  F   UNL A   1      41.230  35.756  35.732  1.00  0.00    -0.206 F 
ATOM     90  C   UNL A   1      40.398  36.523  37.788  1.00  0.00     0.059 A 
ATOM     91  C   UNL A   1      38.938  35.101  39.109  1.00  0.00     0.059 A 
ATOM     92  F   UNL A   1      38.402  32.951  38.340  1.00  0.00    -0.206 F 
ATOM     93  C   UNL A   1      39.621  36.302  38.927  1.00  0.00     0.060 A 
BRANCH  93  94
ATOM     94  S   UNL A   1      39.494  37.617  40.156  1.00  0.00     0.124 S 
ATOM     95  O   UNL A   1      38.955  36.896  41.304  1.00  0.00    -0.237 OA
ATOM     96  O   UNL A   1      40.878  38.063  40.280  1.00  0.00    -0.237 OA
ATOM     97  O   UNL A   1      38.587  38.577  39.534  1.00  0.00    -0.744 OA
ENDBRANCH  93  94
ENDBRANCH  61  86
ENDBRANCH  35  36
ENDBRANCH  27  30
ENDBRANCH  25  26
ENDBRANCH  24  25
ENDBRANCH   1  24
TORSDOF 18
ENDMDL
MODEL 2
REMARK VINA RESULT:     -11.1      6.900     12.376
REMARK SMILES Cn1nnnc1SCC[C@@H]1CCC[C@@]1([NH3+])C(=O)NCCCNC(=O)c1ccc(-c2c3nc(c(-c4c(F)cc(S(=O)(=O)[O-])cc4F)c4ccc([nH]4)c(-c4c(F)cc(S(=O)(=O)[O-])cc4F)c4nc(c(-c5c(F)cc(S(=O)(=O)[O-])cc5F)c5ccc2[nH]5)C=C4)C=C3)cc1
REMARK SMILES IDX 19 1 18 2 16 3 17 4 14 6 10 7 11 8 12 9 13 10 9 11 8 12 7 13
REMARK SMILES IDX 6 14 1 15 2 16 3 17 4 18 5 19 15 20 20 24 21 25 22 26 23 27
REMARK SMILES IDX 24 29 25 30 26 31 90 32 27 33 89 34 28 35 29 36 30 37 83 38
REMARK SMILES IDX 31 39 88 40 82 41 84 42 32 43 87 44 81 45 80 46 33 48 67 49
REMARK SMILES IDX 46 50 66 51 47 52 50 53 65 54 85 55 48 56 49 57 64 59 86 60
REMARK SMILES IDX 51 61 34 62 35 63 44 64 36 65 37 66 43 67 45 68 38 69 39 70
REMARK SMILES IDX 40 71 41 72 42 73 68 74 69 75 78 76 70 77 71 78 77 79 79 80
REMARK SMILES IDX 72 81 73 82 74 83 75 84 76 85 52 86 53 87 62 88 54 89 55 90
REMARK SMILES IDX 61 91 63 92 56 93 57 94 58 95 59 96 60 97
REMARK H PARENT 18 5 15 21 15 22 15 23 22 28 84 47 50 58
REMARK Flexibility Score: inf
ROOT
ATOM      1  C   UNL A   1      32.999  29.468  26.008  1.00  0.00     0.118 C 
ENDROOT
BRANCH   1   2
ATOM      2  N   UNL A   1      33.621  29.040  24.770  1.00  0.00    -0.351 N 
ATOM      3  C   UNL A   1      33.166  28.593  23.577  1.00  0.00     0.281 C 
ATOM      4  O   UNL A   1      34.034  28.569  22.686  1.00  0.00    -0.268 OA
ATOM      5  H   UNL A   1      34.604  29.087  24.806  1.00  0.00     0.163 HD
BRANCH   3   6
ATOM      6  C   UNL A   1      31.737  28.040  23.222  1.00  0.00     0.176 C 
ATOM      7  C   UNL A   1      30.753  27.441  24.239  1.00  0.00     0.061 C 
ATOM      8  C   UNL A   1      29.391  27.557  23.524  1.00  0.00     0.011 C 
ATOM      9  C   UNL A   1      29.422  28.953  22.934  1.00  0.00     0.008 C 
ATOM     10  C   UNL A   1      30.906  29.281  22.747  1.00  0.00     0.079 C 
BRANCH   7  11
ATOM     11  C   UNL A   1      30.951  26.037  24.825  1.00  0.00     0.022 C 
BRANCH  11  12
ATOM     12  C   UNL A   1      32.072  25.959  25.903  1.00  0.00     0.079 C 
BRANCH  12  13
ATOM     13  S   UNL A   1      33.035  24.398  25.903  1.00  0.00    -0.085 SA
BRANCH  13  14
ATOM     14  C   UNL A   1      33.594  24.189  24.273  1.00  0.00     0.209 A 
ATOM     15  C   UNL A   1      33.100  21.717  23.721  1.00  0.00     0.179 C 
ATOM     16  N   UNL A   1      33.449  23.085  23.468  1.00  0.00    -0.224 N 
ATOM     17  N   UNL A   1      33.731  23.423  22.195  1.00  0.00    -0.045 NA
ATOM     18  N   UNL A   1      34.053  24.704  22.234  1.00  0.00    -0.023 NA
ATOM     19  N   UNL A   1      33.982  25.191  23.514  1.00  0.00    -0.102 NA
ENDBRANCH  13  14
ENDBRANCH  12  13
ENDBRANCH  11  12
ENDBRANCH   7  11
BRANCH   6  20
ATOM     20  N   UNL A   1      31.900  27.131  22.063  1.00  0.00    -0.345 N 
ATOM     21  H   UNL A   1      31.244  27.395  21.329  1.00  0.00     0.345 HD
ATOM     22  H   UNL A   1      31.715  26.172  22.355  1.00  0.00     0.345 HD
ATOM     23  H   UNL A   1      32.854  27.200  21.708  1.00  0.00     0.345 HD
ENDBRANCH   6  20
ENDBRANCH   3   6
ENDBRANCH   1   2
BRANCH   1  24
ATOM     24  C   UNL A   1      33.743  29.001  27.254  1.00  0.00     0.042 C 
BRANCH  24  25
ATOM     25  C   UNL A   1      35.090  29.694  27.438  1.00  0.00     0.118 C 
BRANCH  25  26
ATOM     26  N   UNL A   1      35.216  30.358  28.736  1.00  0.00    -0.352 N 
ATOM     27  C   UNL A   1      36.265  30.430  29.625  1.00  0.00     0.251 C 
ATOM     28  H   UNL A   1      34.407  30.838  29.025  1.00  0.00     0.163 HD
ATOM     29  O   UNL A   1      36.068  30.929  30.739  1.00  0.00    -0.269 OA
BRANCH  27  30
ATOM     30  C   UNL A   1      37.609  29.906  29.293  1.00  0.00     0.039 A 
ATOM     31  C   UNL A   1      38.034  29.881  27.959  1.00  0.00     0.014 A 
ATOM     32  C   UNL A   1      38.451  29.406  30.284  1.00  0.00     0.014 A 
ATOM     33  C   UNL A   1      39.326  29.441  27.643  1.00  0.00     0.010 A 
ATOM     34  C   UNL A   1      39.774  29.101  29.987  1.00  0.00     0.010 A 
ATOM     35  C   UNL A   1      40.228  29.093  28.661  1.00  0.00    -0.014 A 
BRANCH  35  36
ATOM     36  C   UNL A   1      41.631  28.682  28.381  1.00  0.00     0.031 A 
ATOM     37  C   UNL A   1      42.731  29.718  28.372  1.00  0.00     0.074 A 
ATOM     38  C   UNL A   1      41.908  27.406  28.042  1.00  0.00     0.049 A 
ATOM     39  N   UNL A   1      43.982  29.597  28.013  1.00  0.00    -0.248 NA
ATOM     40  C   UNL A   1      42.358  31.086  28.775  1.00  0.00     0.031 C 
ATOM     41  C   UNL A   1      40.930  26.319  27.952  1.00  0.00     0.029 A 
ATOM     42  N   UNL A   1      43.094  26.807  27.695  1.00  0.00    -0.354 N 
ATOM     43  C   UNL A   1      44.531  30.873  28.110  1.00  0.00     0.074 A 
ATOM     44  C   UNL A   1      43.460  31.764  28.493  1.00  0.00     0.031 C 
ATOM     45  C   UNL A   1      41.559  25.184  27.610  1.00  0.00     0.029 A 
ATOM     46  C   UNL A   1      42.975  25.466  27.408  1.00  0.00     0.049 A 
ATOM     47  H   UNL A   1      43.950  27.291  27.656  1.00  0.00     0.167 HD
ATOM     48  C   UNL A   1      45.816  31.262  27.935  1.00  0.00     0.037 A 
ATOM     49  C   UNL A   1      43.902  24.567  27.020  1.00  0.00     0.037 A 
ATOM     50  C   UNL A   1      46.888  30.358  27.613  1.00  0.00     0.049 A 
ATOM     51  C   UNL A   1      45.330  25.015  26.857  1.00  0.00     0.074 A 
ATOM     52  C   UNL A   1      48.238  30.633  27.487  1.00  0.00     0.029 A 
ATOM     53  N   UNL A   1      46.732  29.000  27.374  1.00  0.00    -0.354 N 
ATOM     54  N   UNL A   1      45.840  26.214  27.014  1.00  0.00    -0.248 NA
ATOM     55  C   UNL A   1      46.309  23.990  26.472  1.00  0.00     0.031 C 
ATOM     56  C   UNL A   1      48.892  29.449  27.129  1.00  0.00     0.029 A 
ATOM     57  C   UNL A   1      47.958  28.426  27.084  1.00  0.00     0.049 A 
ATOM     58  H   UNL A   1      45.875  28.515  27.405  1.00  0.00     0.167 HD
ATOM     59  C   UNL A   1      47.203  26.082  26.773  1.00  0.00     0.074 A 
ATOM     60  C   UNL A   1      47.440  24.684  26.476  1.00  0.00     0.031 C 
ATOM     61  C   UNL A   1      48.173  27.030  26.798  1.00  0.00     0.037 A 
BRANCH  48  62
ATOM     62  C   UNL A   1      46.135  32.724  28.106  1.00  0.00     0.058 A 
ATOM     63  C   UNL A   1      46.585  33.245  29.331  1.00  0.00     0.135 A 
ATOM     64  C   UNL A   1      46.013  33.614  27.026  1.00  0.00     0.135 A 
ATOM     65  F   UNL A   1      46.707  32.446  30.403  1.00  0.00    -0.206 F 
ATOM     66  C   UNL A   1      46.863  34.599  29.490  1.00  0.00     0.059 A 
ATOM     67  C   UNL A   1      46.319  34.966  27.153  1.00  0.00     0.059 A 
ATOM     68  F   UNL A   1      45.588  33.174  25.831  1.00  0.00    -0.206 F 
ATOM     69  C   UNL A   1      46.726  35.452  28.394  1.00  0.00     0.060 A 
BRANCH  69  70
ATOM     70  S   UNL A   1      47.093  37.206  28.618  1.00  0.00     0.124 S 
ATOM     71  O   UNL A   1      47.288  37.280  30.063  1.00  0.00    -0.237 OA
ATOM     72  O   UNL A   1      48.295  37.378  27.808  1.00  0.00    -0.237 OA
ATOM     73  O   UNL A   1      45.898  37.872  28.112  1.00  0.00    -0.744 OA
ENDBRANCH  69  70
ENDBRANCH  48  62
BRANCH  49  74
ATOM     74  C   UNL A   1      43.514  23.149  26.790  1.00  0.00     0.058 A 
ATOM     75  C   UNL A   1      43.203  22.303  27.865  1.00  0.00     0.135 A 
ATOM     76  C   UNL A   1      43.429  22.613  25.495  1.00  0.00     0.135 A 
ATOM     77  F   UNL A   1      43.275  22.765  29.123  1.00  0.00    -0.206 F 
ATOM     78  C   UNL A   1      42.838  20.975  27.669  1.00  0.00     0.059 A 
ATOM     79  C   UNL A   1      43.040  21.294  25.271  1.00  0.00     0.059 A 
ATOM     80  F   UNL A   1      43.697  23.382  24.429  1.00  0.00    -0.206 F 
ATOM     81  C   UNL A   1      42.756  20.481  26.367  1.00  0.00     0.060 A 
BRANCH  81  82
ATOM     82  S   UNL A   1      42.233  18.769  26.122  1.00  0.00     0.124 S 
ATOM     83  O   UNL A   1      40.849  18.942  25.696  1.00  0.00    -0.237 OA
ATOM     84  O   UNL A   1      43.164  18.309  25.096  1.00  0.00    -0.237 OA
ATOM     85  O   UNL A   1      42.418  18.170  27.441  1.00  0.00    -0.744 OA
ENDBRANCH  81  82
ENDBRANCH  49  74
BRANCH  61  86
ATOM     86  C   UNL A   1      49.584  26.584  26.529  1.00  0.00     0.058 A 
ATOM     87  C   UNL A   1      50.379  26.008  27.530  1.00  0.00     0.135 A 
ATOM     88  C   UNL A   1      50.124  26.683  25.236  1.00  0.00     0.135 A 
ATOM     89  F   UNL A   1      49.911  25.894  28.784  1.00  0.00    -0.206 F 
ATOM     90  C   UNL A   1      51.671  25.567  27.265  1.00  0.00     0.059 A 
ATOM     91  C   UNL A   1      51.402  26.221  24.942  1.00  0.00     0.059 A 
ATOM     92  F   UNL A   1      49.399  27.215  24.239  1.00  0.00    -0.206 F 
ATOM     93  C   UNL A   1      52.173  25.675  25.967  1.00  0.00     0.060 A 
BRANCH  93  94
ATOM     94  S   UNL A   1      53.838  25.067  25.630  1.00  0.00     0.124 S 
ATOM     95  O   UNL A   1      54.525  25.385  26.877  1.00  0.00    -0.237 OA
ATOM     96  O   UNL A   1      53.607  23.647  25.378  1.00  0.00    -0.237 OA
ATOM     97  O   UNL A   1      54.255  25.843  24.466  1.00  0.00    -0.744 OA
ENDBRANCH  93  94
ENDBRANCH  61  86
ENDBRANCH  35  36
ENDBRANCH  27  30
ENDBRANCH  25  26
ENDBRANCH  24  25
ENDBRANCH   1  24
TORSDOF 18
ENDMDL
MODEL 3
REMARK VINA RESULT:     -11.1      7.105     12.478
REMARK SMILES Cn1nnnc1SCC[C@@H]1CCC[C@@]1([NH3+])C(=O)NCCCNC(=O)c1ccc(-c2c3nc(c(-c4c(F)cc(S(=O)(=O)[O-])cc4F)c4ccc([nH]4)c(-c4c(F)cc(S(=O)(=O)[O-])cc4F)c4nc(c(-c5c(F)cc(S(=O)(=O)[O-])cc5F)c5ccc2[nH]5)C=C4)C=C3)cc1
REMARK SMILES IDX 19 1 18 2 16 3 17 4 14 6 10 7 11 8 12 9 13 10 9 11 8 12 7 13
REMARK SMILES IDX 6 14 1 15 2 16 3 17 4 18 5 19 15 20 20 24 21 25 22 26 23 27
REMARK SMILES IDX 24 29 25 30 26 31 90 32 27 33 89 34 28 35 29 36 30 37 83 38
REMARK SMILES IDX 31 39 88 40 82 41 84 42 32 43 87 44 81 45 80 46 33 48 67 49
REMARK SMILES IDX 46 50 66 51 47 52 50 53 65 54 85 55 48 56 49 57 64 59 86 60
REMARK SMILES IDX 51 61 34 62 35 63 44 64 36 65 37 66 43 67 45 68 38 69 39 70
REMARK SMILES IDX 40 71 41 72 42 73 68 74 69 75 78 76 70 77 71 78 77 79 79 80
REMARK SMILES IDX 72 81 73 82 74 83 75 84 76 85 52 86 53 87 62 88 54 89 55 90
REMARK SMILES IDX 61 91 63 92 56 93 57 94 58 95 59 96 60 97
REMARK H PARENT 18 5 15 21 15 22 15 23 22 28 84 47 50 58
REMARK Flexibility Score: inf
ROOT
ATOM      1  C   UNL A   1      33.355  30.469  27.111  1.00  0.00     0.118 C 
ENDROOT
BRANCH   1   2
ATOM      2  N   UNL A   1      32.322  29.579  27.604  1.00  0.00    -0.351 N 
ATOM      3  C   UNL A   1      31.800  28.400  27.194  1.00  0.00     0.281 C 
ATOM      4  O   UNL A   1      31.088  27.841  28.048  1.00  0.00    -0.268 OA
ATOM      5  H   UNL A   1      31.902  29.910  28.431  1.00  0.00     0.163 HD
BRANCH   3   6
ATOM      6  C   UNL A   1      31.917  27.720  25.780  1.00  0.00     0.176 C 
ATOM      7  C   UNL A   1      32.109  28.478  24.457  1.00  0.00     0.061 C 
ATOM      8  C   UNL A   1      32.679  27.401  23.511  1.00  0.00     0.011 C 
ATOM      9  C   UNL A   1      33.713  26.695  24.366  1.00  0.00     0.008 C 
ATOM     10  C   UNL A   1      33.251  26.899  25.812  1.00  0.00     0.079 C 
BRANCH   7  11
ATOM     11  C   UNL A   1      30.960  29.245  23.791  1.00  0.00     0.022 C 
BRANCH  11  12
ATOM     12  C   UNL A   1      30.190  28.418  22.719  1.00  0.00     0.079 C 
BRANCH  12  13
ATOM     13  S   UNL A   1      28.366  28.595  22.771  1.00  0.00    -0.085 SA
BRANCH  13  14
ATOM     14  C   UNL A   1      28.021  30.134  22.046  1.00  0.00     0.209 A 
ATOM     15  C   UNL A   1      27.411  31.671  24.028  1.00  0.00     0.179 C 
ATOM     16  N   UNL A   1      27.764  31.326  22.681  1.00  0.00    -0.224 N 
ATOM     17  N   UNL A   1      27.859  32.333  21.792  1.00  0.00    -0.045 NA
ATOM     18  N   UNL A   1      28.153  31.758  20.638  1.00  0.00    -0.023 NA
ATOM     19  N   UNL A   1      28.248  30.397  20.777  1.00  0.00    -0.102 NA
ENDBRANCH  13  14
ENDBRANCH  12  13
ENDBRANCH  11  12
ENDBRANCH   7  11
BRANCH   6  20
ATOM     20  N   UNL A   1      30.794  26.760  25.667  1.00  0.00    -0.345 N 
ATOM     21  H   UNL A   1      30.121  26.933  26.413  1.00  0.00     0.345 HD
ATOM     22  H   UNL A   1      31.151  25.808  25.747  1.00  0.00     0.345 HD
ATOM     23  H   UNL A   1      30.337  26.876  24.762  1.00  0.00     0.345 HD
ENDBRANCH   6  20
ENDBRANCH   3   6
ENDBRANCH   1   2
BRANCH   1  24
ATOM     24  C   UNL A   1      34.767  30.005  27.450  1.00  0.00     0.042 C 
BRANCH  24  25
ATOM     25  C   UNL A   1      35.580  31.063  28.191  1.00  0.00     0.118 C 
BRANCH  25  26
ATOM     26  N   UNL A   1      35.563  30.879  29.643  1.00  0.00    -0.352 N 
ATOM     27  C   UNL A   1      36.455  30.267  30.495  1.00  0.00     0.251 C 
ATOM     28  H   UNL A   1      34.773  31.261  30.090  1.00  0.00     0.163 HD
ATOM     29  O   UNL A   1      36.134  30.107  31.678  1.00  0.00    -0.269 OA
BRANCH  27  30
ATOM     30  C   UNL A   1      37.771  29.778  30.029  1.00  0.00     0.039 A 
ATOM     31  C   UNL A   1      38.125  29.913  28.680  1.00  0.00     0.014 A 
ATOM     32  C   UNL A   1      38.658  29.154  30.904  1.00  0.00     0.014 A 
ATOM     33  C   UNL A   1      39.391  29.505  28.242  1.00  0.00     0.010 A 
ATOM     34  C   UNL A   1      39.959  28.878  30.500  1.00  0.00     0.010 A 
ATOM     35  C   UNL A   1      40.341  29.029  29.160  1.00  0.00    -0.014 A 
BRANCH  35  36
ATOM     36  C   UNL A   1      41.722  28.644  28.755  1.00  0.00     0.031 A 
ATOM     37  C   UNL A   1      42.806  29.694  28.691  1.00  0.00     0.074 A 
ATOM     38  C   UNL A   1      41.984  27.383  28.354  1.00  0.00     0.049 A 
ATOM     39  N   UNL A   1      44.026  29.599  28.229  1.00  0.00    -0.248 NA
ATOM     40  C   UNL A   1      42.453  31.044  29.165  1.00  0.00     0.031 C 
ATOM     41  C   UNL A   1      41.012  26.286  28.309  1.00  0.00     0.029 A 
ATOM     42  N   UNL A   1      43.144  26.809  27.895  1.00  0.00    -0.354 N 
ATOM     43  C   UNL A   1      44.568  30.879  28.323  1.00  0.00     0.074 A 
ATOM     44  C   UNL A   1      43.522  31.744  28.818  1.00  0.00     0.031 C 
ATOM     45  C   UNL A   1      41.623  25.170  27.882  1.00  0.00     0.029 A 
ATOM     46  C   UNL A   1      43.016  25.477  27.576  1.00  0.00     0.049 A 
ATOM     47  H   UNL A   1      43.988  27.306  27.803  1.00  0.00     0.167 HD
ATOM     48  C   UNL A   1      45.830  31.290  28.057  1.00  0.00     0.037 A 
ATOM     49  C   UNL A   1      43.917  24.602  27.087  1.00  0.00     0.037 A 
ATOM     50  C   UNL A   1      46.882  30.409  27.622  1.00  0.00     0.049 A 
ATOM     51  C   UNL A   1      45.323  25.073  26.824  1.00  0.00     0.074 A 
ATOM     52  C   UNL A   1      48.215  30.706  27.397  1.00  0.00     0.029 A 
ATOM     53  N   UNL A   1      46.721  29.057  27.353  1.00  0.00    -0.354 N 
ATOM     54  N   UNL A   1      45.832  26.273  26.978  1.00  0.00    -0.248 NA
ATOM     55  C   UNL A   1      46.278  24.073  26.330  1.00  0.00     0.031 C 
ATOM     56  C   UNL A   1      48.850  29.542  26.951  1.00  0.00     0.029 A 
ATOM     57  C   UNL A   1      47.926  28.509  26.948  1.00  0.00     0.049 A 
ATOM     58  H   UNL A   1      45.875  28.562  27.438  1.00  0.00     0.167 HD
ATOM     59  C   UNL A   1      47.173  26.166  26.625  1.00  0.00     0.074 A 
ATOM     60  C   UNL A   1      47.399  24.781  26.265  1.00  0.00     0.031 C 
ATOM     61  C   UNL A   1      48.131  27.125  26.602  1.00  0.00     0.037 A 
BRANCH  48  62
ATOM     62  C   UNL A   1      46.147  32.750  28.249  1.00  0.00     0.058 A 
ATOM     63  C   UNL A   1      46.613  33.252  29.475  1.00  0.00     0.135 A 
ATOM     64  C   UNL A   1      46.007  33.658  27.185  1.00  0.00     0.135 A 
ATOM     65  F   UNL A   1      46.753  32.435  30.532  1.00  0.00    -0.206 F 
ATOM     66  C   UNL A   1      46.889  34.603  29.653  1.00  0.00     0.059 A 
ATOM     67  C   UNL A   1      46.310  35.008  27.331  1.00  0.00     0.059 A 
ATOM     68  F   UNL A   1      45.566  33.236  25.989  1.00  0.00    -0.206 F 
ATOM     69  C   UNL A   1      46.734  35.475  28.574  1.00  0.00     0.060 A 
BRANCH  69  70
ATOM     70  S   UNL A   1      47.098  37.226  28.823  1.00  0.00     0.124 S 
ATOM     71  O   UNL A   1      46.048  37.610  29.761  1.00  0.00    -0.237 OA
ATOM     72  O   UNL A   1      48.451  37.187  29.369  1.00  0.00    -0.237 OA
ATOM     73  O   UNL A   1      46.980  37.792  27.484  1.00  0.00    -0.744 OA
ENDBRANCH  69  70
ENDBRANCH  48  62
BRANCH  49  74
ATOM     74  C   UNL A   1      43.527  23.187  26.844  1.00  0.00     0.058 A 
ATOM     75  C   UNL A   1      43.272  22.315  27.913  1.00  0.00     0.135 A 
ATOM     76  C   UNL A   1      43.384  22.679  25.542  1.00  0.00     0.135 A 
ATOM     77  F   UNL A   1      43.402  22.750  29.176  1.00  0.00    -0.206 F 
ATOM     78  C   UNL A   1      42.906  20.990  27.706  1.00  0.00     0.059 A 
ATOM     79  C   UNL A   1      42.991  21.363  25.309  1.00  0.00     0.059 A 
ATOM     80  F   UNL A   1      43.596  23.473  24.483  1.00  0.00    -0.206 F 
ATOM     81  C   UNL A   1      42.764  20.524  26.397  1.00  0.00     0.060 A 
BRANCH  81  82
ATOM     82  S   UNL A   1      42.240  18.815  26.140  1.00  0.00     0.124 S 
ATOM     83  O   UNL A   1      43.157  18.379  25.093  1.00  0.00    -0.237 OA
ATOM     84  O   UNL A   1      42.451  18.228  27.459  1.00  0.00    -0.237 OA
ATOM     85  O   UNL A   1      40.842  18.950  25.738  1.00  0.00    -0.744 OA
ENDBRANCH  81  82
ENDBRANCH  49  74
BRANCH  61  86
ATOM     86  C   UNL A   1      49.520  26.706  26.206  1.00  0.00     0.058 A 
ATOM     87  C   UNL A   1      49.994  26.866  24.895  1.00  0.00     0.135 A 
ATOM     88  C   UNL A   1      50.407  26.193  27.167  1.00  0.00     0.135 A 
ATOM     89  F   UNL A   1      49.185  27.348  23.938  1.00  0.00    -0.206 F 
ATOM     90  C   UNL A   1      51.291  26.508  24.544  1.00  0.00     0.059 A 
ATOM     91  C   UNL A   1      51.717  25.856  26.845  1.00  0.00     0.059 A 
ATOM     92  F   UNL A   1      50.007  26.032  28.438  1.00  0.00    -0.206 F 
ATOM     93  C   UNL A   1      52.147  26.006  25.528  1.00  0.00     0.060 A 
BRANCH  93  94
ATOM     94  S   UNL A   1      53.838  25.579  25.066  1.00  0.00     0.124 S 
ATOM     95  O   UNL A   1      53.701  24.168  24.723  1.00  0.00    -0.237 OA
ATOM     96  O   UNL A   1      54.094  26.481  23.947  1.00  0.00    -0.237 OA
ATOM     97  O   UNL A   1      54.603  25.861  26.277  1.00  0.00    -0.744 OA
ENDBRANCH  93  94
ENDBRANCH  61  86
ENDBRANCH  35  36
ENDBRANCH  27  30
ENDBRANCH  25  26
ENDBRANCH  24  25
ENDBRANCH   1  24
TORSDOF 18
ENDMDL
