MODEL 1
REMARK VINA RESULT:     -13.8      0.000      0.000
REMARK SMILES Cc1ccc([C@@H](C)Nc2snc(C)c2C(=O)NCCCNC(=O)c2ccc(-c3c4nc(c(-c5c(F)cc(S(=O)(=O)[O-])cc5F)c5ccc([nH]5)c(-c5c(F)cc(S(=O)(=O)[O-])cc5F)c5nc(c(-c6c(F)cc(S(=O)(=O)[O-])cc6F)c6ccc3[nH]6)C=C5)C=C4)cc2)cc1F
REMARK SMILES IDX 19 1 18 2 17 3 15 4 16 5 14 7 9 8 10 9 11 10 12 11 13 12
REMARK SMILES IDX 8 13 6 15 7 16 5 17 1 18 2 19 3 20 91 21 4 22 90 23 92 24
REMARK SMILES IDX 20 25 21 26 22 27 23 29 24 30 25 31 89 32 26 33 88 34 27 35
REMARK SMILES IDX 28 36 29 37 82 38 30 39 87 40 81 41 83 42 31 43 86 44 80 45
REMARK SMILES IDX 79 46 32 48 66 49 45 50 65 51 46 52 49 53 64 54 84 55 47 56
REMARK SMILES IDX 48 57 63 59 85 60 50 61 33 62 34 63 43 64 35 65 36 66 42 67
REMARK SMILES IDX 44 68 37 69 38 70 39 71 40 72 41 73 67 74 68 75 77 76 69 77
REMARK SMILES IDX 70 78 76 79 78 80 71 81 72 82 73 83 74 84 75 85 51 86 52 87
REMARK SMILES IDX 61 88 53 89 54 90 60 91 62 92 55 93 56 94 57 95 58 96 59 97
REMARK H PARENT 17 6 8 14 21 28 83 47 49 58
REMARK Flexibility Score: inf
ROOT
ATOM      1  C   UNL A   1      33.101  30.920  26.914  1.00  0.00     0.042 C 
ENDROOT
BRANCH   1   2
ATOM      2  C   UNL A   1      32.355  29.978  25.968  1.00  0.00     0.118 C 
BRANCH   2   3
ATOM      3  N   UNL A   1      33.029  29.727  24.704  1.00  0.00    -0.352 N 
ATOM      4  C   UNL A   1      32.577  28.971  23.645  1.00  0.00     0.256 C 
ATOM      5  O   UNL A   1      33.281  28.876  22.641  1.00  0.00    -0.269 OA
ATOM      6  H   UNL A   1      33.912  30.147  24.593  1.00  0.00     0.163 HD
BRANCH   4   7
ATOM      7  C   UNL A   1      31.338  28.220  23.776  1.00  0.00     0.097 A 
ATOM      8  C   UNL A   1      31.122  27.076  24.538  1.00  0.00     0.123 A 
ATOM      9  S   UNL A   1      29.543  26.491  24.161  1.00  0.00    -0.018 S 
ATOM     10  N   UNL A   1      29.078  27.771  23.238  1.00  0.00    -0.195 NA
ATOM     11  C   UNL A   1      30.106  28.610  23.115  1.00  0.00     0.066 A 
ATOM     12  C   UNL A   1      29.881  29.833  22.289  1.00  0.00     0.069 C 
BRANCH   8  13
ATOM     13  N   UNL A   1      31.896  26.376  25.416  1.00  0.00    -0.368 N 
ATOM     14  H   UNL A   1      32.408  26.869  26.097  1.00  0.00     0.162 HD
BRANCH  13  15
ATOM     15  C   UNL A   1      31.994  24.913  25.378  1.00  0.00     0.107 C 
ATOM     16  C   UNL A   1      31.919  24.299  26.764  1.00  0.00     0.036 C 
BRANCH  15  17
ATOM     17  C   UNL A   1      33.351  24.484  24.826  1.00  0.00    -0.023 A 
ATOM     18  C   UNL A   1      36.959  22.493  23.541  1.00  0.00     0.047 C 
ATOM     19  C   UNL A   1      35.726  23.243  23.941  1.00  0.00    -0.015 A 
ATOM     20  C   UNL A   1      34.590  23.262  23.125  1.00  0.00     0.007 A 
ATOM     21  C   UNL A   1      35.674  23.877  25.181  1.00  0.00     0.126 A 
ATOM     22  C   UNL A   1      33.416  23.883  23.561  1.00  0.00     0.006 A 
ATOM     23  C   UNL A   1      34.507  24.481  25.632  1.00  0.00     0.045 A 
ATOM     24  F   UNL A   1      36.753  23.875  25.977  1.00  0.00    -0.207 F 
ENDBRANCH  15  17
ENDBRANCH  13  15
ENDBRANCH   8  13
ENDBRANCH   4   7
ENDBRANCH   2   3
ENDBRANCH   1   2
BRANCH   1  25
ATOM     25  C   UNL A   1      34.287  30.297  27.648  1.00  0.00     0.118 C 
BRANCH  25  26
ATOM     26  N   UNL A   1      35.160  31.301  28.235  1.00  0.00    -0.352 N 
ATOM     27  C   UNL A   1      36.307  31.110  28.991  1.00  0.00     0.251 C 
ATOM     28  H   UNL A   1      34.903  32.239  28.077  1.00  0.00     0.163 HD
ATOM     29  O   UNL A   1      36.601  31.849  29.911  1.00  0.00    -0.269 OA
BRANCH  27  30
ATOM     30  C   UNL A   1      37.140  29.966  28.571  1.00  0.00     0.039 A 
ATOM     31  C   UNL A   1      37.852  29.988  27.372  1.00  0.00     0.014 A 
ATOM     32  C   UNL A   1      37.374  28.994  29.536  1.00  0.00     0.014 A 
ATOM     33  C   UNL A   1      38.983  29.177  27.253  1.00  0.00     0.010 A 
ATOM     34  C   UNL A   1      38.539  28.284  29.466  1.00  0.00     0.010 A 
ATOM     35  C   UNL A   1      39.384  28.409  28.352  1.00  0.00    -0.014 A 
BRANCH  35  36
ATOM     36  C   UNL A   1      40.703  27.793  28.515  1.00  0.00     0.031 A 
ATOM     37  C   UNL A   1      41.001  26.395  28.124  1.00  0.00     0.074 A 
ATOM     38  C   UNL A   1      41.717  28.608  28.882  1.00  0.00     0.049 A 
ATOM     39  N   UNL A   1      42.035  25.744  28.543  1.00  0.00    -0.248 NA
ATOM     40  C   UNL A   1      40.167  25.608  27.216  1.00  0.00     0.031 C 
ATOM     41  C   UNL A   1      43.150  28.389  28.801  1.00  0.00     0.029 A 
ATOM     42  N   UNL A   1      41.604  29.814  29.575  1.00  0.00    -0.354 N 
ATOM     43  C   UNL A   1      42.157  24.600  27.787  1.00  0.00     0.074 A 
ATOM     44  C   UNL A   1      40.930  24.522  27.025  1.00  0.00     0.031 C 
ATOM     45  C   UNL A   1      43.750  29.227  29.665  1.00  0.00     0.029 A 
ATOM     46  C   UNL A   1      42.697  29.870  30.441  1.00  0.00     0.049 A 
ATOM     47  H   UNL A   1      40.895  30.490  29.475  1.00  0.00     0.167 HD
ATOM     48  C   UNL A   1      43.334  23.906  27.795  1.00  0.00     0.037 A 
ATOM     49  C   UNL A   1      42.542  29.825  31.801  1.00  0.00     0.037 A 
ATOM     50  C   UNL A   1      44.316  24.530  28.675  1.00  0.00     0.049 A 
ATOM     51  C   UNL A   1      43.223  28.626  32.427  1.00  0.00     0.074 A 
ATOM     52  C   UNL A   1      45.352  25.428  28.474  1.00  0.00     0.029 A 
ATOM     53  N   UNL A   1      44.118  24.472  30.038  1.00  0.00    -0.354 N 
ATOM     54  N   UNL A   1      43.841  27.701  31.747  1.00  0.00    -0.248 NA
ATOM     55  C   UNL A   1      43.187  28.327  33.858  1.00  0.00     0.031 C 
ATOM     56  C   UNL A   1      45.732  25.953  29.741  1.00  0.00     0.029 A 
ATOM     57  C   UNL A   1      44.933  25.366  30.705  1.00  0.00     0.049 A 
ATOM     58  H   UNL A   1      43.477  23.869  30.480  1.00  0.00     0.167 HD
ATOM     59  C   UNL A   1      44.205  26.687  32.582  1.00  0.00     0.074 A 
ATOM     60  C   UNL A   1      43.805  27.134  33.903  1.00  0.00     0.031 C 
ATOM     61  C   UNL A   1      44.761  25.529  32.135  1.00  0.00     0.037 A 
BRANCH  48  62
ATOM     62  C   UNL A   1      43.678  22.763  26.869  1.00  0.00     0.058 A 
ATOM     63  C   UNL A   1      42.910  21.576  26.878  1.00  0.00     0.135 A 
ATOM     64  C   UNL A   1      44.731  22.785  25.934  1.00  0.00     0.135 A 
ATOM     65  F   UNL A   1      41.860  21.427  27.695  1.00  0.00    -0.206 F 
ATOM     66  C   UNL A   1      43.195  20.479  26.065  1.00  0.00     0.059 A 
ATOM     67  C   UNL A   1      45.063  21.679  25.139  1.00  0.00     0.059 A 
ATOM     68  F   UNL A   1      45.458  23.895  25.738  1.00  0.00    -0.206 F 
ATOM     69  C   UNL A   1      44.287  20.529  25.212  1.00  0.00     0.060 A 
BRANCH  69  70
ATOM     70  S   UNL A   1      44.673  19.067  24.228  1.00  0.00     0.124 S 
ATOM     71  O   UNL A   1      46.082  18.847  24.542  1.00  0.00    -0.237 OA
ATOM     72  O   UNL A   1      43.743  18.081  24.769  1.00  0.00    -0.237 OA
ATOM     73  O   UNL A   1      44.405  19.497  22.859  1.00  0.00    -0.744 OA
ENDBRANCH  69  70
ENDBRANCH  48  62
BRANCH  49  74
ATOM     74  C   UNL A   1      41.236  30.399  32.262  1.00  0.00     0.058 A 
ATOM     75  C   UNL A   1      40.242  29.495  32.688  1.00  0.00     0.135 A 
ATOM     76  C   UNL A   1      41.180  31.712  32.761  1.00  0.00     0.135 A 
ATOM     77  F   UNL A   1      40.244  28.231  32.232  1.00  0.00    -0.206 F 
ATOM     78  C   UNL A   1      39.360  29.818  33.715  1.00  0.00     0.059 A 
ATOM     79  C   UNL A   1      40.301  32.056  33.789  1.00  0.00     0.059 A 
ATOM     80  F   UNL A   1      42.099  32.615  32.391  1.00  0.00    -0.206 F 
ATOM     81  C   UNL A   1      39.449  31.079  34.305  1.00  0.00     0.060 A 
BRANCH  81  82
ATOM     82  S   UNL A   1      38.584  31.340  35.875  1.00  0.00     0.124 S 
ATOM     83  O   UNL A   1      37.331  31.942  35.433  1.00  0.00    -0.237 OA
ATOM     84  O   UNL A   1      38.484  29.973  36.382  1.00  0.00    -0.237 OA
ATOM     85  O   UNL A   1      39.484  32.221  36.610  1.00  0.00    -0.744 OA
ENDBRANCH  81  82
ENDBRANCH  49  74
BRANCH  61  86
ATOM     86  C   UNL A   1      45.176  24.444  33.065  1.00  0.00     0.058 A 
ATOM     87  C   UNL A   1      44.317  23.375  33.359  1.00  0.00     0.135 A 
ATOM     88  C   UNL A   1      46.388  24.508  33.776  1.00  0.00     0.135 A 
ATOM     89  F   UNL A   1      43.131  23.263  32.736  1.00  0.00    -0.206 F 
ATOM     90  C   UNL A   1      44.653  22.402  34.294  1.00  0.00     0.059 A 
ATOM     91  C   UNL A   1      46.726  23.572  34.745  1.00  0.00     0.059 A 
ATOM     92  F   UNL A   1      47.285  25.475  33.527  1.00  0.00    -0.206 F 
ATOM     93  C   UNL A   1      45.861  22.511  34.983  1.00  0.00     0.060 A 
BRANCH  93  94
ATOM     94  S   UNL A   1      46.298  21.263  36.206  1.00  0.00     0.124 S 
ATOM     95  O   UNL A   1      45.566  20.087  35.746  1.00  0.00    -0.237 OA
ATOM     96  O   UNL A   1      47.748  21.204  36.049  1.00  0.00    -0.237 OA
ATOM     97  O   UNL A   1      45.819  21.841  37.457  1.00  0.00    -0.744 OA
ENDBRANCH  93  94
ENDBRANCH  61  86
ENDBRANCH  35  36
ENDBRANCH  27  30
ENDBRANCH  25  26
ENDBRANCH   1  25
TORSDOF 16
ENDMDL
MODEL 2
REMARK VINA RESULT:     -13.6      1.836      3.719
REMARK SMILES Cc1ccc([C@@H](C)Nc2snc(C)c2C(=O)NCCCNC(=O)c2ccc(-c3c4nc(c(-c5c(F)cc(S(=O)(=O)[O-])cc5F)c5ccc([nH]5)c(-c5c(F)cc(S(=O)(=O)[O-])cc5F)c5nc(c(-c6c(F)cc(S(=O)(=O)[O-])cc6F)c6ccc3[nH]6)C=C5)C=C4)cc2)cc1F
REMARK SMILES IDX 19 1 18 2 17 3 15 4 16 5 14 7 9 8 10 9 11 10 12 11 13 12
REMARK SMILES IDX 8 13 6 15 7 16 5 17 1 18 2 19 3 20 91 21 4 22 90 23 92 24
REMARK SMILES IDX 20 25 21 26 22 27 23 29 24 30 25 31 89 32 26 33 88 34 27 35
REMARK SMILES IDX 28 36 29 37 82 38 30 39 87 40 81 41 83 42 31 43 86 44 80 45
REMARK SMILES IDX 79 46 32 48 66 49 45 50 65 51 46 52 49 53 64 54 84 55 47 56
REMARK SMILES IDX 48 57 63 59 85 60 50 61 33 62 34 63 43 64 35 65 36 66 42 67
REMARK SMILES IDX 44 68 37 69 38 70 39 71 40 72 41 73 67 74 68 75 77 76 69 77
REMARK SMILES IDX 70 78 76 79 78 80 71 81 72 82 73 83 74 84 75 85 51 86 52 87
REMARK SMILES IDX 61 88 53 89 54 90 60 91 62 92 55 93 56 94 57 95 58 96 59 97
REMARK H PARENT 17 6 8 14 21 28 83 47 49 58
REMARK Flexibility Score: inf
ROOT
ATOM      1  C   UNL A   1      33.659  30.123  27.704  1.00  0.00     0.042 C 
ENDROOT
BRANCH   1   2
ATOM      2  C   UNL A   1      33.776  28.664  27.260  1.00  0.00     0.118 C 
BRANCH   2   3
ATOM      3  N   UNL A   1      32.530  27.916  27.299  1.00  0.00    -0.352 N 
ATOM      4  C   UNL A   1      31.945  27.201  26.277  1.00  0.00     0.256 C 
ATOM      5  O   UNL A   1      30.886  26.615  26.493  1.00  0.00    -0.269 OA
ATOM      6  H   UNL A   1      32.048  27.920  28.156  1.00  0.00     0.163 HD
BRANCH   4   7
ATOM      7  C   UNL A   1      32.530  27.242  24.945  1.00  0.00     0.097 A 
ATOM      8  C   UNL A   1      32.185  28.092  23.898  1.00  0.00     0.123 A 
ATOM      9  S   UNL A   1      33.047  27.567  22.498  1.00  0.00    -0.018 S 
ATOM     10  N   UNL A   1      33.987  26.450  23.257  1.00  0.00    -0.195 NA
ATOM     11  C   UNL A   1      33.622  26.378  24.536  1.00  0.00     0.066 A 
ATOM     12  C   UNL A   1      34.355  25.396  25.389  1.00  0.00     0.069 C 
BRANCH   8  13
ATOM     13  N   UNL A   1      31.321  29.142  23.791  1.00  0.00    -0.368 N 
ATOM     14  H   UNL A   1      31.679  30.032  23.567  1.00  0.00     0.162 HD
BRANCH  13  15
ATOM     15  C   UNL A   1      29.878  28.991  24.000  1.00  0.00     0.107 C 
ATOM     16  C   UNL A   1      29.364  27.656  23.489  1.00  0.00     0.036 C 
BRANCH  15  17
ATOM     17  C   UNL A   1      29.110  30.042  23.203  1.00  0.00    -0.023 A 
ATOM     18  C   UNL A   1      27.662  33.080  20.500  1.00  0.00     0.047 C 
ATOM     19  C   UNL A   1      28.091  32.012  21.457  1.00  0.00    -0.015 A 
ATOM     20  C   UNL A   1      28.029  30.658  21.112  1.00  0.00     0.007 A 
ATOM     21  C   UNL A   1      28.632  32.367  22.691  1.00  0.00     0.126 A 
ATOM     22  C   UNL A   1      28.526  29.682  21.980  1.00  0.00     0.006 A 
ATOM     23  C   UNL A   1      29.147  31.407  23.554  1.00  0.00     0.045 A 
ATOM     24  F   UNL A   1      28.698  33.658  23.045  1.00  0.00    -0.207 F 
ENDBRANCH  15  17
ENDBRANCH  13  15
ENDBRANCH   8  13
ENDBRANCH   4   7
ENDBRANCH   2   3
ENDBRANCH   1   2
BRANCH   1  25
ATOM     25  C   UNL A   1      34.800  31.033  27.254  1.00  0.00     0.118 C 
BRANCH  25  26
ATOM     26  N   UNL A   1      35.473  31.669  28.376  1.00  0.00    -0.352 N 
ATOM     27  C   UNL A   1      36.252  31.079  29.360  1.00  0.00     0.251 C 
ATOM     28  H   UNL A   1      35.359  32.645  28.447  1.00  0.00     0.163 HD
ATOM     29  O   UNL A   1      36.246  31.477  30.509  1.00  0.00    -0.269 OA
BRANCH  27  30
ATOM     30  C   UNL A   1      37.094  29.960  28.893  1.00  0.00     0.039 A 
ATOM     31  C   UNL A   1      37.855  30.062  27.729  1.00  0.00     0.014 A 
ATOM     32  C   UNL A   1      37.282  28.920  29.794  1.00  0.00     0.014 A 
ATOM     33  C   UNL A   1      38.984  29.251  27.597  1.00  0.00     0.010 A 
ATOM     34  C   UNL A   1      38.444  28.206  29.721  1.00  0.00     0.010 A 
ATOM     35  C   UNL A   1      39.336  28.403  28.653  1.00  0.00    -0.014 A 
BRANCH  35  36
ATOM     36  C   UNL A   1      40.643  27.765  28.826  1.00  0.00     0.031 A 
ATOM     37  C   UNL A   1      40.931  26.375  28.399  1.00  0.00     0.074 A 
ATOM     38  C   UNL A   1      41.659  28.555  29.237  1.00  0.00     0.049 A 
ATOM     39  N   UNL A   1      41.948  25.698  28.819  1.00  0.00    -0.248 NA
ATOM     40  C   UNL A   1      40.107  25.627  27.450  1.00  0.00     0.031 C 
ATOM     41  C   UNL A   1      43.091  28.319  29.180  1.00  0.00     0.029 A 
ATOM     42  N   UNL A   1      41.547  29.741  29.964  1.00  0.00    -0.354 N 
ATOM     43  C   UNL A   1      42.071  24.575  28.032  1.00  0.00     0.074 A 
ATOM     44  C   UNL A   1      40.859  24.537  27.243  1.00  0.00     0.031 C 
ATOM     45  C   UNL A   1      43.683  29.123  30.081  1.00  0.00     0.029 A 
ATOM     46  C   UNL A   1      42.622  29.757  30.854  1.00  0.00     0.049 A 
ATOM     47  H   UNL A   1      40.849  30.429  29.869  1.00  0.00     0.167 HD
ATOM     48  C   UNL A   1      43.238  23.866  28.043  1.00  0.00     0.037 A 
ATOM     49  C   UNL A   1      42.438  29.673  32.208  1.00  0.00     0.037 A 
ATOM     50  C   UNL A   1      44.210  24.450  28.961  1.00  0.00     0.049 A 
ATOM     51  C   UNL A   1      43.091  28.447  32.811  1.00  0.00     0.074 A 
ATOM     52  C   UNL A   1      45.262  25.340  28.809  1.00  0.00     0.029 A 
ATOM     53  N   UNL A   1      43.982  24.354  30.318  1.00  0.00    -0.354 N 
ATOM     54  N   UNL A   1      43.711  27.535  32.117  1.00  0.00    -0.248 NA
ATOM     55  C   UNL A   1      43.020  28.106  34.232  1.00  0.00     0.031 C 
ATOM     56  C   UNL A   1      45.621  25.822  30.099  1.00  0.00     0.029 A 
ATOM     57  C   UNL A   1      44.795  25.217  31.028  1.00  0.00     0.049 A 
ATOM     58  H   UNL A   1      43.325  23.748  30.729  1.00  0.00     0.167 HD
ATOM     59  C   UNL A   1      44.044  26.492  32.929  1.00  0.00     0.074 A 
ATOM     60  C   UNL A   1      43.622  26.904  34.254  1.00  0.00     0.031 C 
ATOM     61  C   UNL A   1      44.594  25.341  32.459  1.00  0.00     0.037 A 
BRANCH  48  62
ATOM     62  C   UNL A   1      43.587  22.747  27.091  1.00  0.00     0.058 A 
ATOM     63  C   UNL A   1      42.792  21.580  27.033  1.00  0.00     0.135 A 
ATOM     64  C   UNL A   1      44.673  22.773  26.193  1.00  0.00     0.135 A 
ATOM     65  F   UNL A   1      41.710  21.429  27.808  1.00  0.00    -0.206 F 
ATOM     66  C   UNL A   1      43.079  20.504  26.193  1.00  0.00     0.059 A 
ATOM     67  C   UNL A   1      45.006  21.687  25.372  1.00  0.00     0.059 A 
ATOM     68  F   UNL A   1      45.433  23.871  26.061  1.00  0.00    -0.206 F 
ATOM     69  C   UNL A   1      44.200  20.555  25.379  1.00  0.00     0.060 A 
BRANCH  69  70
ATOM     70  S   UNL A   1      44.586  19.117  24.359  1.00  0.00     0.124 S 
ATOM     71  O   UNL A   1      43.755  18.079  24.963  1.00  0.00    -0.237 OA
ATOM     72  O   UNL A   1      44.175  19.566  23.033  1.00  0.00    -0.237 OA
ATOM     73  O   UNL A   1      46.023  18.944  24.546  1.00  0.00    -0.744 OA
ENDBRANCH  69  70
ENDBRANCH  48  62
BRANCH  49  74
ATOM     74  C   UNL A   1      41.130  30.250  32.658  1.00  0.00     0.058 A 
ATOM     75  C   UNL A   1      40.155  29.354  33.141  1.00  0.00     0.135 A 
ATOM     76  C   UNL A   1      41.062  31.585  33.096  1.00  0.00     0.135 A 
ATOM     77  F   UNL A   1      40.169  28.070  32.745  1.00  0.00    -0.206 F 
ATOM     78  C   UNL A   1      39.282  29.714  34.163  1.00  0.00     0.059 A 
ATOM     79  C   UNL A   1      40.191  31.966  34.118  1.00  0.00     0.059 A 
ATOM     80  F   UNL A   1      41.964  32.482  32.671  1.00  0.00    -0.206 F 
ATOM     81  C   UNL A   1      39.360  31.003  34.692  1.00  0.00     0.060 A 
BRANCH  81  82
ATOM     82  S   UNL A   1      38.511  31.326  36.259  1.00  0.00     0.124 S 
ATOM     83  O   UNL A   1      37.401  32.171  35.833  1.00  0.00    -0.237 OA
ATOM     84  O   UNL A   1      38.152  29.973  36.678  1.00  0.00    -0.237 OA
ATOM     85  O   UNL A   1      39.535  31.985  37.063  1.00  0.00    -0.744 OA
ENDBRANCH  81  82
ENDBRANCH  49  74
BRANCH  61  86
ATOM     86  C   UNL A   1      44.976  24.222  33.364  1.00  0.00     0.058 A 
ATOM     87  C   UNL A   1      46.246  24.173  33.958  1.00  0.00     0.135 A 
ATOM     88  C   UNL A   1      44.130  23.116  33.563  1.00  0.00     0.135 A 
ATOM     89  F   UNL A   1      47.116  25.183  33.790  1.00  0.00    -0.206 F 
ATOM     90  C   UNL A   1      46.649  23.090  34.732  1.00  0.00     0.059 A 
ATOM     91  C   UNL A   1      44.527  22.005  34.296  1.00  0.00     0.059 A 
ATOM     92  F   UNL A   1      42.883  23.101  33.064  1.00  0.00    -0.206 F 
ATOM     93  C   UNL A   1      45.781  22.010  34.893  1.00  0.00     0.060 A 
BRANCH  93  94
ATOM     94  S   UNL A   1      46.301  20.597  35.883  1.00  0.00     0.124 S 
ATOM     95  O   UNL A   1      45.350  19.560  35.493  1.00  0.00    -0.237 OA
ATOM     96  O   UNL A   1      47.669  20.406  35.412  1.00  0.00    -0.237 OA
ATOM     97  O   UNL A   1      46.165  21.081  37.252  1.00  0.00    -0.744 OA
ENDBRANCH  93  94
ENDBRANCH  61  86
ENDBRANCH  35  36
ENDBRANCH  27  30
ENDBRANCH  25  26
ENDBRANCH   1  25
TORSDOF 16
ENDMDL
MODEL 3
REMARK VINA RESULT:     -13.1      2.743      3.952
REMARK SMILES Cc1ccc([C@@H](C)Nc2snc(C)c2C(=O)NCCCNC(=O)c2ccc(-c3c4nc(c(-c5c(F)cc(S(=O)(=O)[O-])cc5F)c5ccc([nH]5)c(-c5c(F)cc(S(=O)(=O)[O-])cc5F)c5nc(c(-c6c(F)cc(S(=O)(=O)[O-])cc6F)c6ccc3[nH]6)C=C5)C=C4)cc2)cc1F
REMARK SMILES IDX 19 1 18 2 17 3 15 4 16 5 14 7 9 8 10 9 11 10 12 11 13 12
REMARK SMILES IDX 8 13 6 15 7 16 5 17 1 18 2 19 3 20 91 21 4 22 90 23 92 24
REMARK SMILES IDX 20 25 21 26 22 27 23 29 24 30 25 31 89 32 26 33 88 34 27 35
REMARK SMILES IDX 28 36 29 37 82 38 30 39 87 40 81 41 83 42 31 43 86 44 80 45
REMARK SMILES IDX 79 46 32 48 66 49 45 50 65 51 46 52 49 53 64 54 84 55 47 56
REMARK SMILES IDX 48 57 63 59 85 60 50 61 33 62 34 63 43 64 35 65 36 66 42 67
REMARK SMILES IDX 44 68 37 69 38 70 39 71 40 72 41 73 67 74 68 75 77 76 69 77
REMARK SMILES IDX 70 78 76 79 78 80 71 81 72 82 73 83 74 84 75 85 51 86 52 87
REMARK SMILES IDX 61 88 53 89 54 90 60 91 62 92 55 93 56 94 57 95 58 96 59 97
REMARK H PARENT 17 6 8 14 21 28 83 47 49 58
REMARK Flexibility Score: inf
ROOT
ATOM      1  C   UNL A   1      33.564  27.601  26.741  1.00  0.00     0.042 C 
ENDROOT
BRANCH   1   2
ATOM      2  C   UNL A   1      32.137  28.029  26.396  1.00  0.00     0.118 C 
BRANCH   2   3
ATOM      3  N   UNL A   1      31.108  27.073  26.771  1.00  0.00    -0.352 N 
ATOM      4  C   UNL A   1      30.699  25.959  26.071  1.00  0.00     0.256 C 
ATOM      5  O   UNL A   1      29.815  25.250  26.548  1.00  0.00    -0.269 OA
ATOM      6  H   UNL A   1      30.650  27.240  27.626  1.00  0.00     0.163 HD
BRANCH   4   7
ATOM      7  C   UNL A   1      31.239  25.707  24.744  1.00  0.00     0.097 A 
ATOM      8  C   UNL A   1      32.310  24.883  24.411  1.00  0.00     0.123 A 
ATOM      9  S   UNL A   1      32.647  25.120  22.735  1.00  0.00    -0.018 S 
ATOM     10  N   UNL A   1      31.337  26.059  22.406  1.00  0.00    -0.195 NA
ATOM     11  C   UNL A   1      30.677  26.291  23.540  1.00  0.00     0.066 A 
ATOM     12  C   UNL A   1      29.458  27.149  23.446  1.00  0.00     0.069 C 
BRANCH   8  13
ATOM     13  N   UNL A   1      33.099  24.035  25.133  1.00  0.00    -0.368 N 
ATOM     14  H   UNL A   1      34.063  24.222  25.198  1.00  0.00     0.162 HD
BRANCH  13  15
ATOM     15  C   UNL A   1      32.557  22.855  25.813  1.00  0.00     0.107 C 
ATOM     16  C   UNL A   1      32.970  22.797  27.274  1.00  0.00     0.036 C 
BRANCH  15  17
ATOM     17  C   UNL A   1      33.118  21.578  25.193  1.00  0.00    -0.023 A 
ATOM     18  C   UNL A   1      34.556  17.629  24.207  1.00  0.00     0.047 C 
ATOM     19  C   UNL A   1      34.054  19.013  24.473  1.00  0.00    -0.015 A 
ATOM     20  C   UNL A   1      32.693  19.325  24.378  1.00  0.00     0.007 A 
ATOM     21  C   UNL A   1      34.941  20.002  24.896  1.00  0.00     0.126 A 
ATOM     22  C   UNL A   1      32.231  20.597  24.727  1.00  0.00     0.006 A 
ATOM     23  C   UNL A   1      34.490  21.264  25.262  1.00  0.00     0.045 A 
ATOM     24  F   UNL A   1      36.250  19.728  24.990  1.00  0.00    -0.207 F 
ENDBRANCH  15  17
ENDBRANCH  13  15
ENDBRANCH   8  13
ENDBRANCH   4   7
ENDBRANCH   2   3
ENDBRANCH   1   2
BRANCH   1  25
ATOM     25  C   UNL A   1      34.645  28.636  26.436  1.00  0.00     0.118 C 
BRANCH  25  26
ATOM     26  N   UNL A   1      34.100  29.979  26.309  1.00  0.00    -0.352 N 
ATOM     27  C   UNL A   1      33.947  30.943  27.293  1.00  0.00     0.251 C 
ATOM     28  H   UNL A   1      33.799  30.237  25.406  1.00  0.00     0.163 HD
ATOM     29  O   UNL A   1      33.000  31.707  27.304  1.00  0.00    -0.269 OA
BRANCH  27  30
ATOM     30  C   UNL A   1      35.030  30.980  28.296  1.00  0.00     0.039 A 
ATOM     31  C   UNL A   1      35.145  29.995  29.276  1.00  0.00     0.014 A 
ATOM     32  C   UNL A   1      36.053  31.888  28.056  1.00  0.00     0.014 A 
ATOM     33  C   UNL A   1      36.398  29.764  29.845  1.00  0.00     0.010 A 
ATOM     34  C   UNL A   1      37.301  31.592  28.527  1.00  0.00     0.010 A 
ATOM     35  C   UNL A   1      37.498  30.494  29.381  1.00  0.00    -0.014 A 
BRANCH  35  36
ATOM     36  C   UNL A   1      38.902  30.144  29.608  1.00  0.00     0.031 A 
ATOM     37  C   UNL A   1      39.521  28.897  29.099  1.00  0.00     0.074 A 
ATOM     38  C   UNL A   1      39.687  31.095  30.161  1.00  0.00     0.049 A 
ATOM     39  N   UNL A   1      40.636  28.423  29.546  1.00  0.00    -0.248 NA
ATOM     40  C   UNL A   1      38.946  28.080  28.032  1.00  0.00     0.031 C 
ATOM     41  C   UNL A   1      41.136  31.185  30.201  1.00  0.00     0.029 A 
ATOM     42  N   UNL A   1      39.267  32.155  30.967  1.00  0.00    -0.354 N 
ATOM     43  C   UNL A   1      41.057  27.433  28.687  1.00  0.00     0.074 A 
ATOM     44  C   UNL A   1      39.936  27.205  27.802  1.00  0.00     0.031 C 
ATOM     45  C   UNL A   1      41.475  32.010  31.207  1.00  0.00     0.029 A 
ATOM     46  C   UNL A   1      40.254  32.322  31.939  1.00  0.00     0.049 A 
ATOM     47  H   UNL A   1      38.439  32.680  30.870  1.00  0.00     0.167 HD
ATOM     48  C   UNL A   1      42.351  26.999  28.738  1.00  0.00     0.037 A 
ATOM     49  C   UNL A   1      40.010  32.073  33.263  1.00  0.00     0.037 A 
ATOM     50  C   UNL A   1      43.108  27.692  29.774  1.00  0.00     0.049 A 
ATOM     51  C   UNL A   1      40.884  30.968  33.820  1.00  0.00     0.074 A 
ATOM     52  C   UNL A   1      43.940  28.800  29.777  1.00  0.00     0.029 A 
ATOM     53  N   UNL A   1      42.824  27.422  31.096  1.00  0.00    -0.354 N 
ATOM     54  N   UNL A   1      41.735  30.283  33.109  1.00  0.00    -0.248 NA
ATOM     55  C   UNL A   1      40.805  30.488  35.200  1.00  0.00     0.031 C 
ATOM     56  C   UNL A   1      44.101  29.226  31.125  1.00  0.00     0.029 A 
ATOM     57  C   UNL A   1      43.377  28.371  31.934  1.00  0.00     0.049 A 
ATOM     58  H   UNL A   1      42.296  26.650  31.404  1.00  0.00     0.167 HD
ATOM     59  C   UNL A   1      42.244  29.267  33.862  1.00  0.00     0.074 A 
ATOM     60  C   UNL A   1      41.659  29.450  35.176  1.00  0.00     0.031 C 
ATOM     61  C   UNL A   1      43.066  28.313  33.350  1.00  0.00     0.037 A 
BRANCH  48  62
ATOM     62  C   UNL A   1      43.000  26.077  27.732  1.00  0.00     0.058 A 
ATOM     63  C   UNL A   1      43.074  24.686  27.976  1.00  0.00     0.135 A 
ATOM     64  C   UNL A   1      43.544  26.496  26.502  1.00  0.00     0.135 A 
ATOM     65  F   UNL A   1      42.572  24.143  29.093  1.00  0.00    -0.206 F 
ATOM     66  C   UNL A   1      43.684  23.791  27.099  1.00  0.00     0.059 A 
ATOM     67  C   UNL A   1      44.199  25.621  25.624  1.00  0.00     0.059 A 
ATOM     68  F   UNL A   1      43.429  27.769  26.094  1.00  0.00    -0.206 F 
ATOM     69  C   UNL A   1      44.264  24.267  25.932  1.00  0.00     0.060 A 
BRANCH  69  70
ATOM     70  S   UNL A   1      45.109  23.094  24.854  1.00  0.00     0.124 S 
ATOM     71  O   UNL A   1      44.002  22.521  24.092  1.00  0.00    -0.237 OA
ATOM     72  O   UNL A   1      46.010  23.964  24.104  1.00  0.00    -0.237 OA
ATOM     73  O   UNL A   1      45.755  22.177  25.788  1.00  0.00    -0.744 OA
ENDBRANCH  69  70
ENDBRANCH  48  62
BRANCH  49  74
ATOM     74  C   UNL A   1      38.581  32.305  33.650  1.00  0.00     0.058 A 
ATOM     75  C   UNL A   1      38.170  33.639  33.849  1.00  0.00     0.135 A 
ATOM     76  C   UNL A   1      37.595  31.364  33.306  1.00  0.00     0.135 A 
ATOM     77  F   UNL A   1      39.071  34.575  34.190  1.00  0.00    -0.206 F 
ATOM     78  C   UNL A   1      36.884  34.057  33.524  1.00  0.00     0.059 A 
ATOM     79  C   UNL A   1      36.298  31.764  32.979  1.00  0.00     0.059 A 
ATOM     80  F   UNL A   1      37.928  30.080  33.103  1.00  0.00    -0.206 F 
ATOM     81  C   UNL A   1      35.979  33.122  33.021  1.00  0.00     0.060 A 
BRANCH  81  82
ATOM     82  S   UNL A   1      34.467  33.742  32.240  1.00  0.00     0.124 S 
ATOM     83  O   UNL A   1      33.448  33.370  33.215  1.00  0.00    -0.237 OA
ATOM     84  O   UNL A   1      34.757  35.171  32.142  1.00  0.00    -0.237 OA
ATOM     85  O   UNL A   1      34.425  33.020  30.974  1.00  0.00    -0.744 OA
ENDBRANCH  81  82
ENDBRANCH  49  74
BRANCH  61  86
ATOM     86  C   UNL A   1      43.633  27.225  34.193  1.00  0.00     0.058 A 
ATOM     87  C   UNL A   1      45.015  27.125  34.413  1.00  0.00     0.135 A 
ATOM     88  C   UNL A   1      42.825  26.190  34.699  1.00  0.00     0.135 A 
ATOM     89  F   UNL A   1      45.850  28.064  33.937  1.00  0.00    -0.206 F 
ATOM     90  C   UNL A   1      45.567  26.064  35.122  1.00  0.00     0.059 A 
ATOM     91  C   UNL A   1      43.358  25.099  35.373  1.00  0.00     0.059 A 
ATOM     92  F   UNL A   1      41.490  26.230  34.568  1.00  0.00    -0.206 F 
ATOM     93  C   UNL A   1      44.730  25.054  35.597  1.00  0.00     0.060 A 
BRANCH  93  94
ATOM     94  S   UNL A   1      45.438  23.669  36.504  1.00  0.00     0.124 S 
ATOM     95  O   UNL A   1      46.870  23.821  36.261  1.00  0.00    -0.237 OA
ATOM     96  O   UNL A   1      44.996  23.961  37.863  1.00  0.00    -0.237 OA
ATOM     97  O   UNL A   1      44.822  22.507  35.873  1.00  0.00    -0.744 OA
ENDBRANCH  93  94
ENDBRANCH  61  86
ENDBRANCH  35  36
ENDBRANCH  27  30
ENDBRANCH  25  26
ENDBRANCH   1  25
TORSDOF 16
ENDMDL
