MODEL 1
REMARK VINA RESULT:     -12.2      0.000      0.000
REMARK SMILES CO[C@H]1CN(C(=O)c2cn(C(C)C)cc(C(=O)NCCCNC(=O)c3ccc(-c4c5nc(c(-c6c(F)cc(S(=O)(=O)[O-])cc6F)c6ccc([nH]6)c(-c6c(F)cc(S(=O)(=O)[O-])cc6F)c6nc(c(-c7c(F)cc(S(=O)(=O)[O-])cc7F)c7ccc4[nH]7)C=C6)C=C5)cc3)c2=O)CC[C@H]1[NH3+]
REMARK SMILES IDX 20 1 19 2 18 3 16 4 17 5 15 7 8 8 9 9 91 10 10 11 92 12
REMARK SMILES IDX 14 13 6 14 7 15 5 16 3 17 4 18 95 19 94 20 93 21 2 22 1 23
REMARK SMILES IDX 96 24 11 28 12 29 13 30 21 31 22 32 23 33 24 35 25 36 26 37
REMARK SMILES IDX 90 38 27 39 89 40 28 41 29 42 30 43 83 44 31 45 88 46 82 47
REMARK SMILES IDX 84 48 32 49 87 50 81 51 80 52 33 54 67 55 46 56 66 57 47 58
REMARK SMILES IDX 50 59 65 60 85 61 48 62 49 63 64 65 86 66 51 67 34 68 35 69
REMARK SMILES IDX 44 70 36 71 37 72 43 73 45 74 38 75 39 76 40 77 41 78 42 79
REMARK SMILES IDX 68 80 69 81 78 82 70 83 71 84 77 85 79 86 72 87 73 88 74 89
REMARK SMILES IDX 75 90 76 91 52 92 53 93 62 94 54 95 55 96 61 97 63 98 56 99
REMARK SMILES IDX 57 100 58 101 59 102 60 103
REMARK H PARENT 18 6 96 25 96 26 96 27 22 34 84 53 50 64
REMARK Flexibility Score: inf
ROOT
ATOM      1  C   UNL A   1      37.544  22.994  25.861  1.00  0.00     0.042 C 
ENDROOT
BRANCH   1   2
ATOM      2  C   UNL A   1      36.071  23.365  26.024  1.00  0.00     0.118 C 
BRANCH   2   3
ATOM      3  N   UNL A   1      35.349  22.364  26.790  1.00  0.00    -0.352 N 
ATOM      4  C   UNL A   1      34.031  22.039  26.871  1.00  0.00     0.256 C 
ATOM      5  O   UNL A   1      33.752  21.098  27.622  1.00  0.00    -0.269 OA
ATOM      6  H   UNL A   1      35.928  21.811  27.363  1.00  0.00     0.163 HD
BRANCH   4   7
ATOM      7  C   UNL A   1      32.966  22.684  26.055  1.00  0.00     0.104 A 
ATOM      8  C   UNL A   1      31.113  24.323  25.469  1.00  0.00     0.104 A 
ATOM      9  C   UNL A   1      31.206  23.888  24.205  1.00  0.00     0.103 A 
ATOM     10  C   UNL A   1      31.873  23.586  26.508  1.00  0.00     0.207 A 
ATOM     11  N   UNL A   1      32.055  22.865  23.796  1.00  0.00    -0.350 N 
ATOM     12  O   UNL A   1      31.577  23.732  27.688  1.00  0.00    -0.288 OA
ATOM     13  C   UNL A   1      32.945  22.361  24.746  1.00  0.00     0.103 A 
BRANCH   8  14
ATOM     14  C   UNL A   1      30.220  25.462  25.772  1.00  0.00     0.259 C 
ATOM     15  O   UNL A   1      29.264  25.295  26.528  1.00  0.00    -0.269 OA
BRANCH  14  16
ATOM     16  N   UNL A   1      30.467  26.663  25.120  1.00  0.00    -0.335 N 
ATOM     17  C   UNL A   1      32.477  27.787  24.241  1.00  0.00     0.195 C 
ATOM     18  C   UNL A   1      31.541  27.610  25.448  1.00  0.00     0.158 C 
ATOM     19  C   UNL A   1      31.692  28.235  22.973  1.00  0.00     0.213 C 
ATOM     20  C   UNL A   1      30.548  27.231  22.718  1.00  0.00     0.089 C 
ATOM     21  C   UNL A   1      29.665  27.017  23.950  1.00  0.00     0.126 C 
BRANCH  17  22
ATOM     22  O   UNL A   1      33.677  28.521  24.511  1.00  0.00    -0.373 OA
ATOM     23  C   UNL A   1      33.948  28.833  25.867  1.00  0.00     0.195 C 
ENDBRANCH  17  22
BRANCH  19  24
ATOM     24  N   UNL A   1      31.158  29.607  23.022  1.00  0.00    -0.353 N 
ATOM     25  H   UNL A   1      30.352  29.679  22.402  1.00  0.00     0.344 HD
ATOM     26  H   UNL A   1      31.878  30.263  22.719  1.00  0.00     0.344 HD
ATOM     27  H   UNL A   1      30.876  29.829  23.976  1.00  0.00     0.344 HD
ENDBRANCH  19  24
ENDBRANCH  14  16
ENDBRANCH   8  14
BRANCH  11  28
ATOM     28  C   UNL A   1      32.019  22.306  22.422  1.00  0.00     0.080 C 
ATOM     29  C   UNL A   1      33.140  22.907  21.573  1.00  0.00     0.031 C 
ATOM     30  C   UNL A   1      32.078  20.780  22.444  1.00  0.00     0.031 C 
ENDBRANCH  11  28
ENDBRANCH   4   7
ENDBRANCH   2   3
ENDBRANCH   1   2
BRANCH   1  31
ATOM     31  C   UNL A   1      38.497  24.152  26.119  1.00  0.00     0.118 C 
BRANCH  31  32
ATOM     32  N   UNL A   1      39.887  23.725  26.214  1.00  0.00    -0.352 N 
ATOM     33  C   UNL A   1      40.942  24.338  26.851  1.00  0.00     0.251 C 
ATOM     34  H   UNL A   1      40.102  22.879  25.760  1.00  0.00     0.163 HD
ATOM     35  O   UNL A   1      42.085  23.921  26.679  1.00  0.00    -0.269 OA
BRANCH  33  36
ATOM     36  C   UNL A   1      40.699  25.520  27.708  1.00  0.00     0.039 A 
ATOM     37  C   UNL A   1      41.529  26.640  27.629  1.00  0.00     0.014 A 
ATOM     38  C   UNL A   1      39.650  25.487  28.631  1.00  0.00     0.014 A 
ATOM     39  C   UNL A   1      41.427  27.642  28.590  1.00  0.00     0.010 A 
ATOM     40  C   UNL A   1      39.498  26.535  29.543  1.00  0.00     0.010 A 
ATOM     41  C   UNL A   1      40.422  27.594  29.566  1.00  0.00    -0.014 A 
BRANCH  41  42
ATOM     42  C   UNL A   1      40.366  28.635  30.626  1.00  0.00     0.031 A 
ATOM     43  C   UNL A   1      41.336  28.603  31.777  1.00  0.00     0.074 A 
ATOM     44  C   UNL A   1      39.462  29.629  30.536  1.00  0.00     0.049 A 
ATOM     45  N   UNL A   1      41.397  29.380  32.829  1.00  0.00    -0.248 NA
ATOM     46  C   UNL A   1      42.370  27.556  31.747  1.00  0.00     0.031 C 
ATOM     47  C   UNL A   1      38.482  29.783  29.459  1.00  0.00     0.029 A 
ATOM     48  N   UNL A   1      39.226  30.703  31.357  1.00  0.00    -0.354 N 
ATOM     49  C   UNL A   1      42.446  28.897  33.601  1.00  0.00     0.074 A 
ATOM     50  C   UNL A   1      42.988  27.750  32.904  1.00  0.00     0.031 C 
ATOM     51  C   UNL A   1      37.774  30.903  29.667  1.00  0.00     0.029 A 
ATOM     52  C   UNL A   1      38.203  31.511  30.923  1.00  0.00     0.049 A 
ATOM     53  H   UNL A   1      39.741  30.877  32.177  1.00  0.00     0.167 HD
ATOM     54  C   UNL A   1      42.917  29.368  34.782  1.00  0.00     0.037 A 
ATOM     55  C   UNL A   1      37.651  32.602  31.484  1.00  0.00     0.037 A 
ATOM     56  C   UNL A   1      42.399  30.534  35.452  1.00  0.00     0.049 A 
ATOM     57  C   UNL A   1      38.177  33.098  32.798  1.00  0.00     0.074 A 
ATOM     58  C   UNL A   1      42.832  31.113  36.633  1.00  0.00     0.029 A 
ATOM     59  N   UNL A   1      41.336  31.303  34.999  1.00  0.00    -0.354 N 
ATOM     60  N   UNL A   1      39.156  32.615  33.527  1.00  0.00    -0.248 NA
ATOM     61  C   UNL A   1      37.518  34.277  33.374  1.00  0.00     0.031 C 
ATOM     62  C   UNL A   1      42.008  32.211  36.911  1.00  0.00     0.029 A 
ATOM     63  C   UNL A   1      41.086  32.338  35.884  1.00  0.00     0.049 A 
ATOM     64  H   UNL A   1      40.834  31.136  34.168  1.00  0.00     0.167 HD
ATOM     65  C   UNL A   1      39.226  33.427  34.653  1.00  0.00     0.074 A 
ATOM     66  C   UNL A   1      38.210  34.449  34.493  1.00  0.00     0.031 C 
ATOM     67  C   UNL A   1      40.051  33.329  35.724  1.00  0.00     0.037 A 
BRANCH  54  68
ATOM     68  C   UNL A   1      44.033  28.605  35.441  1.00  0.00     0.058 A 
ATOM     69  C   UNL A   1      45.383  28.876  35.169  1.00  0.00     0.135 A 
ATOM     70  C   UNL A   1      43.745  27.599  36.379  1.00  0.00     0.135 A 
ATOM     71  F   UNL A   1      45.715  29.815  34.269  1.00  0.00    -0.206 F 
ATOM     72  C   UNL A   1      46.407  28.161  35.782  1.00  0.00     0.059 A 
ATOM     73  C   UNL A   1      44.753  26.886  37.022  1.00  0.00     0.059 A 
ATOM     74  F   UNL A   1      42.471  27.298  36.676  1.00  0.00    -0.206 F 
ATOM     75  C   UNL A   1      46.082  27.164  36.705  1.00  0.00     0.060 A 
BRANCH  75  76
ATOM     76  S   UNL A   1      47.419  26.237  37.488  1.00  0.00     0.124 S 
ATOM     77  O   UNL A   1      48.580  27.050  37.139  1.00  0.00    -0.237 OA
ATOM     78  O   UNL A   1      47.032  26.254  38.895  1.00  0.00    -0.237 OA
ATOM     79  O   UNL A   1      47.352  24.930  36.840  1.00  0.00    -0.744 OA
ENDBRANCH  75  76
ENDBRANCH  54  68
BRANCH  55  80
ATOM     80  C   UNL A   1      36.520  33.276  30.797  1.00  0.00     0.058 A 
ATOM     81  C   UNL A   1      35.206  33.139  31.266  1.00  0.00     0.135 A 
ATOM     82  C   UNL A   1      36.744  34.131  29.706  1.00  0.00     0.135 A 
ATOM     83  F   UNL A   1      34.944  32.323  32.298  1.00  0.00    -0.206 F 
ATOM     84  C   UNL A   1      34.153  33.838  30.687  1.00  0.00     0.059 A 
ATOM     85  C   UNL A   1      35.710  34.858  29.126  1.00  0.00     0.059 A 
ATOM     86  F   UNL A   1      37.986  34.304  29.232  1.00  0.00    -0.206 F 
ATOM     87  C   UNL A   1      34.417  34.707  29.626  1.00  0.00     0.060 A 
BRANCH  87  88
ATOM     88  S   UNL A   1      33.063  35.695  28.955  1.00  0.00     0.124 S 
ATOM     89  O   UNL A   1      32.375  34.719  28.116  1.00  0.00    -0.237 OA
ATOM     90  O   UNL A   1      32.356  36.106  30.164  1.00  0.00    -0.237 OA
ATOM     91  O   UNL A   1      33.750  36.769  28.245  1.00  0.00    -0.744 OA
ENDBRANCH  87  88
ENDBRANCH  55  80
BRANCH  67  92
ATOM     92  C   UNL A   1      39.874  34.350  36.812  1.00  0.00     0.058 A 
ATOM     93  C   UNL A   1      38.993  34.130  37.882  1.00  0.00     0.135 A 
ATOM     94  C   UNL A   1      40.602  35.551  36.795  1.00  0.00     0.135 A 
ATOM     95  F   UNL A   1      38.269  33.001  37.939  1.00  0.00    -0.206 F 
ATOM     96  C   UNL A   1      38.816  35.079  38.883  1.00  0.00     0.059 A 
ATOM     97  C   UNL A   1      40.458  36.503  37.798  1.00  0.00     0.059 A 
ATOM     98  F   UNL A   1      41.466  35.804  35.798  1.00  0.00    -0.206 F 
ATOM     99  C   UNL A   1      39.550  36.266  38.829  1.00  0.00     0.060 A 
BRANCH  99 100
ATOM    100  S   UNL A   1      39.313  37.489  40.136  1.00  0.00     0.124 S 
ATOM    101  O   UNL A   1      38.974  36.640  41.273  1.00  0.00    -0.237 OA
ATOM    102  O   UNL A   1      40.616  38.141  40.197  1.00  0.00    -0.237 OA
ATOM    103  O   UNL A   1      38.226  38.321  39.627  1.00  0.00    -0.744 OA
ENDBRANCH  99 100
ENDBRANCH  67  92
ENDBRANCH  41  42
ENDBRANCH  33  36
ENDBRANCH  31  32
ENDBRANCH   1  31
TORSDOF 18
ENDMDL
MODEL 2
REMARK VINA RESULT:     -12.0      6.196     11.671
REMARK SMILES CO[C@H]1CN(C(=O)c2cn(C(C)C)cc(C(=O)NCCCNC(=O)c3ccc(-c4c5nc(c(-c6c(F)cc(S(=O)(=O)[O-])cc6F)c6ccc([nH]6)c(-c6c(F)cc(S(=O)(=O)[O-])cc6F)c6nc(c(-c7c(F)cc(S(=O)(=O)[O-])cc7F)c7ccc4[nH]7)C=C6)C=C5)cc3)c2=O)CC[C@H]1[NH3+]
REMARK SMILES IDX 20 1 19 2 18 3 16 4 17 5 15 7 8 8 9 9 91 10 10 11 92 12
REMARK SMILES IDX 14 13 6 14 7 15 5 16 3 17 4 18 95 19 94 20 93 21 2 22 1 23
REMARK SMILES IDX 96 24 11 28 12 29 13 30 21 31 22 32 23 33 24 35 25 36 26 37
REMARK SMILES IDX 90 38 27 39 89 40 28 41 29 42 30 43 83 44 31 45 88 46 82 47
REMARK SMILES IDX 84 48 32 49 87 50 81 51 80 52 33 54 67 55 46 56 66 57 47 58
REMARK SMILES IDX 50 59 65 60 85 61 48 62 49 63 64 65 86 66 51 67 34 68 35 69
REMARK SMILES IDX 44 70 36 71 37 72 43 73 45 74 38 75 39 76 40 77 41 78 42 79
REMARK SMILES IDX 68 80 69 81 78 82 70 83 71 84 77 85 79 86 72 87 73 88 74 89
REMARK SMILES IDX 75 90 76 91 52 92 53 93 62 94 54 95 55 96 61 97 63 98 56 99
REMARK SMILES IDX 57 100 58 101 59 102 60 103
REMARK H PARENT 18 6 96 25 96 26 96 27 22 34 84 53 50 64
REMARK Flexibility Score: inf
ROOT
ATOM      1  C   UNL A   1      33.911  31.465  27.683  1.00  0.00     0.042 C 
ENDROOT
BRANCH   1   2
ATOM      2  C   UNL A   1      33.281  30.402  26.786  1.00  0.00     0.118 C 
BRANCH   2   3
ATOM      3  N   UNL A   1      32.542  29.419  27.559  1.00  0.00    -0.352 N 
ATOM      4  C   UNL A   1      31.895  28.273  27.216  1.00  0.00     0.256 C 
ATOM      5  O   UNL A   1      31.376  27.646  28.147  1.00  0.00    -0.269 OA
ATOM      6  H   UNL A   1      32.502  29.622  28.522  1.00  0.00     0.163 HD
BRANCH   4   7
ATOM      7  C   UNL A   1      31.866  27.718  25.835  1.00  0.00     0.104 A 
ATOM      8  C   UNL A   1      32.441  26.162  23.908  1.00  0.00     0.104 A 
ATOM      9  C   UNL A   1      31.415  26.705  23.239  1.00  0.00     0.103 A 
ATOM     10  C   UNL A   1      32.839  26.795  25.189  1.00  0.00     0.207 A 
ATOM     11  N   UNL A   1      30.634  27.747  23.726  1.00  0.00    -0.350 N 
ATOM     12  O   UNL A   1      33.940  26.551  25.665  1.00  0.00    -0.288 OA
ATOM     13  C   UNL A   1      30.867  28.154  25.041  1.00  0.00     0.103 A 
BRANCH   8  14
ATOM     14  C   UNL A   1      33.158  25.014  23.313  1.00  0.00     0.259 C 
ATOM     15  O   UNL A   1      33.850  25.188  22.311  1.00  0.00    -0.269 OA
BRANCH  14  16
ATOM     16  N   UNL A   1      32.952  23.764  23.882  1.00  0.00    -0.335 N 
ATOM     17  C   UNL A   1      34.301  22.238  25.271  1.00  0.00     0.195 C 
ATOM     18  C   UNL A   1      33.897  22.639  23.843  1.00  0.00     0.158 C 
ATOM     19  C   UNL A   1      33.055  21.904  26.142  1.00  0.00     0.213 C 
ATOM     20  C   UNL A   1      32.082  23.100  26.095  1.00  0.00     0.089 C 
ATOM     21  C   UNL A   1      31.742  23.528  24.665  1.00  0.00     0.126 C 
BRANCH  17  22
ATOM     22  O   UNL A   1      35.377  21.296  25.351  1.00  0.00    -0.373 OA
ATOM     23  C   UNL A   1      36.650  21.736  24.909  1.00  0.00     0.195 C 
ENDBRANCH  17  22
BRANCH  19  24
ATOM     24  N   UNL A   1      32.350  20.664  25.773  1.00  0.00    -0.353 N 
ATOM     25  H   UNL A   1      32.618  19.918  26.414  1.00  0.00     0.344 HD
ATOM     26  H   UNL A   1      32.602  20.400  24.821  1.00  0.00     0.344 HD
ATOM     27  H   UNL A   1      31.343  20.815  25.828  1.00  0.00     0.344 HD
ENDBRANCH  19  24
ENDBRANCH  14  16
ENDBRANCH   8  14
BRANCH  11  28
ATOM     28  C   UNL A   1      29.607  28.425  22.897  1.00  0.00     0.080 C 
ATOM     29  C   UNL A   1      28.223  27.840  23.179  1.00  0.00     0.031 C 
ATOM     30  C   UNL A   1      29.639  29.938  23.104  1.00  0.00     0.031 C 
ENDBRANCH  11  28
ENDBRANCH   4   7
ENDBRANCH   2   3
ENDBRANCH   1   2
BRANCH   1  31
ATOM     31  C   UNL A   1      35.243  31.042  28.287  1.00  0.00     0.118 C 
BRANCH  31  32
ATOM     32  N   UNL A   1      35.343  31.359  29.705  1.00  0.00    -0.352 N 
ATOM     33  C   UNL A   1      36.320  31.006  30.608  1.00  0.00     0.251 C 
ATOM     34  H   UNL A   1      34.608  31.903  30.070  1.00  0.00     0.163 HD
ATOM     35  O   UNL A   1      36.151  31.217  31.806  1.00  0.00    -0.269 OA
BRANCH  33  36
ATOM     36  C   UNL A   1      37.554  30.339  30.134  1.00  0.00     0.039 A 
ATOM     37  C   UNL A   1      38.281  29.501  30.981  1.00  0.00     0.014 A 
ATOM     38  C   UNL A   1      38.008  30.590  28.836  1.00  0.00     0.014 A 
ATOM     39  C   UNL A   1      39.546  29.065  30.600  1.00  0.00     0.010 A 
ATOM     40  C   UNL A   1      39.243  30.082  28.425  1.00  0.00     0.010 A 
ATOM     41  C   UNL A   1      40.048  29.363  29.325  1.00  0.00    -0.014 A 
BRANCH  41  42
ATOM     42  C   UNL A   1      41.427  28.949  28.954  1.00  0.00     0.031 A 
ATOM     43  C   UNL A   1      42.567  29.929  29.043  1.00  0.00     0.074 A 
ATOM     44  C   UNL A   1      41.661  27.680  28.569  1.00  0.00     0.049 A 
ATOM     45  N   UNL A   1      43.820  29.774  28.697  1.00  0.00    -0.248 NA
ATOM     46  C   UNL A   1      42.257  31.263  29.583  1.00  0.00     0.031 C 
ATOM     47  C   UNL A   1      40.646  26.630  28.463  1.00  0.00     0.029 A 
ATOM     48  N   UNL A   1      42.826  27.054  28.205  1.00  0.00    -0.354 N 
ATOM     49  C   UNL A   1      44.438  30.995  28.943  1.00  0.00     0.074 A 
ATOM     50  C   UNL A   1      43.420  31.886  29.455  1.00  0.00     0.031 C 
ATOM     51  C   UNL A   1      41.237  25.485  28.093  1.00  0.00     0.029 A 
ATOM     52  C   UNL A   1      42.658  25.732  27.873  1.00  0.00     0.049 A 
ATOM     53  H   UNL A   1      43.698  27.510  28.182  1.00  0.00     0.167 HD
ATOM     54  C   UNL A   1      45.736  31.338  28.761  1.00  0.00     0.037 A 
ATOM     55  C   UNL A   1      43.540  24.825  27.415  1.00  0.00     0.037 A 
ATOM     56  C   UNL A   1      46.755  30.435  28.287  1.00  0.00     0.049 A 
ATOM     57  C   UNL A   1      44.969  25.230  27.206  1.00  0.00     0.074 A 
ATOM     58  C   UNL A   1      48.105  30.677  28.104  1.00  0.00     0.029 A 
ATOM     59  N   UNL A   1      46.536  29.113  27.925  1.00  0.00    -0.354 N 
ATOM     60  N   UNL A   1      45.533  26.396  27.422  1.00  0.00    -0.248 NA
ATOM     61  C   UNL A   1      45.879  24.206  26.681  1.00  0.00     0.031 C 
ATOM     62  C   UNL A   1      48.696  29.512  27.599  1.00  0.00     0.029 A 
ATOM     63  C   UNL A   1      47.720  28.533  27.502  1.00  0.00     0.049 A 
ATOM     64  H   UNL A   1      45.665  28.655  27.965  1.00  0.00     0.167 HD
ATOM     65  C   UNL A   1      46.864  26.247  27.051  1.00  0.00     0.074 A 
ATOM     66  C   UNL A   1      47.027  24.871  26.626  1.00  0.00     0.031 C 
ATOM     67  C   UNL A   1      47.858  27.170  27.054  1.00  0.00     0.037 A 
BRANCH  54  68
ATOM     68  C   UNL A   1      46.127  32.763  29.048  1.00  0.00     0.058 A 
ATOM     69  C   UNL A   1      46.591  33.168  30.309  1.00  0.00     0.135 A 
ATOM     70  C   UNL A   1      46.055  33.733  28.035  1.00  0.00     0.135 A 
ATOM     71  F   UNL A   1      46.664  32.285  31.317  1.00  0.00    -0.206 F 
ATOM     72  C   UNL A   1      46.946  34.489  30.563  1.00  0.00     0.059 A 
ATOM     73  C   UNL A   1      46.426  35.056  28.260  1.00  0.00     0.059 A 
ATOM     74  F   UNL A   1      45.617  33.401  26.810  1.00  0.00    -0.206 F 
ATOM     75  C   UNL A   1      46.855  35.428  29.533  1.00  0.00     0.060 A 
BRANCH  75  76
ATOM     76  S   UNL A   1      47.309  37.141  29.878  1.00  0.00     0.124 S 
ATOM     77  O   UNL A   1      48.543  37.275  29.108  1.00  0.00    -0.237 OA
ATOM     78  O   UNL A   1      46.160  37.880  29.367  1.00  0.00    -0.237 OA
ATOM     79  O   UNL A   1      47.472  37.165  31.329  1.00  0.00    -0.744 OA
ENDBRANCH  75  76
ENDBRANCH  54  68
BRANCH  55  80
ATOM     80  C   UNL A   1      43.071  23.450  27.108  1.00  0.00     0.058 A 
ATOM     81  C   UNL A   1      42.841  23.043  25.787  1.00  0.00     0.135 A 
ATOM     82  C   UNL A   1      42.921  22.494  28.126  1.00  0.00     0.135 A 
ATOM     83  F   UNL A   1      42.962  23.925  24.784  1.00  0.00    -0.206 F 
ATOM     84  C   UNL A   1      42.492  21.733  25.481  1.00  0.00     0.059 A 
ATOM     85  C   UNL A   1      42.595  21.172  27.843  1.00  0.00     0.059 A 
ATOM     86  F   UNL A   1      43.143  22.834  29.405  1.00  0.00    -0.206 F 
ATOM     87  C   UNL A   1      42.385  20.800  26.516  1.00  0.00     0.060 A 
BRANCH  87  88
ATOM     88  S   UNL A   1      42.041  19.077  26.099  1.00  0.00     0.124 S 
ATOM     89  O   UNL A   1      42.420  18.395  27.331  1.00  0.00    -0.237 OA
ATOM     90  O   UNL A   1      40.612  19.113  25.804  1.00  0.00    -0.237 OA
ATOM     91  O   UNL A   1      42.904  18.832  24.947  1.00  0.00    -0.744 OA
ENDBRANCH  87  88
ENDBRANCH  55  80
BRANCH  67  92
ATOM     92  C   UNL A   1      49.205  26.716  26.569  1.00  0.00     0.058 A 
ATOM     93  C   UNL A   1      50.105  26.060  27.424  1.00  0.00     0.135 A 
ATOM     94  C   UNL A   1      49.595  26.922  25.236  1.00  0.00     0.135 A 
ATOM     95  F   UNL A   1      49.781  25.847  28.709  1.00  0.00    -0.206 F 
ATOM     96  C   UNL A   1      51.358  25.651  26.982  1.00  0.00     0.059 A 
ATOM     97  C   UNL A   1      50.835  26.500  24.768  1.00  0.00     0.059 A 
ATOM     98  F   UNL A   1      48.766  27.535  24.376  1.00  0.00    -0.206 F 
ATOM     99  C   UNL A   1      51.717  25.880  25.653  1.00  0.00     0.060 A 
BRANCH  99 100
ATOM    100  S   UNL A   1      53.346  25.343  25.091  1.00  0.00     0.124 S 
ATOM    101  O   UNL A   1      53.315  23.922  25.423  1.00  0.00    -0.237 OA
ATOM    102  O   UNL A   1      53.310  25.663  23.668  1.00  0.00    -0.237 OA
ATOM    103  O   UNL A   1      54.263  26.154  25.887  1.00  0.00    -0.744 OA
ENDBRANCH  99 100
ENDBRANCH  67  92
ENDBRANCH  41  42
ENDBRANCH  33  36
ENDBRANCH  31  32
ENDBRANCH   1  31
TORSDOF 18
ENDMDL
MODEL 3
REMARK VINA RESULT:     -11.8      1.348      8.259
REMARK SMILES CO[C@H]1CN(C(=O)c2cn(C(C)C)cc(C(=O)NCCCNC(=O)c3ccc(-c4c5nc(c(-c6c(F)cc(S(=O)(=O)[O-])cc6F)c6ccc([nH]6)c(-c6c(F)cc(S(=O)(=O)[O-])cc6F)c6nc(c(-c7c(F)cc(S(=O)(=O)[O-])cc7F)c7ccc4[nH]7)C=C6)C=C5)cc3)c2=O)CC[C@H]1[NH3+]
REMARK SMILES IDX 20 1 19 2 18 3 16 4 17 5 15 7 8 8 9 9 91 10 10 11 92 12
REMARK SMILES IDX 14 13 6 14 7 15 5 16 3 17 4 18 95 19 94 20 93 21 2 22 1 23
REMARK SMILES IDX 96 24 11 28 12 29 13 30 21 31 22 32 23 33 24 35 25 36 26 37
REMARK SMILES IDX 90 38 27 39 89 40 28 41 29 42 30 43 83 44 31 45 88 46 82 47
REMARK SMILES IDX 84 48 32 49 87 50 81 51 80 52 33 54 67 55 46 56 66 57 47 58
REMARK SMILES IDX 50 59 65 60 85 61 48 62 49 63 64 65 86 66 51 67 34 68 35 69
REMARK SMILES IDX 44 70 36 71 37 72 43 73 45 74 38 75 39 76 40 77 41 78 42 79
REMARK SMILES IDX 68 80 69 81 78 82 70 83 71 84 77 85 79 86 72 87 73 88 74 89
REMARK SMILES IDX 75 90 76 91 52 92 53 93 62 94 54 95 55 96 61 97 63 98 56 99
REMARK SMILES IDX 57 100 58 101 59 102 60 103
REMARK H PARENT 18 6 96 25 96 26 96 27 22 34 84 53 50 64
REMARK Flexibility Score: inf
ROOT
ATOM      1  C   UNL A   1      38.198  23.718  26.529  1.00  0.00     0.042 C 
ENDROOT
BRANCH   1   2
ATOM      2  C   UNL A   1      37.823  22.456  25.754  1.00  0.00     0.118 C 
BRANCH   2   3
ATOM      3  N   UNL A   1      37.403  22.766  24.398  1.00  0.00    -0.352 N 
ATOM      4  C   UNL A   1      36.193  22.738  23.779  1.00  0.00     0.256 C 
ATOM      5  O   UNL A   1      36.184  23.093  22.594  1.00  0.00    -0.269 OA
ATOM      6  H   UNL A   1      38.140  23.054  23.812  1.00  0.00     0.163 HD
BRANCH   4   7
ATOM      7  C   UNL A   1      34.916  22.401  24.466  1.00  0.00     0.104 A 
ATOM      8  C   UNL A   1      32.778  22.783  25.787  1.00  0.00     0.104 A 
ATOM      9  C   UNL A   1      32.413  21.540  25.446  1.00  0.00     0.103 A 
ATOM     10  C   UNL A   1      34.163  23.206  25.465  1.00  0.00     0.207 A 
ATOM     11  N   UNL A   1      33.210  20.669  24.711  1.00  0.00    -0.350 N 
ATOM     12  O   UNL A   1      34.641  24.183  26.027  1.00  0.00    -0.288 OA
ATOM     13  C   UNL A   1      34.404  21.181  24.201  1.00  0.00     0.103 A 
BRANCH   8  14
ATOM     14  C   UNL A   1      31.817  23.639  26.516  1.00  0.00     0.259 C 
ATOM     15  O   UNL A   1      31.410  23.283  27.621  1.00  0.00    -0.269 OA
BRANCH  14  16
ATOM     16  N   UNL A   1      31.361  24.782  25.874  1.00  0.00    -0.335 N 
ATOM     17  C   UNL A   1      32.296  27.018  25.422  1.00  0.00     0.195 C 
ATOM     18  C   UNL A   1      31.469  26.154  26.389  1.00  0.00     0.158 C 
ATOM     19  C   UNL A   1      31.697  26.995  23.985  1.00  0.00     0.213 C 
ATOM     20  C   UNL A   1      31.559  25.528  23.528  1.00  0.00     0.089 C 
ATOM     21  C   UNL A   1      30.789  24.668  24.534  1.00  0.00     0.126 C 
BRANCH  17  22
ATOM     22  O   UNL A   1      32.648  28.314  25.920  1.00  0.00    -0.373 OA
ATOM     23  C   UNL A   1      34.014  28.536  26.224  1.00  0.00     0.195 C 
ENDBRANCH  17  22
BRANCH  19  24
ATOM     24  N   UNL A   1      30.410  27.695  23.835  1.00  0.00    -0.353 N 
ATOM     25  H   UNL A   1      29.741  27.322  24.508  1.00  0.00     0.344 HD
ATOM     26  H   UNL A   1      30.054  27.555  22.889  1.00  0.00     0.344 HD
ATOM     27  H   UNL A   1      30.543  28.692  24.003  1.00  0.00     0.344 HD
ENDBRANCH  19  24
ENDBRANCH  14  16
ENDBRANCH   8  14
BRANCH  11  28
ATOM     28  C   UNL A   1      32.838  19.251  24.485  1.00  0.00     0.080 C 
ATOM     29  C   UNL A   1      32.151  19.091  23.128  1.00  0.00     0.031 C 
ATOM     30  C   UNL A   1      34.051  18.333  24.621  1.00  0.00     0.031 C 
ENDBRANCH  11  28
ENDBRANCH   4   7
ENDBRANCH   2   3
ENDBRANCH   1   2
BRANCH   1  31
ATOM     31  C   UNL A   1      39.673  23.792  26.897  1.00  0.00     0.118 C 
BRANCH  31  32
ATOM     32  N   UNL A   1      40.458  24.540  25.924  1.00  0.00    -0.352 N 
ATOM     33  C   UNL A   1      41.048  25.777  26.050  1.00  0.00     0.251 C 
ATOM     34  H   UNL A   1      40.584  24.099  25.052  1.00  0.00     0.163 HD
ATOM     35  O   UNL A   1      41.527  26.329  25.063  1.00  0.00    -0.269 OA
BRANCH  33  36
ATOM     36  C   UNL A   1      41.070  26.451  27.367  1.00  0.00     0.039 A 
ATOM     37  C   UNL A   1      40.126  26.132  28.346  1.00  0.00     0.014 A 
ATOM     38  C   UNL A   1      42.024  27.443  27.609  1.00  0.00     0.014 A 
ATOM     39  C   UNL A   1      40.019  26.926  29.485  1.00  0.00     0.010 A 
ATOM     40  C   UNL A   1      41.965  28.185  28.792  1.00  0.00     0.010 A 
ATOM     41  C   UNL A   1      40.927  27.970  29.713  1.00  0.00    -0.014 A 
BRANCH  41  42
ATOM     42  C   UNL A   1      40.761  28.851  30.899  1.00  0.00     0.031 A 
ATOM     43  C   UNL A   1      39.686  29.906  30.919  1.00  0.00     0.074 A 
ATOM     44  C   UNL A   1      41.556  28.682  31.972  1.00  0.00     0.049 A 
ATOM     45  N   UNL A   1      39.434  30.812  31.830  1.00  0.00    -0.248 NA
ATOM     46  C   UNL A   1      38.780  29.956  29.760  1.00  0.00     0.031 C 
ATOM     47  C   UNL A   1      42.619  27.681  32.084  1.00  0.00     0.029 A 
ATOM     48  N   UNL A   1      41.589  29.338  33.176  1.00  0.00    -0.354 N 
ATOM     49  C   UNL A   1      38.369  31.560  31.341  1.00  0.00     0.074 A 
ATOM     50  C   UNL A   1      38.029  31.011  30.047  1.00  0.00     0.031 C 
ATOM     51  C   UNL A   1      43.177  27.768  33.300  1.00  0.00     0.029 A 
ATOM     52  C   UNL A   1      42.558  28.869  34.030  1.00  0.00     0.049 A 
ATOM     53  H   UNL A   1      40.977  30.074  33.405  1.00  0.00     0.167 HD
ATOM     54  C   UNL A   1      37.732  32.606  31.921  1.00  0.00     0.037 A 
ATOM     55  C   UNL A   1      42.928  29.295  35.252  1.00  0.00     0.037 A 
ATOM     56  C   UNL A   1      38.049  33.124  33.229  1.00  0.00     0.049 A 
ATOM     57  C   UNL A   1      42.219  30.463  35.869  1.00  0.00     0.074 A 
ATOM     58  C   UNL A   1      37.437  34.156  33.919  1.00  0.00     0.029 A 
ATOM     59  N   UNL A   1      39.063  32.646  34.046  1.00  0.00    -0.354 N 
ATOM     60  N   UNL A   1      41.229  31.174  35.383  1.00  0.00    -0.248 NA
ATOM     61  C   UNL A   1      42.684  30.898  37.192  1.00  0.00     0.031 C 
ATOM     62  C   UNL A   1      38.104  34.325  35.139  1.00  0.00     0.029 A 
ATOM     63  C   UNL A   1      39.108  33.373  35.224  1.00  0.00     0.049 A 
ATOM     64  H   UNL A   1      39.663  31.898  33.821  1.00  0.00     0.167 HD
ATOM     65  C   UNL A   1      40.956  32.146  36.338  1.00  0.00     0.074 A 
ATOM     66  C   UNL A   1      41.866  31.913  37.442  1.00  0.00     0.031 C 
ATOM     67  C   UNL A   1      40.040  33.146  36.299  1.00  0.00     0.037 A 
BRANCH  54  68
ATOM     68  C   UNL A   1      36.643  33.281  31.133  1.00  0.00     0.058 A 
ATOM     69  C   UNL A   1      36.922  34.098  30.026  1.00  0.00     0.135 A 
ATOM     70  C   UNL A   1      35.295  33.090  31.481  1.00  0.00     0.135 A 
ATOM     71  F   UNL A   1      38.192  34.328  29.660  1.00  0.00    -0.206 F 
ATOM     72  C   UNL A   1      35.906  34.721  29.307  1.00  0.00     0.059 A 
ATOM     73  C   UNL A   1      34.262  33.685  30.763  1.00  0.00     0.059 A 
ATOM     74  F   UNL A   1      34.971  32.320  32.532  1.00  0.00    -0.206 F 
ATOM     75  C   UNL A   1      34.578  34.512  29.686  1.00  0.00     0.060 A 
BRANCH  75  76
ATOM     76  S   UNL A   1      33.269  35.333  28.751  1.00  0.00     0.124 S 
ATOM     77  O   UNL A   1      32.490  35.948  29.821  1.00  0.00    -0.237 OA
ATOM     78  O   UNL A   1      34.019  36.253  27.902  1.00  0.00    -0.237 OA
ATOM     79  O   UNL A   1      32.611  34.234  28.051  1.00  0.00    -0.744 OA
ENDBRANCH  75  76
ENDBRANCH  54  68
BRANCH  55  80
ATOM     80  C   UNL A   1      44.044  28.607  35.950  1.00  0.00     0.058 A 
ATOM     81  C   UNL A   1      45.365  29.056  35.815  1.00  0.00     0.135 A 
ATOM     82  C   UNL A   1      43.799  27.538  36.826  1.00  0.00     0.135 A 
ATOM     83  F   UNL A   1      45.648  30.068  34.980  1.00  0.00    -0.206 F 
ATOM     84  C   UNL A   1      46.404  28.479  36.536  1.00  0.00     0.059 A 
ATOM     85  C   UNL A   1      44.819  26.960  37.575  1.00  0.00     0.059 A 
ATOM     86  F   UNL A   1      42.549  27.083  36.997  1.00  0.00    -0.206 F 
ATOM     87  C   UNL A   1      46.119  27.440  37.424  1.00  0.00     0.060 A 
BRANCH  87  88
ATOM     88  S   UNL A   1      47.456  26.773  38.438  1.00  0.00     0.124 S 
ATOM     89  O   UNL A   1      47.498  25.384  37.993  1.00  0.00    -0.237 OA
ATOM     90  O   UNL A   1      48.587  27.604  38.037  1.00  0.00    -0.237 OA
ATOM     91  O   UNL A   1      46.983  26.988  39.802  1.00  0.00    -0.744 OA
ENDBRANCH  87  88
ENDBRANCH  55  80
BRANCH  67  92
ATOM     92  C   UNL A   1      39.993  34.068  37.485  1.00  0.00     0.058 A 
ATOM     93  C   UNL A   1      40.766  35.239  37.528  1.00  0.00     0.135 A 
ATOM     94  C   UNL A   1      39.157  33.790  38.578  1.00  0.00     0.135 A 
ATOM     95  F   UNL A   1      41.586  35.544  36.511  1.00  0.00    -0.206 F 
ATOM     96  C   UNL A   1      40.735  36.088  38.629  1.00  0.00     0.059 A 
ATOM     97  C   UNL A   1      39.094  34.637  39.679  1.00  0.00     0.059 A 
ATOM     98  F   UNL A   1      38.390  32.688  38.580  1.00  0.00    -0.206 F 
ATOM     99  C   UNL A   1      39.900  35.775  39.703  1.00  0.00     0.060 A 
BRANCH  99 100
ATOM    100  S   UNL A   1      39.868  36.885  41.126  1.00  0.00     0.124 S 
ATOM    101  O   UNL A   1      41.249  37.354  41.163  1.00  0.00    -0.237 OA
ATOM    102  O   UNL A   1      38.872  37.875  40.731  1.00  0.00    -0.237 OA
ATOM    103  O   UNL A   1      39.471  36.013  42.228  1.00  0.00    -0.744 OA
ENDBRANCH  99 100
ENDBRANCH  67  92
ENDBRANCH  41  42
ENDBRANCH  33  36
ENDBRANCH  31  32
ENDBRANCH   1  31
TORSDOF 18
ENDMDL
