MODEL 1
REMARK VINA RESULT:     -13.0      0.000      0.000
REMARK SMILES Cc1ccc(-c2c[nH]c(=O)cc2C(=O)NCCCNC(=O)c2ccc(-c3c4nc(c(-c5c(F)cc(S(=O)(=O)[O-])cc5F)c5ccc([nH]5)c(-c5c(F)cc(S(=O)(=O)[O-])cc5F)c5nc(c(-c6c(F)cc(S(=O)(=O)[O-])cc6F)c6ccc3[nH]6)C=C5)C=C4)cc2)cc1Cl
REMARK SMILES IDX 18 1 17 2 16 3 15 4 13 5 14 6 12 8 6 9 7 10 8 11 11 12 9 13
REMARK SMILES IDX 10 15 5 16 1 17 2 18 3 19 89 20 4 21 88 22 90 23 19 24 20 25
REMARK SMILES IDX 21 27 22 28 23 29 87 30 24 31 86 32 25 33 26 34 27 35 80 36
REMARK SMILES IDX 28 37 85 38 79 39 81 40 29 41 84 42 78 43 77 44 30 46 64 47
REMARK SMILES IDX 43 48 63 49 44 50 47 51 62 52 82 53 45 54 46 55 61 57 83 58
REMARK SMILES IDX 48 59 31 60 32 61 41 62 33 63 34 64 40 65 42 66 35 67 36 68
REMARK SMILES IDX 37 69 38 70 39 71 65 72 66 73 75 74 67 75 68 76 74 77 76 78
REMARK SMILES IDX 69 79 70 80 71 81 72 82 73 83 49 84 50 85 59 86 51 87 52 88
REMARK SMILES IDX 58 89 60 90 53 91 54 92 55 93 56 94 57 95
REMARK H PARENT 15 7 8 14 19 26 81 45 47 56
REMARK Flexibility Score: inf
ROOT
ATOM      1  C   UNL A   1      38.352  24.083  26.449  1.00  0.00     0.118 C 
ENDROOT
BRANCH   1   2
ATOM      2  C   UNL A   1      37.492  23.080  25.675  1.00  0.00     0.042 C 
BRANCH   2   3
ATOM      3  C   UNL A   1      35.993  23.359  25.784  1.00  0.00     0.118 C 
BRANCH   3   4
ATOM      4  N   UNL A   1      35.475  23.901  24.542  1.00  0.00    -0.352 N 
ATOM      5  C   UNL A   1      34.286  24.383  24.105  1.00  0.00     0.252 C 
ATOM      6  O   UNL A   1      34.306  24.735  22.923  1.00  0.00    -0.269 OA
ATOM      7  H   UNL A   1      36.162  23.925  23.838  1.00  0.00     0.163 HD
BRANCH   5   8
ATOM      8  C   UNL A   1      33.044  24.552  24.953  1.00  0.00     0.054 A 
ATOM      9  C   UNL A   1      32.000  23.491  24.965  1.00  0.00     0.011 A 
ATOM     10  C   UNL A   1      30.853  23.716  25.637  1.00  0.00     0.095 A 
ATOM     11  N   UNL A   1      30.642  24.882  26.317  1.00  0.00    -0.328 N 
ATOM     12  C   UNL A   1      32.863  25.629  25.738  1.00  0.00     0.086 A 
ATOM     13  C   UNL A   1      31.576  25.873  26.430  1.00  0.00     0.248 A 
ATOM     14  H   UNL A   1      29.767  25.016  26.750  1.00  0.00     0.169 HD
ATOM     15  O   UNL A   1      31.372  26.910  27.042  1.00  0.00    -0.270 OA
BRANCH   9  16
ATOM     16  C   UNL A   1      32.121  22.137  24.379  1.00  0.00    -0.015 A 
ATOM     17  C   UNL A   1      32.372  18.199  22.600  1.00  0.00     0.046 C 
ATOM     18  C   UNL A   1      32.312  19.557  23.235  1.00  0.00    -0.032 A 
ATOM     19  C   UNL A   1      32.101  20.684  22.429  1.00  0.00     0.005 A 
ATOM     20  C   UNL A   1      32.459  19.743  24.618  1.00  0.00     0.044 A 
ATOM     21  C   UNL A   1      32.025  21.959  22.993  1.00  0.00     0.009 A 
ATOM     22  C   UNL A   1      32.355  21.018  25.187  1.00  0.00     0.029 A 
ATOM     23  Cl  UNL A   1      32.779  18.413  25.676  1.00  0.00    -0.084 Cl
ENDBRANCH   9  16
ENDBRANCH   5   8
ENDBRANCH   3   4
ENDBRANCH   2   3
ENDBRANCH   1   2
BRANCH   1  24
ATOM     24  N   UNL A   1      39.772  23.913  26.168  1.00  0.00    -0.352 N 
ATOM     25  C   UNL A   1      40.844  24.703  26.502  1.00  0.00     0.251 C 
ATOM     26  H   UNL A   1      39.998  23.103  25.656  1.00  0.00     0.163 HD
ATOM     27  O   UNL A   1      41.916  24.530  25.931  1.00  0.00    -0.269 OA
BRANCH  25  28
ATOM     28  C   UNL A   1      40.715  25.745  27.541  1.00  0.00     0.039 A 
ATOM     29  C   UNL A   1      39.730  25.606  28.522  1.00  0.00     0.014 A 
ATOM     30  C   UNL A   1      41.522  26.886  27.517  1.00  0.00     0.014 A 
ATOM     31  C   UNL A   1      39.594  26.583  29.511  1.00  0.00     0.010 A 
ATOM     32  C   UNL A   1      41.436  27.820  28.546  1.00  0.00     0.010 A 
ATOM     33  C   UNL A   1      40.467  27.682  29.550  1.00  0.00    -0.014 A 
BRANCH  33  34
ATOM     34  C   UNL A   1      40.385  28.694  30.637  1.00  0.00     0.031 A 
ATOM     35  C   UNL A   1      41.278  28.581  31.844  1.00  0.00     0.074 A 
ATOM     36  C   UNL A   1      39.461  29.671  30.563  1.00  0.00     0.049 A 
ATOM     37  N   UNL A   1      41.306  29.324  32.921  1.00  0.00    -0.248 NA
ATOM     38  C   UNL A   1      42.252  27.475  31.858  1.00  0.00     0.031 C 
ATOM     39  C   UNL A   1      38.508  29.854  29.463  1.00  0.00     0.029 A 
ATOM     40  N   UNL A   1      39.158  30.690  31.430  1.00  0.00    -0.354 N 
ATOM     41  C   UNL A   1      42.276  28.765  33.746  1.00  0.00     0.074 A 
ATOM     42  C   UNL A   1      42.787  27.596  33.064  1.00  0.00     0.031 C 
ATOM     43  C   UNL A   1      37.750  30.933  29.710  1.00  0.00     0.029 A 
ATOM     44  C   UNL A   1      38.124  31.493  31.003  1.00  0.00     0.049 A 
ATOM     45  H   UNL A   1      39.636  30.834  32.278  1.00  0.00     0.167 HD
ATOM     46  C   UNL A   1      42.710  29.199  34.953  1.00  0.00     0.037 A 
ATOM     47  C   UNL A   1      37.539  32.553  31.595  1.00  0.00     0.037 A 
ATOM     48  C   UNL A   1      42.221  30.385  35.604  1.00  0.00     0.049 A 
ATOM     49  C   UNL A   1      38.044  33.009  32.938  1.00  0.00     0.074 A 
ATOM     50  C   UNL A   1      42.656  30.956  36.787  1.00  0.00     0.029 A 
ATOM     51  N   UNL A   1      41.187  31.181  35.133  1.00  0.00    -0.354 N 
ATOM     52  N   UNL A   1      39.021  32.517  33.663  1.00  0.00    -0.248 NA
ATOM     53  C   UNL A   1      37.370  34.166  33.544  1.00  0.00     0.031 C 
ATOM     54  C   UNL A   1      41.846  32.062  37.063  1.00  0.00     0.029 A 
ATOM     55  C   UNL A   1      40.948  32.218  36.019  1.00  0.00     0.049 A 
ATOM     56  H   UNL A   1      40.695  31.031  34.293  1.00  0.00     0.167 HD
ATOM     57  C   UNL A   1      39.103  33.329  34.790  1.00  0.00     0.074 A 
ATOM     58  C   UNL A   1      38.086  34.348  34.644  1.00  0.00     0.031 C 
ATOM     59  C   UNL A   1      39.944  33.238  35.849  1.00  0.00     0.037 A 
BRANCH  46  60
ATOM     60  C   UNL A   1      43.768  28.395  35.661  1.00  0.00     0.058 A 
ATOM     61  C   UNL A   1      43.443  27.366  36.558  1.00  0.00     0.135 A 
ATOM     62  C   UNL A   1      45.127  28.602  35.369  1.00  0.00     0.135 A 
ATOM     63  F   UNL A   1      42.162  27.135  36.887  1.00  0.00    -0.206 F 
ATOM     64  C   UNL A   1      44.425  26.578  37.149  1.00  0.00     0.059 A 
ATOM     65  C   UNL A   1      46.125  27.806  35.925  1.00  0.00     0.059 A 
ATOM     66  F   UNL A   1      45.495  29.574  34.521  1.00  0.00    -0.206 F 
ATOM     67  C   UNL A   1      45.763  26.800  36.818  1.00  0.00     0.060 A 
BRANCH  67  68
ATOM     68  S   UNL A   1      47.021  25.736  37.558  1.00  0.00     0.124 S 
ATOM     69  O   UNL A   1      46.310  25.206  38.717  1.00  0.00    -0.237 OA
ATOM     70  O   UNL A   1      47.289  24.781  36.488  1.00  0.00    -0.237 OA
ATOM     71  O   UNL A   1      48.113  26.657  37.860  1.00  0.00    -0.744 OA
ENDBRANCH  67  68
ENDBRANCH  46  60
BRANCH  47  72
ATOM     72  C   UNL A   1      36.417  33.268  30.925  1.00  0.00     0.058 A 
ATOM     73  C   UNL A   1      36.654  34.120  29.836  1.00  0.00     0.135 A 
ATOM     74  C   UNL A   1      35.095  33.145  31.379  1.00  0.00     0.135 A 
ATOM     75  F   UNL A   1      37.902  34.276  29.365  1.00  0.00    -0.206 F 
ATOM     76  C   UNL A   1      35.630  34.855  29.246  1.00  0.00     0.059 A 
ATOM     77  C   UNL A   1      34.049  33.844  30.785  1.00  0.00     0.059 A 
ATOM     78  F   UNL A   1      34.808  32.328  32.404  1.00  0.00    -0.206 F 
ATOM     79  C   UNL A   1      34.330  34.714  29.733  1.00  0.00     0.060 A 
BRANCH  79  80
ATOM     80  S   UNL A   1      33.008  35.674  28.963  1.00  0.00     0.124 S 
ATOM     81  O   UNL A   1      32.419  34.690  28.063  1.00  0.00    -0.237 OA
ATOM     82  O   UNL A   1      32.196  36.056  30.114  1.00  0.00    -0.237 OA
ATOM     83  O   UNL A   1      33.724  36.772  28.319  1.00  0.00    -0.744 OA
ENDBRANCH  79  80
ENDBRANCH  47  72
BRANCH  59  84
ATOM     84  C   UNL A   1      39.840  34.298  36.912  1.00  0.00     0.058 A 
ATOM     85  C   UNL A   1      40.520  35.522  36.808  1.00  0.00     0.135 A 
ATOM     86  C   UNL A   1      39.006  34.104  38.025  1.00  0.00     0.135 A 
ATOM     87  F   UNL A   1      41.335  35.757  35.767  1.00  0.00    -0.206 F 
ATOM     88  C   UNL A   1      40.396  36.505  37.784  1.00  0.00     0.059 A 
ATOM     89  C   UNL A   1      38.842  35.086  38.996  1.00  0.00     0.059 A 
ATOM     90  F   UNL A   1      38.324  32.956  38.168  1.00  0.00    -0.206 F 
ATOM     91  C   UNL A   1      39.552  36.279  38.873  1.00  0.00     0.060 A 
BRANCH  91  92
ATOM     92  S   UNL A   1      39.376  37.578  40.114  1.00  0.00     0.124 S 
ATOM     93  O   UNL A   1      40.689  38.211  40.067  1.00  0.00    -0.237 OA
ATOM     94  O   UNL A   1      38.271  38.369  39.582  1.00  0.00    -0.237 OA
ATOM     95  O   UNL A   1      39.078  36.841  41.339  1.00  0.00    -0.744 OA
ENDBRANCH  91  92
ENDBRANCH  59  84
ENDBRANCH  33  34
ENDBRANCH  25  28
ENDBRANCH   1  24
TORSDOF 14
ENDMDL
MODEL 2
REMARK VINA RESULT:     -12.8      6.714     12.165
REMARK SMILES Cc1ccc(-c2c[nH]c(=O)cc2C(=O)NCCCNC(=O)c2ccc(-c3c4nc(c(-c5c(F)cc(S(=O)(=O)[O-])cc5F)c5ccc([nH]5)c(-c5c(F)cc(S(=O)(=O)[O-])cc5F)c5nc(c(-c6c(F)cc(S(=O)(=O)[O-])cc6F)c6ccc3[nH]6)C=C5)C=C4)cc2)cc1Cl
REMARK SMILES IDX 18 1 17 2 16 3 15 4 13 5 14 6 12 8 6 9 7 10 8 11 11 12 9 13
REMARK SMILES IDX 10 15 5 16 1 17 2 18 3 19 89 20 4 21 88 22 90 23 19 24 20 25
REMARK SMILES IDX 21 27 22 28 23 29 87 30 24 31 86 32 25 33 26 34 27 35 80 36
REMARK SMILES IDX 28 37 85 38 79 39 81 40 29 41 84 42 78 43 77 44 30 46 64 47
REMARK SMILES IDX 43 48 63 49 44 50 47 51 62 52 82 53 45 54 46 55 61 57 83 58
REMARK SMILES IDX 48 59 31 60 32 61 41 62 33 63 34 64 40 65 42 66 35 67 36 68
REMARK SMILES IDX 37 69 38 70 39 71 65 72 66 73 75 74 67 75 68 76 74 77 76 78
REMARK SMILES IDX 69 79 70 80 71 81 72 82 73 83 49 84 50 85 59 86 51 87 52 88
REMARK SMILES IDX 58 89 60 90 53 91 54 92 55 93 56 94 57 95
REMARK H PARENT 15 7 8 14 19 26 81 45 47 56
REMARK Flexibility Score: inf
ROOT
ATOM      1  C   UNL A   1      35.670  31.257  28.090  1.00  0.00     0.118 C 
ENDROOT
BRANCH   1   2
ATOM      2  C   UNL A   1      34.402  30.827  27.347  1.00  0.00     0.042 C 
BRANCH   2   3
ATOM      3  C   UNL A   1      34.350  29.326  27.061  1.00  0.00     0.118 C 
BRANCH   3   4
ATOM      4  N   UNL A   1      33.143  28.735  27.609  1.00  0.00    -0.352 N 
ATOM      5  C   UNL A   1      32.001  28.203  27.111  1.00  0.00     0.252 C 
ATOM      6  O   UNL A   1      31.218  27.821  27.984  1.00  0.00    -0.269 OA
ATOM      7  H   UNL A   1      33.159  28.716  28.592  1.00  0.00     0.163 HD
BRANCH   5   8
ATOM      8  C   UNL A   1      31.689  28.016  25.642  1.00  0.00     0.054 A 
ATOM      9  C   UNL A   1      32.085  26.758  24.952  1.00  0.00     0.011 A 
ATOM     10  C   UNL A   1      31.899  26.662  23.619  1.00  0.00     0.095 A 
ATOM     11  N   UNL A   1      31.341  27.682  22.902  1.00  0.00    -0.328 N 
ATOM     12  C   UNL A   1      31.023  28.945  24.934  1.00  0.00     0.086 A 
ATOM     13  C   UNL A   1      30.872  28.836  23.464  1.00  0.00     0.248 A 
ATOM     14  H   UNL A   1      31.274  27.581  21.925  1.00  0.00     0.169 HD
ATOM     15  O   UNL A   1      30.375  29.739  22.809  1.00  0.00    -0.270 OA
BRANCH   9  16
ATOM     16  C   UNL A   1      32.592  25.526  25.598  1.00  0.00    -0.015 A 
ATOM     17  C   UNL A   1      34.007  21.953  27.590  1.00  0.00     0.046 C 
ATOM     18  C   UNL A   1      33.535  23.184  26.872  1.00  0.00    -0.032 A 
ATOM     19  C   UNL A   1      32.170  23.504  26.882  1.00  0.00     0.005 A 
ATOM     20  C   UNL A   1      34.416  24.034  26.188  1.00  0.00     0.044 A 
ATOM     21  C   UNL A   1      31.703  24.652  26.238  1.00  0.00     0.009 A 
ATOM     22  C   UNL A   1      33.953  25.199  25.565  1.00  0.00     0.029 A 
ATOM     23  Cl  UNL A   1      36.106  23.682  26.079  1.00  0.00    -0.084 Cl
ENDBRANCH   9  16
ENDBRANCH   5   8
ENDBRANCH   3   4
ENDBRANCH   2   3
ENDBRANCH   1   2
BRANCH   1  24
ATOM     24  N   UNL A   1      35.550  31.060  29.530  1.00  0.00    -0.352 N 
ATOM     25  C   UNL A   1      36.333  30.338  30.395  1.00  0.00     0.251 C 
ATOM     26  H   UNL A   1      34.784  31.517  29.947  1.00  0.00     0.163 HD
ATOM     27  O   UNL A   1      35.902  30.071  31.512  1.00  0.00    -0.269 OA
BRANCH  25  28
ATOM     28  C   UNL A   1      37.683  29.890  29.992  1.00  0.00     0.039 A 
ATOM     29  C   UNL A   1      38.011  29.864  28.635  1.00  0.00     0.014 A 
ATOM     30  C   UNL A   1      38.603  29.441  30.943  1.00  0.00     0.014 A 
ATOM     31  C   UNL A   1      39.282  29.443  28.237  1.00  0.00     0.010 A 
ATOM     32  C   UNL A   1      39.893  29.094  30.553  1.00  0.00     0.010 A 
ATOM     33  C   UNL A   1      40.245  29.084  29.195  1.00  0.00    -0.014 A 
BRANCH  33  34
ATOM     34  C   UNL A   1      41.625  28.703  28.796  1.00  0.00     0.031 A 
ATOM     35  C   UNL A   1      42.714  29.743  28.750  1.00  0.00     0.074 A 
ATOM     36  C   UNL A   1      41.877  27.436  28.411  1.00  0.00     0.049 A 
ATOM     37  N   UNL A   1      43.957  29.618  28.363  1.00  0.00    -0.248 NA
ATOM     38  C   UNL A   1      42.355  31.109  29.171  1.00  0.00     0.031 C 
ATOM     39  C   UNL A   1      40.890  26.353  28.369  1.00  0.00     0.029 A 
ATOM     40  N   UNL A   1      43.033  26.843  27.971  1.00  0.00    -0.354 N 
ATOM     41  C   UNL A   1      44.520  30.884  28.470  1.00  0.00     0.074 A 
ATOM     42  C   UNL A   1      43.473  31.775  28.919  1.00  0.00     0.031 C 
ATOM     43  C   UNL A   1      41.489  25.226  27.955  1.00  0.00     0.029 A 
ATOM     44  C   UNL A   1      42.888  25.511  27.657  1.00  0.00     0.049 A 
ATOM     45  H   UNL A   1      43.887  27.325  27.890  1.00  0.00     0.167 HD
ATOM     46  C   UNL A   1      45.798  31.264  28.230  1.00  0.00     0.037 A 
ATOM     47  C   UNL A   1      43.780  24.625  27.171  1.00  0.00     0.037 A 
ATOM     48  C   UNL A   1      46.841  30.361  27.821  1.00  0.00     0.049 A 
ATOM     49  C   UNL A   1      45.192  25.080  26.914  1.00  0.00     0.074 A 
ATOM     50  C   UNL A   1      48.185  30.631  27.635  1.00  0.00     0.029 A 
ATOM     51  N   UNL A   1      46.659  29.017  27.529  1.00  0.00    -0.354 N 
ATOM     52  N   UNL A   1      45.726  26.263  27.102  1.00  0.00    -0.248 NA
ATOM     53  C   UNL A   1      46.126  24.078  26.381  1.00  0.00     0.031 C 
ATOM     54  C   UNL A   1      48.805  29.466  27.173  1.00  0.00     0.029 A 
ATOM     55  C   UNL A   1      47.860  28.454  27.133  1.00  0.00     0.049 A 
ATOM     56  H   UNL A   1      45.803  28.535  27.595  1.00  0.00     0.167 HD
ATOM     57  C   UNL A   1      47.065  26.137  26.748  1.00  0.00     0.074 A 
ATOM     58  C   UNL A   1      47.261  24.760  26.346  1.00  0.00     0.031 C 
ATOM     59  C   UNL A   1      48.043  27.075  26.755  1.00  0.00     0.037 A 
BRANCH  46  60
ATOM     60  C   UNL A   1      46.154  32.716  28.402  1.00  0.00     0.058 A 
ATOM     61  C   UNL A   1      46.038  33.639  27.350  1.00  0.00     0.135 A 
ATOM     62  C   UNL A   1      46.534  33.208  29.662  1.00  0.00     0.135 A 
ATOM     63  F   UNL A   1      45.695  33.223  26.120  1.00  0.00    -0.206 F 
ATOM     64  C   UNL A   1      46.295  34.993  27.537  1.00  0.00     0.059 A 
ATOM     65  C   UNL A   1      46.767  34.563  29.880  1.00  0.00     0.059 A 
ATOM     66  F   UNL A   1      46.664  32.371  30.702  1.00  0.00    -0.206 F 
ATOM     67  C   UNL A   1      46.651  35.447  28.809  1.00  0.00     0.060 A 
BRANCH  67  68
ATOM     68  S   UNL A   1      46.934  37.215  29.043  1.00  0.00     0.124 S 
ATOM     69  O   UNL A   1      48.337  37.339  28.660  1.00  0.00    -0.237 OA
ATOM     70  O   UNL A   1      45.970  37.809  28.123  1.00  0.00    -0.237 OA
ATOM     71  O   UNL A   1      46.651  37.420  30.461  1.00  0.00    -0.744 OA
ENDBRANCH  67  68
ENDBRANCH  46  60
BRANCH  47  72
ATOM     72  C   UNL A   1      43.377  23.216  26.905  1.00  0.00     0.058 A 
ATOM     73  C   UNL A   1      43.165  22.315  27.959  1.00  0.00     0.135 A 
ATOM     74  C   UNL A   1      43.231  22.732  25.595  1.00  0.00     0.135 A 
ATOM     75  F   UNL A   1      43.295  22.728  29.229  1.00  0.00    -0.206 F 
ATOM     76  C   UNL A   1      42.863  20.977  27.727  1.00  0.00     0.059 A 
ATOM     77  C   UNL A   1      42.898  21.406  25.338  1.00  0.00     0.059 A 
ATOM     78  F   UNL A   1      43.403  23.555  24.549  1.00  0.00    -0.206 F 
ATOM     79  C   UNL A   1      42.737  20.530  26.411  1.00  0.00     0.060 A 
BRANCH  79  80
ATOM     80  S   UNL A   1      42.348  18.791  26.120  1.00  0.00     0.124 S 
ATOM     81  O   UNL A   1      40.937  18.864  25.759  1.00  0.00    -0.237 OA
ATOM     82  O   UNL A   1      43.268  18.447  25.041  1.00  0.00    -0.237 OA
ATOM     83  O   UNL A   1      42.640  18.164  27.406  1.00  0.00    -0.744 OA
ENDBRANCH  79  80
ENDBRANCH  47  72
BRANCH  59  84
ATOM     84  C   UNL A   1      49.429  26.636  26.366  1.00  0.00     0.058 A 
ATOM     85  C   UNL A   1      50.291  26.006  27.277  1.00  0.00     0.135 A 
ATOM     86  C   UNL A   1      49.881  26.806  25.047  1.00  0.00     0.135 A 
ATOM     87  F   UNL A   1      49.911  25.824  28.552  1.00  0.00    -0.206 F 
ATOM     88  C   UNL A   1      51.560  25.581  26.900  1.00  0.00     0.059 A 
ATOM     89  C   UNL A   1      51.134  26.361  24.640  1.00  0.00     0.059 A 
ATOM     90  F   UNL A   1      49.093  27.394  24.132  1.00  0.00    -0.206 F 
ATOM     91  C   UNL A   1      51.972  25.760  25.578  1.00  0.00     0.060 A 
BRANCH  91  92
ATOM     92  S   UNL A   1      53.609  25.174  25.096  1.00  0.00     0.124 S 
ATOM     93  O   UNL A   1      54.469  25.908  26.017  1.00  0.00    -0.237 OA
ATOM     94  O   UNL A   1      53.508  23.737  25.330  1.00  0.00    -0.237 OA
ATOM     95  O   UNL A   1      53.712  25.568  23.693  1.00  0.00    -0.744 OA
ENDBRANCH  91  92
ENDBRANCH  59  84
ENDBRANCH  33  34
ENDBRANCH  25  28
ENDBRANCH   1  24
TORSDOF 14
ENDMDL
MODEL 3
REMARK VINA RESULT:     -12.8      1.484      2.964
REMARK SMILES Cc1ccc(-c2c[nH]c(=O)cc2C(=O)NCCCNC(=O)c2ccc(-c3c4nc(c(-c5c(F)cc(S(=O)(=O)[O-])cc5F)c5ccc([nH]5)c(-c5c(F)cc(S(=O)(=O)[O-])cc5F)c5nc(c(-c6c(F)cc(S(=O)(=O)[O-])cc6F)c6ccc3[nH]6)C=C5)C=C4)cc2)cc1Cl
REMARK SMILES IDX 18 1 17 2 16 3 15 4 13 5 14 6 12 8 6 9 7 10 8 11 11 12 9 13
REMARK SMILES IDX 10 15 5 16 1 17 2 18 3 19 89 20 4 21 88 22 90 23 19 24 20 25
REMARK SMILES IDX 21 27 22 28 23 29 87 30 24 31 86 32 25 33 26 34 27 35 80 36
REMARK SMILES IDX 28 37 85 38 79 39 81 40 29 41 84 42 78 43 77 44 30 46 64 47
REMARK SMILES IDX 43 48 63 49 44 50 47 51 62 52 82 53 45 54 46 55 61 57 83 58
REMARK SMILES IDX 48 59 31 60 32 61 41 62 33 63 34 64 40 65 42 66 35 67 36 68
REMARK SMILES IDX 37 69 38 70 39 71 65 72 66 73 75 74 67 75 68 76 74 77 76 78
REMARK SMILES IDX 69 79 70 80 71 81 72 82 73 83 49 84 50 85 59 86 51 87 52 88
REMARK SMILES IDX 58 89 60 90 53 91 54 92 55 93 56 94 57 95
REMARK H PARENT 15 7 8 14 19 26 81 45 47 56
REMARK Flexibility Score: inf
ROOT
ATOM      1  C   UNL A   1      38.452  24.055  26.556  1.00  0.00     0.118 C 
ENDROOT
BRANCH   1   2
ATOM      2  C   UNL A   1      37.514  23.425  25.522  1.00  0.00     0.042 C 
BRANCH   2   3
ATOM      3  C   UNL A   1      36.090  23.975  25.585  1.00  0.00     0.118 C 
BRANCH   3   4
ATOM      4  N   UNL A   1      35.508  24.063  24.258  1.00  0.00    -0.352 N 
ATOM      5  C   UNL A   1      34.385  23.610  23.650  1.00  0.00     0.252 C 
ATOM      6  O   UNL A   1      34.310  23.929  22.461  1.00  0.00    -0.269 OA
ATOM      7  H   UNL A   1      36.074  24.583  23.645  1.00  0.00     0.163 HD
BRANCH   5   8
ATOM      8  C   UNL A   1      33.272  22.839  24.327  1.00  0.00     0.054 A 
ATOM      9  C   UNL A   1      32.244  23.562  25.124  1.00  0.00     0.011 A 
ATOM     10  C   UNL A   1      31.331  22.844  25.810  1.00  0.00     0.095 A 
ATOM     11  N   UNL A   1      31.322  21.479  25.772  1.00  0.00    -0.328 N 
ATOM     12  C   UNL A   1      33.156  21.505  24.203  1.00  0.00     0.086 A 
ATOM     13  C   UNL A   1      32.173  20.737  25.002  1.00  0.00     0.248 A 
ATOM     14  H   UNL A   1      30.666  21.002  26.330  1.00  0.00     0.169 HD
ATOM     15  O   UNL A   1      32.153  19.516  24.978  1.00  0.00    -0.270 OA
BRANCH   9  16
ATOM     16  C   UNL A   1      32.047  25.029  25.176  1.00  0.00    -0.015 A 
ATOM     17  C   UNL A   1      31.460  29.308  25.453  1.00  0.00     0.046 C 
ATOM     18  C   UNL A   1      31.666  27.827  25.324  1.00  0.00    -0.032 A 
ATOM     19  C   UNL A   1      32.564  27.181  26.184  1.00  0.00     0.005 A 
ATOM     20  C   UNL A   1      30.986  27.059  24.367  1.00  0.00     0.044 A 
ATOM     21  C   UNL A   1      32.765  25.801  26.098  1.00  0.00     0.009 A 
ATOM     22  C   UNL A   1      31.166  25.672  24.299  1.00  0.00     0.029 A 
ATOM     23  Cl  UNL A   1      29.904  27.786  23.231  1.00  0.00    -0.084 Cl
ENDBRANCH   9  16
ENDBRANCH   5   8
ENDBRANCH   3   4
ENDBRANCH   2   3
ENDBRANCH   1   2
BRANCH   1  24
ATOM     24  N   UNL A   1      39.844  24.012  26.125  1.00  0.00    -0.352 N 
ATOM     25  C   UNL A   1      40.888  24.856  26.410  1.00  0.00     0.251 C 
ATOM     26  H   UNL A   1      40.072  23.257  25.535  1.00  0.00     0.163 HD
ATOM     27  O   UNL A   1      41.905  24.804  25.726  1.00  0.00    -0.269 OA
BRANCH  25  28
ATOM     28  C   UNL A   1      40.795  25.815  27.531  1.00  0.00     0.039 A 
ATOM     29  C   UNL A   1      41.731  26.849  27.617  1.00  0.00     0.014 A 
ATOM     30  C   UNL A   1      39.827  25.663  28.527  1.00  0.00     0.014 A 
ATOM     31  C   UNL A   1      41.658  27.763  28.671  1.00  0.00     0.010 A 
ATOM     32  C   UNL A   1      39.709  26.618  29.533  1.00  0.00     0.010 A 
ATOM     33  C   UNL A   1      40.627  27.674  29.620  1.00  0.00    -0.014 A 
BRANCH  33  34
ATOM     34  C   UNL A   1      40.490  28.680  30.706  1.00  0.00     0.031 A 
ATOM     35  C   UNL A   1      41.334  28.573  31.948  1.00  0.00     0.074 A 
ATOM     36  C   UNL A   1      39.557  29.647  30.598  1.00  0.00     0.049 A 
ATOM     37  N   UNL A   1      41.309  29.312  33.028  1.00  0.00    -0.248 NA
ATOM     38  C   UNL A   1      42.320  27.479  31.997  1.00  0.00     0.031 C 
ATOM     39  C   UNL A   1      38.648  29.823  29.461  1.00  0.00     0.029 A 
ATOM     40  N   UNL A   1      39.208  30.660  31.455  1.00  0.00    -0.354 N 
ATOM     41  C   UNL A   1      42.252  28.762  33.889  1.00  0.00     0.074 A 
ATOM     42  C   UNL A   1      42.804  27.601  33.225  1.00  0.00     0.031 C 
ATOM     43  C   UNL A   1      37.868  30.892  29.681  1.00  0.00     0.029 A 
ATOM     44  C   UNL A   1      38.183  31.451  30.990  1.00  0.00     0.049 A 
ATOM     45  H   UNL A   1      39.650  30.806  32.323  1.00  0.00     0.167 HD
ATOM     46  C   UNL A   1      42.632  29.195  35.114  1.00  0.00     0.037 A 
ATOM     47  C   UNL A   1      37.561  32.503  31.561  1.00  0.00     0.037 A 
ATOM     48  C   UNL A   1      42.103  30.374  35.749  1.00  0.00     0.049 A 
ATOM     49  C   UNL A   1      38.006  32.959  32.925  1.00  0.00     0.074 A 
ATOM     50  C   UNL A   1      42.483  30.945  36.951  1.00  0.00     0.029 A 
ATOM     51  N   UNL A   1      41.079  31.159  35.239  1.00  0.00    -0.354 N 
ATOM     52  N   UNL A   1      38.958  32.476  33.688  1.00  0.00    -0.248 NA
ATOM     53  C   UNL A   1      37.295  34.105  33.507  1.00  0.00     0.031 C 
ATOM     54  C   UNL A   1      41.649  32.040  37.198  1.00  0.00     0.029 A 
ATOM     55  C   UNL A   1      40.793  32.190  36.118  1.00  0.00     0.049 A 
ATOM     56  H   UNL A   1      40.624  31.007  34.380  1.00  0.00     0.167 HD
ATOM     57  C   UNL A   1      38.986  33.283  34.819  1.00  0.00     0.074 A 
ATOM     58  C   UNL A   1      37.963  34.292  34.636  1.00  0.00     0.031 C 
ATOM     59  C   UNL A   1      39.784  33.198  35.912  1.00  0.00     0.037 A 
BRANCH  46  60
ATOM     60  C   UNL A   1      43.670  28.402  35.861  1.00  0.00     0.058 A 
ATOM     61  C   UNL A   1      45.039  28.700  35.773  1.00  0.00     0.135 A 
ATOM     62  C   UNL A   1      43.279  27.383  36.748  1.00  0.00     0.135 A 
ATOM     63  F   UNL A   1      45.470  29.652  34.930  1.00  0.00    -0.206 F 
ATOM     64  C   UNL A   1      45.984  28.011  36.526  1.00  0.00     0.059 A 
ATOM     65  C   UNL A   1      44.205  26.701  37.533  1.00  0.00     0.059 A 
ATOM     66  F   UNL A   1      41.984  27.054  36.869  1.00  0.00    -0.206 F 
ATOM     67  C   UNL A   1      45.556  27.019  37.410  1.00  0.00     0.060 A 
BRANCH  67  68
ATOM     68  S   UNL A   1      46.793  26.169  38.415  1.00  0.00     0.124 S 
ATOM     69  O   UNL A   1      45.975  25.648  39.506  1.00  0.00    -0.237 OA
ATOM     70  O   UNL A   1      47.318  25.175  37.485  1.00  0.00    -0.237 OA
ATOM     71  O   UNL A   1      47.723  27.233  38.782  1.00  0.00    -0.744 OA
ENDBRANCH  67  68
ENDBRANCH  46  60
BRANCH  47  72
ATOM     72  C   UNL A   1      36.459  33.207  30.849  1.00  0.00     0.058 A 
ATOM     73  C   UNL A   1      36.728  34.046  29.757  1.00  0.00     0.135 A 
ATOM     74  C   UNL A   1      35.124  33.087  31.264  1.00  0.00     0.135 A 
ATOM     75  F   UNL A   1      37.989  34.198  29.322  1.00  0.00    -0.206 F 
ATOM     76  C   UNL A   1      35.721  34.772  29.128  1.00  0.00     0.059 A 
ATOM     77  C   UNL A   1      34.095  33.777  30.631  1.00  0.00     0.059 A 
ATOM     78  F   UNL A   1      34.808  32.282  32.290  1.00  0.00    -0.206 F 
ATOM     79  C   UNL A   1      34.407  34.634  29.577  1.00  0.00     0.060 A 
BRANCH  79  80
ATOM     80  S   UNL A   1      33.108  35.582  28.756  1.00  0.00     0.124 S 
ATOM     81  O   UNL A   1      32.471  34.557  27.937  1.00  0.00    -0.237 OA
ATOM     82  O   UNL A   1      32.326  36.075  29.886  1.00  0.00    -0.237 OA
ATOM     83  O   UNL A   1      33.851  36.604  28.024  1.00  0.00    -0.744 OA
ENDBRANCH  79  80
ENDBRANCH  47  72
BRANCH  59  84
ATOM     84  C   UNL A   1      39.624  34.253  36.973  1.00  0.00     0.058 A 
ATOM     85  C   UNL A   1      38.840  34.041  38.118  1.00  0.00     0.135 A 
ATOM     86  C   UNL A   1      40.309  35.475  36.865  1.00  0.00     0.135 A 
ATOM     87  F   UNL A   1      38.159  32.893  38.268  1.00  0.00    -0.206 F 
ATOM     88  C   UNL A   1      38.720  35.013  39.105  1.00  0.00     0.059 A 
ATOM     89  C   UNL A   1      40.229  36.448  37.855  1.00  0.00     0.059 A 
ATOM     90  F   UNL A   1      41.082  35.725  35.795  1.00  0.00    -0.206 F 
ATOM     91  C   UNL A   1      39.421  36.213  38.966  1.00  0.00     0.060 A 
BRANCH  91  92
ATOM     92  S   UNL A   1      39.283  37.451  40.272  1.00  0.00     0.124 S 
ATOM     93  O   UNL A   1      38.246  38.327  39.738  1.00  0.00    -0.237 OA
ATOM     94  O   UNL A   1      38.900  36.645  41.427  1.00  0.00    -0.237 OA
ATOM     95  O   UNL A   1      40.622  38.030  40.335  1.00  0.00    -0.744 OA
ENDBRANCH  91  92
ENDBRANCH  59  84
ENDBRANCH  33  34
ENDBRANCH  25  28
ENDBRANCH   1  24
TORSDOF 14
ENDMDL
