MODEL 1
REMARK VINA RESULT:     -12.1      0.000      0.000
REMARK SMILES CC1C[NH+]([C@H]2COC[C@@H]2C(=O)NCCCNC(=O)c2ccc(-c3c4nc(c(-c5c(F)cc(S(=O)(=O)[O-])cc5F)c5ccc([nH]5)c(-c5c(F)cc(S(=O)(=O)[O-])cc5F)c5nc(c(-c6c(F)cc(S(=O)(=O)[O-])cc6F)c6ccc3[nH]6)C=C5)C=C4)cc2)C1
REMARK SMILES IDX 15 1 14 2 13 3 12 4 10 5 11 6 9 8 5 9 6 10 7 11 8 12 4 13
REMARK SMILES IDX 1 14 2 15 3 16 85 17 16 19 17 20 18 22 19 23 20 24 84 25
REMARK SMILES IDX 21 26 83 27 22 28 23 29 24 30 77 31 25 32 82 33 76 34 78 35
REMARK SMILES IDX 26 36 81 37 75 38 74 39 27 41 61 42 40 43 60 44 41 45 44 46
REMARK SMILES IDX 59 47 79 48 42 49 43 50 58 52 80 53 45 54 28 55 29 56 38 57
REMARK SMILES IDX 30 58 31 59 37 60 39 61 32 62 33 63 34 64 35 65 36 66 62 67
REMARK SMILES IDX 63 68 72 69 64 70 65 71 71 72 73 73 66 74 67 75 68 76 69 77
REMARK SMILES IDX 70 78 46 79 47 80 56 81 48 82 49 83 55 84 57 85 50 86 51 87
REMARK SMILES IDX 52 88 53 89 54 90
REMARK H PARENT 12 7 4 18 16 21 78 40 44 51
REMARK Flexibility Score: inf
ROOT
ATOM      1  C   UNL A   1      40.375  23.034  27.189  1.00  0.00     0.118 C 
ENDROOT
BRANCH   1   2
ATOM      2  C   UNL A   1      40.650  21.542  27.004  1.00  0.00     0.042 C 
BRANCH   2   3
ATOM      3  C   UNL A   1      41.958  21.202  26.296  1.00  0.00     0.117 C 
BRANCH   3   4
ATOM      4  N   UNL A   1      42.079  19.787  25.990  1.00  0.00    -0.356 N 
ATOM      5  C   UNL A   1      43.172  19.058  25.623  1.00  0.00     0.231 C 
ATOM      6  O   UNL A   1      43.016  17.849  25.451  1.00  0.00    -0.274 OA
ATOM      7  H   UNL A   1      41.241  19.275  26.058  1.00  0.00     0.163 HD
BRANCH   5   8
ATOM      8  C   UNL A   1      44.511  19.756  25.432  1.00  0.00     0.164 C 
ATOM      9  C   UNL A   1      44.602  20.371  24.038  1.00  0.00     0.225 C 
ATOM     10  C   UNL A   1      45.141  19.183  23.226  1.00  0.00     0.226 C 
ATOM     11  O   UNL A   1      45.991  18.419  24.093  1.00  0.00    -0.374 OA
ATOM     12  C   UNL A   1      45.660  18.756  25.450  1.00  0.00     0.180 C 
BRANCH   9  13
ATOM     13  N   UNL A   1      45.378  21.631  24.086  1.00  0.00    -0.329 N 
ATOM     14  C   UNL A   1      44.745  24.350  26.091  1.00  0.00     0.020 C 
ATOM     15  C   UNL A   1      45.462  23.485  25.076  1.00  0.00     0.096 C 
ATOM     16  C   UNL A   1      45.735  22.013  25.473  1.00  0.00     0.271 C 
ATOM     17  C   UNL A   1      44.586  22.876  23.956  1.00  0.00     0.271 C 
ATOM     18  H   UNL A   1      46.085  21.417  23.382  1.00  0.00     0.348 HD
ENDBRANCH   9  13
ENDBRANCH   5   8
ENDBRANCH   3   4
ENDBRANCH   2   3
ENDBRANCH   1   2
BRANCH   1  19
ATOM     19  N   UNL A   1      40.957  23.861  26.144  1.00  0.00    -0.352 N 
ATOM     20  C   UNL A   1      41.233  25.206  26.119  1.00  0.00     0.251 C 
ATOM     21  H   UNL A   1      41.192  23.377  25.319  1.00  0.00     0.163 HD
ATOM     22  O   UNL A   1      41.614  25.709  25.061  1.00  0.00    -0.269 OA
BRANCH  20  23
ATOM     23  C   UNL A   1      41.058  26.062  27.317  1.00  0.00     0.039 A 
ATOM     24  C   UNL A   1      41.995  27.074  27.550  1.00  0.00     0.014 A 
ATOM     25  C   UNL A   1      40.024  25.859  28.236  1.00  0.00     0.014 A 
ATOM     26  C   UNL A   1      41.864  27.912  28.662  1.00  0.00     0.010 A 
ATOM     27  C   UNL A   1      39.853  26.740  29.308  1.00  0.00     0.010 A 
ATOM     28  C   UNL A   1      40.773  27.774  29.535  1.00  0.00    -0.014 A 
BRANCH  28  29
ATOM     29  C   UNL A   1      40.588  28.714  30.675  1.00  0.00     0.031 A 
ATOM     30  C   UNL A   1      41.430  28.594  31.918  1.00  0.00     0.074 A 
ATOM     31  C   UNL A   1      39.633  29.661  30.605  1.00  0.00     0.049 A 
ATOM     32  N   UNL A   1      41.404  29.321  33.006  1.00  0.00    -0.248 NA
ATOM     33  C   UNL A   1      42.412  27.499  31.955  1.00  0.00     0.031 C 
ATOM     34  C   UNL A   1      38.710  29.849  29.482  1.00  0.00     0.029 A 
ATOM     35  N   UNL A   1      39.275  30.645  31.493  1.00  0.00    -0.354 N 
ATOM     36  C   UNL A   1      42.355  28.771  33.858  1.00  0.00     0.074 A 
ATOM     37  C   UNL A   1      42.905  27.616  33.181  1.00  0.00     0.031 C 
ATOM     38  C   UNL A   1      37.914  30.900  29.737  1.00  0.00     0.029 A 
ATOM     39  C   UNL A   1      38.247  31.445  31.048  1.00  0.00     0.049 A 
ATOM     40  H   UNL A   1      39.713  30.767  32.366  1.00  0.00     0.167 HD
ATOM     41  C   UNL A   1      42.751  29.200  35.081  1.00  0.00     0.037 A 
ATOM     42  C   UNL A   1      37.645  32.501  31.628  1.00  0.00     0.037 A 
ATOM     43  C   UNL A   1      42.222  30.364  35.744  1.00  0.00     0.049 A 
ATOM     44  C   UNL A   1      38.121  32.976  32.973  1.00  0.00     0.074 A 
ATOM     45  C   UNL A   1      42.599  30.910  36.959  1.00  0.00     0.029 A 
ATOM     46  N   UNL A   1      41.203  31.164  35.249  1.00  0.00    -0.354 N 
ATOM     47  N   UNL A   1      39.067  32.480  33.734  1.00  0.00    -0.248 NA
ATOM     48  C   UNL A   1      37.460  34.162  33.531  1.00  0.00     0.031 C 
ATOM     49  C   UNL A   1      41.784  32.020  37.216  1.00  0.00     0.029 A 
ATOM     50  C   UNL A   1      40.929  32.191  36.139  1.00  0.00     0.049 A 
ATOM     51  H   UNL A   1      40.741  31.023  34.391  1.00  0.00     0.167 HD
ATOM     52  C   UNL A   1      39.131  33.308  34.850  1.00  0.00     0.074 A 
ATOM     53  C   UNL A   1      38.138  34.345  34.655  1.00  0.00     0.031 C 
ATOM     54  C   UNL A   1      39.939  33.218  35.934  1.00  0.00     0.037 A 
BRANCH  41  55
ATOM     55  C   UNL A   1      43.821  28.407  35.783  1.00  0.00     0.058 A 
ATOM     56  C   UNL A   1      45.185  28.677  35.586  1.00  0.00     0.135 A 
ATOM     57  C   UNL A   1      43.482  27.390  36.689  1.00  0.00     0.135 A 
ATOM     58  F   UNL A   1      45.567  29.630  34.721  1.00  0.00    -0.206 F 
ATOM     59  C   UNL A   1      46.175  27.948  36.238  1.00  0.00     0.059 A 
ATOM     60  C   UNL A   1      44.455  26.664  37.373  1.00  0.00     0.059 A 
ATOM     61  F   UNL A   1      42.193  27.090  36.919  1.00  0.00    -0.206 F 
ATOM     62  C   UNL A   1      45.798  26.941  37.128  1.00  0.00     0.060 A 
BRANCH  62  63
ATOM     63  S   UNL A   1      47.092  26.001  37.967  1.00  0.00     0.124 S 
ATOM     64  O   UNL A   1      48.210  26.940  37.920  1.00  0.00    -0.237 OA
ATOM     65  O   UNL A   1      46.510  25.780  39.289  1.00  0.00    -0.237 OA
ATOM     66  O   UNL A   1      47.237  24.809  37.143  1.00  0.00    -0.744 OA
ENDBRANCH  62  63
ENDBRANCH  41  55
BRANCH  42  67
ATOM     67  C   UNL A   1      36.546  33.207  30.919  1.00  0.00     0.058 A 
ATOM     68  C   UNL A   1      35.218  33.097  31.355  1.00  0.00     0.135 A 
ATOM     69  C   UNL A   1      36.802  34.017  29.802  1.00  0.00     0.135 A 
ATOM     70  F   UNL A   1      34.923  32.329  32.417  1.00  0.00    -0.206 F 
ATOM     71  C   UNL A   1      34.178  33.751  30.702  1.00  0.00     0.059 A 
ATOM     72  C   UNL A   1      35.783  34.700  29.146  1.00  0.00     0.059 A 
ATOM     73  F   UNL A   1      38.059  34.169  29.355  1.00  0.00    -0.206 F 
ATOM     74  C   UNL A   1      34.471  34.553  29.598  1.00  0.00     0.060 A 
BRANCH  74  75
ATOM     75  S   UNL A   1      33.124  35.442  28.788  1.00  0.00     0.124 S 
ATOM     76  O   UNL A   1      33.854  36.438  28.012  1.00  0.00    -0.237 OA
ATOM     77  O   UNL A   1      32.475  34.383  28.021  1.00  0.00    -0.237 OA
ATOM     78  O   UNL A   1      32.345  35.959  29.909  1.00  0.00    -0.744 OA
ENDBRANCH  74  75
ENDBRANCH  42  67
BRANCH  54  79
ATOM     79  C   UNL A   1      39.805  34.291  36.980  1.00  0.00     0.058 A 
ATOM     80  C   UNL A   1      38.970  34.132  38.098  1.00  0.00     0.135 A 
ATOM     81  C   UNL A   1      40.535  35.485  36.872  1.00  0.00     0.135 A 
ATOM     82  F   UNL A   1      38.248  33.011  38.247  1.00  0.00    -0.206 F 
ATOM     83  C   UNL A   1      38.835  35.136  39.052  1.00  0.00     0.059 A 
ATOM     84  C   UNL A   1      40.436  36.491  37.828  1.00  0.00     0.059 A 
ATOM     85  F   UNL A   1      41.357  35.683  35.829  1.00  0.00    -0.206 F 
ATOM     86  C   UNL A   1      39.569  36.314  38.905  1.00  0.00     0.060 A 
BRANCH  86  87
ATOM     87  S   UNL A   1      39.390  37.610  40.150  1.00  0.00     0.124 S 
ATOM     88  O   UNL A   1      39.096  36.827  41.347  1.00  0.00    -0.237 OA
ATOM     89  O   UNL A   1      40.698  38.258  40.122  1.00  0.00    -0.237 OA
ATOM     90  O   UNL A   1      38.286  38.418  39.641  1.00  0.00    -0.744 OA
ENDBRANCH  86  87
ENDBRANCH  54  79
ENDBRANCH  28  29
ENDBRANCH  20  23
ENDBRANCH   1  19
TORSDOF 14
ENDMDL
MODEL 2
REMARK VINA RESULT:     -11.7      6.234     14.612
REMARK SMILES CC1C[NH+]([C@H]2COC[C@@H]2C(=O)NCCCNC(=O)c2ccc(-c3c4nc(c(-c5c(F)cc(S(=O)(=O)[O-])cc5F)c5ccc([nH]5)c(-c5c(F)cc(S(=O)(=O)[O-])cc5F)c5nc(c(-c6c(F)cc(S(=O)(=O)[O-])cc6F)c6ccc3[nH]6)C=C5)C=C4)cc2)C1
REMARK SMILES IDX 15 1 14 2 13 3 12 4 10 5 11 6 9 8 5 9 6 10 7 11 8 12 4 13
REMARK SMILES IDX 1 14 2 15 3 16 85 17 16 19 17 20 18 22 19 23 20 24 84 25
REMARK SMILES IDX 21 26 83 27 22 28 23 29 24 30 77 31 25 32 82 33 76 34 78 35
REMARK SMILES IDX 26 36 81 37 75 38 74 39 27 41 61 42 40 43 60 44 41 45 44 46
REMARK SMILES IDX 59 47 79 48 42 49 43 50 58 52 80 53 45 54 28 55 29 56 38 57
REMARK SMILES IDX 30 58 31 59 37 60 39 61 32 62 33 63 34 64 35 65 36 66 62 67
REMARK SMILES IDX 63 68 72 69 64 70 65 71 71 72 73 73 66 74 67 75 68 76 69 77
REMARK SMILES IDX 70 78 46 79 47 80 56 81 48 82 49 83 55 84 57 85 50 86 51 87
REMARK SMILES IDX 52 88 53 89 54 90
REMARK H PARENT 12 7 4 18 16 21 78 40 44 51
REMARK Flexibility Score: inf
ROOT
ATOM      1  C   UNL A   1      35.668  31.453  28.824  1.00  0.00     0.118 C 
ENDROOT
BRANCH   1   2
ATOM      2  C   UNL A   1      34.609  32.521  28.553  1.00  0.00     0.042 C 
BRANCH   2   3
ATOM      3  C   UNL A   1      34.477  33.596  29.628  1.00  0.00     0.117 C 
BRANCH   3   4
ATOM      4  N   UNL A   1      33.516  34.627  29.274  1.00  0.00    -0.356 N 
ATOM      5  C   UNL A   1      33.131  35.741  29.960  1.00  0.00     0.231 C 
ATOM      6  O   UNL A   1      32.312  36.485  29.421  1.00  0.00    -0.274 OA
ATOM      7  H   UNL A   1      33.073  34.501  28.404  1.00  0.00     0.163 HD
BRANCH   5   8
ATOM      8  C   UNL A   1      33.708  36.009  31.343  1.00  0.00     0.164 C 
ATOM      9  C   UNL A   1      33.046  35.110  32.384  1.00  0.00     0.225 C 
ATOM     10  C   UNL A   1      31.820  35.954  32.767  1.00  0.00     0.226 C 
ATOM     11  O   UNL A   1      32.198  37.333  32.660  1.00  0.00    -0.374 OA
ATOM     12  C   UNL A   1      33.362  37.413  31.821  1.00  0.00     0.180 C 
BRANCH   9  13
ATOM     13  N   UNL A   1      34.024  34.733  33.430  1.00  0.00    -0.329 N 
ATOM     14  C   UNL A   1      36.990  33.061  32.951  1.00  0.00     0.020 C 
ATOM     15  C   UNL A   1      35.892  33.801  33.688  1.00  0.00     0.096 C 
ATOM     16  C   UNL A   1      35.406  35.135  33.071  1.00  0.00     0.271 C 
ATOM     17  C   UNL A   1      34.447  33.313  33.429  1.00  0.00     0.271 C 
ATOM     18  H   UNL A   1      33.545  35.108  34.249  1.00  0.00     0.348 HD
ENDBRANCH   9  13
ENDBRANCH   5   8
ENDBRANCH   3   4
ENDBRANCH   2   3
ENDBRANCH   1   2
BRANCH   1  19
ATOM     19  N   UNL A   1      35.623  30.926  30.178  1.00  0.00    -0.352 N 
ATOM     20  C   UNL A   1      36.547  30.198  30.886  1.00  0.00     0.251 C 
ATOM     21  H   UNL A   1      34.793  31.125  30.670  1.00  0.00     0.163 HD
ATOM     22  O   UNL A   1      36.228  29.752  31.988  1.00  0.00    -0.269 OA
BRANCH  20  23
ATOM     23  C   UNL A   1      37.899  29.916  30.345  1.00  0.00     0.039 A 
ATOM     24  C   UNL A   1      38.930  29.642  31.250  1.00  0.00     0.014 A 
ATOM     25  C   UNL A   1      38.181  29.962  28.976  1.00  0.00     0.014 A 
ATOM     26  C   UNL A   1      40.218  29.360  30.784  1.00  0.00     0.010 A 
ATOM     27  C   UNL A   1      39.450  29.612  28.508  1.00  0.00     0.010 A 
ATOM     28  C   UNL A   1      40.485  29.310  29.405  1.00  0.00    -0.014 A 
BRANCH  28  29
ATOM     29  C   UNL A   1      41.836  28.934  28.906  1.00  0.00     0.031 A 
ATOM     30  C   UNL A   1      42.946  29.950  28.844  1.00  0.00     0.074 A 
ATOM     31  C   UNL A   1      42.055  27.677  28.472  1.00  0.00     0.049 A 
ATOM     32  N   UNL A   1      44.180  29.800  28.436  1.00  0.00    -0.248 NA
ATOM     33  C   UNL A   1      42.622  31.319  29.274  1.00  0.00     0.031 C 
ATOM     34  C   UNL A   1      41.050  26.613  28.423  1.00  0.00     0.029 A 
ATOM     35  N   UNL A   1      43.192  27.080  27.988  1.00  0.00    -0.354 N 
ATOM     36  C   UNL A   1      44.777  31.051  28.550  1.00  0.00     0.074 A 
ATOM     37  C   UNL A   1      43.753  31.961  29.018  1.00  0.00     0.031 C 
ATOM     38  C   UNL A   1      41.622  25.488  27.965  1.00  0.00     0.029 A 
ATOM     39  C   UNL A   1      43.024  25.754  27.661  1.00  0.00     0.049 A 
ATOM     40  H   UNL A   1      44.048  27.555  27.885  1.00  0.00     0.167 HD
ATOM     41  C   UNL A   1      46.063  31.405  28.311  1.00  0.00     0.037 A 
ATOM     42  C   UNL A   1      43.900  24.852  27.177  1.00  0.00     0.037 A 
ATOM     43  C   UNL A   1      47.087  30.493  27.868  1.00  0.00     0.049 A 
ATOM     44  C   UNL A   1      45.328  25.262  26.946  1.00  0.00     0.074 A 
ATOM     45  C   UNL A   1      48.431  30.746  27.653  1.00  0.00     0.029 A 
ATOM     46  N   UNL A   1      46.884  29.153  27.576  1.00  0.00    -0.354 N 
ATOM     47  N   UNL A   1      45.888  26.435  27.122  1.00  0.00    -0.248 NA
ATOM     48  C   UNL A   1      46.248  24.222  26.465  1.00  0.00     0.031 C 
ATOM     49  C   UNL A   1      49.034  29.568  27.196  1.00  0.00     0.029 A 
ATOM     50  C   UNL A   1      48.074  28.569  27.170  1.00  0.00     0.049 A 
ATOM     51  H   UNL A   1      46.021  28.684  27.647  1.00  0.00     0.167 HD
ATOM     52  C   UNL A   1      47.231  26.268  26.798  1.00  0.00     0.074 A 
ATOM     53  C   UNL A   1      47.400  24.877  26.430  1.00  0.00     0.031 C 
ATOM     54  C   UNL A   1      48.231  27.183  26.806  1.00  0.00     0.037 A 
BRANCH  41  55
ATOM     55  C   UNL A   1      46.440  32.845  28.530  1.00  0.00     0.058 A 
ATOM     56  C   UNL A   1      46.367  33.790  27.493  1.00  0.00     0.135 A 
ATOM     57  C   UNL A   1      46.844  33.296  29.797  1.00  0.00     0.135 A 
ATOM     58  F   UNL A   1      45.999  33.412  26.259  1.00  0.00    -0.206 F 
ATOM     59  C   UNL A   1      46.711  35.123  27.696  1.00  0.00     0.059 A 
ATOM     60  C   UNL A   1      47.167  34.631  30.029  1.00  0.00     0.059 A 
ATOM     61  F   UNL A   1      46.929  32.438  30.825  1.00  0.00    -0.206 F 
ATOM     62  C   UNL A   1      47.113  35.533  28.968  1.00  0.00     0.060 A 
BRANCH  62  63
ATOM     63  S   UNL A   1      47.557  37.266  29.218  1.00  0.00     0.124 S 
ATOM     64  O   UNL A   1      48.574  37.156  30.261  1.00  0.00    -0.237 OA
ATOM     65  O   UNL A   1      48.048  37.656  27.898  1.00  0.00    -0.237 OA
ATOM     66  O   UNL A   1      46.303  37.884  29.625  1.00  0.00    -0.744 OA
ENDBRANCH  62  63
ENDBRANCH  41  55
BRANCH  42  67
ATOM     67  C   UNL A   1      43.457  23.458  26.913  1.00  0.00     0.058 A 
ATOM     68  C   UNL A   1      43.263  22.552  27.966  1.00  0.00     0.135 A 
ATOM     69  C   UNL A   1      43.202  23.009  25.608  1.00  0.00     0.135 A 
ATOM     70  F   UNL A   1      43.499  22.934  29.231  1.00  0.00    -0.206 F 
ATOM     71  C   UNL A   1      42.848  21.244  27.735  1.00  0.00     0.059 A 
ATOM     72  C   UNL A   1      42.764  21.714  25.354  1.00  0.00     0.059 A 
ATOM     73  F   UNL A   1      43.356  23.844  24.568  1.00  0.00    -0.206 F 
ATOM     74  C   UNL A   1      42.599  20.835  26.424  1.00  0.00     0.060 A 
BRANCH  74  75
ATOM     75  S   UNL A   1      42.009  19.152  26.138  1.00  0.00     0.124 S 
ATOM     76  O   UNL A   1      40.585  19.374  25.915  1.00  0.00    -0.237 OA
ATOM     77  O   UNL A   1      42.784  18.750  24.967  1.00  0.00    -0.237 OA
ATOM     78  O   UNL A   1      42.357  18.462  27.376  1.00  0.00    -0.744 OA
ENDBRANCH  74  75
ENDBRANCH  42  67
BRANCH  54  79
ATOM     79  C   UNL A   1      49.606  26.699  26.436  1.00  0.00     0.058 A 
ATOM     80  C   UNL A   1      50.092  26.792  25.122  1.00  0.00     0.135 A 
ATOM     81  C   UNL A   1      50.454  26.154  27.412  1.00  0.00     0.135 A 
ATOM     82  F   UNL A   1      49.320  27.302  24.151  1.00  0.00    -0.206 F 
ATOM     83  C   UNL A   1      51.358  26.325  24.782  1.00  0.00     0.059 A 
ATOM     84  C   UNL A   1      51.734  25.704  27.100  1.00  0.00     0.059 A 
ATOM     85  F   UNL A   1      50.043  26.053  28.686  1.00  0.00    -0.206 F 
ATOM     86  C   UNL A   1      52.170  25.778  25.778  1.00  0.00     0.060 A 
BRANCH  86  87
ATOM     87  S   UNL A   1      53.812  25.177  25.327  1.00  0.00     0.124 S 
ATOM     88  O   UNL A   1      53.606  23.733  25.328  1.00  0.00    -0.237 OA
ATOM     89  O   UNL A   1      54.023  25.787  24.017  1.00  0.00    -0.237 OA
ATOM     90  O   UNL A   1      54.665  25.691  26.395  1.00  0.00    -0.744 OA
ENDBRANCH  86  87
ENDBRANCH  54  79
ENDBRANCH  28  29
ENDBRANCH  20  23
ENDBRANCH   1  19
TORSDOF 14
ENDMDL
MODEL 3
REMARK VINA RESULT:     -11.6      6.179     14.545
REMARK SMILES CC1C[NH+]([C@H]2COC[C@@H]2C(=O)NCCCNC(=O)c2ccc(-c3c4nc(c(-c5c(F)cc(S(=O)(=O)[O-])cc5F)c5ccc([nH]5)c(-c5c(F)cc(S(=O)(=O)[O-])cc5F)c5nc(c(-c6c(F)cc(S(=O)(=O)[O-])cc6F)c6ccc3[nH]6)C=C5)C=C4)cc2)C1
REMARK SMILES IDX 15 1 14 2 13 3 12 4 10 5 11 6 9 8 5 9 6 10 7 11 8 12 4 13
REMARK SMILES IDX 1 14 2 15 3 16 85 17 16 19 17 20 18 22 19 23 20 24 84 25
REMARK SMILES IDX 21 26 83 27 22 28 23 29 24 30 77 31 25 32 82 33 76 34 78 35
REMARK SMILES IDX 26 36 81 37 75 38 74 39 27 41 61 42 40 43 60 44 41 45 44 46
REMARK SMILES IDX 59 47 79 48 42 49 43 50 58 52 80 53 45 54 28 55 29 56 38 57
REMARK SMILES IDX 30 58 31 59 37 60 39 61 32 62 33 63 34 64 35 65 36 66 62 67
REMARK SMILES IDX 63 68 72 69 64 70 65 71 71 72 73 73 66 74 67 75 68 76 69 77
REMARK SMILES IDX 70 78 46 79 47 80 56 81 48 82 49 83 55 84 57 85 50 86 51 87
REMARK SMILES IDX 52 88 53 89 54 90
REMARK H PARENT 12 7 4 18 16 21 78 40 44 51
REMARK Flexibility Score: inf
ROOT
ATOM      1  C   UNL A   1      37.689  31.955  33.229  1.00  0.00     0.118 C 
ENDROOT
BRANCH   1   2
ATOM      2  C   UNL A   1      37.165  33.212  33.922  1.00  0.00     0.042 C 
BRANCH   2   3
ATOM      3  C   UNL A   1      35.697  33.537  33.661  1.00  0.00     0.117 C 
BRANCH   3   4
ATOM      4  N   UNL A   1      35.395  34.947  33.843  1.00  0.00    -0.356 N 
ATOM      5  C   UNL A   1      34.406  35.711  33.295  1.00  0.00     0.231 C 
ATOM      6  O   UNL A   1      34.343  36.890  33.640  1.00  0.00    -0.274 OA
ATOM      7  H   UNL A   1      35.998  35.426  34.455  1.00  0.00     0.163 HD
BRANCH   5   8
ATOM      8  C   UNL A   1      33.447  35.090  32.289  1.00  0.00     0.164 C 
ATOM      9  C   UNL A   1      33.937  35.328  30.863  1.00  0.00     0.225 C 
ATOM     10  C   UNL A   1      33.314  36.699  30.562  1.00  0.00     0.226 C 
ATOM     11  O   UNL A   1      32.068  36.771  31.268  1.00  0.00    -0.374 OA
ATOM     12  C   UNL A   1      32.094  35.787  32.316  1.00  0.00     0.180 C 
BRANCH   9  13
ATOM     13  N   UNL A   1      33.595  34.170  30.005  1.00  0.00    -0.329 N 
ATOM     14  C   UNL A   1      35.752  32.404  27.995  1.00  0.00     0.020 C 
ATOM     15  C   UNL A   1      34.457  32.777  28.686  1.00  0.00     0.096 C 
ATOM     16  C   UNL A   1      34.521  33.030  30.212  1.00  0.00     0.271 C 
ATOM     17  C   UNL A   1      34.039  34.264  28.596  1.00  0.00     0.271 C 
ATOM     18  H   UNL A   1      32.597  34.103  30.208  1.00  0.00     0.348 HD
ENDBRANCH   9  13
ENDBRANCH   5   8
ENDBRANCH   3   4
ENDBRANCH   2   3
ENDBRANCH   1   2
BRANCH   1  19
ATOM     19  N   UNL A   1      36.649  31.189  32.562  1.00  0.00    -0.352 N 
ATOM     20  C   UNL A   1      36.723  30.304  31.514  1.00  0.00     0.251 C 
ATOM     21  H   UNL A   1      35.741  31.328  32.919  1.00  0.00     0.163 HD
ATOM     22  O   UNL A   1      35.675  29.870  31.034  1.00  0.00    -0.269 OA
BRANCH  20  23
ATOM     23  C   UNL A   1      38.022  29.885  30.937  1.00  0.00     0.039 A 
ATOM     24  C   UNL A   1      38.256  30.135  29.580  1.00  0.00     0.014 A 
ATOM     25  C   UNL A   1      38.991  29.211  31.687  1.00  0.00     0.014 A 
ATOM     26  C   UNL A   1      39.472  29.766  28.996  1.00  0.00     0.010 A 
ATOM     27  C   UNL A   1      40.232  28.906  31.121  1.00  0.00     0.010 A 
ATOM     28  C   UNL A   1      40.486  29.176  29.769  1.00  0.00    -0.014 A 
BRANCH  28  29
ATOM     29  C   UNL A   1      41.809  28.854  29.168  1.00  0.00     0.031 A 
ATOM     30  C   UNL A   1      42.883  29.905  29.057  1.00  0.00     0.074 A 
ATOM     31  C   UNL A   1      42.035  27.616  28.687  1.00  0.00     0.049 A 
ATOM     32  N   UNL A   1      44.090  29.802  28.561  1.00  0.00    -0.248 NA
ATOM     33  C   UNL A   1      42.550  31.253  29.544  1.00  0.00     0.031 C 
ATOM     34  C   UNL A   1      41.060  26.522  28.679  1.00  0.00     0.029 A 
ATOM     35  N   UNL A   1      43.152  27.065  28.111  1.00  0.00    -0.354 N 
ATOM     36  C   UNL A   1      44.657  31.067  28.666  1.00  0.00     0.074 A 
ATOM     37  C   UNL A   1      43.642  31.934  29.227  1.00  0.00     0.031 C 
ATOM     38  C   UNL A   1      41.631  25.426  28.154  1.00  0.00     0.029 A 
ATOM     39  C   UNL A   1      43.000  25.743  27.762  1.00  0.00     0.049 A 
ATOM     40  H   UNL A   1      43.984  27.568  27.962  1.00  0.00     0.167 HD
ATOM     41  C   UNL A   1      45.912  31.467  28.349  1.00  0.00     0.037 A 
ATOM     42  C   UNL A   1      43.866  24.880  27.195  1.00  0.00     0.037 A 
ATOM     43  C   UNL A   1      46.929  30.597  27.813  1.00  0.00     0.049 A 
ATOM     44  C   UNL A   1      45.262  25.339  26.877  1.00  0.00     0.074 A 
ATOM     45  C   UNL A   1      48.247  30.897  27.512  1.00  0.00     0.029 A 
ATOM     46  N   UNL A   1      46.745  29.259  27.501  1.00  0.00    -0.354 N 
ATOM     47  N   UNL A   1      45.799  26.523  27.045  1.00  0.00    -0.248 NA
ATOM     48  C   UNL A   1      46.175  24.339  26.307  1.00  0.00     0.031 C 
ATOM     49  C   UNL A   1      48.850  29.748  26.984  1.00  0.00     0.029 A 
ATOM     50  C   UNL A   1      47.920  28.722  26.998  1.00  0.00     0.049 A 
ATOM     51  H   UNL A   1      45.903  28.763  27.619  1.00  0.00     0.167 HD
ATOM     52  C   UNL A   1      47.120  26.406  26.625  1.00  0.00     0.074 A 
ATOM     53  C   UNL A   1      47.303  25.030  26.210  1.00  0.00     0.031 C 
ATOM     54  C   UNL A   1      48.091  27.351  26.589  1.00  0.00     0.037 A 
BRANCH  41  55
ATOM     55  C   UNL A   1      46.261  32.912  28.579  1.00  0.00     0.058 A 
ATOM     56  C   UNL A   1      46.072  33.883  27.581  1.00  0.00     0.135 A 
ATOM     57  C   UNL A   1      46.757  33.341  29.821  1.00  0.00     0.135 A 
ATOM     58  F   UNL A   1      45.613  33.527  26.371  1.00  0.00    -0.206 F 
ATOM     59  C   UNL A   1      46.391  35.220  27.795  1.00  0.00     0.059 A 
ATOM     60  C   UNL A   1      47.058  34.679  30.066  1.00  0.00     0.059 A 
ATOM     61  F   UNL A   1      46.955  32.458  30.812  1.00  0.00    -0.206 F 
ATOM     62  C   UNL A   1      46.886  35.607  29.041  1.00  0.00     0.060 A 
BRANCH  62  63
ATOM     63  S   UNL A   1      47.297  37.346  29.305  1.00  0.00     0.124 S 
ATOM     64  O   UNL A   1      48.528  37.475  28.530  1.00  0.00    -0.237 OA
ATOM     65  O   UNL A   1      46.130  38.030  28.752  1.00  0.00    -0.237 OA
ATOM     66  O   UNL A   1      47.450  37.444  30.750  1.00  0.00    -0.744 OA
ENDBRANCH  62  63
ENDBRANCH  41  55
BRANCH  42  67
ATOM     67  C   UNL A   1      43.446  23.480  26.926  1.00  0.00     0.058 A 
ATOM     68  C   UNL A   1      43.199  23.040  25.617  1.00  0.00     0.135 A 
ATOM     69  C   UNL A   1      43.298  22.551  27.967  1.00  0.00     0.135 A 
ATOM     70  F   UNL A   1      43.322  23.894  24.589  1.00  0.00    -0.206 F 
ATOM     71  C   UNL A   1      42.805  21.733  25.349  1.00  0.00     0.059 A 
ATOM     72  C   UNL A   1      42.928  21.232  27.722  1.00  0.00     0.059 A 
ATOM     73  F   UNL A   1      43.540  22.918  29.235  1.00  0.00    -0.206 F 
ATOM     74  C   UNL A   1      42.675  20.835  26.409  1.00  0.00     0.060 A 
BRANCH  74  75
ATOM     75  S   UNL A   1      42.215  19.126  26.048  1.00  0.00     0.124 S 
ATOM     76  O   UNL A   1      42.506  18.469  27.317  1.00  0.00    -0.237 OA
ATOM     77  O   UNL A   1      40.802  19.254  25.703  1.00  0.00    -0.237 OA
ATOM     78  O   UNL A   1      43.093  18.773  24.937  1.00  0.00    -0.744 OA
ENDBRANCH  74  75
ENDBRANCH  42  67
BRANCH  54  79
ATOM     79  C   UNL A   1      49.451  26.918  26.112  1.00  0.00     0.058 A 
ATOM     80  C   UNL A   1      50.396  26.359  26.987  1.00  0.00     0.135 A 
ATOM     81  C   UNL A   1      49.805  27.048  24.760  1.00  0.00     0.135 A 
ATOM     82  F   UNL A   1      50.109  26.217  28.290  1.00  0.00    -0.206 F 
ATOM     83  C   UNL A   1      51.659  25.979  26.545  1.00  0.00     0.059 A 
ATOM     84  C   UNL A   1      51.053  26.650  24.290  1.00  0.00     0.059 A 
ATOM     85  F   UNL A   1      48.934  27.565  23.879  1.00  0.00    -0.206 F 
ATOM     86  C   UNL A   1      51.980  26.134  25.194  1.00  0.00     0.060 A 
BRANCH  86  87
ATOM     87  S   UNL A   1      53.620  25.635  24.629  1.00  0.00     0.124 S 
ATOM     88  O   UNL A   1      53.588  26.053  23.231  1.00  0.00    -0.237 OA
ATOM     89  O   UNL A   1      54.503  26.404  25.501  1.00  0.00    -0.237 OA
ATOM     90  O   UNL A   1      53.631  24.192  24.853  1.00  0.00    -0.744 OA
ENDBRANCH  86  87
ENDBRANCH  54  79
ENDBRANCH  28  29
ENDBRANCH  20  23
ENDBRANCH   1  19
TORSDOF 14
ENDMDL
