MODEL 1
REMARK VINA RESULT:     -13.5      0.000      0.000
REMARK SMILES COc1cc2c(CC(=O)NCCCNC(=O)c3ccc(-c4c5nc(c(-c6c(F)cc(S(=O)(=O)[O-])cc6F)c6ccc([nH]6)c(-c6c(F)cc(S(=O)(=O)[O-])cc6F)c6nc(c(-c7c(F)cc(S(=O)(=O)[O-])cc7F)c7ccc4[nH]7)C=C6)C=C5)cc3)c(C)n(C(=O)c3ccc(Cl)cc3)c2cc1Cl
REMARK SMILES IDX 12 1 11 2 10 3 8 4 9 5 7 7 6 8 3 9 4 10 97 11 5 12 96 13
REMARK SMILES IDX 98 14 95 15 83 16 85 17 84 18 2 19 1 20 86 21 87 22 88 23
REMARK SMILES IDX 89 24 94 25 90 26 93 27 91 28 92 29 13 30 14 31 15 32 16 34
REMARK SMILES IDX 17 35 18 36 82 37 19 38 81 39 20 40 21 41 22 42 75 43 23 44
REMARK SMILES IDX 80 45 74 46 76 47 24 48 79 49 73 50 72 51 25 53 59 54 38 55
REMARK SMILES IDX 58 56 39 57 42 58 57 59 77 60 40 61 41 62 56 64 78 65 43 66
REMARK SMILES IDX 26 67 27 68 36 69 28 70 29 71 35 72 37 73 30 74 31 75 32 76
REMARK SMILES IDX 33 77 34 78 60 79 61 80 70 81 62 82 63 83 69 84 71 85 64 86
REMARK SMILES IDX 65 87 66 88 67 89 68 90 44 91 45 92 54 93 46 94 47 95 53 96
REMARK SMILES IDX 55 97 48 98 49 99 50 100 51 101 52 102
REMARK H PARENT 10 6 14 33 76 52 42 63
REMARK Flexibility Score: inf
ROOT
ATOM      1  C   UNL A   1      32.046  29.040  27.341  1.00  0.00     0.042 C 
ENDROOT
BRANCH   1   2
ATOM      2  C   UNL A   1      31.496  28.071  26.293  1.00  0.00     0.117 C 
BRANCH   2   3
ATOM      3  N   UNL A   1      31.297  26.733  26.821  1.00  0.00    -0.356 N 
ATOM      4  C   UNL A   1      31.995  25.589  26.565  1.00  0.00     0.224 C 
ATOM      5  O   UNL A   1      31.642  24.554  27.137  1.00  0.00    -0.275 OA
ATOM      6  H   UNL A   1      30.550  26.637  27.456  1.00  0.00     0.163 HD
BRANCH   4   7
ATOM      7  C   UNL A   1      33.203  25.611  25.647  1.00  0.00     0.138 C 
BRANCH   7   8
ATOM      8  C   UNL A   1      33.499  24.289  25.002  1.00  0.00    -0.009 A 
ATOM      9  C   UNL A   1      36.948  22.779  25.754  1.00  0.00     0.138 A 
ATOM     10  C   UNL A   1      35.894  23.702  25.855  1.00  0.00     0.058 A 
ATOM     11  C   UNL A   1      36.816  21.689  24.898  1.00  0.00     0.085 A 
ATOM     12  C   UNL A   1      34.693  23.523  25.129  1.00  0.00     0.008 A 
ATOM     13  C   UNL A   1      35.652  21.520  24.136  1.00  0.00     0.051 A 
ATOM     14  Cl  UNL A   1      37.982  20.416  24.770  1.00  0.00    -0.080 Cl
ATOM     15  C   UNL A   1      34.563  22.398  24.309  1.00  0.00     0.058 A 
ATOM     16  C   UNL A   1      32.676  23.612  24.109  1.00  0.00     0.028 A 
ATOM     17  N   UNL A   1      33.235  22.353  23.859  1.00  0.00    -0.280 N 
ATOM     18  C   UNL A   1      31.372  24.069  23.530  1.00  0.00     0.065 C 
BRANCH   9  19
ATOM     19  O   UNL A   1      37.990  23.037  26.608  1.00  0.00    -0.495 OA
ATOM     20  C   UNL A   1      38.564  24.334  26.516  1.00  0.00     0.278 C 
ENDBRANCH   9  19
BRANCH  17  21
ATOM     21  C   UNL A   1      32.553  21.230  23.306  1.00  0.00     0.262 C 
ATOM     22  O   UNL A   1      31.890  21.398  22.288  1.00  0.00    -0.268 OA
BRANCH  21  23
ATOM     23  C   UNL A   1      32.537  19.882  23.898  1.00  0.00     0.040 A 
ATOM     24  C   UNL A   1      32.583  19.721  25.288  1.00  0.00     0.015 A 
ATOM     25  C   UNL A   1      32.549  18.774  23.046  1.00  0.00     0.015 A 
ATOM     26  C   UNL A   1      32.740  18.440  25.823  1.00  0.00     0.021 A 
ATOM     27  C   UNL A   1      32.697  17.495  23.587  1.00  0.00     0.021 A 
ATOM     28  C   UNL A   1      32.816  17.337  24.970  1.00  0.00     0.041 A 
ATOM     29  Cl  UNL A   1      33.094  15.770  25.627  1.00  0.00    -0.084 Cl
ENDBRANCH  21  23
ENDBRANCH  17  21
ENDBRANCH   7   8
ENDBRANCH   4   7
ENDBRANCH   2   3
ENDBRANCH   1   2
BRANCH   1  30
ATOM     30  C   UNL A   1      33.477  29.507  27.064  1.00  0.00     0.118 C 
BRANCH  30  31
ATOM     31  N   UNL A   1      33.730  30.887  27.427  1.00  0.00    -0.352 N 
ATOM     32  C   UNL A   1      34.808  31.592  27.888  1.00  0.00     0.251 C 
ATOM     33  H   UNL A   1      32.934  31.456  27.313  1.00  0.00     0.163 HD
ATOM     34  O   UNL A   1      34.637  32.810  27.997  1.00  0.00    -0.269 OA
BRANCH  32  35
ATOM     35  C   UNL A   1      36.120  31.011  28.294  1.00  0.00     0.039 A 
ATOM     36  C   UNL A   1      37.207  31.724  28.797  1.00  0.00     0.014 A 
ATOM     37  C   UNL A   1      36.263  29.621  28.107  1.00  0.00     0.014 A 
ATOM     38  C   UNL A   1      38.424  31.085  29.033  1.00  0.00     0.010 A 
ATOM     39  C   UNL A   1      37.471  28.975  28.359  1.00  0.00     0.010 A 
ATOM     40  C   UNL A   1      38.568  29.717  28.786  1.00  0.00    -0.014 A 
BRANCH  40  41
ATOM     41  C   UNL A   1      39.877  29.110  29.035  1.00  0.00     0.031 A 
ATOM     42  C   UNL A   1      40.318  29.050  30.460  1.00  0.00     0.074 A 
ATOM     43  C   UNL A   1      40.628  28.533  28.077  1.00  0.00     0.049 A 
ATOM     44  N   UNL A   1      41.345  29.612  31.014  1.00  0.00    -0.248 NA
ATOM     45  C   UNL A   1      39.459  28.318  31.401  1.00  0.00     0.031 C 
ATOM     46  C   UNL A   1      40.257  28.225  26.694  1.00  0.00     0.029 A 
ATOM     47  N   UNL A   1      41.887  28.015  28.182  1.00  0.00    -0.354 N 
ATOM     48  C   UNL A   1      41.368  29.164  32.336  1.00  0.00     0.074 A 
ATOM     49  C   UNL A   1      40.126  28.466  32.547  1.00  0.00     0.031 C 
ATOM     50  C   UNL A   1      41.182  27.397  26.158  1.00  0.00     0.029 A 
ATOM     51  C   UNL A   1      42.274  27.235  27.104  1.00  0.00     0.049 A 
ATOM     52  H   UNL A   1      42.470  28.181  28.959  1.00  0.00     0.167 HD
ATOM     53  C   UNL A   1      42.477  29.252  33.124  1.00  0.00     0.037 A 
ATOM     54  C   UNL A   1      43.387  26.466  27.014  1.00  0.00     0.037 A 
ATOM     55  C   UNL A   1      43.437  30.186  32.600  1.00  0.00     0.049 A 
ATOM     56  C   UNL A   1      44.368  26.984  27.999  1.00  0.00     0.074 A 
ATOM     57  C   UNL A   1      43.440  31.544  32.348  1.00  0.00     0.029 A 
ATOM     58  N   UNL A   1      44.543  29.688  31.958  1.00  0.00    -0.354 N 
ATOM     59  N   UNL A   1      44.952  28.149  27.916  1.00  0.00    -0.248 NA
ATOM     60  C   UNL A   1      44.424  26.355  29.309  1.00  0.00     0.031 C 
ATOM     61  C   UNL A   1      44.256  31.705  31.191  1.00  0.00     0.029 A 
ATOM     62  C   UNL A   1      44.718  30.440  30.825  1.00  0.00     0.049 A 
ATOM     63  H   UNL A   1      45.103  28.934  32.254  1.00  0.00     0.167 HD
ATOM     64  C   UNL A   1      45.095  28.574  29.228  1.00  0.00     0.074 A 
ATOM     65  C   UNL A   1      44.855  27.386  30.039  1.00  0.00     0.031 C 
ATOM     66  C   UNL A   1      45.132  29.902  29.546  1.00  0.00     0.037 A 
BRANCH  53  67
ATOM     67  C   UNL A   1      42.833  28.277  34.222  1.00  0.00     0.058 A 
ATOM     68  C   UNL A   1      42.963  28.730  35.553  1.00  0.00     0.135 A 
ATOM     69  C   UNL A   1      43.326  26.977  33.972  1.00  0.00     0.135 A 
ATOM     70  F   UNL A   1      42.535  29.953  35.904  1.00  0.00    -0.206 F 
ATOM     71  C   UNL A   1      43.601  27.978  36.541  1.00  0.00     0.059 A 
ATOM     72  C   UNL A   1      43.918  26.191  34.954  1.00  0.00     0.059 A 
ATOM     73  F   UNL A   1      43.345  26.454  32.739  1.00  0.00    -0.206 F 
ATOM     74  C   UNL A   1      44.094  26.716  36.223  1.00  0.00     0.060 A 
BRANCH  74  75
ATOM     75  S   UNL A   1      45.046  25.803  37.453  1.00  0.00     0.124 S 
ATOM     76  O   UNL A   1      46.269  26.595  37.518  1.00  0.00    -0.237 OA
ATOM     77  O   UNL A   1      44.177  25.872  38.624  1.00  0.00    -0.237 OA
ATOM     78  O   UNL A   1      45.181  24.478  36.856  1.00  0.00    -0.744 OA
ENDBRANCH  74  75
ENDBRANCH  53  67
BRANCH  54  79
ATOM     79  C   UNL A   1      43.527  25.146  26.348  1.00  0.00     0.058 A 
ATOM     80  C   UNL A   1      44.462  24.936  25.319  1.00  0.00     0.135 A 
ATOM     81  C   UNL A   1      42.929  23.988  26.887  1.00  0.00     0.135 A 
ATOM     82  F   UNL A   1      45.104  25.977  24.767  1.00  0.00    -0.206 F 
ATOM     83  C   UNL A   1      44.809  23.654  24.876  1.00  0.00     0.059 A 
ATOM     84  C   UNL A   1      43.248  22.703  26.454  1.00  0.00     0.059 A 
ATOM     85  F   UNL A   1      42.078  24.067  27.922  1.00  0.00    -0.206 F 
ATOM     86  C   UNL A   1      44.208  22.542  25.464  1.00  0.00     0.060 A 
BRANCH  86  87
ATOM     87  S   UNL A   1      44.765  20.884  25.006  1.00  0.00     0.124 S 
ATOM     88  O   UNL A   1      46.129  20.870  25.522  1.00  0.00    -0.237 OA
ATOM     89  O   UNL A   1      43.807  20.035  25.707  1.00  0.00    -0.237 OA
ATOM     90  O   UNL A   1      44.650  20.877  23.549  1.00  0.00    -0.744 OA
ENDBRANCH  86  87
ENDBRANCH  54  79
BRANCH  66  91
ATOM     91  C   UNL A   1      45.335  30.903  28.440  1.00  0.00     0.058 A 
ATOM     92  C   UNL A   1      44.300  31.377  27.616  1.00  0.00     0.135 A 
ATOM     93  C   UNL A   1      46.576  31.552  28.350  1.00  0.00     0.135 A 
ATOM     94  F   UNL A   1      43.061  30.873  27.709  1.00  0.00    -0.206 F 
ATOM     95  C   UNL A   1      44.494  32.441  26.731  1.00  0.00     0.059 A 
ATOM     96  C   UNL A   1      46.785  32.631  27.495  1.00  0.00     0.059 A 
ATOM     97  F   UNL A   1      47.587  31.184  29.154  1.00  0.00    -0.206 F 
ATOM     98  C   UNL A   1      45.739  33.070  26.687  1.00  0.00     0.060 A 
BRANCH  98  99
ATOM     99  S   UNL A   1      45.950  34.526  25.637  1.00  0.00     0.124 S 
ATOM    100  O   UNL A   1      47.380  34.495  25.349  1.00  0.00    -0.237 OA
ATOM    101  O   UNL A   1      45.069  34.238  24.510  1.00  0.00    -0.237 OA
ATOM    102  O   UNL A   1      45.509  35.630  26.489  1.00  0.00    -0.744 OA
ENDBRANCH  98  99
ENDBRANCH  66  91
ENDBRANCH  40  41
ENDBRANCH  32  35
ENDBRANCH  30  31
ENDBRANCH   1  30
TORSDOF 17
ENDMDL
MODEL 2
REMARK VINA RESULT:     -12.9      1.305      2.120
REMARK SMILES COc1cc2c(CC(=O)NCCCNC(=O)c3ccc(-c4c5nc(c(-c6c(F)cc(S(=O)(=O)[O-])cc6F)c6ccc([nH]6)c(-c6c(F)cc(S(=O)(=O)[O-])cc6F)c6nc(c(-c7c(F)cc(S(=O)(=O)[O-])cc7F)c7ccc4[nH]7)C=C6)C=C5)cc3)c(C)n(C(=O)c3ccc(Cl)cc3)c2cc1Cl
REMARK SMILES IDX 12 1 11 2 10 3 8 4 9 5 7 7 6 8 3 9 4 10 97 11 5 12 96 13
REMARK SMILES IDX 98 14 95 15 83 16 85 17 84 18 2 19 1 20 86 21 87 22 88 23
REMARK SMILES IDX 89 24 94 25 90 26 93 27 91 28 92 29 13 30 14 31 15 32 16 34
REMARK SMILES IDX 17 35 18 36 82 37 19 38 81 39 20 40 21 41 22 42 75 43 23 44
REMARK SMILES IDX 80 45 74 46 76 47 24 48 79 49 73 50 72 51 25 53 59 54 38 55
REMARK SMILES IDX 58 56 39 57 42 58 57 59 77 60 40 61 41 62 56 64 78 65 43 66
REMARK SMILES IDX 26 67 27 68 36 69 28 70 29 71 35 72 37 73 30 74 31 75 32 76
REMARK SMILES IDX 33 77 34 78 60 79 61 80 70 81 62 82 63 83 69 84 71 85 64 86
REMARK SMILES IDX 65 87 66 88 67 89 68 90 44 91 45 92 54 93 46 94 47 95 53 96
REMARK SMILES IDX 55 97 48 98 49 99 50 100 51 101 52 102
REMARK H PARENT 10 6 14 33 76 52 42 63
REMARK Flexibility Score: inf
ROOT
ATOM      1  C   UNL A   1      32.482  29.070  26.969  1.00  0.00     0.042 C 
ENDROOT
BRANCH   1   2
ATOM      2  C   UNL A   1      32.209  28.161  25.769  1.00  0.00     0.117 C 
BRANCH   2   3
ATOM      3  N   UNL A   1      31.132  27.218  26.017  1.00  0.00    -0.356 N 
ATOM      4  C   UNL A   1      31.192  25.936  26.478  1.00  0.00     0.224 C 
ATOM      5  O   UNL A   1      30.133  25.318  26.614  1.00  0.00    -0.275 OA
ATOM      6  H   UNL A   1      30.226  27.555  25.825  1.00  0.00     0.163 HD
BRANCH   4   7
ATOM      7  C   UNL A   1      32.524  25.317  26.863  1.00  0.00     0.138 C 
BRANCH   7   8
ATOM      8  C   UNL A   1      32.953  24.195  25.964  1.00  0.00    -0.009 A 
ATOM      9  C   UNL A   1      32.725  24.876  22.192  1.00  0.00     0.138 A 
ATOM     10  C   UNL A   1      32.651  25.171  23.563  1.00  0.00     0.058 A 
ATOM     11  C   UNL A   1      33.088  23.592  21.794  1.00  0.00     0.085 A 
ATOM     12  C   UNL A   1      32.971  24.199  24.540  1.00  0.00     0.008 A 
ATOM     13  C   UNL A   1      33.365  22.603  22.747  1.00  0.00     0.051 A 
ATOM     14  Cl  UNL A   1      33.335  23.127  20.145  1.00  0.00    -0.080 Cl
ATOM     15  C   UNL A   1      33.377  22.930  24.118  1.00  0.00     0.058 A 
ATOM     16  C   UNL A   1      33.346  22.925  26.371  1.00  0.00     0.028 A 
ATOM     17  N   UNL A   1      33.813  22.226  25.251  1.00  0.00    -0.280 N 
ATOM     18  C   UNL A   1      33.354  22.363  27.760  1.00  0.00     0.065 C 
BRANCH   9  19
ATOM     19  O   UNL A   1      32.495  25.957  21.382  1.00  0.00    -0.495 OA
ATOM     20  C   UNL A   1      32.736  27.233  21.962  1.00  0.00     0.278 C 
ENDBRANCH   9  19
BRANCH  17  21
ATOM     21  C   UNL A   1      34.628  21.056  25.276  1.00  0.00     0.262 C 
ATOM     22  O   UNL A   1      35.836  21.195  25.437  1.00  0.00    -0.268 OA
BRANCH  21  23
ATOM     23  C   UNL A   1      34.135  19.685  25.067  1.00  0.00     0.040 A 
ATOM     24  C   UNL A   1      32.829  19.341  25.435  1.00  0.00     0.015 A 
ATOM     25  C   UNL A   1      35.017  18.724  24.565  1.00  0.00     0.015 A 
ATOM     26  C   UNL A   1      32.436  18.001  25.388  1.00  0.00     0.021 A 
ATOM     27  C   UNL A   1      34.615  17.387  24.512  1.00  0.00     0.021 A 
ATOM     28  C   UNL A   1      33.337  17.029  24.946  1.00  0.00     0.041 A 
ATOM     29  Cl  UNL A   1      32.879  15.370  24.971  1.00  0.00    -0.084 Cl
ENDBRANCH  21  23
ENDBRANCH  17  21
ENDBRANCH   7   8
ENDBRANCH   4   7
ENDBRANCH   2   3
ENDBRANCH   1   2
BRANCH   1  30
ATOM     30  C   UNL A   1      33.505  30.174  26.690  1.00  0.00     0.118 C 
BRANCH  30  31
ATOM     31  N   UNL A   1      33.682  31.108  27.784  1.00  0.00    -0.352 N 
ATOM     32  C   UNL A   1      34.717  31.465  28.604  1.00  0.00     0.251 C 
ATOM     33  H   UNL A   1      32.857  31.607  27.986  1.00  0.00     0.163 HD
ATOM     34  O   UNL A   1      34.479  32.395  29.381  1.00  0.00    -0.269 OA
BRANCH  32  35
ATOM     35  C   UNL A   1      36.055  30.811  28.654  1.00  0.00     0.039 A 
ATOM     36  C   UNL A   1      36.307  29.454  28.456  1.00  0.00     0.014 A 
ATOM     37  C   UNL A   1      37.141  31.652  28.970  1.00  0.00     0.014 A 
ATOM     38  C   UNL A   1      37.590  28.939  28.642  1.00  0.00     0.010 A 
ATOM     39  C   UNL A   1      38.427  31.145  29.139  1.00  0.00     0.010 A 
ATOM     40  C   UNL A   1      38.645  29.776  29.014  1.00  0.00    -0.014 A 
BRANCH  40  41
ATOM     41  C   UNL A   1      39.963  29.170  29.214  1.00  0.00     0.031 A 
ATOM     42  C   UNL A   1      40.457  29.108  30.622  1.00  0.00     0.074 A 
ATOM     43  C   UNL A   1      40.679  28.594  28.228  1.00  0.00     0.049 A 
ATOM     44  N   UNL A   1      41.503  29.671  31.138  1.00  0.00    -0.248 NA
ATOM     45  C   UNL A   1      39.633  28.375  31.593  1.00  0.00     0.031 C 
ATOM     46  C   UNL A   1      40.257  28.287  26.860  1.00  0.00     0.029 A 
ATOM     47  N   UNL A   1      41.940  28.077  28.286  1.00  0.00    -0.354 N 
ATOM     48  C   UNL A   1      41.575  29.221  32.457  1.00  0.00     0.074 A 
ATOM     49  C   UNL A   1      40.341  28.522  32.713  1.00  0.00     0.031 C 
ATOM     50  C   UNL A   1      41.162  27.460  26.289  1.00  0.00     0.029 A 
ATOM     51  C   UNL A   1      42.288  27.298  27.193  1.00  0.00     0.049 A 
ATOM     52  H   UNL A   1      42.552  28.243  29.041  1.00  0.00     0.167 HD
ATOM     53  C   UNL A   1      42.712  29.309  33.204  1.00  0.00     0.037 A 
ATOM     54  C   UNL A   1      43.397  26.530  27.061  1.00  0.00     0.037 A 
ATOM     55  C   UNL A   1      43.652  30.244  32.646  1.00  0.00     0.049 A 
ATOM     56  C   UNL A   1      44.414  27.047  28.011  1.00  0.00     0.074 A 
ATOM     57  C   UNL A   1      43.644  31.602  32.396  1.00  0.00     0.029 A 
ATOM     58  N   UNL A   1      44.733  29.747  31.963  1.00  0.00    -0.354 N 
ATOM     59  N   UNL A   1      44.994  28.213  27.907  1.00  0.00    -0.248 NA
ATOM     60  C   UNL A   1      44.519  26.417  29.317  1.00  0.00     0.031 C 
ATOM     61  C   UNL A   1      44.417  31.765  31.210  1.00  0.00     0.029 A 
ATOM     62  C   UNL A   1      44.866  30.500  30.825  1.00  0.00     0.049 A 
ATOM     63  H   UNL A   1      45.304  28.994  32.237  1.00  0.00     0.167 HD
ATOM     64  C   UNL A   1      45.185  28.636  29.213  1.00  0.00     0.074 A 
ATOM     65  C   UNL A   1      44.975  27.448  30.032  1.00  0.00     0.031 C 
ATOM     66  C   UNL A   1      45.233  29.964  29.532  1.00  0.00     0.037 A 
BRANCH  53  67
ATOM     67  C   UNL A   1      43.109  28.333  34.288  1.00  0.00     0.058 A 
ATOM     68  C   UNL A   1      43.366  28.797  35.596  1.00  0.00     0.135 A 
ATOM     69  C   UNL A   1      43.519  27.008  34.021  1.00  0.00     0.135 A 
ATOM     70  F   UNL A   1      43.024  30.044  35.959  1.00  0.00    -0.206 F 
ATOM     71  C   UNL A   1      44.045  28.029  36.543  1.00  0.00     0.059 A 
ATOM     72  C   UNL A   1      44.151  26.207  34.967  1.00  0.00     0.059 A 
ATOM     73  F   UNL A   1      43.416  26.468  32.800  1.00  0.00    -0.206 F 
ATOM     74  C   UNL A   1      44.452  26.741  36.209  1.00  0.00     0.060 A 
BRANCH  74  75
ATOM     75  S   UNL A   1      45.455  25.800  37.375  1.00  0.00     0.124 S 
ATOM     76  O   UNL A   1      44.478  24.849  37.894  1.00  0.00    -0.237 OA
ATOM     77  O   UNL A   1      46.490  25.245  36.509  1.00  0.00    -0.237 OA
ATOM     78  O   UNL A   1      45.912  26.815  38.319  1.00  0.00    -0.744 OA
ENDBRANCH  74  75
ENDBRANCH  53  67
BRANCH  54  79
ATOM     79  C   UNL A   1      43.514  25.211  26.389  1.00  0.00     0.058 A 
ATOM     80  C   UNL A   1      44.412  25.002  25.328  1.00  0.00     0.135 A 
ATOM     81  C   UNL A   1      42.934  24.052  26.948  1.00  0.00     0.135 A 
ATOM     82  F   UNL A   1      45.035  26.043  24.756  1.00  0.00    -0.206 F 
ATOM     83  C   UNL A   1      44.742  23.720  24.872  1.00  0.00     0.059 A 
ATOM     84  C   UNL A   1      43.237  22.767  26.503  1.00  0.00     0.059 A 
ATOM     85  F   UNL A   1      42.119  24.130  28.011  1.00  0.00    -0.206 F 
ATOM     86  C   UNL A   1      44.161  22.607  25.479  1.00  0.00     0.060 A 
BRANCH  86  87
ATOM     87  S   UNL A   1      44.701  20.950  25.000  1.00  0.00     0.124 S 
ATOM     88  O   UNL A   1      46.069  20.919  25.506  1.00  0.00    -0.237 OA
ATOM     89  O   UNL A   1      43.742  20.102  25.699  1.00  0.00    -0.237 OA
ATOM     90  O   UNL A   1      44.576  20.958  23.544  1.00  0.00    -0.744 OA
ENDBRANCH  86  87
ENDBRANCH  54  79
BRANCH  66  91
ATOM     91  C   UNL A   1      45.394  30.966  28.420  1.00  0.00     0.058 A 
ATOM     92  C   UNL A   1      44.325  31.464  27.655  1.00  0.00     0.135 A 
ATOM     93  C   UNL A   1      46.641  31.592  28.264  1.00  0.00     0.135 A 
ATOM     94  F   UNL A   1      43.084  30.983  27.814  1.00  0.00    -0.206 F 
ATOM     95  C   UNL A   1      44.491  32.528  26.765  1.00  0.00     0.059 A 
ATOM     96  C   UNL A   1      46.824  32.671  27.403  1.00  0.00     0.059 A 
ATOM     97  F   UNL A   1      47.687  31.201  29.010  1.00  0.00    -0.206 F 
ATOM     98  C   UNL A   1      45.743  33.134  26.655  1.00  0.00     0.060 A 
BRANCH  98  99
ATOM     99  S   UNL A   1      45.925  34.591  25.601  1.00  0.00     0.124 S 
ATOM    100  O   UNL A   1      45.453  35.663  26.470  1.00  0.00    -0.237 OA
ATOM    101  O   UNL A   1      47.354  34.595  25.305  1.00  0.00    -0.237 OA
ATOM    102  O   UNL A   1      45.067  34.294  24.455  1.00  0.00    -0.744 OA
ENDBRANCH  98  99
ENDBRANCH  66  91
ENDBRANCH  40  41
ENDBRANCH  32  35
ENDBRANCH  30  31
ENDBRANCH   1  30
TORSDOF 17
ENDMDL
MODEL 3
REMARK VINA RESULT:     -12.4      2.428      3.988
REMARK SMILES COc1cc2c(CC(=O)NCCCNC(=O)c3ccc(-c4c5nc(c(-c6c(F)cc(S(=O)(=O)[O-])cc6F)c6ccc([nH]6)c(-c6c(F)cc(S(=O)(=O)[O-])cc6F)c6nc(c(-c7c(F)cc(S(=O)(=O)[O-])cc7F)c7ccc4[nH]7)C=C6)C=C5)cc3)c(C)n(C(=O)c3ccc(Cl)cc3)c2cc1Cl
REMARK SMILES IDX 12 1 11 2 10 3 8 4 9 5 7 7 6 8 3 9 4 10 97 11 5 12 96 13
REMARK SMILES IDX 98 14 95 15 83 16 85 17 84 18 2 19 1 20 86 21 87 22 88 23
REMARK SMILES IDX 89 24 94 25 90 26 93 27 91 28 92 29 13 30 14 31 15 32 16 34
REMARK SMILES IDX 17 35 18 36 82 37 19 38 81 39 20 40 21 41 22 42 75 43 23 44
REMARK SMILES IDX 80 45 74 46 76 47 24 48 79 49 73 50 72 51 25 53 59 54 38 55
REMARK SMILES IDX 58 56 39 57 42 58 57 59 77 60 40 61 41 62 56 64 78 65 43 66
REMARK SMILES IDX 26 67 27 68 36 69 28 70 29 71 35 72 37 73 30 74 31 75 32 76
REMARK SMILES IDX 33 77 34 78 60 79 61 80 70 81 62 82 63 83 69 84 71 85 64 86
REMARK SMILES IDX 65 87 66 88 67 89 68 90 44 91 45 92 54 93 46 94 47 95 53 96
REMARK SMILES IDX 55 97 48 98 49 99 50 100 51 101 52 102
REMARK H PARENT 10 6 14 33 76 52 42 63
REMARK Flexibility Score: inf
ROOT
ATOM      1  C   UNL A   1      35.856  31.844  28.298  1.00  0.00     0.042 C 
ENDROOT
BRANCH   1   2
ATOM      2  C   UNL A   1      35.798  30.464  27.641  1.00  0.00     0.117 C 
BRANCH   2   3
ATOM      3  N   UNL A   1      34.610  29.717  28.017  1.00  0.00    -0.356 N 
ATOM      4  C   UNL A   1      33.755  28.998  27.234  1.00  0.00     0.224 C 
ATOM      5  O   UNL A   1      32.800  28.438  27.780  1.00  0.00    -0.275 OA
ATOM      6  H   UNL A   1      34.390  29.731  28.978  1.00  0.00     0.163 HD
BRANCH   4   7
ATOM      7  C   UNL A   1      34.011  28.851  25.745  1.00  0.00     0.138 C 
BRANCH   7   8
ATOM      8  C   UNL A   1      33.015  27.976  25.043  1.00  0.00    -0.009 A 
ATOM      9  C   UNL A   1      29.796  29.702  23.858  1.00  0.00     0.138 A 
ATOM     10  C   UNL A   1      31.079  29.612  24.422  1.00  0.00     0.058 A 
ATOM     11  C   UNL A   1      29.172  28.543  23.404  1.00  0.00     0.085 A 
ATOM     12  C   UNL A   1      31.757  28.374  24.504  1.00  0.00     0.008 A 
ATOM     13  C   UNL A   1      29.810  27.300  23.518  1.00  0.00     0.051 A 
ATOM     14  Cl  UNL A   1      27.650  28.525  22.580  1.00  0.00    -0.080 Cl
ATOM     15  C   UNL A   1      31.132  27.229  24.002  1.00  0.00     0.058 A 
ATOM     16  C   UNL A   1      33.121  26.603  24.855  1.00  0.00     0.028 A 
ATOM     17  N   UNL A   1      32.071  26.186  24.027  1.00  0.00    -0.280 N 
ATOM     18  C   UNL A   1      34.185  25.682  25.370  1.00  0.00     0.065 C 
BRANCH   9  19
ATOM     19  O   UNL A   1      29.330  30.986  23.749  1.00  0.00    -0.495 OA
ATOM     20  C   UNL A   1      29.015  31.426  22.434  1.00  0.00     0.278 C 
ENDBRANCH   9  19
BRANCH  17  21
ATOM     21  C   UNL A   1      32.013  24.959  23.305  1.00  0.00     0.262 C 
ATOM     22  O   UNL A   1      31.695  24.997  22.121  1.00  0.00    -0.268 OA
BRANCH  21  23
ATOM     23  C   UNL A   1      32.254  23.629  23.889  1.00  0.00     0.040 A 
ATOM     24  C   UNL A   1      33.239  22.791  23.354  1.00  0.00     0.015 A 
ATOM     25  C   UNL A   1      31.434  23.197  24.936  1.00  0.00     0.015 A 
ATOM     26  C   UNL A   1      33.337  21.474  23.808  1.00  0.00     0.021 A 
ATOM     27  C   UNL A   1      31.543  21.881  25.392  1.00  0.00     0.021 A 
ATOM     28  C   UNL A   1      32.476  21.020  24.811  1.00  0.00     0.041 A 
ATOM     29  Cl  UNL A   1      32.542  19.373  25.309  1.00  0.00    -0.084 Cl
ENDBRANCH  21  23
ENDBRANCH  17  21
ENDBRANCH   7   8
ENDBRANCH   4   7
ENDBRANCH   2   3
ENDBRANCH   1   2
BRANCH   1  30
ATOM     30  C   UNL A   1      34.495  32.366  28.766  1.00  0.00     0.118 C 
BRANCH  30  31
ATOM     31  N   UNL A   1      34.332  32.391  30.206  1.00  0.00    -0.352 N 
ATOM     32  C   UNL A   1      35.103  32.039  31.280  1.00  0.00     0.251 C 
ATOM     33  H   UNL A   1      33.456  32.749  30.477  1.00  0.00     0.163 HD
ATOM     34  O   UNL A   1      34.622  32.306  32.385  1.00  0.00    -0.269 OA
BRANCH  32  35
ATOM     35  C   UNL A   1      36.420  31.346  31.218  1.00  0.00     0.039 A 
ATOM     36  C   UNL A   1      37.668  31.966  31.157  1.00  0.00     0.014 A 
ATOM     37  C   UNL A   1      36.374  29.937  31.179  1.00  0.00     0.014 A 
ATOM     38  C   UNL A   1      38.826  31.209  30.985  1.00  0.00     0.010 A 
ATOM     39  C   UNL A   1      37.530  29.176  31.026  1.00  0.00     0.010 A 
ATOM     40  C   UNL A   1      38.758  29.817  30.888  1.00  0.00    -0.014 A 
BRANCH  40  41
ATOM     41  C   UNL A   1      40.008  29.082  30.688  1.00  0.00     0.031 A 
ATOM     42  C   UNL A   1      40.932  29.015  31.860  1.00  0.00     0.074 A 
ATOM     43  C   UNL A   1      40.305  28.402  29.563  1.00  0.00     0.049 A 
ATOM     44  N   UNL A   1      42.136  29.481  31.970  1.00  0.00    -0.248 NA
ATOM     45  C   UNL A   1      40.414  28.404  33.092  1.00  0.00     0.031 C 
ATOM     46  C   UNL A   1      39.430  28.097  28.429  1.00  0.00     0.029 A 
ATOM     47  N   UNL A   1      41.464  27.758  29.242  1.00  0.00    -0.354 N 
ATOM     48  C   UNL A   1      42.599  29.070  33.221  1.00  0.00     0.074 A 
ATOM     49  C   UNL A   1      41.462  28.513  33.909  1.00  0.00     0.031 C 
ATOM     50  C   UNL A   1      40.019  27.161  27.651  1.00  0.00     0.029 A 
ATOM     51  C   UNL A   1      41.361  26.911  28.149  1.00  0.00     0.049 A 
ATOM     52  H   UNL A   1      42.302  27.883  29.744  1.00  0.00     0.167 HD
ATOM     53  C   UNL A   1      43.922  29.062  33.550  1.00  0.00     0.037 A 
ATOM     54  C   UNL A   1      42.292  26.027  27.714  1.00  0.00     0.037 A 
ATOM     55  C   UNL A   1      44.703  29.874  32.656  1.00  0.00     0.049 A 
ATOM     56  C   UNL A   1      43.607  26.465  28.245  1.00  0.00     0.074 A 
ATOM     57  C   UNL A   1      44.734  31.217  32.334  1.00  0.00     0.029 A 
ATOM     58  N   UNL A   1      45.450  29.244  31.693  1.00  0.00    -0.354 N 
ATOM     59  N   UNL A   1      44.220  27.560  27.882  1.00  0.00    -0.248 NA
ATOM     60  C   UNL A   1      44.081  25.870  29.484  1.00  0.00     0.031 C 
ATOM     61  C   UNL A   1      45.083  31.258  30.953  1.00  0.00     0.029 A 
ATOM     62  C   UNL A   1      45.266  29.942  30.527  1.00  0.00     0.049 A 
ATOM     63  H   UNL A   1      46.011  28.445  31.815  1.00  0.00     0.167 HD
ATOM     64  C   UNL A   1      44.869  28.003  29.025  1.00  0.00     0.074 A 
ATOM     65  C   UNL A   1      44.837  26.870  29.943  1.00  0.00     0.031 C 
ATOM     66  C   UNL A   1      45.137  29.328  29.223  1.00  0.00     0.037 A 
BRANCH  53  67
ATOM     67  C   UNL A   1      44.566  28.086  34.506  1.00  0.00     0.058 A 
ATOM     68  C   UNL A   1      44.657  26.719  34.164  1.00  0.00     0.135 A 
ATOM     69  C   UNL A   1      44.839  28.394  35.858  1.00  0.00     0.135 A 
ATOM     70  F   UNL A   1      44.412  26.310  32.909  1.00  0.00    -0.206 F 
ATOM     71  C   UNL A   1      44.925  25.727  35.109  1.00  0.00     0.059 A 
ATOM     72  C   UNL A   1      45.160  27.426  36.804  1.00  0.00     0.059 A 
ATOM     73  F   UNL A   1      44.707  29.636  36.340  1.00  0.00    -0.206 F 
ATOM     74  C   UNL A   1      45.154  26.092  36.432  1.00  0.00     0.060 A 
BRANCH  74  75
ATOM     75  S   UNL A   1      45.357  24.807  37.682  1.00  0.00     0.124 S 
ATOM     76  O   UNL A   1      44.541  25.333  38.771  1.00  0.00    -0.237 OA
ATOM     77  O   UNL A   1      44.829  23.631  36.998  1.00  0.00    -0.237 OA
ATOM     78  O   UNL A   1      46.796  24.795  37.920  1.00  0.00    -0.744 OA
ENDBRANCH  74  75
ENDBRANCH  53  67
BRANCH  54  79
ATOM     79  C   UNL A   1      42.063  24.681  27.128  1.00  0.00     0.058 A 
ATOM     80  C   UNL A   1      42.876  24.179  26.096  1.00  0.00     0.135 A 
ATOM     81  C   UNL A   1      41.205  23.751  27.749  1.00  0.00     0.135 A 
ATOM     82  F   UNL A   1      43.745  24.985  25.469  1.00  0.00    -0.206 F 
ATOM     83  C   UNL A   1      42.863  22.829  25.727  1.00  0.00     0.059 A 
ATOM     84  C   UNL A   1      41.165  22.405  27.391  1.00  0.00     0.059 A 
ATOM     85  F   UNL A   1      40.439  24.105  28.793  1.00  0.00    -0.206 F 
ATOM     86  C   UNL A   1      42.015  21.946  26.394  1.00  0.00     0.060 A 
BRANCH  86  87
ATOM     87  S   UNL A   1      42.108  20.177  26.029  1.00  0.00     0.124 S 
ATOM     88  O   UNL A   1      43.276  20.109  25.158  1.00  0.00    -0.237 OA
ATOM     89  O   UNL A   1      42.266  19.598  27.358  1.00  0.00    -0.237 OA
ATOM     90  O   UNL A   1      40.830  19.897  25.379  1.00  0.00    -0.744 OA
ENDBRANCH  86  87
ENDBRANCH  54  79
BRANCH  66  91
ATOM     91  C   UNL A   1      45.010  30.271  28.055  1.00  0.00     0.058 A 
ATOM     92  C   UNL A   1      43.784  30.773  27.586  1.00  0.00     0.135 A 
ATOM     93  C   UNL A   1      46.180  30.841  27.531  1.00  0.00     0.135 A 
ATOM     94  F   UNL A   1      42.623  30.348  28.105  1.00  0.00    -0.206 F 
ATOM     95  C   UNL A   1      43.725  31.788  26.628  1.00  0.00     0.059 A 
ATOM     96  C   UNL A   1      46.145  31.871  26.594  1.00  0.00     0.059 A 
ATOM     97  F   UNL A   1      47.382  30.445  27.983  1.00  0.00    -0.206 F 
ATOM     98  C   UNL A   1      44.912  32.340  26.146  1.00  0.00     0.060 A 
BRANCH  98  99
ATOM     99  S   UNL A   1      44.832  33.738  25.004  1.00  0.00     0.124 S 
ATOM    100  O   UNL A   1      43.845  34.603  25.641  1.00  0.00    -0.237 OA
ATOM    101  O   UNL A   1      46.204  34.233  25.007  1.00  0.00    -0.237 OA
ATOM    102  O   UNL A   1      44.406  33.128  23.745  1.00  0.00    -0.744 OA
ENDBRANCH  98  99
ENDBRANCH  66  91
ENDBRANCH  40  41
ENDBRANCH  32  35
ENDBRANCH  30  31
ENDBRANCH   1  30
TORSDOF 17
ENDMDL
