MODEL 1
REMARK VINA RESULT:     -13.2      0.000      0.000
REMARK SMILES CC1=C(CC(=O)NCCCNC(=O)c2ccc(-c3c4nc(c(-c5c(F)cc(S(=O)(=O)[O-])cc5F)c5ccc([nH]5)c(-c5c(F)cc(S(=O)(=O)[O-])cc5F)c5nc(c(-c6c(F)cc(S(=O)(=O)[O-])cc6F)c6ccc3[nH]6)C=C5)C=C4)cc2)c2cc(F)ccc2/C1=C\c1ccc([S@@+](C)[O-])cc1
REMARK SMILES IDX 9 1 8 2 7 3 5 4 6 5 4 7 3 8 1 9 2 10 87 11 80 12 86 13 88 14
REMARK SMILES IDX 81 15 85 16 82 17 84 18 83 19 89 20 90 21 97 22 91 23 96 24
REMARK SMILES IDX 92 25 93 26 94 27 95 28 10 29 11 30 12 31 13 33 14 34 15 35
REMARK SMILES IDX 79 36 16 37 78 38 17 39 18 40 19 41 72 42 20 43 77 44 71 45
REMARK SMILES IDX 73 46 21 47 76 48 70 49 69 50 22 52 56 53 35 54 55 55 36 56
REMARK SMILES IDX 39 57 54 58 74 59 37 60 38 61 53 63 75 64 40 65 23 66 24 67
REMARK SMILES IDX 33 68 25 69 26 70 32 71 34 72 27 73 28 74 29 75 30 76 31 77
REMARK SMILES IDX 57 78 58 79 67 80 59 81 60 82 66 83 68 84 61 85 62 86 63 87
REMARK SMILES IDX 64 88 65 89 41 90 42 91 51 92 43 93 44 94 50 95 52 96 45 97
REMARK SMILES IDX 46 98 47 99 48 100 49 101
REMARK H PARENT 7 6 11 32 73 51 39 62
REMARK Flexibility Score: inf
ROOT
ATOM      1  C   UNL A   1      38.629  22.725  26.144  1.00  0.00     0.042 C 
ENDROOT
BRANCH   1   2
ATOM      2  C   UNL A   1      37.614  23.826  25.859  1.00  0.00     0.117 C 
BRANCH   2   3
ATOM      3  N   UNL A   1      37.009  23.697  24.547  1.00  0.00    -0.356 N 
ATOM      4  C   UNL A   1      35.692  23.739  24.199  1.00  0.00     0.224 C 
ATOM      5  O   UNL A   1      35.401  23.594  23.010  1.00  0.00    -0.275 OA
ATOM      6  H   UNL A   1      37.639  23.557  23.804  1.00  0.00     0.163 HD
BRANCH   4   7
ATOM      7  C   UNL A   1      34.618  24.010  25.251  1.00  0.00     0.136 C 
BRANCH   7   8
ATOM      8  C   UNL A   1      33.575  24.986  24.813  1.00  0.00    -0.027 C 
ATOM      9  C   UNL A   1      32.138  23.568  23.236  1.00  0.00     0.045 C 
ATOM     10  C   UNL A   1      32.537  24.812  23.962  1.00  0.00    -0.039 C 
ATOM     11  C   UNL A   1      31.787  26.074  23.824  1.00  0.00    -0.014 C 
ATOM     12  C   UNL A   1      33.497  26.362  25.338  1.00  0.00    -0.011 A 
ATOM     13  C   UNL A   1      32.386  27.025  24.782  1.00  0.00    -0.010 A 
ATOM     14  C   UNL A   1      30.799  26.283  22.932  1.00  0.00     0.017 C 
ATOM     15  C   UNL A   1      34.311  27.005  26.263  1.00  0.00     0.048 A 
ATOM     16  C   UNL A   1      32.051  28.308  25.196  1.00  0.00     0.012 A 
ATOM     17  C   UNL A   1      33.995  28.310  26.630  1.00  0.00     0.123 A 
ATOM     18  C   UNL A   1      32.874  28.960  26.115  1.00  0.00     0.040 A 
ATOM     19  F   UNL A   1      34.773  28.951  27.512  1.00  0.00    -0.207 F 
BRANCH  14  20
ATOM     20  C   UNL A   1      30.089  27.551  22.739  1.00  0.00    -0.025 A 
ATOM     21  C   UNL A   1      30.706  28.625  22.084  1.00  0.00     0.013 A 
ATOM     22  C   UNL A   1      28.828  27.728  23.313  1.00  0.00     0.013 A 
ATOM     23  C   UNL A   1      30.128  29.898  22.124  1.00  0.00     0.061 A 
ATOM     24  C   UNL A   1      28.245  28.998  23.338  1.00  0.00     0.061 A 
ATOM     25  C   UNL A   1      28.911  30.099  22.787  1.00  0.00     0.152 A 
BRANCH  25  26
ATOM     26  S   UNL A   1      28.310  31.776  23.110  1.00  0.00    -0.018 S 
ATOM     27  C   UNL A   1      28.120  32.358  21.416  1.00  0.00     0.346 C 
ATOM     28  O   UNL A   1      26.890  31.644  23.768  1.00  0.00    -0.612 OA
ENDBRANCH  25  26
ENDBRANCH  14  20
ENDBRANCH   7   8
ENDBRANCH   4   7
ENDBRANCH   2   3
ENDBRANCH   1   2
BRANCH   1  29
ATOM     29  C   UNL A   1      39.815  23.175  26.992  1.00  0.00     0.118 C 
BRANCH  29  30
ATOM     30  N   UNL A   1      40.927  23.677  26.194  1.00  0.00    -0.352 N 
ATOM     31  C   UNL A   1      41.533  24.910  26.197  1.00  0.00     0.251 C 
ATOM     32  H   UNL A   1      41.303  23.031  25.553  1.00  0.00     0.163 HD
ATOM     33  O   UNL A   1      42.360  25.178  25.328  1.00  0.00    -0.269 OA
BRANCH  31  34
ATOM     34  C   UNL A   1      41.173  25.922  27.215  1.00  0.00     0.039 A 
ATOM     35  C   UNL A   1      41.860  27.136  27.297  1.00  0.00     0.014 A 
ATOM     36  C   UNL A   1      40.130  25.650  28.105  1.00  0.00     0.014 A 
ATOM     37  C   UNL A   1      41.626  27.989  28.371  1.00  0.00     0.010 A 
ATOM     38  C   UNL A   1      39.839  26.549  29.134  1.00  0.00     0.010 A 
ATOM     39  C   UNL A   1      40.623  27.701  29.309  1.00  0.00    -0.014 A 
BRANCH  39  40
ATOM     40  C   UNL A   1      40.433  28.602  30.477  1.00  0.00     0.031 A 
ATOM     41  C   UNL A   1      41.355  28.520  31.665  1.00  0.00     0.074 A 
ATOM     42  C   UNL A   1      39.466  29.538  30.441  1.00  0.00     0.049 A 
ATOM     43  N   UNL A   1      41.367  29.251  32.750  1.00  0.00    -0.248 NA
ATOM     44  C   UNL A   1      42.399  27.484  31.632  1.00  0.00     0.031 C 
ATOM     45  C   UNL A   1      38.518  29.726  29.341  1.00  0.00     0.029 A 
ATOM     46  N   UNL A   1      39.138  30.527  31.334  1.00  0.00    -0.354 N 
ATOM     47  C   UNL A   1      42.396  28.750  33.539  1.00  0.00     0.074 A 
ATOM     48  C   UNL A   1      42.974  27.637  32.817  1.00  0.00     0.031 C 
ATOM     49  C   UNL A   1      37.754  30.798  29.598  1.00  0.00     0.029 A 
ATOM     50  C   UNL A   1      38.118  31.340  30.904  1.00  0.00     0.049 A 
ATOM     51  H   UNL A   1      39.591  30.642  32.201  1.00  0.00     0.167 HD
ATOM     52  C   UNL A   1      42.828  29.185  34.747  1.00  0.00     0.037 A 
ATOM     53  C   UNL A   1      37.533  32.399  31.494  1.00  0.00     0.037 A 
ATOM     54  C   UNL A   1      42.265  30.304  35.455  1.00  0.00     0.049 A 
ATOM     55  C   UNL A   1      38.007  32.842  32.847  1.00  0.00     0.074 A 
ATOM     56  C   UNL A   1      42.653  30.836  36.673  1.00  0.00     0.029 A 
ATOM     57  N   UNL A   1      41.188  31.060  35.016  1.00  0.00    -0.354 N 
ATOM     58  N   UNL A   1      38.989  32.362  33.571  1.00  0.00    -0.248 NA
ATOM     59  C   UNL A   1      37.287  33.961  33.470  1.00  0.00     0.031 C 
ATOM     60  C   UNL A   1      41.787  31.890  36.987  1.00  0.00     0.029 A 
ATOM     61  C   UNL A   1      40.884  32.040  35.947  1.00  0.00     0.049 A 
ATOM     62  H   UNL A   1      40.708  30.920  34.167  1.00  0.00     0.167 HD
ATOM     63  C   UNL A   1      39.004  33.118  34.738  1.00  0.00     0.074 A 
ATOM     64  C   UNL A   1      37.948  34.103  34.611  1.00  0.00     0.031 C 
ATOM     65  C   UNL A   1      39.818  33.001  35.816  1.00  0.00     0.037 A 
BRANCH  52  66
ATOM     66  C   UNL A   1      43.960  28.430  35.387  1.00  0.00     0.058 A 
ATOM     67  C   UNL A   1      45.296  28.830  35.225  1.00  0.00     0.135 A 
ATOM     68  C   UNL A   1      43.705  27.304  36.185  1.00  0.00     0.135 A 
ATOM     69  F   UNL A   1      45.595  29.889  34.455  1.00  0.00    -0.206 F 
ATOM     70  C   UNL A   1      46.342  28.124  35.809  1.00  0.00     0.059 A 
ATOM     71  C   UNL A   1      44.733  26.594  36.797  1.00  0.00     0.059 A 
ATOM     72  F   UNL A   1      42.445  26.878  36.370  1.00  0.00    -0.206 F 
ATOM     73  C   UNL A   1      46.050  27.002  36.589  1.00  0.00     0.060 A 
BRANCH  73  74
ATOM     74  S   UNL A   1      47.420  26.082  37.320  1.00  0.00     0.124 S 
ATOM     75  O   UNL A   1      48.048  25.510  36.134  1.00  0.00    -0.237 OA
ATOM     76  O   UNL A   1      48.174  27.135  37.993  1.00  0.00    -0.237 OA
ATOM     77  O   UNL A   1      46.756  25.128  38.202  1.00  0.00    -0.744 OA
ENDBRANCH  73  74
ENDBRANCH  52  66
BRANCH  53  78
ATOM     78  C   UNL A   1      36.438  33.110  30.786  1.00  0.00     0.058 A 
ATOM     79  C   UNL A   1      35.104  32.959  31.189  1.00  0.00     0.135 A 
ATOM     80  C   UNL A   1      36.712  34.012  29.745  1.00  0.00     0.135 A 
ATOM     81  F   UNL A   1      34.794  32.101  32.174  1.00  0.00    -0.206 F 
ATOM     82  C   UNL A   1      34.080  33.688  30.596  1.00  0.00     0.059 A 
ATOM     83  C   UNL A   1      35.708  34.768  29.152  1.00  0.00     0.059 A 
ATOM     84  F   UNL A   1      37.976  34.200  29.335  1.00  0.00    -0.206 F 
ATOM     85  C   UNL A   1      34.394  34.601  29.586  1.00  0.00     0.060 A 
BRANCH  85  86
ATOM     86  S   UNL A   1      33.070  35.618  28.897  1.00  0.00     0.124 S 
ATOM     87  O   UNL A   1      33.826  36.663  28.216  1.00  0.00    -0.237 OA
ATOM     88  O   UNL A   1      32.373  34.668  28.035  1.00  0.00    -0.237 OA
ATOM     89  O   UNL A   1      32.325  36.042  30.078  1.00  0.00    -0.744 OA
ENDBRANCH  85  86
ENDBRANCH  53  78
BRANCH  65  90
ATOM     90  C   UNL A   1      39.594  33.956  36.955  1.00  0.00     0.058 A 
ATOM     91  C   UNL A   1      38.823  33.594  38.069  1.00  0.00     0.135 A 
ATOM     92  C   UNL A   1      40.201  35.222  36.958  1.00  0.00     0.135 A 
ATOM     93  F   UNL A   1      38.214  32.397  38.110  1.00  0.00    -0.206 F 
ATOM     94  C   UNL A   1      38.652  34.458  39.146  1.00  0.00     0.059 A 
ATOM     95  C   UNL A   1      40.061  36.094  38.033  1.00  0.00     0.059 A 
ATOM     96  F   UNL A   1      40.956  35.613  35.918  1.00  0.00    -0.206 F 
ATOM     97  C   UNL A   1      39.278  35.705  39.119  1.00  0.00     0.060 A 
BRANCH  97  98
ATOM     98  S   UNL A   1      39.082  36.801  40.542  1.00  0.00     0.124 S 
ATOM     99  O   UNL A   1      38.594  38.021  39.907  1.00  0.00    -0.237 OA
ATOM    100  O   UNL A   1      38.112  36.080  41.359  1.00  0.00    -0.237 OA
ATOM    101  O   UNL A   1      40.429  36.877  41.098  1.00  0.00    -0.744 OA
ENDBRANCH  97  98
ENDBRANCH  65  90
ENDBRANCH  39  40
ENDBRANCH  31  34
ENDBRANCH  29  30
ENDBRANCH   1  29
TORSDOF 16
ENDMDL
MODEL 2
REMARK VINA RESULT:     -13.0      3.089      9.059
REMARK SMILES CC1=C(CC(=O)NCCCNC(=O)c2ccc(-c3c4nc(c(-c5c(F)cc(S(=O)(=O)[O-])cc5F)c5ccc([nH]5)c(-c5c(F)cc(S(=O)(=O)[O-])cc5F)c5nc(c(-c6c(F)cc(S(=O)(=O)[O-])cc6F)c6ccc3[nH]6)C=C5)C=C4)cc2)c2cc(F)ccc2/C1=C\c1ccc([S@@+](C)[O-])cc1
REMARK SMILES IDX 9 1 8 2 7 3 5 4 6 5 4 7 3 8 1 9 2 10 87 11 80 12 86 13 88 14
REMARK SMILES IDX 81 15 85 16 82 17 84 18 83 19 89 20 90 21 97 22 91 23 96 24
REMARK SMILES IDX 92 25 93 26 94 27 95 28 10 29 11 30 12 31 13 33 14 34 15 35
REMARK SMILES IDX 79 36 16 37 78 38 17 39 18 40 19 41 72 42 20 43 77 44 71 45
REMARK SMILES IDX 73 46 21 47 76 48 70 49 69 50 22 52 56 53 35 54 55 55 36 56
REMARK SMILES IDX 39 57 54 58 74 59 37 60 38 61 53 63 75 64 40 65 23 66 24 67
REMARK SMILES IDX 33 68 25 69 26 70 32 71 34 72 27 73 28 74 29 75 30 76 31 77
REMARK SMILES IDX 57 78 58 79 67 80 59 81 60 82 66 83 68 84 61 85 62 86 63 87
REMARK SMILES IDX 64 88 65 89 41 90 42 91 51 92 43 93 44 94 50 95 52 96 45 97
REMARK SMILES IDX 46 98 47 99 48 100 49 101
REMARK H PARENT 7 6 11 32 73 51 39 62
REMARK Flexibility Score: inf
ROOT
ATOM      1  C   UNL A   1      31.808  31.786  26.717  1.00  0.00     0.042 C 
ENDROOT
BRANCH   1   2
ATOM      2  C   UNL A   1      32.191  30.418  26.163  1.00  0.00     0.117 C 
BRANCH   2   3
ATOM      3  N   UNL A   1      31.459  30.083  24.957  1.00  0.00    -0.356 N 
ATOM      4  C   UNL A   1      31.866  29.357  23.877  1.00  0.00     0.224 C 
ATOM      5  O   UNL A   1      31.070  29.205  22.947  1.00  0.00    -0.275 OA
ATOM      6  H   UNL A   1      30.539  30.429  24.912  1.00  0.00     0.163 HD
BRANCH   4   7
ATOM      7  C   UNL A   1      33.250  28.714  23.849  1.00  0.00     0.136 C 
BRANCH   7   8
ATOM      8  C   UNL A   1      33.243  27.248  24.138  1.00  0.00    -0.027 C 
ATOM      9  C   UNL A   1      33.308  27.202  26.699  1.00  0.00     0.045 C 
ATOM     10  C   UNL A   1      33.276  26.605  25.329  1.00  0.00    -0.039 C 
ATOM     11  C   UNL A   1      33.273  25.148  25.109  1.00  0.00    -0.014 C 
ATOM     12  C   UNL A   1      33.131  26.225  23.081  1.00  0.00    -0.011 A 
ATOM     13  C   UNL A   1      33.100  24.942  23.658  1.00  0.00    -0.010 A 
ATOM     14  C   UNL A   1      33.462  24.228  26.077  1.00  0.00     0.017 C 
ATOM     15  C   UNL A   1      33.030  26.382  21.704  1.00  0.00     0.048 A 
ATOM     16  C   UNL A   1      32.906  23.818  22.865  1.00  0.00     0.012 A 
ATOM     17  C   UNL A   1      32.889  25.243  20.916  1.00  0.00     0.123 A 
ATOM     18  C   UNL A   1      32.817  23.971  21.481  1.00  0.00     0.040 A 
ATOM     19  F   UNL A   1      32.801  25.372  19.585  1.00  0.00    -0.207 F 
BRANCH  14  20
ATOM     20  C   UNL A   1      33.526  22.779  25.865  1.00  0.00    -0.025 A 
ATOM     21  C   UNL A   1      34.733  22.159  25.516  1.00  0.00     0.013 A 
ATOM     22  C   UNL A   1      32.350  22.027  25.899  1.00  0.00     0.013 A 
ATOM     23  C   UNL A   1      34.738  20.832  25.073  1.00  0.00     0.061 A 
ATOM     24  C   UNL A   1      32.361  20.696  25.472  1.00  0.00     0.061 A 
ATOM     25  C   UNL A   1      33.543  20.105  25.011  1.00  0.00     0.152 A 
BRANCH  25  26
ATOM     26  S   UNL A   1      33.487  18.509  24.159  1.00  0.00    -0.018 S 
ATOM     27  C   UNL A   1      32.805  17.489  25.477  1.00  0.00     0.346 C 
ATOM     28  O   UNL A   1      32.426  18.632  23.007  1.00  0.00    -0.612 OA
ENDBRANCH  25  26
ENDBRANCH  14  20
ENDBRANCH   7   8
ENDBRANCH   4   7
ENDBRANCH   2   3
ENDBRANCH   1   2
BRANCH   1  29
ATOM     29  C   UNL A   1      32.954  32.522  27.405  1.00  0.00     0.118 C 
BRANCH  29  30
ATOM     30  N   UNL A   1      32.634  33.910  27.714  1.00  0.00    -0.352 N 
ATOM     31  C   UNL A   1      33.162  34.750  28.666  1.00  0.00     0.251 C 
ATOM     32  H   UNL A   1      31.931  34.310  27.153  1.00  0.00     0.163 HD
ATOM     33  O   UNL A   1      32.637  35.844  28.864  1.00  0.00    -0.269 OA
BRANCH  31  34
ATOM     34  C   UNL A   1      34.330  34.331  29.473  1.00  0.00     0.039 A 
ATOM     35  C   UNL A   1      35.631  34.510  29.001  1.00  0.00     0.014 A 
ATOM     36  C   UNL A   1      34.116  33.747  30.726  1.00  0.00     0.014 A 
ATOM     37  C   UNL A   1      36.699  33.947  29.692  1.00  0.00     0.010 A 
ATOM     38  C   UNL A   1      35.200  33.257  31.459  1.00  0.00     0.010 A 
ATOM     39  C   UNL A   1      36.496  33.303  30.922  1.00  0.00    -0.014 A 
BRANCH  39  40
ATOM     40  C   UNL A   1      37.647  32.662  31.611  1.00  0.00     0.031 A 
ATOM     41  C   UNL A   1      38.109  33.159  32.955  1.00  0.00     0.074 A 
ATOM     42  C   UNL A   1      38.240  31.588  31.052  1.00  0.00     0.049 A 
ATOM     43  N   UNL A   1      39.065  32.698  33.721  1.00  0.00    -0.248 NA
ATOM     44  C   UNL A   1      37.409  34.326  33.514  1.00  0.00     0.031 C 
ATOM     45  C   UNL A   1      37.875  31.004  29.761  1.00  0.00     0.029 A 
ATOM     46  N   UNL A   1      39.249  30.780  31.510  1.00  0.00    -0.354 N 
ATOM     47  C   UNL A   1      39.099  33.529  34.835  1.00  0.00     0.074 A 
ATOM     48  C   UNL A   1      38.082  34.538  34.636  1.00  0.00     0.031 C 
ATOM     49  C   UNL A   1      38.609  29.900  29.556  1.00  0.00     0.029 A 
ATOM     50  C   UNL A   1      39.535  29.729  30.672  1.00  0.00     0.049 A 
ATOM     51  H   UNL A   1      39.723  30.937  32.358  1.00  0.00     0.167 HD
ATOM     52  C   UNL A   1      39.896  33.451  35.927  1.00  0.00     0.037 A 
ATOM     53  C   UNL A   1      40.442  28.741  30.782  1.00  0.00     0.037 A 
ATOM     54  C   UNL A   1      40.895  32.435  36.132  1.00  0.00     0.049 A 
ATOM     55  C   UNL A   1      41.336  28.694  31.986  1.00  0.00     0.074 A 
ATOM     56  C   UNL A   1      41.733  32.259  37.220  1.00  0.00     0.029 A 
ATOM     57  N   UNL A   1      41.199  31.428  35.228  1.00  0.00    -0.354 N 
ATOM     58  N   UNL A   1      41.346  29.483  33.033  1.00  0.00    -0.248 NA
ATOM     59  C   UNL A   1      42.352  27.634  32.019  1.00  0.00     0.031 C 
ATOM     60  C   UNL A   1      42.569  31.167  36.956  1.00  0.00     0.029 A 
ATOM     61  C   UNL A   1      42.225  30.639  35.722  1.00  0.00     0.049 A 
ATOM     62  H   UNL A   1      40.752  31.294  34.360  1.00  0.00     0.167 HD
ATOM     63  C   UNL A   1      42.369  29.016  33.850  1.00  0.00     0.074 A 
ATOM     64  C   UNL A   1      42.940  27.861  33.186  1.00  0.00     0.031 C 
ATOM     65  C   UNL A   1      42.797  29.504  35.041  1.00  0.00     0.037 A 
BRANCH  52  66
ATOM     66  C   UNL A   1      39.727  34.510  36.981  1.00  0.00     0.058 A 
ATOM     67  C   UNL A   1      40.321  35.775  36.854  1.00  0.00     0.135 A 
ATOM     68  C   UNL A   1      38.950  34.262  38.123  1.00  0.00     0.135 A 
ATOM     69  F   UNL A   1      41.091  36.056  35.789  1.00  0.00    -0.206 F 
ATOM     70  C   UNL A   1      40.174  36.749  37.835  1.00  0.00     0.059 A 
ATOM     71  C   UNL A   1      38.771  35.228  39.108  1.00  0.00     0.059 A 
ATOM     72  F   UNL A   1      38.363  33.067  38.294  1.00  0.00    -0.206 F 
ATOM     73  C   UNL A   1      39.401  36.463  38.963  1.00  0.00     0.060 A 
BRANCH  73  74
ATOM     74  S   UNL A   1      39.238  37.730  40.239  1.00  0.00     0.124 S 
ATOM     75  O   UNL A   1      40.585  38.293  40.258  1.00  0.00    -0.237 OA
ATOM     76  O   UNL A   1      38.198  38.591  39.689  1.00  0.00    -0.237 OA
ATOM     77  O   UNL A   1      38.858  36.969  41.425  1.00  0.00    -0.744 OA
ENDBRANCH  73  74
ENDBRANCH  52  66
BRANCH  53  78
ATOM     78  C   UNL A   1      40.531  27.715  29.712  1.00  0.00     0.058 A 
ATOM     79  C   UNL A   1      39.586  26.683  29.626  1.00  0.00     0.135 A 
ATOM     80  C   UNL A   1      41.515  27.790  28.713  1.00  0.00     0.135 A 
ATOM     81  F   UNL A   1      38.633  26.566  30.564  1.00  0.00    -0.206 F 
ATOM     82  C   UNL A   1      39.603  25.770  28.578  1.00  0.00     0.059 A 
ATOM     83  C   UNL A   1      41.539  26.902  27.644  1.00  0.00     0.059 A 
ATOM     84  F   UNL A   1      42.432  28.769  28.747  1.00  0.00    -0.206 F 
ATOM     85  C   UNL A   1      40.576  25.895  27.584  1.00  0.00     0.060 A 
BRANCH  85  86
ATOM     86  S   UNL A   1      40.523  24.768  26.174  1.00  0.00     0.124 S 
ATOM     87  O   UNL A   1      41.356  23.668  26.645  1.00  0.00    -0.237 OA
ATOM     88  O   UNL A   1      39.095  24.486  26.063  1.00  0.00    -0.237 OA
ATOM     89  O   UNL A   1      41.082  25.566  25.087  1.00  0.00    -0.744 OA
ENDBRANCH  85  86
ENDBRANCH  53  78
BRANCH  65  90
ATOM     90  C   UNL A   1      43.948  28.800  35.701  1.00  0.00     0.058 A 
ATOM     91  C   UNL A   1      43.738  27.729  36.583  1.00  0.00     0.135 A 
ATOM     92  C   UNL A   1      45.272  29.159  35.406  1.00  0.00     0.135 A 
ATOM     93  F   UNL A   1      42.489  27.353  36.904  1.00  0.00    -0.206 F 
ATOM     94  C   UNL A   1      44.802  27.044  37.160  1.00  0.00     0.059 A 
ATOM     95  C   UNL A   1      46.352  28.475  35.955  1.00  0.00     0.059 A 
ATOM     96  F   UNL A   1      45.526  30.172  34.561  1.00  0.00    -0.206 F 
ATOM     97  C   UNL A   1      46.106  27.424  36.837  1.00  0.00     0.060 A 
BRANCH  97  98
ATOM     98  S   UNL A   1      47.479  26.499  37.561  1.00  0.00     0.124 S 
ATOM     99  O   UNL A   1      47.497  27.020  38.924  1.00  0.00    -0.237 OA
ATOM    100  O   UNL A   1      47.035  25.117  37.416  1.00  0.00    -0.237 OA
ATOM    101  O   UNL A   1      48.617  26.876  36.730  1.00  0.00    -0.744 OA
ENDBRANCH  97  98
ENDBRANCH  65  90
ENDBRANCH  39  40
ENDBRANCH  31  34
ENDBRANCH  29  30
ENDBRANCH   1  29
TORSDOF 16
ENDMDL
MODEL 3
REMARK VINA RESULT:     -12.9      6.659     12.170
REMARK SMILES CC1=C(CC(=O)NCCCNC(=O)c2ccc(-c3c4nc(c(-c5c(F)cc(S(=O)(=O)[O-])cc5F)c5ccc([nH]5)c(-c5c(F)cc(S(=O)(=O)[O-])cc5F)c5nc(c(-c6c(F)cc(S(=O)(=O)[O-])cc6F)c6ccc3[nH]6)C=C5)C=C4)cc2)c2cc(F)ccc2/C1=C\c1ccc([S@@+](C)[O-])cc1
REMARK SMILES IDX 9 1 8 2 7 3 5 4 6 5 4 7 3 8 1 9 2 10 87 11 80 12 86 13 88 14
REMARK SMILES IDX 81 15 85 16 82 17 84 18 83 19 89 20 90 21 97 22 91 23 96 24
REMARK SMILES IDX 92 25 93 26 94 27 95 28 10 29 11 30 12 31 13 33 14 34 15 35
REMARK SMILES IDX 79 36 16 37 78 38 17 39 18 40 19 41 72 42 20 43 77 44 71 45
REMARK SMILES IDX 73 46 21 47 76 48 70 49 69 50 22 52 56 53 35 54 55 55 36 56
REMARK SMILES IDX 39 57 54 58 74 59 37 60 38 61 53 63 75 64 40 65 23 66 24 67
REMARK SMILES IDX 33 68 25 69 26 70 32 71 34 72 27 73 28 74 29 75 30 76 31 77
REMARK SMILES IDX 57 78 58 79 67 80 59 81 60 82 66 83 68 84 61 85 62 86 63 87
REMARK SMILES IDX 64 88 65 89 41 90 42 91 51 92 43 93 44 94 50 95 52 96 45 97
REMARK SMILES IDX 46 98 47 99 48 100 49 101
REMARK H PARENT 7 6 11 32 73 51 39 62
REMARK Flexibility Score: inf
ROOT
ATOM      1  C   UNL A   1      33.686  30.522  27.316  1.00  0.00     0.042 C 
ENDROOT
BRANCH   1   2
ATOM      2  C   UNL A   1      33.086  29.450  26.414  1.00  0.00     0.117 C 
BRANCH   2   3
ATOM      3  N   UNL A   1      33.691  29.430  25.097  1.00  0.00    -0.356 N 
ATOM      4  C   UNL A   1      33.305  28.746  23.983  1.00  0.00     0.224 C 
ATOM      5  O   UNL A   1      33.984  28.871  22.961  1.00  0.00    -0.275 OA
ATOM      6  H   UNL A   1      34.495  29.987  24.994  1.00  0.00     0.163 HD
BRANCH   4   7
ATOM      7  C   UNL A   1      32.039  27.893  23.994  1.00  0.00     0.136 C 
BRANCH   7   8
ATOM      8  C   UNL A   1      32.301  26.421  23.981  1.00  0.00    -0.027 C 
ATOM      9  C   UNL A   1      32.061  25.810  26.457  1.00  0.00     0.045 C 
ATOM     10  C   UNL A   1      32.321  25.542  25.011  1.00  0.00    -0.039 C 
ATOM     11  C   UNL A   1      32.647  24.195  24.509  1.00  0.00    -0.014 C 
ATOM     12  C   UNL A   1      32.534  25.661  22.739  1.00  0.00    -0.011 A 
ATOM     13  C   UNL A   1      32.699  24.295  23.037  1.00  0.00    -0.010 A 
ATOM     14  C   UNL A   1      32.903  23.129  25.293  1.00  0.00     0.017 C 
ATOM     15  C   UNL A   1      32.570  26.105  21.422  1.00  0.00     0.048 A 
ATOM     16  C   UNL A   1      32.840  23.363  22.017  1.00  0.00     0.012 A 
ATOM     17  C   UNL A   1      32.766  25.167  20.412  1.00  0.00     0.123 A 
ATOM     18  C   UNL A   1      32.890  23.807  20.695  1.00  0.00     0.040 A 
ATOM     19  F   UNL A   1      32.815  25.576  19.138  1.00  0.00    -0.207 F 
BRANCH  14  20
ATOM     20  C   UNL A   1      33.292  21.800  24.811  1.00  0.00    -0.025 A 
ATOM     21  C   UNL A   1      32.352  20.953  24.209  1.00  0.00     0.013 A 
ATOM     22  C   UNL A   1      34.584  21.330  25.057  1.00  0.00     0.013 A 
ATOM     23  C   UNL A   1      32.663  19.608  23.982  1.00  0.00     0.061 A 
ATOM     24  C   UNL A   1      34.897  19.989  24.815  1.00  0.00     0.061 A 
ATOM     25  C   UNL A   1      33.926  19.109  24.322  1.00  0.00     0.152 A 
BRANCH  25  26
ATOM     26  S   UNL A   1      34.236  17.325  24.322  1.00  0.00    -0.018 S 
ATOM     27  C   UNL A   1      33.114  16.826  25.640  1.00  0.00     0.346 C 
ATOM     28  O   UNL A   1      33.705  16.759  22.957  1.00  0.00    -0.612 OA
ENDBRANCH  25  26
ENDBRANCH  14  20
ENDBRANCH   7   8
ENDBRANCH   4   7
ENDBRANCH   2   3
ENDBRANCH   1   2
BRANCH   1  29
ATOM     29  C   UNL A   1      35.002  30.116  27.975  1.00  0.00     0.118 C 
BRANCH  29  30
ATOM     30  N   UNL A   1      35.190  30.720  29.289  1.00  0.00    -0.352 N 
ATOM     31  C   UNL A   1      36.277  30.691  30.129  1.00  0.00     0.251 C 
ATOM     32  H   UNL A   1      34.418  31.230  29.626  1.00  0.00     0.163 HD
ATOM     33  O   UNL A   1      36.172  31.139  31.268  1.00  0.00    -0.269 OA
BRANCH  31  34
ATOM     34  C   UNL A   1      37.556  30.094  29.682  1.00  0.00     0.039 A 
ATOM     35  C   UNL A   1      38.428  29.496  30.595  1.00  0.00     0.014 A 
ATOM     36  C   UNL A   1      37.889  30.137  28.325  1.00  0.00     0.014 A 
ATOM     37  C   UNL A   1      39.698  29.107  30.182  1.00  0.00     0.010 A 
ATOM     38  C   UNL A   1      39.134  29.668  27.898  1.00  0.00     0.010 A 
ATOM     39  C   UNL A   1      40.072  29.200  28.832  1.00  0.00    -0.014 A 
BRANCH  39  40
ATOM     40  C   UNL A   1      41.454  28.830  28.429  1.00  0.00     0.031 A 
ATOM     41  C   UNL A   1      42.572  29.835  28.516  1.00  0.00     0.074 A 
ATOM     42  C   UNL A   1      41.716  27.566  28.041  1.00  0.00     0.049 A 
ATOM     43  N   UNL A   1      43.844  29.678  28.248  1.00  0.00    -0.248 NA
ATOM     44  C   UNL A   1      42.220  31.192  28.960  1.00  0.00     0.031 C 
ATOM     45  C   UNL A   1      40.720  26.499  27.928  1.00  0.00     0.029 A 
ATOM     46  N   UNL A   1      42.897  26.957  27.701  1.00  0.00    -0.354 N 
ATOM     47  C   UNL A   1      44.437  30.917  28.466  1.00  0.00     0.074 A 
ATOM     48  C   UNL A   1      43.382  31.822  28.867  1.00  0.00     0.031 C 
ATOM     49  C   UNL A   1      41.340  25.355  27.601  1.00  0.00     0.029 A 
ATOM     50  C   UNL A   1      42.765  25.618  27.425  1.00  0.00     0.049 A 
ATOM     51  H   UNL A   1      43.757  27.434  27.659  1.00  0.00     0.167 HD
ATOM     52  C   UNL A   1      45.741  31.264  28.353  1.00  0.00     0.037 A 
ATOM     53  C   UNL A   1      43.683  24.702  27.065  1.00  0.00     0.037 A 
ATOM     54  C   UNL A   1      46.792  30.357  27.972  1.00  0.00     0.049 A 
ATOM     55  C   UNL A   1      45.118  25.118  26.915  1.00  0.00     0.074 A 
ATOM     56  C   UNL A   1      48.148  30.611  27.857  1.00  0.00     0.029 A 
ATOM     57  N   UNL A   1      46.607  29.025  27.636  1.00  0.00    -0.354 N 
ATOM     58  N   UNL A   1      45.660  26.291  27.136  1.00  0.00    -0.248 NA
ATOM     59  C   UNL A   1      46.062  24.091  26.455  1.00  0.00     0.031 C 
ATOM     60  C   UNL A   1      48.777  29.441  27.415  1.00  0.00     0.029 A 
ATOM     61  C   UNL A   1      47.819  28.448  27.293  1.00  0.00     0.049 A 
ATOM     62  H   UNL A   1      45.740  28.556  27.639  1.00  0.00     0.167 HD
ATOM     63  C   UNL A   1      47.010  26.146  26.839  1.00  0.00     0.074 A 
ATOM     64  C   UNL A   1      47.206  24.764  26.447  1.00  0.00     0.031 C 
ATOM     65  C   UNL A   1      47.996  27.076  26.885  1.00  0.00     0.037 A 
BRANCH  52  66
ATOM     66  C   UNL A   1      46.100  32.697  28.631  1.00  0.00     0.058 A 
ATOM     67  C   UNL A   1      46.473  33.127  29.914  1.00  0.00     0.135 A 
ATOM     68  C   UNL A   1      46.087  33.649  27.599  1.00  0.00     0.135 A 
ATOM     69  F   UNL A   1      46.482  32.260  30.940  1.00  0.00    -0.206 F 
ATOM     70  C   UNL A   1      46.793  34.456  30.172  1.00  0.00     0.059 A 
ATOM     71  C   UNL A   1      46.423  34.979  27.827  1.00  0.00     0.059 A 
ATOM     72  F   UNL A   1      45.735  33.290  26.354  1.00  0.00    -0.206 F 
ATOM     73  C   UNL A   1      46.759  35.376  29.121  1.00  0.00     0.060 A 
BRANCH  73  74
ATOM     74  S   UNL A   1      47.154  37.102  29.476  1.00  0.00     0.124 S 
ATOM     75  O   UNL A   1      48.529  37.187  28.992  1.00  0.00    -0.237 OA
ATOM     76  O   UNL A   1      46.158  37.815  28.685  1.00  0.00    -0.237 OA
ATOM     77  O   UNL A   1      46.990  37.197  30.922  1.00  0.00    -0.744 OA
ENDBRANCH  73  74
ENDBRANCH  52  66
BRANCH  53  78
ATOM     78  C   UNL A   1      43.257  23.299  26.834  1.00  0.00     0.058 A 
ATOM     79  C   UNL A   1      43.199  22.769  25.538  1.00  0.00     0.135 A 
ATOM     80  C   UNL A   1      42.972  22.440  27.908  1.00  0.00     0.135 A 
ATOM     81  F   UNL A   1      43.454  23.555  24.480  1.00  0.00    -0.206 F 
ATOM     82  C   UNL A   1      42.890  21.432  25.313  1.00  0.00     0.059 A 
ATOM     83  C   UNL A   1      42.681  21.095  27.710  1.00  0.00     0.059 A 
ATOM     84  F   UNL A   1      43.027  22.899  29.168  1.00  0.00    -0.206 F 
ATOM     85  C   UNL A   1      42.645  20.599  26.408  1.00  0.00     0.060 A 
BRANCH  85  86
ATOM     86  S   UNL A   1      42.349  18.843  26.109  1.00  0.00     0.124 S 
ATOM     87  O   UNL A   1      40.951  18.847  25.694  1.00  0.00    -0.237 OA
ATOM     88  O   UNL A   1      43.325  18.542  25.066  1.00  0.00    -0.237 OA
ATOM     89  O   UNL A   1      42.623  18.232  27.406  1.00  0.00    -0.744 OA
ENDBRANCH  85  86
ENDBRANCH  53  78
BRANCH  65  90
ATOM     90  C   UNL A   1      49.377  26.637  26.489  1.00  0.00     0.058 A 
ATOM     91  C   UNL A   1      50.207  25.948  27.386  1.00  0.00     0.135 A 
ATOM     92  C   UNL A   1      49.853  26.855  25.187  1.00  0.00     0.135 A 
ATOM     93  F   UNL A   1      49.801  25.722  28.646  1.00  0.00    -0.206 F 
ATOM     94  C   UNL A   1      51.469  25.498  27.009  1.00  0.00     0.059 A 
ATOM     95  C   UNL A   1      51.103  26.396  24.782  1.00  0.00     0.059 A 
ATOM     96  F   UNL A   1      49.093  27.502  24.289  1.00  0.00    -0.206 F 
ATOM     97  C   UNL A   1      51.906  25.726  25.703  1.00  0.00     0.060 A 
BRANCH  97  98
ATOM     98  S   UNL A   1      53.529  25.101  25.214  1.00  0.00     0.124 S 
ATOM     99  O   UNL A   1      53.363  23.665  25.422  1.00  0.00    -0.237 OA
ATOM    100  O   UNL A   1      53.625  25.534  23.824  1.00  0.00    -0.237 OA
ATOM    101  O   UNL A   1      54.441  25.768  26.137  1.00  0.00    -0.744 OA
ENDBRANCH  97  98
ENDBRANCH  65  90
ENDBRANCH  39  40
ENDBRANCH  31  34
ENDBRANCH  29  30
ENDBRANCH   1  29
TORSDOF 16
ENDMDL
