MODEL 1
REMARK VINA RESULT:     -15.3      0.000      0.000
REMARK SMILES Cc1ccc(N2C(=O)C[C@H](Sc3ccccc3C(=O)NCCCNC(=O)c3ccc(-c4c5nc(c(-c6c(F)cc(S(=O)(=O)[O-])cc6F)c6ccc([nH]6)c(-c6c(F)cc(S(=O)(=O)[O-])cc6F)c6nc(c(-c7c(F)cc(S(=O)(=O)[O-])cc7F)c7ccc4[nH]7)C=C6)C=C5)cc3)C2=O)cc1
REMARK SMILES IDX 22 1 21 2 20 3 18 4 19 5 17 7 12 8 13 9 14 10 16 11 15 12
REMARK SMILES IDX 11 13 10 14 6 15 7 16 93 17 8 18 9 19 94 20 5 21 1 22 2 23
REMARK SMILES IDX 3 24 96 25 4 26 95 27 23 28 24 29 25 30 26 32 27 33 28 34
REMARK SMILES IDX 92 35 29 36 91 37 30 38 31 39 32 40 85 41 33 42 90 43 84 44
REMARK SMILES IDX 86 45 34 46 89 47 83 48 82 49 35 51 69 52 48 53 68 54 49 55
REMARK SMILES IDX 52 56 67 57 87 58 50 59 51 60 66 62 88 63 53 64 36 65 37 66
REMARK SMILES IDX 46 67 38 68 39 69 45 70 47 71 40 72 41 73 42 74 43 75 44 76
REMARK SMILES IDX 70 77 71 78 80 79 72 80 73 81 79 82 81 83 74 84 75 85 76 86
REMARK SMILES IDX 77 87 78 88 54 89 55 90 64 91 56 92 57 93 63 94 65 95 58 96
REMARK SMILES IDX 59 97 60 98 61 99 62 100
REMARK H PARENT 20 6 24 31 86 50 52 61
REMARK Flexibility Score: inf
ROOT
ATOM      1  C   UNL A   1      32.937  30.190  27.334  1.00  0.00     0.042 C 
ENDROOT
BRANCH   1   2
ATOM      2  C   UNL A   1      32.157  30.510  26.064  1.00  0.00     0.118 C 
BRANCH   2   3
ATOM      3  N   UNL A   1      32.644  29.817  24.871  1.00  0.00    -0.352 N 
ATOM      4  C   UNL A   1      32.090  29.112  23.830  1.00  0.00     0.252 C 
ATOM      5  O   UNL A   1      32.860  28.866  22.900  1.00  0.00    -0.269 OA
ATOM      6  H   UNL A   1      33.623  29.871  24.794  1.00  0.00     0.163 HD
BRANCH   4   7
ATOM      7  C   UNL A   1      30.674  28.618  23.765  1.00  0.00     0.053 A 
ATOM      8  C   UNL A   1      30.311  27.317  24.216  1.00  0.00     0.021 A 
ATOM      9  C   UNL A   1      28.993  26.854  24.013  1.00  0.00     0.016 A 
ATOM     10  C   UNL A   1      28.030  27.649  23.397  1.00  0.00     0.001 A 
ATOM     11  C   UNL A   1      29.678  29.394  23.147  1.00  0.00     0.015 A 
ATOM     12  C   UNL A   1      28.373  28.923  22.971  1.00  0.00     0.001 A 
BRANCH   8  13
ATOM     13  S   UNL A   1      31.409  26.039  24.863  1.00  0.00    -0.111 SA
BRANCH  13  14
ATOM     14  C   UNL A   1      31.216  24.628  23.717  1.00  0.00     0.151 C 
ATOM     15  N   UNL A   1      32.542  22.700  23.739  1.00  0.00    -0.250 N 
ATOM     16  C   UNL A   1      33.080  23.520  22.771  1.00  0.00     0.235 C 
ATOM     17  C   UNL A   1      31.464  23.289  24.365  1.00  0.00     0.247 C 
ATOM     18  O   UNL A   1      34.108  23.374  22.123  1.00  0.00    -0.274 OA
ATOM     19  C   UNL A   1      32.110  24.628  22.501  1.00  0.00     0.126 C 
ATOM     20  O   UNL A   1      30.816  22.860  25.313  1.00  0.00    -0.273 OA
BRANCH  15  21
ATOM     21  C   UNL A   1      33.013  21.388  24.015  1.00  0.00     0.052 A 
ATOM     22  C   UNL A   1      34.607  17.391  24.511  1.00  0.00     0.044 C 
ATOM     23  C   UNL A   1      34.033  18.771  24.383  1.00  0.00    -0.051 A 
ATOM     24  C   UNL A   1      32.829  18.976  23.705  1.00  0.00     0.005 A 
ATOM     25  C   UNL A   1      34.723  19.880  24.877  1.00  0.00     0.005 A 
ATOM     26  C   UNL A   1      32.313  20.267  23.543  1.00  0.00     0.027 A 
ATOM     27  C   UNL A   1      34.223  21.174  24.685  1.00  0.00     0.027 A 
ENDBRANCH  15  21
ENDBRANCH  13  14
ENDBRANCH   8  13
ENDBRANCH   4   7
ENDBRANCH   2   3
ENDBRANCH   1   2
BRANCH   1  28
ATOM     28  C   UNL A   1      34.440  30.108  27.085  1.00  0.00     0.118 C 
BRANCH  28  29
ATOM     29  N   UNL A   1      35.197  31.239  27.621  1.00  0.00    -0.352 N 
ATOM     30  C   UNL A   1      36.384  31.189  28.339  1.00  0.00     0.251 C 
ATOM     31  H   UNL A   1      34.824  32.134  27.454  1.00  0.00     0.163 HD
ATOM     32  O   UNL A   1      36.850  32.152  28.922  1.00  0.00    -0.269 OA
BRANCH  30  33
ATOM     33  C   UNL A   1      37.128  29.916  28.268  1.00  0.00     0.039 A 
ATOM     34  C   UNL A   1      37.220  29.177  29.454  1.00  0.00     0.014 A 
ATOM     35  C   UNL A   1      37.997  29.702  27.204  1.00  0.00     0.014 A 
ATOM     36  C   UNL A   1      38.329  28.365  29.661  1.00  0.00     0.010 A 
ATOM     37  C   UNL A   1      39.133  28.953  27.442  1.00  0.00     0.010 A 
ATOM     38  C   UNL A   1      39.331  28.345  28.693  1.00  0.00    -0.014 A 
BRANCH  38  39
ATOM     39  C   UNL A   1      40.671  27.817  28.932  1.00  0.00     0.031 A 
ATOM     40  C   UNL A   1      40.994  26.427  28.555  1.00  0.00     0.074 A 
ATOM     41  C   UNL A   1      41.646  28.646  29.366  1.00  0.00     0.049 A 
ATOM     42  N   UNL A   1      42.084  25.812  28.860  1.00  0.00    -0.248 NA
ATOM     43  C   UNL A   1      40.052  25.591  27.825  1.00  0.00     0.031 C 
ATOM     44  C   UNL A   1      43.088  28.428  29.299  1.00  0.00     0.029 A 
ATOM     45  N   UNL A   1      41.503  29.785  30.167  1.00  0.00    -0.354 N 
ATOM     46  C   UNL A   1      42.112  24.619  28.173  1.00  0.00     0.074 A 
ATOM     47  C   UNL A   1      40.796  24.508  27.589  1.00  0.00     0.031 C 
ATOM     48  C   UNL A   1      43.685  29.205  30.215  1.00  0.00     0.029 A 
ATOM     49  C   UNL A   1      42.639  29.822  31.008  1.00  0.00     0.049 A 
ATOM     50  H   UNL A   1      40.760  30.431  30.148  1.00  0.00     0.167 HD
ATOM     51  C   UNL A   1      43.289  23.926  28.101  1.00  0.00     0.037 A 
ATOM     52  C   UNL A   1      42.498  29.670  32.360  1.00  0.00     0.037 A 
ATOM     53  C   UNL A   1      44.287  24.491  29.016  1.00  0.00     0.049 A 
ATOM     54  C   UNL A   1      43.126  28.409  32.926  1.00  0.00     0.074 A 
ATOM     55  C   UNL A   1      45.377  25.338  28.889  1.00  0.00     0.029 A 
ATOM     56  N   UNL A   1      44.037  24.407  30.375  1.00  0.00    -0.354 N 
ATOM     57  N   UNL A   1      43.771  27.518  32.222  1.00  0.00    -0.248 NA
ATOM     58  C   UNL A   1      43.013  28.021  34.333  1.00  0.00     0.031 C 
ATOM     59  C   UNL A   1      45.742  25.795  30.192  1.00  0.00     0.029 A 
ATOM     60  C   UNL A   1      44.883  25.215  31.109  1.00  0.00     0.049 A 
ATOM     61  H   UNL A   1      43.340  23.837  30.771  1.00  0.00     0.167 HD
ATOM     62  C   UNL A   1      44.090  26.449  33.017  1.00  0.00     0.074 A 
ATOM     63  C   UNL A   1      43.617  26.820  34.338  1.00  0.00     0.031 C 
ATOM     64  C   UNL A   1      44.675  25.310  32.544  1.00  0.00     0.037 A 
BRANCH  51  65
ATOM     65  C   UNL A   1      43.603  22.869  27.054  1.00  0.00     0.058 A 
ATOM     66  C   UNL A   1      42.880  21.656  27.022  1.00  0.00     0.135 A 
ATOM     67  C   UNL A   1      44.643  22.944  26.106  1.00  0.00     0.135 A 
ATOM     68  F   UNL A   1      41.799  21.463  27.790  1.00  0.00    -0.206 F 
ATOM     69  C   UNL A   1      43.235  20.574  26.208  1.00  0.00     0.059 A 
ATOM     70  C   UNL A   1      45.056  21.860  25.326  1.00  0.00     0.059 A 
ATOM     71  F   UNL A   1      45.271  24.091  25.836  1.00  0.00    -0.206 F 
ATOM     72  C   UNL A   1      44.353  20.670  25.392  1.00  0.00     0.060 A 
BRANCH  72  73
ATOM     73  S   UNL A   1      44.863  19.242  24.419  1.00  0.00     0.124 S 
ATOM     74  O   UNL A   1      46.306  19.220  24.640  1.00  0.00    -0.237 OA
ATOM     75  O   UNL A   1      44.107  18.163  25.042  1.00  0.00    -0.237 OA
ATOM     76  O   UNL A   1      44.452  19.590  23.061  1.00  0.00    -0.744 OA
ENDBRANCH  72  73
ENDBRANCH  51  65
BRANCH  52  77
ATOM     77  C   UNL A   1      41.283  30.359  32.879  1.00  0.00     0.058 A 
ATOM     78  C   UNL A   1      40.159  29.560  33.172  1.00  0.00     0.135 A 
ATOM     79  C   UNL A   1      41.357  31.621  33.482  1.00  0.00     0.135 A 
ATOM     80  F   UNL A   1      40.031  28.348  32.607  1.00  0.00    -0.206 F 
ATOM     81  C   UNL A   1      39.244  29.917  34.154  1.00  0.00     0.059 A 
ATOM     82  C   UNL A   1      40.439  32.005  34.464  1.00  0.00     0.059 A 
ATOM     83  F   UNL A   1      42.399  32.429  33.237  1.00  0.00    -0.206 F 
ATOM     84  C   UNL A   1      39.435  31.113  34.842  1.00  0.00     0.060 A 
BRANCH  84  85
ATOM     85  S   UNL A   1      38.472  31.376  36.352  1.00  0.00     0.124 S 
ATOM     86  O   UNL A   1      39.436  32.052  37.212  1.00  0.00    -0.237 OA
ATOM     87  O   UNL A   1      37.372  32.207  35.865  1.00  0.00    -0.237 OA
ATOM     88  O   UNL A   1      38.106  30.022  36.753  1.00  0.00    -0.744 OA
ENDBRANCH  84  85
ENDBRANCH  52  77
BRANCH  64  89
ATOM     89  C   UNL A   1      45.066  24.166  33.437  1.00  0.00     0.058 A 
ATOM     90  C   UNL A   1      46.367  24.035  33.950  1.00  0.00     0.135 A 
ATOM     91  C   UNL A   1      44.181  23.099  33.703  1.00  0.00     0.135 A 
ATOM     92  F   UNL A   1      47.293  24.977  33.710  1.00  0.00    -0.206 F 
ATOM     93  C   UNL A   1      46.757  22.935  34.715  1.00  0.00     0.059 A 
ATOM     94  C   UNL A   1      44.560  21.970  34.422  1.00  0.00     0.059 A 
ATOM     95  F   UNL A   1      42.903  23.139  33.299  1.00  0.00    -0.206 F 
ATOM     96  C   UNL A   1      45.846  21.906  34.945  1.00  0.00     0.060 A 
BRANCH  96  97
ATOM     97  S   UNL A   1      46.345  20.470  35.913  1.00  0.00     0.124 S 
ATOM     98  O   UNL A   1      45.843  19.354  35.117  1.00  0.00    -0.237 OA
ATOM     99  O   UNL A   1      47.796  20.627  35.935  1.00  0.00    -0.237 OA
ATOM    100  O   UNL A   1      45.670  20.673  37.191  1.00  0.00    -0.744 OA
ENDBRANCH  96  97
ENDBRANCH  64  89
ENDBRANCH  38  39
ENDBRANCH  30  33
ENDBRANCH  28  29
ENDBRANCH   1  28
TORSDOF 16
ENDMDL
MODEL 2
REMARK VINA RESULT:     -15.2      1.094      1.619
REMARK SMILES Cc1ccc(N2C(=O)C[C@H](Sc3ccccc3C(=O)NCCCNC(=O)c3ccc(-c4c5nc(c(-c6c(F)cc(S(=O)(=O)[O-])cc6F)c6ccc([nH]6)c(-c6c(F)cc(S(=O)(=O)[O-])cc6F)c6nc(c(-c7c(F)cc(S(=O)(=O)[O-])cc7F)c7ccc4[nH]7)C=C6)C=C5)cc3)C2=O)cc1
REMARK SMILES IDX 22 1 21 2 20 3 18 4 19 5 17 7 12 8 13 9 14 10 16 11 15 12
REMARK SMILES IDX 11 13 10 14 6 15 7 16 93 17 8 18 9 19 94 20 5 21 1 22 2 23
REMARK SMILES IDX 3 24 96 25 4 26 95 27 23 28 24 29 25 30 26 32 27 33 28 34
REMARK SMILES IDX 92 35 29 36 91 37 30 38 31 39 32 40 85 41 33 42 90 43 84 44
REMARK SMILES IDX 86 45 34 46 89 47 83 48 82 49 35 51 69 52 48 53 68 54 49 55
REMARK SMILES IDX 52 56 67 57 87 58 50 59 51 60 66 62 88 63 53 64 36 65 37 66
REMARK SMILES IDX 46 67 38 68 39 69 45 70 47 71 40 72 41 73 42 74 43 75 44 76
REMARK SMILES IDX 70 77 71 78 80 79 72 80 73 81 79 82 81 83 74 84 75 85 76 86
REMARK SMILES IDX 77 87 78 88 54 89 55 90 64 91 56 92 57 93 63 94 65 95 58 96
REMARK SMILES IDX 59 97 60 98 61 99 62 100
REMARK H PARENT 20 6 24 31 86 50 52 61
REMARK Flexibility Score: inf
ROOT
ATOM      1  C   UNL A   1      32.750  30.297  27.287  1.00  0.00     0.042 C 
ENDROOT
BRANCH   1   2
ATOM      2  C   UNL A   1      32.301  30.622  25.867  1.00  0.00     0.118 C 
BRANCH   2   3
ATOM      3  N   UNL A   1      32.912  29.781  24.838  1.00  0.00    -0.352 N 
ATOM      4  C   UNL A   1      32.500  28.780  23.992  1.00  0.00     0.252 C 
ATOM      5  O   UNL A   1      33.308  28.475  23.113  1.00  0.00    -0.269 OA
ATOM      6  H   UNL A   1      33.866  29.987  24.720  1.00  0.00     0.163 HD
BRANCH   4   7
ATOM      7  C   UNL A   1      31.194  28.044  24.080  1.00  0.00     0.053 A 
ATOM      8  C   UNL A   1      31.025  26.915  24.931  1.00  0.00     0.021 A 
ATOM      9  C   UNL A   1      29.819  26.181  24.879  1.00  0.00     0.016 A 
ATOM     10  C   UNL A   1      28.781  26.548  24.027  1.00  0.00     0.001 A 
ATOM     11  C   UNL A   1      30.126  28.387  23.232  1.00  0.00     0.015 A 
ATOM     12  C   UNL A   1      28.934  27.657  23.209  1.00  0.00     0.001 A 
BRANCH   8  13
ATOM     13  S   UNL A   1      32.274  26.134  25.972  1.00  0.00    -0.111 SA
BRANCH  13  14
ATOM     14  C   UNL A   1      32.525  24.476  25.244  1.00  0.00     0.151 C 
ATOM     15  N   UNL A   1      34.603  23.438  24.971  1.00  0.00    -0.250 N 
ATOM     16  C   UNL A   1      34.306  24.017  23.757  1.00  0.00     0.235 C 
ATOM     17  C   UNL A   1      33.625  23.687  25.909  1.00  0.00     0.247 C 
ATOM     18  O   UNL A   1      35.004  24.108  22.756  1.00  0.00    -0.274 OA
ATOM     19  C   UNL A   1      32.869  24.436  23.775  1.00  0.00     0.126 C 
ATOM     20  O   UNL A   1      33.622  23.381  27.097  1.00  0.00    -0.273 OA
BRANCH  15  21
ATOM     21  C   UNL A   1      35.755  22.638  25.205  1.00  0.00     0.052 A 
ATOM     22  C   UNL A   1      39.353  20.250  25.549  1.00  0.00     0.044 C 
ATOM     23  C   UNL A   1      38.096  21.066  25.477  1.00  0.00    -0.051 A 
ATOM     24  C   UNL A   1      36.913  20.502  24.994  1.00  0.00     0.005 A 
ATOM     25  C   UNL A   1      38.102  22.419  25.824  1.00  0.00     0.005 A 
ATOM     26  C   UNL A   1      35.750  21.272  24.881  1.00  0.00     0.027 A 
ATOM     27  C   UNL A   1      36.947  23.197  25.679  1.00  0.00     0.027 A 
ENDBRANCH  15  21
ENDBRANCH  13  14
ENDBRANCH   8  13
ENDBRANCH   4   7
ENDBRANCH   2   3
ENDBRANCH   1   2
BRANCH   1  28
ATOM     28  C   UNL A   1      34.250  30.028  27.372  1.00  0.00     0.118 C 
BRANCH  28  29
ATOM     29  N   UNL A   1      35.034  31.168  27.847  1.00  0.00    -0.352 N 
ATOM     30  C   UNL A   1      36.268  31.130  28.483  1.00  0.00     0.251 C 
ATOM     31  H   UNL A   1      34.645  32.060  27.700  1.00  0.00     0.163 HD
ATOM     32  O   UNL A   1      36.767  32.100  29.026  1.00  0.00    -0.269 OA
BRANCH  30  33
ATOM     33  C   UNL A   1      37.014  29.861  28.371  1.00  0.00     0.039 A 
ATOM     34  C   UNL A   1      37.119  29.091  29.535  1.00  0.00     0.014 A 
ATOM     35  C   UNL A   1      37.872  29.678  27.292  1.00  0.00     0.014 A 
ATOM     36  C   UNL A   1      38.231  28.276  29.709  1.00  0.00     0.010 A 
ATOM     37  C   UNL A   1      39.012  28.925  27.499  1.00  0.00     0.010 A 
ATOM     38  C   UNL A   1      39.223  28.284  28.731  1.00  0.00    -0.014 A 
BRANCH  38  39
ATOM     39  C   UNL A   1      40.566  27.753  28.943  1.00  0.00     0.031 A 
ATOM     40  C   UNL A   1      40.875  26.357  28.570  1.00  0.00     0.074 A 
ATOM     41  C   UNL A   1      41.555  28.581  29.346  1.00  0.00     0.049 A 
ATOM     42  N   UNL A   1      41.970  25.741  28.854  1.00  0.00    -0.248 NA
ATOM     43  C   UNL A   1      39.912  25.520  27.869  1.00  0.00     0.031 C 
ATOM     44  C   UNL A   1      42.994  28.356  29.247  1.00  0.00     0.029 A 
ATOM     45  N   UNL A   1      41.435  29.727  30.140  1.00  0.00    -0.354 N 
ATOM     46  C   UNL A   1      41.977  24.542  28.177  1.00  0.00     0.074 A 
ATOM     47  C   UNL A   1      40.647  24.432  27.625  1.00  0.00     0.031 C 
ATOM     48  C   UNL A   1      43.616  29.139  30.141  1.00  0.00     0.029 A 
ATOM     49  C   UNL A   1      42.591  29.766  30.954  1.00  0.00     0.049 A 
ATOM     50  H   UNL A   1      40.695  30.376  30.134  1.00  0.00     0.167 HD
ATOM     51  C   UNL A   1      43.148  23.844  28.083  1.00  0.00     0.037 A 
ATOM     52  C   UNL A   1      42.481  29.626  32.310  1.00  0.00     0.037 A 
ATOM     53  C   UNL A   1      44.170  24.413  28.969  1.00  0.00     0.049 A 
ATOM     54  C   UNL A   1      43.119  28.368  32.872  1.00  0.00     0.074 A 
ATOM     55  C   UNL A   1      45.260  25.253  28.809  1.00  0.00     0.029 A 
ATOM     56  N   UNL A   1      43.953  24.340  30.334  1.00  0.00    -0.354 N 
ATOM     57  N   UNL A   1      43.743  27.468  32.160  1.00  0.00    -0.248 NA
ATOM     58  C   UNL A   1      43.038  27.992  34.285  1.00  0.00     0.031 C 
ATOM     59  C   UNL A   1      45.658  25.720  30.099  1.00  0.00     0.029 A 
ATOM     60  C   UNL A   1      44.819  25.151  31.041  1.00  0.00     0.049 A 
ATOM     61  H   UNL A   1      43.262  23.777  30.752  1.00  0.00     0.167 HD
ATOM     62  C   UNL A   1      44.076  26.405  32.957  1.00  0.00     0.074 A 
ATOM     63  C   UNL A   1      43.637  26.789  34.286  1.00  0.00     0.031 C 
ATOM     64  C   UNL A   1      44.645  25.259  32.480  1.00  0.00     0.037 A 
BRANCH  51  65
ATOM     65  C   UNL A   1      43.433  22.777  27.038  1.00  0.00     0.058 A 
ATOM     66  C   UNL A   1      42.729  21.552  27.054  1.00  0.00     0.135 A 
ATOM     67  C   UNL A   1      44.429  22.854  26.044  1.00  0.00     0.135 A 
ATOM     68  F   UNL A   1      41.687  21.353  27.873  1.00  0.00    -0.206 F 
ATOM     69  C   UNL A   1      43.066  20.464  26.241  1.00  0.00     0.059 A 
ATOM     70  C   UNL A   1      44.825  21.765  25.262  1.00  0.00     0.059 A 
ATOM     71  F   UNL A   1      45.026  24.007  25.731  1.00  0.00    -0.206 F 
ATOM     72  C   UNL A   1      44.145  20.566  25.375  1.00  0.00     0.060 A 
BRANCH  72  73
ATOM     73  S   UNL A   1      44.635  19.131  24.400  1.00  0.00     0.124 S 
ATOM     74  O   UNL A   1      46.028  18.952  24.798  1.00  0.00    -0.237 OA
ATOM     75  O   UNL A   1      43.703  18.112  24.867  1.00  0.00    -0.237 OA
ATOM     76  O   UNL A   1      44.439  19.573  23.021  1.00  0.00    -0.744 OA
ENDBRANCH  72  73
ENDBRANCH  51  65
BRANCH  52  77
ATOM     77  C   UNL A   1      41.282  30.325  32.852  1.00  0.00     0.058 A 
ATOM     78  C   UNL A   1      40.157  29.535  33.164  1.00  0.00     0.135 A 
ATOM     79  C   UNL A   1      41.378  31.585  33.456  1.00  0.00     0.135 A 
ATOM     80  F   UNL A   1      40.009  28.325  32.599  1.00  0.00    -0.206 F 
ATOM     81  C   UNL A   1      39.263  29.898  34.163  1.00  0.00     0.059 A 
ATOM     82  C   UNL A   1      40.481  31.975  34.454  1.00  0.00     0.059 A 
ATOM     83  F   UNL A   1      42.422  32.384  33.194  1.00  0.00    -0.206 F 
ATOM     84  C   UNL A   1      39.476  31.092  34.849  1.00  0.00     0.060 A 
BRANCH  84  85
ATOM     85  S   UNL A   1      38.543  31.360  36.376  1.00  0.00     0.124 S 
ATOM     86  O   UNL A   1      39.526  32.031  37.218  1.00  0.00    -0.237 OA
ATOM     87  O   UNL A   1      37.438  32.196  35.910  1.00  0.00    -0.237 OA
ATOM     88  O   UNL A   1      38.178  30.008  36.785  1.00  0.00    -0.744 OA
ENDBRANCH  84  85
ENDBRANCH  52  77
BRANCH  64  89
ATOM     89  C   UNL A   1      45.052  24.121  33.373  1.00  0.00     0.058 A 
ATOM     90  C   UNL A   1      44.120  23.192  33.864  1.00  0.00     0.135 A 
ATOM     91  C   UNL A   1      46.370  24.001  33.864  1.00  0.00     0.135 A 
ATOM     92  F   UNL A   1      42.832  23.254  33.491  1.00  0.00    -0.206 F 
ATOM     93  C   UNL A   1      44.480  22.180  34.755  1.00  0.00     0.059 A 
ATOM     94  C   UNL A   1      46.741  23.030  34.789  1.00  0.00     0.059 A 
ATOM     95  F   UNL A   1      47.350  24.807  33.430  1.00  0.00    -0.206 F 
ATOM     96  C   UNL A   1      45.794  22.108  35.213  1.00  0.00     0.060 A 
BRANCH  96  97
ATOM     97  S   UNL A   1      46.264  20.818  36.381  1.00  0.00     0.124 S 
ATOM     98  O   UNL A   1      45.679  19.618  35.789  1.00  0.00    -0.237 OA
ATOM     99  O   UNL A   1      47.720  20.900  36.332  1.00  0.00    -0.237 OA
ATOM    100  O   UNL A   1      45.649  21.255  37.631  1.00  0.00    -0.744 OA
ENDBRANCH  96  97
ENDBRANCH  64  89
ENDBRANCH  38  39
ENDBRANCH  30  33
ENDBRANCH  28  29
ENDBRANCH   1  28
TORSDOF 16
ENDMDL
MODEL 3
REMARK VINA RESULT:     -15.2      0.889      1.633
REMARK SMILES Cc1ccc(N2C(=O)C[C@H](Sc3ccccc3C(=O)NCCCNC(=O)c3ccc(-c4c5nc(c(-c6c(F)cc(S(=O)(=O)[O-])cc6F)c6ccc([nH]6)c(-c6c(F)cc(S(=O)(=O)[O-])cc6F)c6nc(c(-c7c(F)cc(S(=O)(=O)[O-])cc7F)c7ccc4[nH]7)C=C6)C=C5)cc3)C2=O)cc1
REMARK SMILES IDX 22 1 21 2 20 3 18 4 19 5 17 7 12 8 13 9 14 10 16 11 15 12
REMARK SMILES IDX 11 13 10 14 6 15 7 16 93 17 8 18 9 19 94 20 5 21 1 22 2 23
REMARK SMILES IDX 3 24 96 25 4 26 95 27 23 28 24 29 25 30 26 32 27 33 28 34
REMARK SMILES IDX 92 35 29 36 91 37 30 38 31 39 32 40 85 41 33 42 90 43 84 44
REMARK SMILES IDX 86 45 34 46 89 47 83 48 82 49 35 51 69 52 48 53 68 54 49 55
REMARK SMILES IDX 52 56 67 57 87 58 50 59 51 60 66 62 88 63 53 64 36 65 37 66
REMARK SMILES IDX 46 67 38 68 39 69 45 70 47 71 40 72 41 73 42 74 43 75 44 76
REMARK SMILES IDX 70 77 71 78 80 79 72 80 73 81 79 82 81 83 74 84 75 85 76 86
REMARK SMILES IDX 77 87 78 88 54 89 55 90 64 91 56 92 57 93 63 94 65 95 58 96
REMARK SMILES IDX 59 97 60 98 61 99 62 100
REMARK H PARENT 20 6 24 31 86 50 52 61
REMARK Flexibility Score: inf
ROOT
ATOM      1  C   UNL A   1      33.113  30.081  27.440  1.00  0.00     0.042 C 
ENDROOT
BRANCH   1   2
ATOM      2  C   UNL A   1      32.325  30.420  26.180  1.00  0.00     0.118 C 
BRANCH   2   3
ATOM      3  N   UNL A   1      32.854  29.811  24.960  1.00  0.00    -0.352 N 
ATOM      4  C   UNL A   1      32.336  29.208  23.840  1.00  0.00     0.252 C 
ATOM      5  O   UNL A   1      33.145  29.015  22.931  1.00  0.00    -0.269 OA
ATOM      6  H   UNL A   1      33.836  29.841  24.935  1.00  0.00     0.163 HD
BRANCH   4   7
ATOM      7  C   UNL A   1      30.912  28.763  23.666  1.00  0.00     0.053 A 
ATOM      8  C   UNL A   1      30.475  27.469  24.068  1.00  0.00     0.021 A 
ATOM      9  C   UNL A   1      29.160  27.054  23.764  1.00  0.00     0.016 A 
ATOM     10  C   UNL A   1      28.271  27.890  23.095  1.00  0.00     0.001 A 
ATOM     11  C   UNL A   1      29.989  29.582  22.992  1.00  0.00     0.015 A 
ATOM     12  C   UNL A   1      28.685  29.157  22.716  1.00  0.00     0.001 A 
BRANCH   8  13
ATOM     13  S   UNL A   1      31.481  26.146  24.770  1.00  0.00    -0.111 SA
BRANCH  13  14
ATOM     14  C   UNL A   1      31.183  24.702  23.688  1.00  0.00     0.151 C 
ATOM     15  N   UNL A   1      32.473  22.751  23.680  1.00  0.00    -0.250 N 
ATOM     16  C   UNL A   1      32.955  23.528  22.650  1.00  0.00     0.235 C 
ATOM     17  C   UNL A   1      31.453  23.380  24.362  1.00  0.00     0.247 C 
ATOM     18  O   UNL A   1      33.931  23.341  21.936  1.00  0.00    -0.274 OA
ATOM     19  C   UNL A   1      31.988  24.646  22.413  1.00  0.00     0.126 C 
ATOM     20  O   UNL A   1      30.867  22.995  25.367  1.00  0.00    -0.273 OA
BRANCH  15  21
ATOM     21  C   UNL A   1      32.941  21.439  23.966  1.00  0.00     0.052 A 
ATOM     22  C   UNL A   1      34.525  17.443  24.492  1.00  0.00     0.044 C 
ATOM     23  C   UNL A   1      33.954  18.823  24.354  1.00  0.00    -0.051 A 
ATOM     24  C   UNL A   1      32.758  19.026  23.662  1.00  0.00     0.005 A 
ATOM     25  C   UNL A   1      34.640  19.933  24.851  1.00  0.00     0.005 A 
ATOM     26  C   UNL A   1      32.245  20.317  23.490  1.00  0.00     0.027 A 
ATOM     27  C   UNL A   1      34.143  21.226  24.650  1.00  0.00     0.027 A 
ENDBRANCH  15  21
ENDBRANCH  13  14
ENDBRANCH   8  13
ENDBRANCH   4   7
ENDBRANCH   2   3
ENDBRANCH   1   2
BRANCH   1  28
ATOM     28  C   UNL A   1      34.612  29.970  27.172  1.00  0.00     0.118 C 
BRANCH  28  29
ATOM     29  N   UNL A   1      35.389  31.117  27.643  1.00  0.00    -0.352 N 
ATOM     30  C   UNL A   1      36.570  31.086  28.371  1.00  0.00     0.251 C 
ATOM     31  H   UNL A   1      35.035  32.007  27.419  1.00  0.00     0.163 HD
ATOM     32  O   UNL A   1      37.053  32.074  28.897  1.00  0.00    -0.269 OA
BRANCH  30  33
ATOM     33  C   UNL A   1      37.289  29.797  28.384  1.00  0.00     0.039 A 
ATOM     34  C   UNL A   1      37.409  29.158  29.624  1.00  0.00     0.014 A 
ATOM     35  C   UNL A   1      38.115  29.476  27.312  1.00  0.00     0.014 A 
ATOM     36  C   UNL A   1      38.509  28.344  29.861  1.00  0.00     0.010 A 
ATOM     37  C   UNL A   1      39.245  28.726  27.575  1.00  0.00     0.010 A 
ATOM     38  C   UNL A   1      39.476  28.221  28.866  1.00  0.00    -0.014 A 
BRANCH  38  39
ATOM     39  C   UNL A   1      40.813  27.687  29.104  1.00  0.00     0.031 A 
ATOM     40  C   UNL A   1      41.152  26.320  28.658  1.00  0.00     0.074 A 
ATOM     41  C   UNL A   1      41.775  28.495  29.602  1.00  0.00     0.049 A 
ATOM     42  N   UNL A   1      42.240  25.695  28.952  1.00  0.00    -0.248 NA
ATOM     43  C   UNL A   1      40.230  25.522  27.863  1.00  0.00     0.031 C 
ATOM     44  C   UNL A   1      43.219  28.287  29.554  1.00  0.00     0.029 A 
ATOM     45  N   UNL A   1      41.609  29.588  30.461  1.00  0.00    -0.354 N 
ATOM     46  C   UNL A   1      42.289  24.541  28.201  1.00  0.00     0.074 A 
ATOM     47  C   UNL A   1      40.986  24.457  27.585  1.00  0.00     0.031 C 
ATOM     48  C   UNL A   1      43.793  29.016  30.523  1.00  0.00     0.029 A 
ATOM     49  C   UNL A   1      42.727  29.584  31.327  1.00  0.00     0.049 A 
ATOM     50  H   UNL A   1      40.863  30.230  30.462  1.00  0.00     0.167 HD
ATOM     51  C   UNL A   1      43.470  23.859  28.116  1.00  0.00     0.037 A 
ATOM     52  C   UNL A   1      42.558  29.357  32.665  1.00  0.00     0.037 A 
ATOM     53  C   UNL A   1      44.446  24.378  29.082  1.00  0.00     0.049 A 
ATOM     54  C   UNL A   1      43.182  28.070  33.175  1.00  0.00     0.074 A 
ATOM     55  C   UNL A   1      45.533  25.235  29.024  1.00  0.00     0.029 A 
ATOM     56  N   UNL A   1      44.169  24.218  30.428  1.00  0.00    -0.354 N 
ATOM     57  N   UNL A   1      43.847  27.222  32.436  1.00  0.00    -0.248 NA
ATOM     58  C   UNL A   1      43.042  27.605  34.556  1.00  0.00     0.031 C 
ATOM     59  C   UNL A   1      45.868  25.622  30.357  1.00  0.00     0.029 A 
ATOM     60  C   UNL A   1      44.994  24.988  31.223  1.00  0.00     0.049 A 
ATOM     61  H   UNL A   1      43.466  23.624  30.778  1.00  0.00     0.167 HD
ATOM     62  C   UNL A   1      44.155  26.113  33.179  1.00  0.00     0.074 A 
ATOM     63  C   UNL A   1      43.653  26.408  34.508  1.00  0.00     0.031 C 
ATOM     64  C   UNL A   1      44.756  25.003  32.657  1.00  0.00     0.037 A 
BRANCH  51  65
ATOM     65  C   UNL A   1      43.812  22.863  27.019  1.00  0.00     0.058 A 
ATOM     66  C   UNL A   1      43.059  21.676  26.870  1.00  0.00     0.135 A 
ATOM     67  C   UNL A   1      44.903  22.966  26.134  1.00  0.00     0.135 A 
ATOM     68  F   UNL A   1      41.934  21.467  27.567  1.00  0.00    -0.206 F 
ATOM     69  C   UNL A   1      43.429  20.639  26.006  1.00  0.00     0.059 A 
ATOM     70  C   UNL A   1      45.328  21.923  25.307  1.00  0.00     0.059 A 
ATOM     71  F   UNL A   1      45.576  24.109  25.974  1.00  0.00    -0.206 F 
ATOM     72  C   UNL A   1      44.591  20.753  25.258  1.00  0.00     0.060 A 
BRANCH  72  73
ATOM     73  S   UNL A   1      45.115  19.375  24.221  1.00  0.00     0.124 S 
ATOM     74  O   UNL A   1      46.568  19.509  24.244  1.00  0.00    -0.237 OA
ATOM     75  O   UNL A   1      44.570  18.229  24.939  1.00  0.00    -0.237 OA
ATOM     76  O   UNL A   1      44.488  19.661  22.933  1.00  0.00    -0.744 OA
ENDBRANCH  72  73
ENDBRANCH  51  65
BRANCH  52  77
ATOM     77  C   UNL A   1      41.329  30.011  33.195  1.00  0.00     0.058 A 
ATOM     78  C   UNL A   1      41.373  31.406  33.396  1.00  0.00     0.135 A 
ATOM     79  C   UNL A   1      40.069  29.412  33.076  1.00  0.00     0.135 A 
ATOM     80  F   UNL A   1      42.556  32.029  33.532  1.00  0.00    -0.206 F 
ATOM     81  C   UNL A   1      40.232  32.194  33.302  1.00  0.00     0.059 A 
ATOM     82  C   UNL A   1      38.908  30.186  32.993  1.00  0.00     0.059 A 
ATOM     83  F   UNL A   1      39.964  28.088  32.891  1.00  0.00    -0.206 F 
ATOM     84  C   UNL A   1      39.014  31.577  33.032  1.00  0.00     0.060 A 
BRANCH  84  85
ATOM     85  S   UNL A   1      37.628  32.632  32.541  1.00  0.00     0.124 S 
ATOM     86  O   UNL A   1      37.279  33.280  33.801  1.00  0.00    -0.237 OA
ATOM     87  O   UNL A   1      38.250  33.498  31.540  1.00  0.00    -0.237 OA
ATOM     88  O   UNL A   1      36.650  31.680  32.027  1.00  0.00    -0.744 OA
ENDBRANCH  84  85
ENDBRANCH  52  77
BRANCH  64  89
ATOM     89  C   UNL A   1      45.135  23.814  33.493  1.00  0.00     0.058 A 
ATOM     90  C   UNL A   1      44.234  22.765  33.745  1.00  0.00     0.135 A 
ATOM     91  C   UNL A   1      46.371  23.750  34.171  1.00  0.00     0.135 A 
ATOM     92  F   UNL A   1      43.016  22.762  33.181  1.00  0.00    -0.206 F 
ATOM     93  C   UNL A   1      44.554  21.697  34.584  1.00  0.00     0.059 A 
ATOM     94  C   UNL A   1      46.693  22.720  35.050  1.00  0.00     0.059 A 
ATOM     95  F   UNL A   1      47.321  24.675  33.973  1.00  0.00    -0.206 F 
ATOM     96  C   UNL A   1      45.786  21.684  35.233  1.00  0.00     0.060 A 
BRANCH  96  97
ATOM     97  S   UNL A   1      46.200  20.320  36.337  1.00  0.00     0.124 S 
ATOM     98  O   UNL A   1      45.803  20.832  37.645  1.00  0.00    -0.237 OA
ATOM     99  O   UNL A   1      45.367  19.250  35.798  1.00  0.00    -0.237 OA
ATOM    100  O   UNL A   1      47.638  20.157  36.147  1.00  0.00    -0.744 OA
ENDBRANCH  96  97
ENDBRANCH  64  89
ENDBRANCH  38  39
ENDBRANCH  30  33
ENDBRANCH  28  29
ENDBRANCH   1  28
TORSDOF 16
ENDMDL
