MODEL 1
REMARK VINA RESULT:     -13.1      0.000      0.000
REMARK SMILES C/C(=N\NC(N)=S)c1nnn(-c2ccc(C(=O)NCCCNC(=O)c3ccc(-c4c5nc(c(-c6c(F)cc(S(=O)(=O)[O-])cc6F)c6ccc([nH]6)c(-c6c(F)cc(S(=O)(=O)[O-])cc6F)c6nc(c(-c7c(F)cc(S(=O)(=O)[O-])cc7F)c7ccc4[nH]7)C=C6)C=C5)cc3)cc2)c1C
REMARK SMILES IDX 19 1 18 2 16 3 17 4 15 6 12 7 13 8 92 9 14 10 91 11 11 12
REMARK SMILES IDX 8 13 9 14 93 15 10 16 94 17 2 18 1 19 3 20 4 21 5 23 7 24
REMARK SMILES IDX 6 25 20 28 21 29 22 30 23 31 24 33 25 34 26 35 90 36 27 37
REMARK SMILES IDX 89 38 28 39 29 40 30 41 83 42 31 43 88 44 82 45 84 46 32 47
REMARK SMILES IDX 87 48 81 49 80 50 33 52 67 53 46 54 66 55 47 56 50 57 65 58
REMARK SMILES IDX 85 59 48 60 49 61 64 63 86 64 51 65 34 66 35 67 44 68 36 69
REMARK SMILES IDX 37 70 43 71 45 72 38 73 39 74 40 75 41 76 42 77 68 78 69 79
REMARK SMILES IDX 78 80 70 81 71 82 77 83 79 84 72 85 73 86 74 87 75 88 76 89
REMARK SMILES IDX 52 90 53 91 62 92 54 93 55 94 61 95 63 96 56 97 57 98 58 99
REMARK SMILES IDX 59 100 60 101
REMARK H PARENT 18 5 4 22 6 26 6 27 22 32 84 51 50 62
REMARK Flexibility Score: inf
ROOT
ATOM      1  C   UNL A   1      36.152  20.976  25.003  1.00  0.00     0.118 C 
ENDROOT
BRANCH   1   2
ATOM      2  N   UNL A   1      34.997  20.156  25.356  1.00  0.00    -0.352 N 
ATOM      3  C   UNL A   1      33.640  20.387  25.266  1.00  0.00     0.251 C 
ATOM      4  O   UNL A   1      32.873  19.445  25.449  1.00  0.00    -0.269 OA
ATOM      5  H   UNL A   1      35.229  19.273  25.724  1.00  0.00     0.163 HD
BRANCH   3   6
ATOM      6  C   UNL A   1      33.076  21.714  24.891  1.00  0.00     0.039 A 
ATOM      7  C   UNL A   1      32.355  24.276  24.087  1.00  0.00     0.067 A 
ATOM      8  C   UNL A   1      32.437  23.270  23.124  1.00  0.00     0.029 A 
ATOM      9  C   UNL A   1      32.485  23.993  25.442  1.00  0.00     0.029 A 
ATOM     10  C   UNL A   1      32.824  21.987  23.534  1.00  0.00     0.016 A 
ATOM     11  C   UNL A   1      32.797  22.702  25.833  1.00  0.00     0.016 A 
BRANCH   7  12
ATOM     12  N   UNL A   1      32.314  25.623  23.712  1.00  0.00    -0.217 N 
ATOM     13  C   UNL A   1      31.658  27.628  23.218  1.00  0.00     0.132 A 
ATOM     14  N   UNL A   1      32.967  27.482  22.832  1.00  0.00    -0.128 NA
ATOM     15  C   UNL A   1      31.223  26.466  23.818  1.00  0.00     0.071 A 
ATOM     16  N   UNL A   1      33.377  26.276  23.208  1.00  0.00    -0.061 NA
ATOM     17  C   UNL A   1      29.976  26.131  24.549  1.00  0.00     0.069 C 
BRANCH  13  18
ATOM     18  C   UNL A   1      30.970  28.903  23.166  1.00  0.00     0.087 C 
ATOM     19  C   UNL A   1      30.951  29.691  24.450  1.00  0.00     0.071 C 
ATOM     20  N   UNL A   1      30.486  29.238  22.006  1.00  0.00    -0.176 NA
BRANCH  20  21
ATOM     21  N   UNL A   1      29.886  30.446  21.802  1.00  0.00    -0.254 N 
ATOM     22  H   UNL A   1      30.446  31.236  21.984  1.00  0.00     0.193 HD
BRANCH  21  23
ATOM     23  C   UNL A   1      28.601  30.707  21.374  1.00  0.00     0.184 C 
ATOM     24  S   UNL A   1      28.010  31.996  20.505  1.00  0.00    -0.040 S 
BRANCH  23  25
ATOM     25  N   UNL A   1      27.727  29.723  21.750  1.00  0.00    -0.375 N 
ATOM     26  H   UNL A   1      26.947  29.945  22.309  1.00  0.00     0.159 HD
ATOM     27  H   UNL A   1      27.878  28.794  21.462  1.00  0.00     0.159 HD
ENDBRANCH  23  25
ENDBRANCH  21  23
ENDBRANCH  20  21
ENDBRANCH  13  18
ENDBRANCH   7  12
ENDBRANCH   3   6
ENDBRANCH   1   2
BRANCH   1  28
ATOM     28  C   UNL A   1      36.436  22.094  26.022  1.00  0.00     0.042 C 
BRANCH  28  29
ATOM     29  C   UNL A   1      37.751  22.802  25.780  1.00  0.00     0.118 C 
BRANCH  29  30
ATOM     30  N   UNL A   1      38.915  22.029  26.224  1.00  0.00    -0.352 N 
ATOM     31  C   UNL A   1      40.152  22.503  26.655  1.00  0.00     0.251 C 
ATOM     32  H   UNL A   1      38.809  21.051  26.217  1.00  0.00     0.163 HD
ATOM     33  O   UNL A   1      41.134  21.784  26.634  1.00  0.00    -0.269 OA
BRANCH  31  34
ATOM     34  C   UNL A   1      40.234  23.899  27.130  1.00  0.00     0.039 A 
ATOM     35  C   UNL A   1      39.165  24.797  27.072  1.00  0.00     0.014 A 
ATOM     36  C   UNL A   1      41.433  24.275  27.709  1.00  0.00     0.014 A 
ATOM     37  C   UNL A   1      39.323  26.049  27.668  1.00  0.00     0.010 A 
ATOM     38  C   UNL A   1      41.453  25.330  28.566  1.00  0.00     0.010 A 
ATOM     39  C   UNL A   1      40.478  26.297  28.424  1.00  0.00    -0.014 A 
BRANCH  39  40
ATOM     40  C   UNL A   1      40.734  27.548  29.118  1.00  0.00     0.031 A 
ATOM     41  C   UNL A   1      41.818  28.366  28.527  1.00  0.00     0.074 A 
ATOM     42  C   UNL A   1      39.872  28.043  30.037  1.00  0.00     0.049 A 
ATOM     43  N   UNL A   1      42.993  28.589  29.010  1.00  0.00    -0.248 NA
ATOM     44  C   UNL A   1      41.637  28.856  27.151  1.00  0.00     0.031 C 
ATOM     45  C   UNL A   1      38.560  27.521  30.457  1.00  0.00     0.029 A 
ATOM     46  N   UNL A   1      39.949  29.209  30.726  1.00  0.00    -0.354 N 
ATOM     47  C   UNL A   1      43.612  29.451  28.111  1.00  0.00     0.074 A 
ATOM     48  C   UNL A   1      42.835  29.389  26.902  1.00  0.00     0.031 C 
ATOM     49  C   UNL A   1      37.882  28.474  31.133  1.00  0.00     0.029 A 
ATOM     50  C   UNL A   1      38.772  29.595  31.360  1.00  0.00     0.049 A 
ATOM     51  H   UNL A   1      40.774  29.742  30.774  1.00  0.00     0.167 HD
ATOM     52  C   UNL A   1      44.564  30.335  28.521  1.00  0.00     0.037 A 
ATOM     53  C   UNL A   1      38.553  30.769  32.003  1.00  0.00     0.037 A 
ATOM     54  C   UNL A   1      45.027  30.014  29.850  1.00  0.00     0.049 A 
ATOM     55  C   UNL A   1      39.894  31.332  32.319  1.00  0.00     0.074 A 
ATOM     56  C   UNL A   1      45.626  28.908  30.423  1.00  0.00     0.029 A 
ATOM     57  N   UNL A   1      44.507  30.738  30.900  1.00  0.00    -0.354 N 
ATOM     58  N   UNL A   1      40.742  30.770  33.141  1.00  0.00    -0.248 NA
ATOM     59  C   UNL A   1      40.482  32.246  31.353  1.00  0.00     0.031 C 
ATOM     60  C   UNL A   1      45.008  28.773  31.701  1.00  0.00     0.029 A 
ATOM     61  C   UNL A   1      44.130  29.845  31.873  1.00  0.00     0.049 A 
ATOM     62  H   UNL A   1      44.420  31.717  30.944  1.00  0.00     0.167 HD
ATOM     63  C   UNL A   1      41.984  30.925  32.540  1.00  0.00     0.074 A 
ATOM     64  C   UNL A   1      41.769  31.910  31.480  1.00  0.00     0.031 C 
ATOM     65  C   UNL A   1      42.999  30.035  32.762  1.00  0.00     0.037 A 
BRANCH  52  66
ATOM     66  C   UNL A   1      44.828  31.675  27.874  1.00  0.00     0.058 A 
ATOM     67  C   UNL A   1      46.048  31.887  27.200  1.00  0.00     0.135 A 
ATOM     68  C   UNL A   1      44.051  32.834  28.098  1.00  0.00     0.135 A 
ATOM     69  F   UNL A   1      46.874  30.861  26.941  1.00  0.00    -0.206 F 
ATOM     70  C   UNL A   1      46.490  33.160  26.835  1.00  0.00     0.059 A 
ATOM     71  C   UNL A   1      44.444  34.103  27.691  1.00  0.00     0.059 A 
ATOM     72  F   UNL A   1      42.918  32.814  28.809  1.00  0.00    -0.206 F 
ATOM     73  C   UNL A   1      45.684  34.264  27.097  1.00  0.00     0.060 A 
BRANCH  73  74
ATOM     74  S   UNL A   1      46.293  35.916  26.722  1.00  0.00     0.124 S 
ATOM     75  O   UNL A   1      47.183  36.160  27.851  1.00  0.00    -0.237 OA
ATOM     76  O   UNL A   1      46.938  35.713  25.428  1.00  0.00    -0.237 OA
ATOM     77  O   UNL A   1      45.077  36.723  26.689  1.00  0.00    -0.744 OA
ENDBRANCH  73  74
ENDBRANCH  52  66
BRANCH  53  78
ATOM     78  C   UNL A   1      37.306  31.582  32.026  1.00  0.00     0.058 A 
ATOM     79  C   UNL A   1      36.730  31.998  33.238  1.00  0.00     0.135 A 
ATOM     80  C   UNL A   1      36.817  32.208  30.860  1.00  0.00     0.135 A 
ATOM     81  F   UNL A   1      37.147  31.469  34.399  1.00  0.00    -0.206 F 
ATOM     82  C   UNL A   1      35.768  33.014  33.299  1.00  0.00     0.059 A 
ATOM     83  C   UNL A   1      35.854  33.217  30.895  1.00  0.00     0.059 A 
ATOM     84  F   UNL A   1      37.332  31.923  29.655  1.00  0.00    -0.206 F 
ATOM     85  C   UNL A   1      35.352  33.635  32.121  1.00  0.00     0.060 A 
BRANCH  85  86
ATOM     86  S   UNL A   1      34.255  35.073  32.211  1.00  0.00     0.124 S 
ATOM     87  O   UNL A   1      33.097  34.525  32.907  1.00  0.00    -0.237 OA
ATOM     88  O   UNL A   1      35.060  36.028  32.966  1.00  0.00    -0.237 OA
ATOM     89  O   UNL A   1      34.036  35.421  30.810  1.00  0.00    -0.744 OA
ENDBRANCH  85  86
ENDBRANCH  53  78
BRANCH  65  90
ATOM     90  C   UNL A   1      42.840  29.027  33.878  1.00  0.00     0.058 A 
ATOM     91  C   UNL A   1      43.046  29.303  35.243  1.00  0.00     0.135 A 
ATOM     92  C   UNL A   1      42.297  27.771  33.564  1.00  0.00     0.135 A 
ATOM     93  F   UNL A   1      43.463  30.509  35.646  1.00  0.00    -0.206 F 
ATOM     94  C   UNL A   1      42.763  28.367  36.241  1.00  0.00     0.059 A 
ATOM     95  C   UNL A   1      41.977  26.834  34.544  1.00  0.00     0.059 A 
ATOM     96  F   UNL A   1      42.017  27.462  32.287  1.00  0.00    -0.206 F 
ATOM     97  C   UNL A   1      42.225  27.133  35.881  1.00  0.00     0.060 A 
BRANCH  97  98
ATOM     98  S   UNL A   1      41.789  25.950  37.175  1.00  0.00     0.124 S 
ATOM     99  O   UNL A   1      40.451  26.388  37.554  1.00  0.00    -0.237 OA
ATOM    100  O   UNL A   1      41.863  24.670  36.477  1.00  0.00    -0.237 OA
ATOM    101  O   UNL A   1      42.822  26.157  38.187  1.00  0.00    -0.744 OA
ENDBRANCH  97  98
ENDBRANCH  65  90
ENDBRANCH  39  40
ENDBRANCH  31  34
ENDBRANCH  29  30
ENDBRANCH  28  29
ENDBRANCH   1  28
TORSDOF 18
ENDMDL
MODEL 2
REMARK VINA RESULT:     -12.8      1.521      2.098
REMARK SMILES C/C(=N\NC(N)=S)c1nnn(-c2ccc(C(=O)NCCCNC(=O)c3ccc(-c4c5nc(c(-c6c(F)cc(S(=O)(=O)[O-])cc6F)c6ccc([nH]6)c(-c6c(F)cc(S(=O)(=O)[O-])cc6F)c6nc(c(-c7c(F)cc(S(=O)(=O)[O-])cc7F)c7ccc4[nH]7)C=C6)C=C5)cc3)cc2)c1C
REMARK SMILES IDX 19 1 18 2 16 3 17 4 15 6 12 7 13 8 92 9 14 10 91 11 11 12
REMARK SMILES IDX 8 13 9 14 93 15 10 16 94 17 2 18 1 19 3 20 4 21 5 23 7 24
REMARK SMILES IDX 6 25 20 28 21 29 22 30 23 31 24 33 25 34 26 35 90 36 27 37
REMARK SMILES IDX 89 38 28 39 29 40 30 41 83 42 31 43 88 44 82 45 84 46 32 47
REMARK SMILES IDX 87 48 81 49 80 50 33 52 67 53 46 54 66 55 47 56 50 57 65 58
REMARK SMILES IDX 85 59 48 60 49 61 64 63 86 64 51 65 34 66 35 67 44 68 36 69
REMARK SMILES IDX 37 70 43 71 45 72 38 73 39 74 40 75 41 76 42 77 68 78 69 79
REMARK SMILES IDX 78 80 70 81 71 82 77 83 79 84 72 85 73 86 74 87 75 88 76 89
REMARK SMILES IDX 52 90 53 91 62 92 54 93 55 94 61 95 63 96 56 97 57 98 58 99
REMARK SMILES IDX 59 100 60 101
REMARK H PARENT 18 5 4 22 6 26 6 27 22 32 84 51 50 62
REMARK Flexibility Score: inf
ROOT
ATOM      1  C   UNL A   1      37.946  22.061  25.419  1.00  0.00     0.118 C 
ENDROOT
BRANCH   1   2
ATOM      2  N   UNL A   1      36.888  21.062  25.301  1.00  0.00    -0.352 N 
ATOM      3  C   UNL A   1      35.560  21.165  24.942  1.00  0.00     0.251 C 
ATOM      4  O   UNL A   1      34.930  20.132  24.729  1.00  0.00    -0.269 OA
ATOM      5  H   UNL A   1      37.175  20.146  25.516  1.00  0.00     0.163 HD
BRANCH   3   6
ATOM      6  C   UNL A   1      34.883  22.476  24.736  1.00  0.00     0.039 A 
ATOM      7  C   UNL A   1      33.377  24.809  24.591  1.00  0.00     0.067 A 
ATOM      8  C   UNL A   1      34.295  24.668  25.632  1.00  0.00     0.029 A 
ATOM      9  C   UNL A   1      33.306  23.880  23.559  1.00  0.00     0.029 A 
ATOM     10  C   UNL A   1      35.033  23.480  25.711  1.00  0.00     0.016 A 
ATOM     11  C   UNL A   1      34.096  22.745  23.619  1.00  0.00     0.016 A 
BRANCH   7  12
ATOM     12  N   UNL A   1      32.383  25.792  24.642  1.00  0.00    -0.217 N 
ATOM     13  C   UNL A   1      31.316  27.678  24.627  1.00  0.00     0.132 A 
ATOM     14  N   UNL A   1      30.479  26.698  25.098  1.00  0.00    -0.128 NA
ATOM     15  C   UNL A   1      32.532  27.121  24.292  1.00  0.00     0.071 A 
ATOM     16  N   UNL A   1      31.120  25.537  25.031  1.00  0.00    -0.061 NA
ATOM     17  C   UNL A   1      33.721  27.674  23.600  1.00  0.00     0.069 C 
BRANCH  13  18
ATOM     18  C   UNL A   1      30.858  29.024  24.349  1.00  0.00     0.087 C 
ATOM     19  C   UNL A   1      31.410  30.102  25.244  1.00  0.00     0.071 C 
ATOM     20  N   UNL A   1      30.056  29.152  23.333  1.00  0.00    -0.176 NA
BRANCH  20  21
ATOM     21  N   UNL A   1      29.615  30.373  22.916  1.00  0.00    -0.254 N 
ATOM     22  H   UNL A   1      30.119  31.147  23.258  1.00  0.00     0.193 HD
BRANCH  21  23
ATOM     23  C   UNL A   1      28.558  30.667  22.080  1.00  0.00     0.184 C 
ATOM     24  S   UNL A   1      28.268  32.027  21.169  1.00  0.00    -0.040 S 
BRANCH  23  25
ATOM     25  N   UNL A   1      27.645  29.649  22.033  1.00  0.00    -0.375 N 
ATOM     26  H   UNL A   1      27.719  28.891  22.658  1.00  0.00     0.159 HD
ATOM     27  H   UNL A   1      26.914  29.672  21.374  1.00  0.00     0.159 HD
ENDBRANCH  23  25
ENDBRANCH  21  23
ENDBRANCH  20  21
ENDBRANCH  13  18
ENDBRANCH   7  12
ENDBRANCH   3   6
ENDBRANCH   1   2
BRANCH   1  28
ATOM     28  C   UNL A   1      39.199  21.534  26.139  1.00  0.00     0.042 C 
BRANCH  28  29
ATOM     29  C   UNL A   1      40.145  22.633  26.573  1.00  0.00     0.118 C 
BRANCH  29  30
ATOM     30  N   UNL A   1      41.523  22.426  26.118  1.00  0.00    -0.352 N 
ATOM     31  C   UNL A   1      42.473  23.385  25.778  1.00  0.00     0.251 C 
ATOM     32  H   UNL A   1      41.814  21.488  26.044  1.00  0.00     0.163 HD
ATOM     33  O   UNL A   1      43.423  23.096  25.075  1.00  0.00    -0.269 OA
BRANCH  31  34
ATOM     34  C   UNL A   1      42.289  24.757  26.292  1.00  0.00     0.039 A 
ATOM     35  C   UNL A   1      41.416  25.685  25.717  1.00  0.00     0.014 A 
ATOM     36  C   UNL A   1      42.993  25.078  27.439  1.00  0.00     0.014 A 
ATOM     37  C   UNL A   1      41.231  26.906  26.367  1.00  0.00     0.010 A 
ATOM     38  C   UNL A   1      42.553  26.095  28.225  1.00  0.00     0.010 A 
ATOM     39  C   UNL A   1      41.805  27.092  27.633  1.00  0.00    -0.014 A 
BRANCH  39  40
ATOM     40  C   UNL A   1      41.651  28.306  28.417  1.00  0.00     0.031 A 
ATOM     41  C   UNL A   1      42.716  29.313  28.203  1.00  0.00     0.074 A 
ATOM     42  C   UNL A   1      40.495  28.600  29.058  1.00  0.00     0.049 A 
ATOM     43  N   UNL A   1      43.653  29.658  29.020  1.00  0.00    -0.248 NA
ATOM     44  C   UNL A   1      42.861  29.883  26.854  1.00  0.00     0.031 C 
ATOM     45  C   UNL A   1      39.217  27.867  29.053  1.00  0.00     0.029 A 
ATOM     46  N   UNL A   1      40.186  29.705  29.781  1.00  0.00    -0.354 N 
ATOM     47  C   UNL A   1      44.359  30.668  28.376  1.00  0.00     0.074 A 
ATOM     48  C   UNL A   1      43.981  30.597  26.990  1.00  0.00     0.031 C 
ATOM     49  C   UNL A   1      38.232  28.658  29.532  1.00  0.00     0.029 A 
ATOM     50  C   UNL A   1      38.832  29.870  30.053  1.00  0.00     0.049 A 
ATOM     51  H   UNL A   1      40.869  30.343  30.091  1.00  0.00     0.167 HD
ATOM     52  C   UNL A   1      45.003  31.641  29.081  1.00  0.00     0.037 A 
ATOM     53  C   UNL A   1      38.256  30.945  30.645  1.00  0.00     0.037 A 
ATOM     54  C   UNL A   1      45.110  31.281  30.475  1.00  0.00     0.049 A 
ATOM     55  C   UNL A   1      39.344  31.663  31.364  1.00  0.00     0.074 A 
ATOM     56  C   UNL A   1      45.686  30.227  31.158  1.00  0.00     0.029 A 
ATOM     57  N   UNL A   1      44.204  31.837  31.350  1.00  0.00    -0.354 N 
ATOM     58  N   UNL A   1      39.998  31.160  32.378  1.00  0.00    -0.248 NA
ATOM     59  C   UNL A   1      40.033  32.726  30.648  1.00  0.00     0.031 C 
ATOM     60  C   UNL A   1      44.757  29.904  32.191  1.00  0.00     0.029 A 
ATOM     61  C   UNL A   1      43.709  30.825  32.135  1.00  0.00     0.049 A 
ATOM     62  H   UNL A   1      43.955  32.788  31.402  1.00  0.00     0.167 HD
ATOM     63  C   UNL A   1      41.320  31.536  32.177  1.00  0.00     0.074 A 
ATOM     64  C   UNL A   1      41.265  32.564  31.138  1.00  0.00     0.031 C 
ATOM     65  C   UNL A   1      42.356  30.782  32.656  1.00  0.00     0.037 A 
BRANCH  52  66
ATOM     66  C   UNL A   1      45.226  33.053  28.590  1.00  0.00     0.058 A 
ATOM     67  C   UNL A   1      46.540  33.561  28.526  1.00  0.00     0.135 A 
ATOM     68  C   UNL A   1      44.199  34.008  28.420  1.00  0.00     0.135 A 
ATOM     69  F   UNL A   1      47.596  32.747  28.683  1.00  0.00    -0.206 F 
ATOM     70  C   UNL A   1      46.810  34.921  28.369  1.00  0.00     0.059 A 
ATOM     71  C   UNL A   1      44.446  35.358  28.203  1.00  0.00     0.059 A 
ATOM     72  F   UNL A   1      42.903  33.703  28.553  1.00  0.00    -0.206 F 
ATOM     73  C   UNL A   1      45.752  35.814  28.220  1.00  0.00     0.060 A 
BRANCH  73  74
ATOM     74  S   UNL A   1      46.090  37.579  28.120  1.00  0.00     0.124 S 
ATOM     75  O   UNL A   1      46.249  37.925  29.527  1.00  0.00    -0.237 OA
ATOM     76  O   UNL A   1      47.305  37.609  27.311  1.00  0.00    -0.237 OA
ATOM     77  O   UNL A   1      44.897  38.113  27.469  1.00  0.00    -0.744 OA
ENDBRANCH  73  74
ENDBRANCH  52  66
BRANCH  53  78
ATOM     78  C   UNL A   1      36.943  31.571  30.328  1.00  0.00     0.058 A 
ATOM     79  C   UNL A   1      36.087  32.024  31.346  1.00  0.00     0.135 A 
ATOM     80  C   UNL A   1      36.630  31.999  29.021  1.00  0.00     0.135 A 
ATOM     81  F   UNL A   1      36.318  31.680  32.623  1.00  0.00    -0.206 F 
ATOM     82  C   UNL A   1      35.019  32.894  31.095  1.00  0.00     0.059 A 
ATOM     83  C   UNL A   1      35.568  32.860  28.744  1.00  0.00     0.059 A 
ATOM     84  F   UNL A   1      37.410  31.669  27.981  1.00  0.00    -0.206 F 
ATOM     85  C   UNL A   1      34.781  33.326  29.790  1.00  0.00     0.060 A 
BRANCH  85  86
ATOM     86  S   UNL A   1      33.526  34.595  29.487  1.00  0.00     0.124 S 
ATOM     87  O   UNL A   1      33.075  34.903  30.839  1.00  0.00    -0.237 OA
ATOM     88  O   UNL A   1      34.297  35.638  28.819  1.00  0.00    -0.237 OA
ATOM     89  O   UNL A   1      32.549  33.912  28.642  1.00  0.00    -0.744 OA
ENDBRANCH  85  86
ENDBRANCH  53  78
BRANCH  65  90
ATOM     90  C   UNL A   1      42.045  29.674  33.638  1.00  0.00     0.058 A 
ATOM     91  C   UNL A   1      41.752  28.344  33.278  1.00  0.00     0.135 A 
ATOM     92  C   UNL A   1      42.212  29.935  35.006  1.00  0.00     0.135 A 
ATOM     93  F   UNL A   1      41.676  27.979  31.993  1.00  0.00    -0.206 F 
ATOM     94  C   UNL A   1      41.596  27.334  34.232  1.00  0.00     0.059 A 
ATOM     95  C   UNL A   1      42.092  28.938  35.973  1.00  0.00     0.059 A 
ATOM     96  F   UNL A   1      42.553  31.167  35.417  1.00  0.00    -0.206 F 
ATOM     97  C   UNL A   1      41.771  27.642  35.580  1.00  0.00     0.060 A 
BRANCH  97  98
ATOM     98  S   UNL A   1      41.643  26.323  36.808  1.00  0.00     0.124 S 
ATOM     99  O   UNL A   1      40.352  26.601  37.425  1.00  0.00    -0.237 OA
ATOM    100  O   UNL A   1      41.708  25.116  35.989  1.00  0.00    -0.237 OA
ATOM    101  O   UNL A   1      42.805  26.543  37.667  1.00  0.00    -0.744 OA
ENDBRANCH  97  98
ENDBRANCH  65  90
ENDBRANCH  39  40
ENDBRANCH  31  34
ENDBRANCH  29  30
ENDBRANCH  28  29
ENDBRANCH   1  28
TORSDOF 18
ENDMDL
MODEL 3
REMARK VINA RESULT:     -12.7      3.488      9.932
REMARK SMILES C/C(=N\NC(N)=S)c1nnn(-c2ccc(C(=O)NCCCNC(=O)c3ccc(-c4c5nc(c(-c6c(F)cc(S(=O)(=O)[O-])cc6F)c6ccc([nH]6)c(-c6c(F)cc(S(=O)(=O)[O-])cc6F)c6nc(c(-c7c(F)cc(S(=O)(=O)[O-])cc7F)c7ccc4[nH]7)C=C6)C=C5)cc3)cc2)c1C
REMARK SMILES IDX 19 1 18 2 16 3 17 4 15 6 12 7 13 8 92 9 14 10 91 11 11 12
REMARK SMILES IDX 8 13 9 14 93 15 10 16 94 17 2 18 1 19 3 20 4 21 5 23 7 24
REMARK SMILES IDX 6 25 20 28 21 29 22 30 23 31 24 33 25 34 26 35 90 36 27 37
REMARK SMILES IDX 89 38 28 39 29 40 30 41 83 42 31 43 88 44 82 45 84 46 32 47
REMARK SMILES IDX 87 48 81 49 80 50 33 52 67 53 46 54 66 55 47 56 50 57 65 58
REMARK SMILES IDX 85 59 48 60 49 61 64 63 86 64 51 65 34 66 35 67 44 68 36 69
REMARK SMILES IDX 37 70 43 71 45 72 38 73 39 74 40 75 41 76 42 77 68 78 69 79
REMARK SMILES IDX 78 80 70 81 71 82 77 83 79 84 72 85 73 86 74 87 75 88 76 89
REMARK SMILES IDX 52 90 53 91 62 92 54 93 55 94 61 95 63 96 56 97 57 98 58 99
REMARK SMILES IDX 59 100 60 101
REMARK H PARENT 18 5 4 22 6 26 6 27 22 32 84 51 50 62
REMARK Flexibility Score: inf
ROOT
ATOM      1  C   UNL A   1      31.909  30.006  26.217  1.00  0.00     0.118 C 
ENDROOT
BRANCH   1   2
ATOM      2  N   UNL A   1      31.252  30.095  24.916  1.00  0.00    -0.352 N 
ATOM      3  C   UNL A   1      30.959  29.141  23.965  1.00  0.00     0.251 C 
ATOM      4  O   UNL A   1      30.217  29.450  23.035  1.00  0.00    -0.269 OA
ATOM      5  H   UNL A   1      30.964  31.004  24.673  1.00  0.00     0.163 HD
BRANCH   3   6
ATOM      6  C   UNL A   1      31.449  27.737  24.059  1.00  0.00     0.039 A 
ATOM      7  C   UNL A   1      32.410  25.182  24.585  1.00  0.00     0.067 A 
ATOM      8  C   UNL A   1      31.062  25.453  24.824  1.00  0.00     0.029 A 
ATOM      9  C   UNL A   1      33.236  26.110  23.962  1.00  0.00     0.029 A 
ATOM     10  C   UNL A   1      30.592  26.749  24.578  1.00  0.00     0.016 A 
ATOM     11  C   UNL A   1      32.732  27.364  23.662  1.00  0.00     0.016 A 
BRANCH   7  12
ATOM     12  N   UNL A   1      33.014  24.038  25.118  1.00  0.00    -0.217 N 
ATOM     13  C   UNL A   1      33.693  22.009  25.464  1.00  0.00     0.132 A 
ATOM     14  N   UNL A   1      33.934  22.756  26.590  1.00  0.00    -0.128 NA
ATOM     15  C   UNL A   1      33.138  22.812  24.490  1.00  0.00     0.071 A 
ATOM     16  N   UNL A   1      33.582  24.011  26.338  1.00  0.00    -0.061 NA
ATOM     17  C   UNL A   1      32.835  22.573  23.058  1.00  0.00     0.069 C 
BRANCH  13  18
ATOM     18  C   UNL A   1      34.170  20.649  25.317  1.00  0.00     0.087 C 
ATOM     19  C   UNL A   1      35.636  20.498  25.008  1.00  0.00     0.071 C 
ATOM     20  N   UNL A   1      33.286  19.715  25.510  1.00  0.00    -0.176 NA
BRANCH  20  21
ATOM     21  N   UNL A   1      33.621  18.393  25.480  1.00  0.00    -0.254 N 
ATOM     22  H   UNL A   1      34.480  18.162  25.903  1.00  0.00     0.193 HD
BRANCH  21  23
ATOM     23  C   UNL A   1      32.917  17.339  24.936  1.00  0.00     0.184 C 
ATOM     24  S   UNL A   1      32.893  15.735  25.376  1.00  0.00    -0.040 S 
BRANCH  23  25
ATOM     25  N   UNL A   1      32.138  17.733  23.883  1.00  0.00    -0.375 N 
ATOM     26  H   UNL A   1      31.904  18.684  23.772  1.00  0.00     0.159 HD
ATOM     27  H   UNL A   1      31.810  17.068  23.236  1.00  0.00     0.159 HD
ENDBRANCH  23  25
ENDBRANCH  21  23
ENDBRANCH  20  21
ENDBRANCH  13  18
ENDBRANCH   7  12
ENDBRANCH   3   6
ENDBRANCH   1   2
BRANCH   1  28
ATOM     28  C   UNL A   1      33.444  30.027  26.124  1.00  0.00     0.042 C 
BRANCH  28  29
ATOM     29  C   UNL A   1      34.124  30.041  27.476  1.00  0.00     0.118 C 
BRANCH  29  30
ATOM     30  N   UNL A   1      34.143  31.367  28.101  1.00  0.00    -0.352 N 
ATOM     31  C   UNL A   1      34.917  31.805  29.173  1.00  0.00     0.251 C 
ATOM     32  H   UNL A   1      33.531  32.033  27.714  1.00  0.00     0.163 HD
ATOM     33  O   UNL A   1      34.582  32.777  29.825  1.00  0.00    -0.269 OA
BRANCH  31  34
ATOM     34  C   UNL A   1      36.147  31.054  29.494  1.00  0.00     0.039 A 
ATOM     35  C   UNL A   1      36.171  29.675  29.722  1.00  0.00     0.014 A 
ATOM     36  C   UNL A   1      37.322  31.784  29.500  1.00  0.00     0.014 A 
ATOM     37  C   UNL A   1      37.411  29.057  29.889  1.00  0.00     0.010 A 
ATOM     38  C   UNL A   1      38.505  31.140  29.318  1.00  0.00     0.010 A 
ATOM     39  C   UNL A   1      38.576  29.808  29.674  1.00  0.00    -0.014 A 
BRANCH  39  40
ATOM     40  C   UNL A   1      39.919  29.262  29.784  1.00  0.00     0.031 A 
ATOM     41  C   UNL A   1      40.377  29.039  31.175  1.00  0.00     0.074 A 
ATOM     42  C   UNL A   1      40.568  28.743  28.715  1.00  0.00     0.049 A 
ATOM     43  N   UNL A   1      41.273  29.698  31.827  1.00  0.00    -0.248 NA
ATOM     44  C   UNL A   1      39.628  28.075  31.998  1.00  0.00     0.031 C 
ATOM     45  C   UNL A   1      40.087  28.557  27.336  1.00  0.00     0.029 A 
ATOM     46  N   UNL A   1      41.792  28.160  28.671  1.00  0.00    -0.354 N 
ATOM     47  C   UNL A   1      41.373  29.072  33.065  1.00  0.00     0.074 A 
ATOM     48  C   UNL A   1      40.198  28.252  33.192  1.00  0.00     0.031 C 
ATOM     49  C   UNL A   1      40.904  27.709  26.674  1.00  0.00     0.029 A 
ATOM     50  C   UNL A   1      42.060  27.445  27.508  1.00  0.00     0.049 A 
ATOM     51  H   UNL A   1      42.441  28.236  29.406  1.00  0.00     0.167 HD
ATOM     52  C   UNL A   1      42.538  29.085  33.772  1.00  0.00     0.037 A 
ATOM     53  C   UNL A   1      43.151  26.675  27.271  1.00  0.00     0.037 A 
ATOM     54  C   UNL A   1      43.455  30.061  33.234  1.00  0.00     0.049 A 
ATOM     55  C   UNL A   1      44.193  27.111  28.241  1.00  0.00     0.074 A 
ATOM     56  C   UNL A   1      43.407  31.430  33.043  1.00  0.00     0.029 A 
ATOM     57  N   UNL A   1      44.457  29.608  32.405  1.00  0.00    -0.354 N 
ATOM     58  N   UNL A   1      44.739  28.300  28.232  1.00  0.00    -0.248 NA
ATOM     59  C   UNL A   1      44.265  26.405  29.510  1.00  0.00     0.031 C 
ATOM     60  C   UNL A   1      44.017  31.648  31.773  1.00  0.00     0.029 A 
ATOM     61  C   UNL A   1      44.477  30.419  31.296  1.00  0.00     0.049 A 
ATOM     62  H   UNL A   1      45.050  28.842  32.577  1.00  0.00     0.167 HD
ATOM     63  C   UNL A   1      44.845  28.657  29.571  1.00  0.00     0.074 A 
ATOM     64  C   UNL A   1      44.609  27.418  30.311  1.00  0.00     0.031 C 
ATOM     65  C   UNL A   1      44.824  29.968  29.962  1.00  0.00     0.037 A 
BRANCH  52  66
ATOM     66  C   UNL A   1      42.981  27.995  34.720  1.00  0.00     0.058 A 
ATOM     67  C   UNL A   1      43.252  28.317  36.065  1.00  0.00     0.135 A 
ATOM     68  C   UNL A   1      43.391  26.705  34.312  1.00  0.00     0.135 A 
ATOM     69  F   UNL A   1      42.916  29.519  36.561  1.00  0.00    -0.206 F 
ATOM     70  C   UNL A   1      43.934  27.451  36.920  1.00  0.00     0.059 A 
ATOM     71  C   UNL A   1      44.019  25.804  35.164  1.00  0.00     0.059 A 
ATOM     72  F   UNL A   1      43.295  26.287  33.046  1.00  0.00    -0.206 F 
ATOM     73  C   UNL A   1      44.325  26.199  36.454  1.00  0.00     0.060 A 
BRANCH  73  74
ATOM     74  S   UNL A   1      45.293  25.118  37.519  1.00  0.00     0.124 S 
ATOM     75  O   UNL A   1      46.566  25.827  37.570  1.00  0.00    -0.237 OA
ATOM     76  O   UNL A   1      44.507  25.123  38.749  1.00  0.00    -0.237 OA
ATOM     77  O   UNL A   1      45.303  23.852  36.793  1.00  0.00    -0.744 OA
ENDBRANCH  73  74
ENDBRANCH  52  66
BRANCH  53  78
ATOM     78  C   UNL A   1      43.217  25.382  26.538  1.00  0.00     0.058 A 
ATOM     79  C   UNL A   1      44.015  25.234  25.391  1.00  0.00     0.135 A 
ATOM     80  C   UNL A   1      42.727  24.188  27.109  1.00  0.00     0.135 A 
ATOM     81  F   UNL A   1      44.538  26.315  24.791  1.00  0.00    -0.206 F 
ATOM     82  C   UNL A   1      44.356  23.978  24.873  1.00  0.00     0.059 A 
ATOM     83  C   UNL A   1      43.048  22.926  26.607  1.00  0.00     0.059 A 
ATOM     84  F   UNL A   1      41.998  24.209  28.234  1.00  0.00    -0.206 F 
ATOM     85  C   UNL A   1      43.886  22.827  25.504  1.00  0.00     0.060 A 
BRANCH  85  86
ATOM     86  S   UNL A   1      44.477  21.206  24.955  1.00  0.00     0.124 S 
ATOM     87  O   UNL A   1      43.435  20.318  25.459  1.00  0.00    -0.237 OA
ATOM     88  O   UNL A   1      44.528  21.370  23.506  1.00  0.00    -0.237 OA
ATOM     89  O   UNL A   1      45.776  21.079  25.610  1.00  0.00    -0.744 OA
ENDBRANCH  85  86
ENDBRANCH  53  78
BRANCH  65  90
ATOM     90  C   UNL A   1      44.953  31.037  28.900  1.00  0.00     0.058 A 
ATOM     91  C   UNL A   1      46.154  31.380  28.250  1.00  0.00     0.135 A 
ATOM     92  C   UNL A   1      43.779  31.624  28.405  1.00  0.00     0.135 A 
ATOM     93  F   UNL A   1      47.310  30.794  28.585  1.00  0.00    -0.206 F 
ATOM     94  C   UNL A   1      46.191  32.288  27.188  1.00  0.00     0.059 A 
ATOM     95  C   UNL A   1      43.787  32.508  27.327  1.00  0.00     0.059 A 
ATOM     96  F   UNL A   1      42.590  31.296  28.936  1.00  0.00    -0.206 F 
ATOM     97  C   UNL A   1      44.998  32.846  26.732  1.00  0.00     0.060 A 
BRANCH  97  98
ATOM     98  S   UNL A   1      45.035  33.963  25.312  1.00  0.00     0.124 S 
ATOM     99  O   UNL A   1      44.482  33.130  24.251  1.00  0.00    -0.237 OA
ATOM    100  O   UNL A   1      44.192  35.070  25.754  1.00  0.00    -0.237 OA
ATOM    101  O   UNL A   1      46.452  34.290  25.172  1.00  0.00    -0.744 OA
ENDBRANCH  97  98
ENDBRANCH  65  90
ENDBRANCH  39  40
ENDBRANCH  31  34
ENDBRANCH  29  30
ENDBRANCH  28  29
ENDBRANCH   1  28
TORSDOF 18
ENDMDL
