MODEL 1
REMARK VINA RESULT:     -11.9      0.000      0.000
REMARK SMILES CCc1c(C)nn(CC(=O)N[C@H](C(=O)NCCCNC(=O)c2ccc(-c3c4nc(c(-c5c(F)cc(S(=O)(=O)[O-])cc5F)c5ccc([nH]5)c(-c5c(F)cc(S(=O)(=O)[O-])cc5F)c5nc(c(-c6c(F)cc(S(=O)(=O)[O-])cc6F)c6ccc3[nH]6)C=C5)C=C4)cc2)c2c(C)n[nH]c2C)c1C
REMARK SMILES IDX 16 1 15 2 13 3 14 4 12 6 11 7 9 8 10 9 8 11 7 12 3 13 4 14
REMARK SMILES IDX 95 15 5 16 6 17 96 18 2 19 1 20 88 21 89 22 93 23 90 24
REMARK SMILES IDX 91 25 92 26 94 27 17 29 18 30 19 31 20 32 21 34 22 35 23 36
REMARK SMILES IDX 87 37 24 38 86 39 25 40 26 41 27 42 80 43 28 44 85 45 79 46
REMARK SMILES IDX 81 47 29 48 84 49 78 50 77 51 30 53 64 54 43 55 63 56 44 57
REMARK SMILES IDX 47 58 62 59 82 60 45 61 46 62 61 64 83 65 48 66 31 67 32 68
REMARK SMILES IDX 41 69 33 70 34 71 40 72 42 73 35 74 36 75 37 76 38 77 39 78
REMARK SMILES IDX 65 79 66 80 75 81 67 82 68 83 74 84 76 85 69 86 70 87 71 88
REMARK SMILES IDX 72 89 73 90 49 91 50 92 59 93 51 94 52 95 58 96 60 97 53 98
REMARK SMILES IDX 54 99 55 100 56 101 57 102
REMARK H PARENT 15 5 11 10 92 28 19 33 81 52 47 63
REMARK Flexibility Score: inf
ROOT
ATOM      1  C   UNL A   1      33.375  29.471  25.967  1.00  0.00     0.117 C 
ENDROOT
BRANCH   1   2
ATOM      2  N   UNL A   1      34.136  28.990  24.832  1.00  0.00    -0.354 N 
ATOM      3  C   UNL A   1      33.685  28.180  23.849  1.00  0.00     0.247 C 
ATOM      4  O   UNL A   1      33.275  28.843  22.876  1.00  0.00    -0.272 OA
ATOM      5  H   UNL A   1      35.075  29.280  24.770  1.00  0.00     0.163 HD
BRANCH   3   6
ATOM      6  C   UNL A   1      33.545  26.610  23.846  1.00  0.00     0.206 C 
BRANCH   6   7
ATOM      7  N   UNL A   1      33.638  26.315  22.430  1.00  0.00    -0.339 N 
ATOM      8  C   UNL A   1      32.856  25.390  21.790  1.00  0.00     0.242 C 
ATOM      9  O   UNL A   1      33.185  25.081  20.640  1.00  0.00    -0.273 OA
ATOM     10  H   UNL A   1      34.303  26.808  21.896  1.00  0.00     0.164 HD
BRANCH   8  11
ATOM     11  C   UNL A   1      31.531  24.971  22.390  1.00  0.00     0.244 C 
BRANCH  11  12
ATOM     12  N   UNL A   1      31.348  23.742  23.183  1.00  0.00    -0.260 N 
ATOM     13  C   UNL A   1      31.784  21.922  24.425  1.00  0.00    -0.004 A 
ATOM     14  C   UNL A   1      31.058  22.901  25.137  1.00  0.00     0.063 A 
ATOM     15  C   UNL A   1      31.822  22.418  23.120  1.00  0.00     0.039 A 
ATOM     16  C   UNL A   1      30.505  22.912  26.507  1.00  0.00     0.069 C 
ATOM     17  N   UNL A   1      30.813  23.978  24.394  1.00  0.00    -0.177 NA
ATOM     18  C   UNL A   1      32.151  21.489  21.982  1.00  0.00     0.066 C 
BRANCH  13  19
ATOM     19  C   UNL A   1      32.343  20.572  24.798  1.00  0.00     0.036 C 
ATOM     20  C   UNL A   1      33.802  20.475  25.162  1.00  0.00     0.009 C 
ENDBRANCH  13  19
ENDBRANCH  11  12
ENDBRANCH   8  11
ENDBRANCH   6   7
BRANCH   6  21
ATOM     21  C   UNL A   1      34.177  25.350  24.588  1.00  0.00     0.027 A 
ATOM     22  C   UNL A   1      33.707  25.119  25.952  1.00  0.00     0.065 A 
ATOM     23  C   UNL A   1      34.938  24.146  24.375  1.00  0.00     0.038 A 
ATOM     24  C   UNL A   1      32.666  25.859  26.711  1.00  0.00     0.069 C 
ATOM     25  N   UNL A   1      34.246  24.060  26.542  1.00  0.00    -0.180 NA
ATOM     26  N   UNL A   1      35.007  23.534  25.608  1.00  0.00    -0.282 N 
ATOM     27  C   UNL A   1      35.682  23.304  23.345  1.00  0.00     0.066 C 
ATOM     28  H   UNL A   1      35.585  22.756  25.778  1.00  0.00     0.190 HD
ENDBRANCH   6  21
ENDBRANCH   3   6
ENDBRANCH   1   2
BRANCH   1  29
ATOM     29  C   UNL A   1      34.109  29.217  27.284  1.00  0.00     0.042 C 
BRANCH  29  30
ATOM     30  C   UNL A   1      35.272  30.164  27.613  1.00  0.00     0.118 C 
BRANCH  30  31
ATOM     31  N   UNL A   1      35.320  30.609  28.997  1.00  0.00    -0.352 N 
ATOM     32  C   UNL A   1      36.334  30.537  29.922  1.00  0.00     0.251 C 
ATOM     33  H   UNL A   1      34.492  31.030  29.325  1.00  0.00     0.163 HD
ATOM     34  O   UNL A   1      36.117  30.908  31.082  1.00  0.00    -0.269 OA
BRANCH  32  35
ATOM     35  C   UNL A   1      37.667  29.992  29.577  1.00  0.00     0.039 A 
ATOM     36  C   UNL A   1      38.023  29.906  28.227  1.00  0.00     0.014 A 
ATOM     37  C   UNL A   1      38.558  29.539  30.553  1.00  0.00     0.014 A 
ATOM     38  C   UNL A   1      39.294  29.449  27.865  1.00  0.00     0.010 A 
ATOM     39  C   UNL A   1      39.854  29.156  30.195  1.00  0.00     0.010 A 
ATOM     40  C   UNL A   1      40.241  29.112  28.846  1.00  0.00    -0.014 A 
BRANCH  40  41
ATOM     41  C   UNL A   1      41.632  28.739  28.468  1.00  0.00     0.031 A 
ATOM     42  C   UNL A   1      42.720  29.780  28.399  1.00  0.00     0.074 A 
ATOM     43  C   UNL A   1      41.911  27.460  28.138  1.00  0.00     0.049 A 
ATOM     44  N   UNL A   1      43.976  29.641  28.062  1.00  0.00    -0.248 NA
ATOM     45  C   UNL A   1      42.341  31.163  28.729  1.00  0.00     0.031 C 
ATOM     46  C   UNL A   1      40.939  26.364  28.110  1.00  0.00     0.029 A 
ATOM     47  N   UNL A   1      43.089  26.863  27.757  1.00  0.00    -0.354 N 
ATOM     48  C   UNL A   1      44.535  30.913  28.127  1.00  0.00     0.074 A 
ATOM     49  C   UNL A   1      43.467  31.820  28.487  1.00  0.00     0.031 C 
ATOM     50  C   UNL A   1      41.563  25.229  27.757  1.00  0.00     0.029 A 
ATOM     51  C   UNL A   1      42.968  25.518  27.495  1.00  0.00     0.049 A 
ATOM     52  H   UNL A   1      43.940  27.353  27.679  1.00  0.00     0.167 HD
ATOM     53  C   UNL A   1      45.822  31.287  27.928  1.00  0.00     0.037 A 
ATOM     54  C   UNL A   1      43.881  24.616  27.080  1.00  0.00     0.037 A 
ATOM     55  C   UNL A   1      46.887  30.377  27.592  1.00  0.00     0.049 A 
ATOM     56  C   UNL A   1      45.306  25.057  26.871  1.00  0.00     0.074 A 
ATOM     57  C   UNL A   1      48.236  30.651  27.438  1.00  0.00     0.029 A 
ATOM     58  N   UNL A   1      46.729  29.019  27.355  1.00  0.00    -0.354 N 
ATOM     59  N   UNL A   1      45.828  26.252  27.014  1.00  0.00    -0.248 NA
ATOM     60  C   UNL A   1      46.266  24.026  26.454  1.00  0.00     0.031 C 
ATOM     61  C   UNL A   1      48.882  29.473  27.051  1.00  0.00     0.029 A 
ATOM     62  C   UNL A   1      47.949  28.449  27.025  1.00  0.00     0.049 A 
ATOM     63  H   UNL A   1      45.876  28.532  27.411  1.00  0.00     0.167 HD
ATOM     64  C   UNL A   1      47.183  26.110  26.731  1.00  0.00     0.074 A 
ATOM     65  C   UNL A   1      47.402  24.712  26.425  1.00  0.00     0.031 C 
ATOM     66  C   UNL A   1      48.157  27.054  26.725  1.00  0.00     0.037 A 
BRANCH  53  67
ATOM     67  C   UNL A   1      46.159  32.750  28.063  1.00  0.00     0.058 A 
ATOM     68  C   UNL A   1      45.962  33.655  27.008  1.00  0.00     0.135 A 
ATOM     69  C   UNL A   1      46.632  33.264  29.282  1.00  0.00     0.135 A 
ATOM     70  F   UNL A   1      45.525  33.219  25.815  1.00  0.00    -0.206 F 
ATOM     71  C   UNL A   1      46.248  35.010  27.147  1.00  0.00     0.059 A 
ATOM     72  C   UNL A   1      46.894  34.619  29.453  1.00  0.00     0.059 A 
ATOM     73  F   UNL A   1      46.836  32.445  30.326  1.00  0.00    -0.206 F 
ATOM     74  C   UNL A   1      46.712  35.483  28.375  1.00  0.00     0.060 A 
BRANCH  74  75
ATOM     75  S   UNL A   1      47.064  37.246  28.541  1.00  0.00     0.124 S 
ATOM     76  O   UNL A   1      46.042  37.829  27.679  1.00  0.00    -0.237 OA
ATOM     77  O   UNL A   1      46.887  37.466  29.972  1.00  0.00    -0.237 OA
ATOM     78  O   UNL A   1      48.436  37.366  28.056  1.00  0.00    -0.744 OA
ENDBRANCH  74  75
ENDBRANCH  53  67
BRANCH  54  79
ATOM     79  C   UNL A   1      43.479  23.202  26.845  1.00  0.00     0.058 A 
ATOM     80  C   UNL A   1      43.363  22.684  25.547  1.00  0.00     0.135 A 
ATOM     81  C   UNL A   1      43.206  22.338  27.918  1.00  0.00     0.135 A 
ATOM     82  F   UNL A   1      43.606  23.471  24.488  1.00  0.00    -0.206 F 
ATOM     83  C   UNL A   1      42.973  21.368  25.318  1.00  0.00     0.059 A 
ATOM     84  C   UNL A   1      42.843  21.011  27.715  1.00  0.00     0.059 A 
ATOM     85  F   UNL A   1      43.318  22.777  29.182  1.00  0.00    -0.206 F 
ATOM     86  C   UNL A   1      42.718  20.537  26.410  1.00  0.00     0.060 A 
BRANCH  86  87
ATOM     87  S   UNL A   1      42.256  18.818  26.104  1.00  0.00     0.124 S 
ATOM     88  O   UNL A   1      40.867  18.957  25.685  1.00  0.00    -0.237 OA
ATOM     89  O   UNL A   1      43.203  18.429  25.063  1.00  0.00    -0.237 OA
ATOM     90  O   UNL A   1      42.465  18.181  27.400  1.00  0.00    -0.744 OA
ENDBRANCH  86  87
ENDBRANCH  54  79
BRANCH  66  91
ATOM     91  C   UNL A   1      49.559  26.603  26.411  1.00  0.00     0.058 A 
ATOM     92  C   UNL A   1      50.356  25.947  27.362  1.00  0.00     0.135 A 
ATOM     93  C   UNL A   1      50.095  26.795  25.127  1.00  0.00     0.135 A 
ATOM     94  F   UNL A   1      49.896  25.741  28.606  1.00  0.00    -0.206 F 
ATOM     95  C   UNL A   1      51.649  25.527  27.061  1.00  0.00     0.059 A 
ATOM     96  C   UNL A   1      51.373  26.355  24.795  1.00  0.00     0.059 A 
ATOM     97  F   UNL A   1      49.372  27.406  24.176  1.00  0.00    -0.206 F 
ATOM     98  C   UNL A   1      52.148  25.736  25.774  1.00  0.00     0.060 A 
BRANCH  98  99
ATOM     99  S   UNL A   1      53.819  25.169  25.392  1.00  0.00     0.124 S 
ATOM    100  O   UNL A   1      53.679  23.724  25.535  1.00  0.00    -0.237 OA
ATOM    101  O   UNL A   1      54.010  25.656  24.029  1.00  0.00    -0.237 OA
ATOM    102  O   UNL A   1      54.641  25.823  26.406  1.00  0.00    -0.744 OA
ENDBRANCH  98  99
ENDBRANCH  66  91
ENDBRANCH  40  41
ENDBRANCH  32  35
ENDBRANCH  30  31
ENDBRANCH  29  30
ENDBRANCH   1  29
TORSDOF 18
ENDMDL
MODEL 2
REMARK VINA RESULT:     -11.6      5.011      6.625
REMARK SMILES CCc1c(C)nn(CC(=O)N[C@H](C(=O)NCCCNC(=O)c2ccc(-c3c4nc(c(-c5c(F)cc(S(=O)(=O)[O-])cc5F)c5ccc([nH]5)c(-c5c(F)cc(S(=O)(=O)[O-])cc5F)c5nc(c(-c6c(F)cc(S(=O)(=O)[O-])cc6F)c6ccc3[nH]6)C=C5)C=C4)cc2)c2c(C)n[nH]c2C)c1C
REMARK SMILES IDX 16 1 15 2 13 3 14 4 12 6 11 7 9 8 10 9 8 11 7 12 3 13 4 14
REMARK SMILES IDX 95 15 5 16 6 17 96 18 2 19 1 20 88 21 89 22 93 23 90 24
REMARK SMILES IDX 91 25 92 26 94 27 17 29 18 30 19 31 20 32 21 34 22 35 23 36
REMARK SMILES IDX 87 37 24 38 86 39 25 40 26 41 27 42 80 43 28 44 85 45 79 46
REMARK SMILES IDX 81 47 29 48 84 49 78 50 77 51 30 53 64 54 43 55 63 56 44 57
REMARK SMILES IDX 47 58 62 59 82 60 45 61 46 62 61 64 83 65 48 66 31 67 32 68
REMARK SMILES IDX 41 69 33 70 34 71 40 72 42 73 35 74 36 75 37 76 38 77 39 78
REMARK SMILES IDX 65 79 66 80 75 81 67 82 68 83 74 84 76 85 69 86 70 87 71 88
REMARK SMILES IDX 72 89 73 90 49 91 50 92 59 93 51 94 52 95 58 96 60 97 53 98
REMARK SMILES IDX 54 99 55 100 56 101 57 102
REMARK H PARENT 15 5 11 10 92 28 19 33 81 52 47 63
REMARK Flexibility Score: inf
ROOT
ATOM      1  C   UNL A   1      32.086  27.544  26.864  1.00  0.00     0.117 C 
ENDROOT
BRANCH   1   2
ATOM      2  N   UNL A   1      31.299  26.580  26.123  1.00  0.00    -0.354 N 
ATOM      3  C   UNL A   1      31.457  25.238  26.134  1.00  0.00     0.247 C 
ATOM      4  O   UNL A   1      30.711  24.707  26.980  1.00  0.00    -0.272 OA
ATOM      5  H   UNL A   1      30.578  26.936  25.555  1.00  0.00     0.163 HD
BRANCH   3   6
ATOM      6  C   UNL A   1      32.478  24.355  25.320  1.00  0.00     0.206 C 
BRANCH   6   7
ATOM      7  N   UNL A   1      32.720  23.267  26.247  1.00  0.00    -0.339 N 
ATOM      8  C   UNL A   1      33.958  22.733  26.489  1.00  0.00     0.242 C 
ATOM      9  O   UNL A   1      33.995  21.676  27.127  1.00  0.00    -0.273 OA
ATOM     10  H   UNL A   1      31.950  22.890  26.731  1.00  0.00     0.164 HD
BRANCH   8  11
ATOM     11  C   UNL A   1      35.205  23.538  26.191  1.00  0.00     0.244 C 
BRANCH  11  12
ATOM     12  N   UNL A   1      36.491  22.934  25.800  1.00  0.00    -0.260 N 
ATOM     13  C   UNL A   1      38.513  21.963  25.915  1.00  0.00    -0.004 A 
ATOM     14  C   UNL A   1      37.545  21.127  25.318  1.00  0.00     0.063 A 
ATOM     15  C   UNL A   1      37.850  23.182  26.072  1.00  0.00     0.039 A 
ATOM     16  C   UNL A   1      37.643  19.777  24.726  1.00  0.00     0.069 C 
ATOM     17  N   UNL A   1      36.349  21.708  25.264  1.00  0.00    -0.177 NA
ATOM     18  C   UNL A   1      38.647  24.438  26.298  1.00  0.00     0.066 C 
BRANCH  13  19
ATOM     19  C   UNL A   1      39.972  21.783  26.252  1.00  0.00     0.036 C 
ATOM     20  C   UNL A   1      40.429  20.442  26.764  1.00  0.00     0.009 C 
ENDBRANCH  13  19
ENDBRANCH  11  12
ENDBRANCH   8  11
ENDBRANCH   6   7
BRANCH   6  21
ATOM     21  C   UNL A   1      32.615  23.717  23.867  1.00  0.00     0.027 A 
ATOM     22  C   UNL A   1      33.164  24.599  22.840  1.00  0.00     0.065 A 
ATOM     23  C   UNL A   1      32.595  22.470  23.146  1.00  0.00     0.038 A 
ATOM     24  C   UNL A   1      33.677  25.986  22.986  1.00  0.00     0.069 C 
ATOM     25  N   UNL A   1      33.273  24.039  21.642  1.00  0.00    -0.180 NA
ATOM     26  N   UNL A   1      32.882  22.799  21.839  1.00  0.00    -0.282 N 
ATOM     27  C   UNL A   1      32.384  20.965  23.259  1.00  0.00     0.066 C 
ATOM     28  H   UNL A   1      32.801  22.151  21.102  1.00  0.00     0.190 HD
ENDBRANCH   6  21
ENDBRANCH   3   6
ENDBRANCH   1   2
BRANCH   1  29
ATOM     29  C   UNL A   1      33.568  27.464  26.495  1.00  0.00     0.042 C 
BRANCH  29  30
ATOM     30  C   UNL A   1      34.152  28.667  25.742  1.00  0.00     0.118 C 
BRANCH  30  31
ATOM     31  N   UNL A   1      33.826  29.962  26.320  1.00  0.00    -0.352 N 
ATOM     32  C   UNL A   1      34.447  30.674  27.318  1.00  0.00     0.251 C 
ATOM     33  H   UNL A   1      33.032  30.398  25.935  1.00  0.00     0.163 HD
ATOM     34  O   UNL A   1      33.935  31.730  27.710  1.00  0.00    -0.269 OA
BRANCH  32  35
ATOM     35  C   UNL A   1      35.690  30.192  27.962  1.00  0.00     0.039 A 
ATOM     36  C   UNL A   1      36.913  30.458  27.336  1.00  0.00     0.014 A 
ATOM     37  C   UNL A   1      35.673  29.462  29.154  1.00  0.00     0.014 A 
ATOM     38  C   UNL A   1      38.110  30.069  27.942  1.00  0.00     0.010 A 
ATOM     39  C   UNL A   1      36.872  29.142  29.796  1.00  0.00     0.010 A 
ATOM     40  C   UNL A   1      38.107  29.447  29.202  1.00  0.00    -0.014 A 
BRANCH  40  41
ATOM     41  C   UNL A   1      39.384  29.138  29.904  1.00  0.00     0.031 A 
ATOM     42  C   UNL A   1      39.805  29.921  31.121  1.00  0.00     0.074 A 
ATOM     43  C   UNL A   1      40.194  28.175  29.416  1.00  0.00     0.049 A 
ATOM     44  N   UNL A   1      40.894  29.809  31.838  1.00  0.00    -0.248 NA
ATOM     45  C   UNL A   1      38.898  30.986  31.576  1.00  0.00     0.031 C 
ATOM     46  C   UNL A   1      39.932  27.380  28.214  1.00  0.00     0.029 A 
ATOM     47  N   UNL A   1      41.406  27.704  29.862  1.00  0.00    -0.354 N 
ATOM     48  C   UNL A   1      40.809  30.790  32.820  1.00  0.00     0.074 A 
ATOM     49  C   UNL A   1      39.586  31.523  32.574  1.00  0.00     0.031 C 
ATOM     50  C   UNL A   1      40.935  26.507  28.034  1.00  0.00     0.029 A 
ATOM     51  C   UNL A   1      41.933  26.703  29.080  1.00  0.00     0.049 A 
ATOM     52  H   UNL A   1      41.854  28.051  30.667  1.00  0.00     0.167 HD
ATOM     53  C   UNL A   1      41.659  31.043  33.845  1.00  0.00     0.037 A 
ATOM     54  C   UNL A   1      43.093  26.023  29.184  1.00  0.00     0.037 A 
ATOM     55  C   UNL A   1      42.865  30.296  34.100  1.00  0.00     0.049 A 
ATOM     56  C   UNL A   1      44.018  26.320  30.334  1.00  0.00     0.074 A 
ATOM     57  C   UNL A   1      43.755  30.433  35.152  1.00  0.00     0.029 A 
ATOM     58  N   UNL A   1      43.354  29.277  33.297  1.00  0.00    -0.354 N 
ATOM     59  N   UNL A   1      43.880  27.201  31.296  1.00  0.00    -0.248 NA
ATOM     60  C   UNL A   1      45.250  25.524  30.419  1.00  0.00     0.031 C 
ATOM     61  C   UNL A   1      44.810  29.538  34.954  1.00  0.00     0.029 A 
ATOM     62  C   UNL A   1      44.548  28.797  33.812  1.00  0.00     0.049 A 
ATOM     63  H   UNL A   1      42.919  28.943  32.479  1.00  0.00     0.167 HD
ATOM     64  C   UNL A   1      44.994  27.046  32.115  1.00  0.00     0.074 A 
ATOM     65  C   UNL A   1      45.786  25.977  31.544  1.00  0.00     0.031 C 
ATOM     66  C   UNL A   1      45.329  27.729  33.237  1.00  0.00     0.037 A 
BRANCH  53  67
ATOM     67  C   UNL A   1      41.323  32.181  34.774  1.00  0.00     0.058 A 
ATOM     68  C   UNL A   1      41.854  33.469  34.590  1.00  0.00     0.135 A 
ATOM     69  C   UNL A   1      40.415  31.996  35.829  1.00  0.00     0.135 A 
ATOM     70  F   UNL A   1      42.737  33.701  33.606  1.00  0.00    -0.206 F 
ATOM     71  C   UNL A   1      41.518  34.522  35.434  1.00  0.00     0.059 A 
ATOM     72  C   UNL A   1      40.041  33.043  36.666  1.00  0.00     0.059 A 
ATOM     73  F   UNL A   1      39.874  30.787  36.051  1.00  0.00    -0.206 F 
ATOM     74  C   UNL A   1      40.608  34.300  36.469  1.00  0.00     0.060 A 
BRANCH  74  75
ATOM     75  S   UNL A   1      40.175  35.683  37.545  1.00  0.00     0.124 S 
ATOM     76  O   UNL A   1      41.457  35.973  38.178  1.00  0.00    -0.237 OA
ATOM     77  O   UNL A   1      39.698  36.680  36.593  1.00  0.00    -0.237 OA
ATOM     78  O   UNL A   1      39.154  35.122  38.426  1.00  0.00    -0.744 OA
ENDBRANCH  74  75
ENDBRANCH  53  67
BRANCH  54  79
ATOM     79  C   UNL A   1      43.441  24.985  28.174  1.00  0.00     0.058 A 
ATOM     80  C   UNL A   1      43.036  23.651  28.331  1.00  0.00     0.135 A 
ATOM     81  C   UNL A   1      44.183  25.309  27.027  1.00  0.00     0.135 A 
ATOM     82  F   UNL A   1      42.331  23.289  29.414  1.00  0.00    -0.206 F 
ATOM     83  C   UNL A   1      43.369  22.672  27.401  1.00  0.00     0.059 A 
ATOM     84  C   UNL A   1      44.504  24.355  26.068  1.00  0.00     0.059 A 
ATOM     85  F   UNL A   1      44.582  26.574  26.818  1.00  0.00    -0.206 F 
ATOM     86  C   UNL A   1      44.102  23.035  26.270  1.00  0.00     0.060 A 
BRANCH  86  87
ATOM     87  S   UNL A   1      44.492  21.766  25.044  1.00  0.00     0.124 S 
ATOM     88  O   UNL A   1      43.529  20.725  25.382  1.00  0.00    -0.237 OA
ATOM     89  O   UNL A   1      44.255  22.473  23.788  1.00  0.00    -0.237 OA
ATOM     90  O   UNL A   1      45.889  21.451  25.323  1.00  0.00    -0.744 OA
ENDBRANCH  86  87
ENDBRANCH  54  79
BRANCH  66  91
ATOM     91  C   UNL A   1      46.593  27.320  33.948  1.00  0.00     0.058 A 
ATOM     92  C   UNL A   1      47.829  27.920  33.665  1.00  0.00     0.135 A 
ATOM     93  C   UNL A   1      46.555  26.340  34.953  1.00  0.00     0.135 A 
ATOM     94  F   UNL A   1      47.923  28.859  32.709  1.00  0.00    -0.206 F 
ATOM     95  C   UNL A   1      48.992  27.540  34.330  1.00  0.00     0.059 A 
ATOM     96  C   UNL A   1      47.699  25.967  35.654  1.00  0.00     0.059 A 
ATOM     97  F   UNL A   1      45.397  25.741  35.272  1.00  0.00    -0.206 F 
ATOM     98  C   UNL A   1      48.915  26.563  35.324  1.00  0.00     0.060 A 
BRANCH  98  99
ATOM     99  S   UNL A   1      50.426  26.094  36.194  1.00  0.00     0.124 S 
ATOM    100  O   UNL A   1      50.069  24.779  36.716  1.00  0.00    -0.237 OA
ATOM    101  O   UNL A   1      51.418  26.103  35.123  1.00  0.00    -0.237 OA
ATOM    102  O   UNL A   1      50.583  27.144  37.195  1.00  0.00    -0.744 OA
ENDBRANCH  98  99
ENDBRANCH  66  91
ENDBRANCH  40  41
ENDBRANCH  32  35
ENDBRANCH  30  31
ENDBRANCH  29  30
ENDBRANCH   1  29
TORSDOF 18
ENDMDL
MODEL 3
REMARK VINA RESULT:     -11.5      6.481     11.802
REMARK SMILES CCc1c(C)nn(CC(=O)N[C@H](C(=O)NCCCNC(=O)c2ccc(-c3c4nc(c(-c5c(F)cc(S(=O)(=O)[O-])cc5F)c5ccc([nH]5)c(-c5c(F)cc(S(=O)(=O)[O-])cc5F)c5nc(c(-c6c(F)cc(S(=O)(=O)[O-])cc6F)c6ccc3[nH]6)C=C5)C=C4)cc2)c2c(C)n[nH]c2C)c1C
REMARK SMILES IDX 16 1 15 2 13 3 14 4 12 6 11 7 9 8 10 9 8 11 7 12 3 13 4 14
REMARK SMILES IDX 95 15 5 16 6 17 96 18 2 19 1 20 88 21 89 22 93 23 90 24
REMARK SMILES IDX 91 25 92 26 94 27 17 29 18 30 19 31 20 32 21 34 22 35 23 36
REMARK SMILES IDX 87 37 24 38 86 39 25 40 26 41 27 42 80 43 28 44 85 45 79 46
REMARK SMILES IDX 81 47 29 48 84 49 78 50 77 51 30 53 64 54 43 55 63 56 44 57
REMARK SMILES IDX 47 58 62 59 82 60 45 61 46 62 61 64 83 65 48 66 31 67 32 68
REMARK SMILES IDX 41 69 33 70 34 71 40 72 42 73 35 74 36 75 37 76 38 77 39 78
REMARK SMILES IDX 65 79 66 80 75 81 67 82 68 83 74 84 76 85 69 86 70 87 71 88
REMARK SMILES IDX 72 89 73 90 49 91 50 92 59 93 51 94 52 95 58 96 60 97 53 98
REMARK SMILES IDX 54 99 55 100 56 101 57 102
REMARK H PARENT 15 5 11 10 92 28 19 33 81 52 47 63
REMARK Flexibility Score: inf
ROOT
ATOM      1  C   UNL A   1      37.651  22.201  25.380  1.00  0.00     0.117 C 
ENDROOT
BRANCH   1   2
ATOM      2  N   UNL A   1      36.464  21.690  26.035  1.00  0.00    -0.354 N 
ATOM      3  C   UNL A   1      35.274  21.432  25.452  1.00  0.00     0.247 C 
ATOM      4  O   UNL A   1      35.197  20.238  25.102  1.00  0.00    -0.272 OA
ATOM      5  H   UNL A   1      36.531  21.514  27.002  1.00  0.00     0.163 HD
BRANCH   3   6
ATOM      6  C   UNL A   1      34.103  22.431  25.106  1.00  0.00     0.206 C 
BRANCH   6   7
ATOM      7  N   UNL A   1      34.188  22.485  23.660  1.00  0.00    -0.339 N 
ATOM      8  C   UNL A   1      34.116  23.644  22.935  1.00  0.00     0.242 C 
ATOM      9  O   UNL A   1      33.981  23.531  21.712  1.00  0.00    -0.273 OA
ATOM     10  H   UNL A   1      34.304  21.638  23.170  1.00  0.00     0.164 HD
BRANCH   8  11
ATOM     11  C   UNL A   1      34.432  24.971  23.590  1.00  0.00     0.244 C 
BRANCH  11  12
ATOM     12  N   UNL A   1      33.443  26.051  23.764  1.00  0.00    -0.260 N 
ATOM     13  C   UNL A   1      31.495  27.130  24.055  1.00  0.00    -0.004 A 
ATOM     14  C   UNL A   1      32.369  27.285  25.153  1.00  0.00     0.063 A 
ATOM     15  C   UNL A   1      32.270  26.464  23.104  1.00  0.00     0.039 A 
ATOM     16  C   UNL A   1      32.244  28.058  26.406  1.00  0.00     0.069 C 
ATOM     17  N   UNL A   1      33.515  26.634  24.974  1.00  0.00    -0.177 NA
ATOM     18  C   UNL A   1      31.842  26.469  21.661  1.00  0.00     0.066 C 
BRANCH  13  19
ATOM     19  C   UNL A   1      30.094  27.609  23.770  1.00  0.00     0.036 C 
ATOM     20  C   UNL A   1      28.959  26.628  23.911  1.00  0.00     0.009 C 
ENDBRANCH  13  19
ENDBRANCH  11  12
ENDBRANCH   8  11
ENDBRANCH   6   7
BRANCH   6  21
ATOM     21  C   UNL A   1      32.562  22.633  25.452  1.00  0.00     0.027 A 
ATOM     22  C   UNL A   1      32.226  22.612  26.874  1.00  0.00     0.065 A 
ATOM     23  C   UNL A   1      31.299  23.051  24.899  1.00  0.00     0.038 A 
ATOM     24  C   UNL A   1      33.140  22.500  28.041  1.00  0.00     0.069 C 
ATOM     25  N   UNL A   1      30.937  22.790  27.132  1.00  0.00    -0.180 NA
ATOM     26  N   UNL A   1      30.405  22.994  25.947  1.00  0.00    -0.282 N 
ATOM     27  C   UNL A   1      30.580  23.517  23.639  1.00  0.00     0.066 C 
ATOM     28  H   UNL A   1      29.435  23.101  25.818  1.00  0.00     0.190 HD
ENDBRANCH   6  21
ENDBRANCH   3   6
ENDBRANCH   1   2
BRANCH   1  29
ATOM     29  C   UNL A   1      38.855  22.208  26.322  1.00  0.00     0.042 C 
BRANCH  29  30
ATOM     30  C   UNL A   1      39.455  23.582  26.656  1.00  0.00     0.118 C 
BRANCH  30  31
ATOM     31  N   UNL A   1      40.783  23.814  26.110  1.00  0.00    -0.352 N 
ATOM     32  C   UNL A   1      41.686  24.819  26.361  1.00  0.00     0.251 C 
ATOM     33  H   UNL A   1      41.083  23.144  25.454  1.00  0.00     0.163 HD
ATOM     34  O   UNL A   1      42.735  24.861  25.705  1.00  0.00    -0.269 OA
BRANCH  32  35
ATOM     35  C   UNL A   1      41.421  25.873  27.365  1.00  0.00     0.039 A 
ATOM     36  C   UNL A   1      40.450  25.633  28.344  1.00  0.00     0.014 A 
ATOM     37  C   UNL A   1      42.089  27.101  27.346  1.00  0.00     0.014 A 
ATOM     38  C   UNL A   1      40.212  26.582  29.342  1.00  0.00     0.010 A 
ATOM     39  C   UNL A   1      41.905  28.014  28.388  1.00  0.00     0.010 A 
ATOM     40  C   UNL A   1      40.969  27.764  29.403  1.00  0.00    -0.014 A 
BRANCH  40  41
ATOM     41  C   UNL A   1      40.800  28.720  30.533  1.00  0.00     0.031 A 
ATOM     42  C   UNL A   1      41.650  28.609  31.773  1.00  0.00     0.074 A 
ATOM     43  C   UNL A   1      39.843  29.669  30.463  1.00  0.00     0.049 A 
ATOM     44  N   UNL A   1      41.620  29.335  32.861  1.00  0.00    -0.248 NA
ATOM     45  C   UNL A   1      42.646  27.527  31.805  1.00  0.00     0.031 C 
ATOM     46  C   UNL A   1      38.915  29.852  29.343  1.00  0.00     0.029 A 
ATOM     47  N   UNL A   1      39.483  30.655  31.350  1.00  0.00    -0.354 N 
ATOM     48  C   UNL A   1      42.581  28.794  33.709  1.00  0.00     0.074 A 
ATOM     49  C   UNL A   1      43.141  27.646  33.028  1.00  0.00     0.031 C 
ATOM     50  C   UNL A   1      38.113  30.897  29.600  1.00  0.00     0.029 A 
ATOM     51  C   UNL A   1      38.438  31.437  30.916  1.00  0.00     0.049 A 
ATOM     52  H   UNL A   1      39.932  30.789  32.216  1.00  0.00     0.167 HD
ATOM     53  C   UNL A   1      42.977  29.226  34.931  1.00  0.00     0.037 A 
ATOM     54  C   UNL A   1      37.802  32.467  31.509  1.00  0.00     0.037 A 
ATOM     55  C   UNL A   1      42.433  30.383  35.596  1.00  0.00     0.049 A 
ATOM     56  C   UNL A   1      38.264  32.931  32.866  1.00  0.00     0.074 A 
ATOM     57  C   UNL A   1      42.816  30.940  36.804  1.00  0.00     0.029 A 
ATOM     58  N   UNL A   1      41.389  31.160  35.115  1.00  0.00    -0.354 N 
ATOM     59  N   UNL A   1      39.227  32.451  33.617  1.00  0.00    -0.248 NA
ATOM     60  C   UNL A   1      37.560  34.080  33.451  1.00  0.00     0.031 C 
ATOM     61  C   UNL A   1      41.967  32.016  37.081  1.00  0.00     0.029 A 
ATOM     62  C   UNL A   1      41.095  32.172  36.016  1.00  0.00     0.049 A 
ATOM     63  H   UNL A   1      40.924  31.015  34.259  1.00  0.00     0.167 HD
ATOM     64  C   UNL A   1      39.262  33.258  34.749  1.00  0.00     0.074 A 
ATOM     65  C   UNL A   1      38.235  34.265  34.577  1.00  0.00     0.031 C 
ATOM     66  C   UNL A   1      40.072  33.172  35.834  1.00  0.00     0.037 A 
BRANCH  53  67
ATOM     67  C   UNL A   1      44.051  28.443  35.641  1.00  0.00     0.058 A 
ATOM     68  C   UNL A   1      43.742  27.403  36.534  1.00  0.00     0.135 A 
ATOM     69  C   UNL A   1      45.408  28.698  35.384  1.00  0.00     0.135 A 
ATOM     70  F   UNL A   1      42.462  27.124  36.829  1.00  0.00    -0.206 F 
ATOM     71  C   UNL A   1      44.738  26.665  37.165  1.00  0.00     0.059 A 
ATOM     72  C   UNL A   1      46.420  27.952  35.980  1.00  0.00     0.059 A 
ATOM     73  F   UNL A   1      45.762  29.679  34.537  1.00  0.00    -0.206 F 
ATOM     74  C   UNL A   1      46.075  26.946  36.880  1.00  0.00     0.060 A 
BRANCH  74  75
ATOM     75  S   UNL A   1      47.353  25.968  37.698  1.00  0.00     0.124 S 
ATOM     76  O   UNL A   1      46.552  25.103  38.558  1.00  0.00    -0.237 OA
ATOM     77  O   UNL A   1      48.010  25.310  36.573  1.00  0.00    -0.237 OA
ATOM     78  O   UNL A   1      48.156  26.970  38.392  1.00  0.00    -0.744 OA
ENDBRANCH  74  75
ENDBRANCH  53  67
BRANCH  54  79
ATOM     79  C   UNL A   1      36.666  33.139  30.821  1.00  0.00     0.058 A 
ATOM     80  C   UNL A   1      35.341  32.933  31.232  1.00  0.00     0.135 A 
ATOM     81  C   UNL A   1      36.885  34.006  29.738  1.00  0.00     0.135 A 
ATOM     82  F   UNL A   1      35.078  32.109  32.257  1.00  0.00    -0.206 F 
ATOM     83  C   UNL A   1      34.272  33.545  30.584  1.00  0.00     0.059 A 
ATOM     84  C   UNL A   1      35.835  34.652  29.093  1.00  0.00     0.059 A 
ATOM     85  F   UNL A   1      38.134  34.252  29.313  1.00  0.00    -0.206 F 
ATOM     86  C   UNL A   1      34.530  34.406  29.517  1.00  0.00     0.060 A 
BRANCH  86  87
ATOM     87  S   UNL A   1      33.140  35.231  28.711  1.00  0.00     0.124 S 
ATOM     88  O   UNL A   1      32.343  35.652  29.858  1.00  0.00    -0.237 OA
ATOM     89  O   UNL A   1      33.807  36.297  27.969  1.00  0.00    -0.237 OA
ATOM     90  O   UNL A   1      32.556  34.177  27.889  1.00  0.00    -0.744 OA
ENDBRANCH  86  87
ENDBRANCH  54  79
BRANCH  66  91
ATOM     91  C   UNL A   1      39.907  34.214  36.908  1.00  0.00     0.058 A 
ATOM     92  C   UNL A   1      39.080  34.004  38.023  1.00  0.00     0.135 A 
ATOM     93  C   UNL A   1      40.618  35.423  36.839  1.00  0.00     0.135 A 
ATOM     94  F   UNL A   1      38.373  32.869  38.138  1.00  0.00    -0.206 F 
ATOM     95  C   UNL A   1      38.938  34.971  39.015  1.00  0.00     0.059 A 
ATOM     96  C   UNL A   1      40.516  36.390  37.835  1.00  0.00     0.059 A 
ATOM     97  F   UNL A   1      41.432  35.671  35.800  1.00  0.00    -0.206 F 
ATOM     98  C   UNL A   1      39.661  36.160  38.911  1.00  0.00     0.060 A 
BRANCH  98  99
ATOM     99  S   UNL A   1      39.483  37.397  40.215  1.00  0.00     0.124 S 
ATOM    100  O   UNL A   1      40.858  37.861  40.370  1.00  0.00    -0.237 OA
ATOM    101  O   UNL A   1      38.555  38.351  39.616  1.00  0.00    -0.237 OA
ATOM    102  O   UNL A   1      38.949  36.633  41.338  1.00  0.00    -0.744 OA
ENDBRANCH  98  99
ENDBRANCH  66  91
ENDBRANCH  40  41
ENDBRANCH  32  35
ENDBRANCH  30  31
ENDBRANCH  29  30
ENDBRANCH   1  29
TORSDOF 18
ENDMDL
