MODEL 1
REMARK VINA RESULT:     -11.4      0.000      0.000
REMARK SMILES O=C(NCCCNC(=O)[C@H](CO)NC(=O)[C@H](CS)NC(=O)[C@H](Cc1ccccc1)NC(=O)c1ccc(F)cc1)c1ccc(-c2c3nc(c(-c4c(F)cc(S(=O)(=O)[O-])cc4F)c4ccc([nH]4)c(-c4c(F)cc(S(=O)(=O)[O-])cc4F)c4nc(c(-c5c(F)cc(S(=O)(=O)[O-])cc5F)c5ccc2[nH]5)C=C4)C=C3)cc1
REMARK SMILES IDX 7 1 8 2 9 3 6 5 5 6 4 7 3 8 1 9 2 10 40 12 41 13 105 14
REMARK SMILES IDX 42 15 104 16 43 17 44 18 45 19 98 20 46 21 103 22 97 23
REMARK SMILES IDX 99 24 47 25 102 26 96 27 95 28 48 30 82 31 61 32 81 33 62 34
REMARK SMILES IDX 65 35 80 36 100 37 63 38 64 39 79 41 101 42 66 43 49 44
REMARK SMILES IDX 50 45 59 46 51 47 52 48 58 49 60 50 53 51 54 52 55 53 56 54
REMARK SMILES IDX 57 55 83 56 84 57 93 58 85 59 86 60 92 61 94 62 87 63 88 64
REMARK SMILES IDX 89 65 90 66 91 67 67 68 68 69 77 70 69 71 70 72 76 73 78 74
REMARK SMILES IDX 71 75 72 76 73 77 74 78 75 79 10 80 13 81 14 82 15 84 16 85
REMARK SMILES IDX 19 86 20 87 21 89 22 90 30 91 31 92 32 94 33 95 34 96 39 97
REMARK SMILES IDX 35 98 38 99 36 100 37 101 23 102 24 103 25 104 29 105 26 106
REMARK SMILES IDX 28 107 27 108 17 109 18 110 11 112 12 113
REMARK H PARENT 7 4 3 11 99 29 65 40 13 83 19 88 30 93 18 111 12 114
REMARK Flexibility Score: inf
ROOT
ATOM      1  N   UNL A   1      33.655  28.924  27.634  1.00  0.00    -0.354 N 
ATOM      2  C   UNL A   1      32.407  28.934  27.125  1.00  0.00     0.244 C 
ATOM      3  O   UNL A   1      31.564  28.331  27.801  1.00  0.00    -0.273 OA
ATOM      4  H   UNL A   1      33.771  28.218  28.310  1.00  0.00     0.163 HD
ENDROOT
BRANCH   1   5
ATOM      5  C   UNL A   1      34.881  29.699  27.435  1.00  0.00     0.117 C 
BRANCH   5   6
ATOM      6  C   UNL A   1      36.121  29.377  28.594  1.00  0.00     0.042 C 
BRANCH   6   7
ATOM      7  C   UNL A   1      36.443  29.988  30.677  1.00  0.00     0.118 C 
BRANCH   7   8
ATOM      8  N   UNL A   1      36.925  31.458  31.285  1.00  0.00    -0.352 N 
ATOM      9  O   UNL A   1      38.251  32.722  32.632  1.00  0.00    -0.269 OA
ATOM     10  C   UNL A   1      38.135  31.808  31.826  1.00  0.00     0.251 C 
ATOM     11  H   UNL A   1      36.251  32.175  31.252  1.00  0.00     0.163 HD
BRANCH  10  12
ATOM     12  C   UNL A   1      39.292  31.073  31.323  1.00  0.00     0.039 A 
ATOM     13  C   UNL A   1      39.609  31.287  29.978  1.00  0.00     0.014 A 
ATOM     14  C   UNL A   1      40.006  30.183  32.122  1.00  0.00     0.014 A 
ATOM     15  C   UNL A   1      40.575  30.515  29.386  1.00  0.00     0.010 A 
ATOM     16  C   UNL A   1      41.081  29.506  31.554  1.00  0.00     0.010 A 
ATOM     17  C   UNL A   1      41.372  29.692  30.192  1.00  0.00    -0.014 A 
BRANCH  17  18
ATOM     18  C   UNL A   1      42.631  29.231  29.592  1.00  0.00     0.031 A 
ATOM     19  C   UNL A   1      42.738  27.888  28.960  1.00  0.00     0.074 A 
ATOM     20  C   UNL A   1      43.630  30.137  29.560  1.00  0.00     0.049 A 
ATOM     21  N   UNL A   1      43.761  27.365  28.344  1.00  0.00    -0.248 NA
ATOM     22  C   UNL A   1      41.560  27.011  29.037  1.00  0.00     0.031 C 
ATOM     23  C   UNL A   1      43.561  31.479  30.165  1.00  0.00     0.029 A 
ATOM     24  N   UNL A   1      44.853  30.116  28.958  1.00  0.00    -0.354 N 
ATOM     25  C   UNL A   1      43.369  26.085  27.985  1.00  0.00     0.074 A 
ATOM     26  C   UNL A   1      42.011  25.906  28.455  1.00  0.00     0.031 C 
ATOM     27  C   UNL A   1      44.645  32.179  29.816  1.00  0.00     0.029 A 
ATOM     28  C   UNL A   1      45.534  31.305  29.070  1.00  0.00     0.049 A 
ATOM     29  H   UNL A   1      45.213  29.328  28.491  1.00  0.00     0.167 HD
ATOM     30  C   UNL A   1      44.102  25.154  27.331  1.00  0.00     0.037 A 
ATOM     31  C   UNL A   1      46.763  31.641  28.645  1.00  0.00     0.037 A 
ATOM     32  C   UNL A   1      45.451  25.394  26.880  1.00  0.00     0.049 A 
ATOM     33  C   UNL A   1      47.546  30.585  27.929  1.00  0.00     0.074 A 
ATOM     34  C   UNL A   1      46.302  24.535  26.211  1.00  0.00     0.029 A 
ATOM     35  N   UNL A   1      46.143  26.590  27.054  1.00  0.00    -0.354 N 
ATOM     36  N   UNL A   1      47.174  29.365  27.612  1.00  0.00    -0.248 NA
ATOM     37  C   UNL A   1      48.913  30.929  27.535  1.00  0.00     0.031 C 
ATOM     38  C   UNL A   1      47.522  25.195  26.019  1.00  0.00     0.029 A 
ATOM     39  C   UNL A   1      47.415  26.485  26.521  1.00  0.00     0.049 A 
ATOM     40  H   UNL A   1      45.779  27.392  27.494  1.00  0.00     0.167 HD
ATOM     41  C   UNL A   1      48.266  28.790  26.984  1.00  0.00     0.074 A 
ATOM     42  C   UNL A   1      49.297  29.811  26.935  1.00  0.00     0.031 C 
ATOM     43  C   UNL A   1      48.411  27.530  26.503  1.00  0.00     0.037 A 
BRANCH  30  44
ATOM     44  C   UNL A   1      43.486  23.802  27.112  1.00  0.00     0.058 A 
ATOM     45  C   UNL A   1      43.514  22.800  28.096  1.00  0.00     0.135 A 
ATOM     46  C   UNL A   1      42.832  23.510  25.904  1.00  0.00     0.135 A 
ATOM     47  F   UNL A   1      44.146  23.015  29.260  1.00  0.00    -0.206 F 
ATOM     48  C   UNL A   1      42.929  21.555  27.885  1.00  0.00     0.059 A 
ATOM     49  C   UNL A   1      42.219  22.280  25.679  1.00  0.00     0.059 A 
ATOM     50  F   UNL A   1      42.784  24.425  24.924  1.00  0.00    -0.206 F 
ATOM     51  C   UNL A   1      42.282  21.304  26.673  1.00  0.00     0.060 A 
BRANCH  51  52
ATOM     52  S   UNL A   1      41.515  19.689  26.420  1.00  0.00     0.124 S 
ATOM     53  O   UNL A   1      41.768  19.041  27.703  1.00  0.00    -0.237 OA
ATOM     54  O   UNL A   1      40.124  20.044  26.152  1.00  0.00    -0.237 OA
ATOM     55  O   UNL A   1      42.248  19.138  25.284  1.00  0.00    -0.744 OA
ENDBRANCH  51  52
ENDBRANCH  30  44
BRANCH  31  56
ATOM     56  C   UNL A   1      47.309  32.991  28.936  1.00  0.00     0.058 A 
ATOM     57  C   UNL A   1      48.044  33.247  30.101  1.00  0.00     0.135 A 
ATOM     58  C   UNL A   1      47.150  34.047  28.021  1.00  0.00     0.135 A 
ATOM     59  F   UNL A   1      48.231  32.273  31.005  1.00  0.00    -0.206 F 
ATOM     60  C   UNL A   1      48.592  34.501  30.356  1.00  0.00     0.059 A 
ATOM     61  C   UNL A   1      47.716  35.297  28.236  1.00  0.00     0.059 A 
ATOM     62  F   UNL A   1      46.475  33.850  26.877  1.00  0.00    -0.206 F 
ATOM     63  C   UNL A   1      48.424  35.519  29.415  1.00  0.00     0.060 A 
BRANCH  63  64
ATOM     64  S   UNL A   1      49.170  37.132  29.732  1.00  0.00     0.124 S 
ATOM     65  O   UNL A   1      48.112  37.800  30.481  1.00  0.00    -0.237 OA
ATOM     66  O   UNL A   1      50.365  36.775  30.492  1.00  0.00    -0.237 OA
ATOM     67  O   UNL A   1      49.423  37.655  28.392  1.00  0.00    -0.744 OA
ENDBRANCH  63  64
ENDBRANCH  31  56
BRANCH  43  68
ATOM     68  C   UNL A   1      49.734  27.216  25.870  1.00  0.00     0.058 A 
ATOM     69  C   UNL A   1      49.928  27.330  24.485  1.00  0.00     0.135 A 
ATOM     70  C   UNL A   1      50.818  26.817  26.664  1.00  0.00     0.135 A 
ATOM     71  F   UNL A   1      48.912  27.695  23.686  1.00  0.00    -0.206 F 
ATOM     72  C   UNL A   1      51.151  27.027  23.903  1.00  0.00     0.059 A 
ATOM     73  C   UNL A   1      52.059  26.538  26.106  1.00  0.00     0.059 A 
ATOM     74  F   UNL A   1      50.679  26.701  27.994  1.00  0.00    -0.206 F 
ATOM     75  C   UNL A   1      52.211  26.632  24.722  1.00  0.00     0.060 A 
BRANCH  75  76
ATOM     76  S   UNL A   1      53.802  26.262  23.958  1.00  0.00     0.124 S 
ATOM     77  O   UNL A   1      53.430  26.141  22.552  1.00  0.00    -0.237 OA
ATOM     78  O   UNL A   1      54.595  27.437  24.305  1.00  0.00    -0.237 OA
ATOM     79  O   UNL A   1      54.211  25.021  24.608  1.00  0.00    -0.744 OA
ENDBRANCH  75  76
ENDBRANCH  43  68
ENDBRANCH  17  18
ENDBRANCH  10  12
ENDBRANCH   7   8
ENDBRANCH   6   7
ENDBRANCH   5   6
ENDBRANCH   1   5
BRANCH   2  80
ATOM     80  C   UNL A   1      32.010  29.599  25.797  1.00  0.00     0.197 C 
BRANCH  80  81
ATOM     81  N   UNL A   1      31.066  28.871  24.946  1.00  0.00    -0.340 N 
ATOM     82  C   UNL A   1      31.222  27.696  24.268  1.00  0.00     0.244 C 
ATOM     83  H   UNL A   1      30.182  29.294  24.848  1.00  0.00     0.164 HD
ATOM     84  O   UNL A   1      30.207  27.133  23.853  1.00  0.00    -0.273 OA
BRANCH  82  85
ATOM     85  C   UNL A   1      32.621  27.139  23.969  1.00  0.00     0.181 C 
BRANCH  85  86
ATOM     86  N   UNL A   1      32.591  26.366  22.717  1.00  0.00    -0.342 N 
ATOM     87  C   UNL A   1      32.792  25.056  22.405  1.00  0.00     0.243 C 
ATOM     88  H   UNL A   1      32.379  26.920  21.930  1.00  0.00     0.164 HD
ATOM     89  O   UNL A   1      32.968  24.818  21.204  1.00  0.00    -0.273 OA
BRANCH  87  90
ATOM     90  C   UNL A   1      32.796  23.872  23.420  1.00  0.00     0.176 C 
BRANCH  90  91
ATOM     91  N   UNL A   1      33.002  24.191  24.831  1.00  0.00    -0.340 N 
ATOM     92  C   UNL A   1      33.951  23.770  25.728  1.00  0.00     0.251 C 
ATOM     93  H   UNL A   1      32.342  24.820  25.204  1.00  0.00     0.164 HD
ATOM     94  O   UNL A   1      33.882  24.187  26.883  1.00  0.00    -0.269 OA
BRANCH  92  95
ATOM     95  C   UNL A   1      35.061  22.850  25.376  1.00  0.00     0.040 A 
ATOM     96  C   UNL A   1      35.804  23.172  24.228  1.00  0.00     0.017 A 
ATOM     97  C   UNL A   1      35.335  21.659  26.059  1.00  0.00     0.017 A 
ATOM     98  C   UNL A   1      36.840  22.341  23.799  1.00  0.00     0.040 A 
ATOM     99  C   UNL A   1      36.380  20.833  25.631  1.00  0.00     0.040 A 
ATOM    100  C   UNL A   1      37.125  21.184  24.511  1.00  0.00     0.123 A 
ATOM    101  F   UNL A   1      38.120  20.386  24.102  1.00  0.00    -0.207 F 
ENDBRANCH  92  95
ENDBRANCH  90  91
BRANCH  90 102
ATOM    102  C   UNL A   1      31.518  22.995  23.239  1.00  0.00     0.070 C 
BRANCH 102 103
ATOM    103  C   UNL A   1      31.756  21.496  23.262  1.00  0.00    -0.045 A 
ATOM    104  C   UNL A   1      32.174  20.736  24.830  1.00  0.00     0.004 A 
ATOM    105  C   UNL A   1      31.860  20.538  21.731  1.00  0.00     0.004 A 
ATOM    106  C   UNL A   1      32.633  18.995  24.922  1.00  0.00     0.000 A 
ATOM    107  C   UNL A   1      32.320  18.788  21.806  1.00  0.00     0.000 A 
ATOM    108  C   UNL A   1      32.773  18.031  23.413  1.00  0.00     0.000 A 
ENDBRANCH 102 103
ENDBRANCH  90 102
ENDBRANCH  87  90
ENDBRANCH  85  86
BRANCH  85 109
ATOM    109  C   UNL A   1      33.562  28.349  23.823  1.00  0.00     0.101 C 
BRANCH 109 110
ATOM    110  S   UNL A   1      34.178  28.539  22.115  1.00  0.00    -0.177 SA
ATOM    111  H   UNL A   1      33.303  27.958  21.251  1.00  0.00     0.102 HD
ENDBRANCH 109 110
ENDBRANCH  85 109
ENDBRANCH  82  85
ENDBRANCH  80  81
BRANCH  80 112
ATOM    112  C   UNL A   1      31.458  30.994  26.144  1.00  0.00     0.191 C 
BRANCH 112 113
ATOM    113  O   UNL A   1      30.654  31.510  25.077  1.00  0.00    -0.394 OA
ATOM    114  H   UNL A   1      31.116  32.248  24.651  1.00  0.00     0.210 HD
ENDBRANCH 112 113
ENDBRANCH  80 112
ENDBRANCH   2  80
TORSDOF 25
ENDMDL
MODEL 2
REMARK VINA RESULT:     -10.9      7.395     15.430
REMARK SMILES O=C(NCCCNC(=O)[C@H](CO)NC(=O)[C@H](CS)NC(=O)[C@H](Cc1ccccc1)NC(=O)c1ccc(F)cc1)c1ccc(-c2c3nc(c(-c4c(F)cc(S(=O)(=O)[O-])cc4F)c4ccc([nH]4)c(-c4c(F)cc(S(=O)(=O)[O-])cc4F)c4nc(c(-c5c(F)cc(S(=O)(=O)[O-])cc5F)c5ccc2[nH]5)C=C4)C=C3)cc1
REMARK SMILES IDX 7 1 8 2 9 3 6 5 5 6 4 7 3 8 1 9 2 10 40 12 41 13 105 14
REMARK SMILES IDX 42 15 104 16 43 17 44 18 45 19 98 20 46 21 103 22 97 23
REMARK SMILES IDX 99 24 47 25 102 26 96 27 95 28 48 30 82 31 61 32 81 33 62 34
REMARK SMILES IDX 65 35 80 36 100 37 63 38 64 39 79 41 101 42 66 43 49 44
REMARK SMILES IDX 50 45 59 46 51 47 52 48 58 49 60 50 53 51 54 52 55 53 56 54
REMARK SMILES IDX 57 55 83 56 84 57 93 58 85 59 86 60 92 61 94 62 87 63 88 64
REMARK SMILES IDX 89 65 90 66 91 67 67 68 68 69 77 70 69 71 70 72 76 73 78 74
REMARK SMILES IDX 71 75 72 76 73 77 74 78 75 79 10 80 13 81 14 82 15 84 16 85
REMARK SMILES IDX 19 86 20 87 21 89 22 90 30 91 31 92 32 94 33 95 34 96 39 97
REMARK SMILES IDX 35 98 38 99 36 100 37 101 23 102 24 103 25 104 29 105 26 106
REMARK SMILES IDX 28 107 27 108 17 109 18 110 11 112 12 113
REMARK H PARENT 7 4 3 11 99 29 65 40 13 83 19 88 30 93 18 111 12 114
REMARK Flexibility Score: inf
ROOT
ATOM      1  N   UNL A   1      48.032  25.793  30.210  1.00  0.00    -0.354 N 
ATOM      2  C   UNL A   1      49.283  25.783  30.712  1.00  0.00     0.244 C 
ATOM      3  O   UNL A   1      50.126  26.367  30.019  1.00  0.00    -0.273 OA
ATOM      4  H   UNL A   1      48.022  26.015  29.251  1.00  0.00     0.163 HD
ENDROOT
BRANCH   1   5
ATOM      5  C   UNL A   1      46.685  25.556  30.732  1.00  0.00     0.117 C 
BRANCH   5   6
ATOM      6  C   UNL A   1      45.432  25.686  29.550  1.00  0.00     0.042 C 
BRANCH   6   7
ATOM      7  C   UNL A   1      44.721  24.367  27.947  1.00  0.00     0.118 C 
BRANCH   7   8
ATOM      8  N   UNL A   1      43.918  24.749  26.542  1.00  0.00    -0.352 N 
ATOM      9  O   UNL A   1      42.016  25.264  25.407  1.00  0.00    -0.269 OA
ATOM     10  C   UNL A   1      42.735  25.423  26.385  1.00  0.00     0.251 C 
ATOM     11  H   UNL A   1      44.350  24.450  25.709  1.00  0.00     0.163 HD
BRANCH  10  12
ATOM     12  C   UNL A   1      42.422  26.404  27.420  1.00  0.00     0.039 A 
ATOM     13  C   UNL A   1      41.489  25.999  28.380  1.00  0.00     0.014 A 
ATOM     14  C   UNL A   1      42.986  27.678  27.425  1.00  0.00     0.014 A 
ATOM     15  C   UNL A   1      41.020  26.912  29.287  1.00  0.00     0.010 A 
ATOM     16  C   UNL A   1      42.614  28.559  28.436  1.00  0.00     0.010 A 
ATOM     17  C   UNL A   1      41.646  28.163  29.375  1.00  0.00    -0.014 A 
BRANCH  17  18
ATOM     18  C   UNL A   1      41.400  28.919  30.610  1.00  0.00     0.031 A 
ATOM     19  C   UNL A   1      42.347  28.854  31.756  1.00  0.00     0.074 A 
ATOM     20  C   UNL A   1      40.331  29.741  30.588  1.00  0.00     0.049 A 
ATOM     21  N   UNL A   1      42.294  29.504  32.885  1.00  0.00    -0.248 NA
ATOM     22  C   UNL A   1      43.493  27.940  31.633  1.00  0.00     0.031 C 
ATOM     23  C   UNL A   1      39.376  29.841  29.472  1.00  0.00     0.029 A 
ATOM     24  N   UNL A   1      39.897  30.686  31.471  1.00  0.00    -0.354 N 
ATOM     25  C   UNL A   1      43.377  29.057  33.626  1.00  0.00     0.074 A 
ATOM     26  C   UNL A   1      44.072  28.076  32.820  1.00  0.00     0.031 C 
ATOM     27  C   UNL A   1      38.537  30.858  29.696  1.00  0.00     0.029 A 
ATOM     28  C   UNL A   1      38.815  31.400  31.014  1.00  0.00     0.049 A 
ATOM     29  H   UNL A   1      40.317  30.840  32.348  1.00  0.00     0.167 HD
ATOM     30  C   UNL A   1      43.731  29.440  34.875  1.00  0.00     0.037 A 
ATOM     31  C   UNL A   1      38.102  32.367  31.614  1.00  0.00     0.037 A 
ATOM     32  C   UNL A   1      43.000  30.430  35.628  1.00  0.00     0.049 A 
ATOM     33  C   UNL A   1      38.520  32.761  32.996  1.00  0.00     0.074 A 
ATOM     34  C   UNL A   1      43.251  30.903  36.902  1.00  0.00     0.029 A 
ATOM     35  N   UNL A   1      41.872  31.102  35.167  1.00  0.00    -0.354 N 
ATOM     36  N   UNL A   1      39.536  32.317  33.701  1.00  0.00    -0.248 NA
ATOM     37  C   UNL A   1      37.694  33.760  33.677  1.00  0.00     0.031 C 
ATOM     38  C   UNL A   1      42.251  31.827  37.227  1.00  0.00     0.029 A 
ATOM     39  C   UNL A   1      41.406  31.971  36.137  1.00  0.00     0.049 A 
ATOM     40  H   UNL A   1      41.464  30.975  34.279  1.00  0.00     0.167 HD
ATOM     41  C   UNL A   1      39.470  32.978  34.916  1.00  0.00     0.074 A 
ATOM     42  C   UNL A   1      38.334  33.880  34.832  1.00  0.00     0.031 C 
ATOM     43  C   UNL A   1      40.264  32.846  36.008  1.00  0.00     0.037 A 
BRANCH  30  44
ATOM     44  C   UNL A   1      44.911  28.762  35.509  1.00  0.00     0.058 A 
ATOM     45  C   UNL A   1      46.220  29.252  35.366  1.00  0.00     0.135 A 
ATOM     46  C   UNL A   1      44.729  27.614  36.297  1.00  0.00     0.135 A 
ATOM     47  F   UNL A   1      46.458  30.331  34.605  1.00  0.00    -0.206 F 
ATOM     48  C   UNL A   1      47.304  28.620  35.968  1.00  0.00     0.059 A 
ATOM     49  C   UNL A   1      45.795  26.979  36.929  1.00  0.00     0.059 A 
ATOM     50  F   UNL A   1      43.502  27.095  36.460  1.00  0.00    -0.206 F 
ATOM     51  C   UNL A   1      47.082  27.485  36.750  1.00  0.00     0.060 A 
BRANCH  51  52
ATOM     52  S   UNL A   1      48.497  26.686  37.537  1.00  0.00     0.124 S 
ATOM     53  O   UNL A   1      48.552  25.416  36.819  1.00  0.00    -0.237 OA
ATOM     54  O   UNL A   1      49.581  27.622  37.253  1.00  0.00    -0.237 OA
ATOM     55  O   UNL A   1      48.101  26.596  38.939  1.00  0.00    -0.744 OA
ENDBRANCH  51  52
ENDBRANCH  30  44
BRANCH  31  56
ATOM     56  C   UNL A   1      36.925  32.959  30.928  1.00  0.00     0.058 A 
ATOM     57  C   UNL A   1      35.619  32.558  31.239  1.00  0.00     0.135 A 
ATOM     58  C   UNL A   1      37.083  33.984  29.978  1.00  0.00     0.135 A 
ATOM     59  F   UNL A   1      35.412  31.588  32.143  1.00  0.00    -0.206 F 
ATOM     60  C   UNL A   1      34.513  33.141  30.627  1.00  0.00     0.059 A 
ATOM     61  C   UNL A   1      35.994  34.605  29.379  1.00  0.00     0.059 A 
ATOM     62  F   UNL A   1      38.312  34.423  29.660  1.00  0.00    -0.206 F 
ATOM     63  C   UNL A   1      34.712  34.166  29.699  1.00  0.00     0.060 A 
BRANCH  63  64
ATOM     64  S   UNL A   1      33.272  34.945  28.939  1.00  0.00     0.124 S 
ATOM     65  O   UNL A   1      32.794  33.881  28.063  1.00  0.00    -0.237 OA
ATOM     66  O   UNL A   1      32.436  35.245  30.097  1.00  0.00    -0.237 OA
ATOM     67  O   UNL A   1      33.837  36.111  28.266  1.00  0.00    -0.744 OA
ENDBRANCH  63  64
ENDBRANCH  31  56
BRANCH  43  68
ATOM     68  C   UNL A   1      39.924  33.719  37.178  1.00  0.00     0.058 A 
ATOM     69  C   UNL A   1      38.967  33.331  38.127  1.00  0.00     0.135 A 
ATOM     70  C   UNL A   1      40.579  34.945  37.356  1.00  0.00     0.135 A 
ATOM     71  F   UNL A   1      38.305  32.171  37.987  1.00  0.00    -0.206 F 
ATOM     72  C   UNL A   1      38.647  34.148  39.203  1.00  0.00     0.059 A 
ATOM     73  C   UNL A   1      40.298  35.765  38.442  1.00  0.00     0.059 A 
ATOM     74  F   UNL A   1      41.507  35.353  36.476  1.00  0.00    -0.206 F 
ATOM     75  C   UNL A   1      39.319  35.364  39.351  1.00  0.00     0.060 A 
BRANCH  75  76
ATOM     76  S   UNL A   1      38.912  36.408  40.765  1.00  0.00     0.124 S 
ATOM     77  O   UNL A   1      37.886  35.612  41.431  1.00  0.00    -0.237 OA
ATOM     78  O   UNL A   1      40.192  36.504  41.460  1.00  0.00    -0.237 OA
ATOM     79  O   UNL A   1      38.445  37.646  40.148  1.00  0.00    -0.744 OA
ENDBRANCH  75  76
ENDBRANCH  43  68
ENDBRANCH  17  18
ENDBRANCH  10  12
ENDBRANCH   7   8
ENDBRANCH   6   7
ENDBRANCH   5   6
ENDBRANCH   1   5
BRANCH   2  80
ATOM     80  C   UNL A   1      49.694  25.090  32.021  1.00  0.00     0.197 C 
BRANCH  80  81
ATOM     81  N   UNL A   1      51.080  24.624  32.118  1.00  0.00    -0.340 N 
ATOM     82  C   UNL A   1      51.621  23.635  32.888  1.00  0.00     0.244 C 
ATOM     83  H   UNL A   1      51.720  25.098  31.539  1.00  0.00     0.164 HD
ATOM     84  O   UNL A   1      52.749  23.231  32.595  1.00  0.00    -0.273 OA
BRANCH  82  85
ATOM     85  C   UNL A   1      50.879  23.101  34.120  1.00  0.00     0.181 C 
BRANCH  85  86
ATOM     86  N   UNL A   1      50.649  21.654  33.975  1.00  0.00    -0.342 N 
ATOM     87  C   UNL A   1      49.789  20.768  34.547  1.00  0.00     0.243 C 
ATOM     88  H   UNL A   1      51.251  21.236  33.318  1.00  0.00     0.164 HD
ATOM     89  O   UNL A   1      50.075  19.575  34.391  1.00  0.00    -0.273 OA
BRANCH  87  90
ATOM     90  C   UNL A   1      48.500  21.139  35.344  1.00  0.00     0.176 C 
BRANCH  90  91
ATOM     91  N   UNL A   1      47.429  20.147  35.398  1.00  0.00    -0.340 N 
ATOM     92  C   UNL A   1      46.065  20.278  35.326  1.00  0.00     0.251 C 
ATOM     93  H   UNL A   1      47.742  19.219  35.504  1.00  0.00     0.164 HD
ATOM     94  O   UNL A   1      45.380  19.261  35.417  1.00  0.00    -0.269 OA
BRANCH  92  95
ATOM     95  C   UNL A   1      45.376  21.577  35.130  1.00  0.00     0.040 A 
ATOM     96  C   UNL A   1      45.075  21.936  33.806  1.00  0.00     0.017 A 
ATOM     97  C   UNL A   1      45.103  22.481  36.164  1.00  0.00     0.017 A 
ATOM     98  C   UNL A   1      44.464  23.159  33.525  1.00  0.00     0.040 A 
ATOM     99  C   UNL A   1      44.483  23.702  35.880  1.00  0.00     0.040 A 
ATOM    100  C   UNL A   1      44.164  24.026  34.566  1.00  0.00     0.123 A 
ATOM    101  F   UNL A   1      43.576  25.200  34.298  1.00  0.00    -0.207 F 
ENDBRANCH  92  95
ENDBRANCH  90  91
BRANCH  90 102
ATOM    102  C   UNL A   1      48.868  21.624  36.780  1.00  0.00     0.070 C 
BRANCH 102 103
ATOM    103  C   UNL A   1      48.547  20.644  37.895  1.00  0.00    -0.045 A 
ATOM    104  C   UNL A   1      46.949  20.778  38.694  1.00  0.00     0.004 A 
ATOM    105  C   UNL A   1      49.811  19.540  38.569  1.00  0.00     0.004 A 
ATOM    106  C   UNL A   1      46.545  19.768  40.132  1.00  0.00     0.000 A 
ATOM    107  C   UNL A   1      49.422  18.519  40.013  1.00  0.00     0.000 A 
ATOM    108  C   UNL A   1      47.793  18.687  40.838  1.00  0.00     0.000 A 
ENDBRANCH 102 103
ENDBRANCH  90 102
ENDBRANCH  87  90
ENDBRANCH  85  86
BRANCH  85 109
ATOM    109  C   UNL A   1      51.780  23.375  35.338  1.00  0.00     0.101 C 
BRANCH 109 110
ATOM    110  S   UNL A   1      52.583  21.855  35.955  1.00  0.00    -0.177 SA
ATOM    111  H   UNL A   1      53.793  21.706  35.353  1.00  0.00     0.102 HD
ENDBRANCH 109 110
ENDBRANCH  85 109
ENDBRANCH  82  85
ENDBRANCH  80  81
BRANCH  80 112
ATOM    112  C   UNL A   1      49.373  26.069  33.165  1.00  0.00     0.191 C 
BRANCH 112 113
ATOM    113  O   UNL A   1      48.227  25.637  33.906  1.00  0.00    -0.394 OA
ATOM    114  H   UNL A   1      48.516  25.147  34.691  1.00  0.00     0.210 HD
ENDBRANCH 112 113
ENDBRANCH  80 112
ENDBRANCH   2  80
TORSDOF 25
ENDMDL
MODEL 3
REMARK VINA RESULT:     -10.3      5.613     11.517
REMARK SMILES O=C(NCCCNC(=O)[C@H](CO)NC(=O)[C@H](CS)NC(=O)[C@H](Cc1ccccc1)NC(=O)c1ccc(F)cc1)c1ccc(-c2c3nc(c(-c4c(F)cc(S(=O)(=O)[O-])cc4F)c4ccc([nH]4)c(-c4c(F)cc(S(=O)(=O)[O-])cc4F)c4nc(c(-c5c(F)cc(S(=O)(=O)[O-])cc5F)c5ccc2[nH]5)C=C4)C=C3)cc1
REMARK SMILES IDX 7 1 8 2 9 3 6 5 5 6 4 7 3 8 1 9 2 10 40 12 41 13 105 14
REMARK SMILES IDX 42 15 104 16 43 17 44 18 45 19 98 20 46 21 103 22 97 23
REMARK SMILES IDX 99 24 47 25 102 26 96 27 95 28 48 30 82 31 61 32 81 33 62 34
REMARK SMILES IDX 65 35 80 36 100 37 63 38 64 39 79 41 101 42 66 43 49 44
REMARK SMILES IDX 50 45 59 46 51 47 52 48 58 49 60 50 53 51 54 52 55 53 56 54
REMARK SMILES IDX 57 55 83 56 84 57 93 58 85 59 86 60 92 61 94 62 87 63 88 64
REMARK SMILES IDX 89 65 90 66 91 67 67 68 68 69 77 70 69 71 70 72 76 73 78 74
REMARK SMILES IDX 71 75 72 76 73 77 74 78 75 79 10 80 13 81 14 82 15 84 16 85
REMARK SMILES IDX 19 86 20 87 21 89 22 90 30 91 31 92 32 94 33 95 34 96 39 97
REMARK SMILES IDX 35 98 38 99 36 100 37 101 23 102 24 103 25 104 29 105 26 106
REMARK SMILES IDX 28 107 27 108 17 109 18 110 11 112 12 113
REMARK H PARENT 7 4 3 11 99 29 65 40 13 83 19 88 30 93 18 111 12 114
REMARK Flexibility Score: inf
ROOT
ATOM      1  N   UNL A   1      42.796  21.300  27.407  1.00  0.00    -0.354 N 
ATOM      2  C   UNL A   1      42.073  20.944  26.327  1.00  0.00     0.244 C 
ATOM      3  O   UNL A   1      42.439  19.899  25.775  1.00  0.00    -0.273 OA
ATOM      4  H   UNL A   1      43.666  20.839  27.435  1.00  0.00     0.163 HD
ENDROOT
BRANCH   1   5
ATOM      5  C   UNL A   1      42.616  22.199  28.548  1.00  0.00     0.117 C 
BRANCH   5   6
ATOM      6  C   UNL A   1      43.848  23.399  28.710  1.00  0.00     0.042 C 
BRANCH   6   7
ATOM      7  C   UNL A   1      44.988  24.601  27.272  1.00  0.00     0.118 C 
BRANCH   7   8
ATOM      8  N   UNL A   1      44.443  25.543  26.014  1.00  0.00    -0.352 N 
ATOM      9  O   UNL A   1      42.793  26.683  24.944  1.00  0.00    -0.269 OA
ATOM     10  C   UNL A   1      43.374  26.400  25.983  1.00  0.00     0.251 C 
ATOM     11  H   UNL A   1      44.958  25.475  25.178  1.00  0.00     0.163 HD
BRANCH  10  12
ATOM     12  C   UNL A   1      43.020  27.018  27.258  1.00  0.00     0.039 A 
ATOM     13  C   UNL A   1      43.669  28.222  27.551  1.00  0.00     0.014 A 
ATOM     14  C   UNL A   1      42.125  26.423  28.144  1.00  0.00     0.014 A 
ATOM     15  C   UNL A   1      43.517  28.780  28.793  1.00  0.00     0.010 A 
ATOM     16  C   UNL A   1      41.862  27.068  29.348  1.00  0.00     0.010 A 
ATOM     17  C   UNL A   1      42.546  28.256  29.657  1.00  0.00    -0.014 A 
BRANCH  17  18
ATOM     18  C   UNL A   1      42.136  29.128  30.766  1.00  0.00     0.031 A 
ATOM     19  C   UNL A   1      40.872  29.911  30.706  1.00  0.00     0.074 A 
ATOM     20  C   UNL A   1      42.919  29.084  31.864  1.00  0.00     0.049 A 
ATOM     21  N   UNL A   1      40.352  30.677  31.623  1.00  0.00    -0.248 NA
ATOM     22  C   UNL A   1      40.094  29.841  29.459  1.00  0.00     0.031 C 
ATOM     23  C   UNL A   1      44.172  28.317  31.967  1.00  0.00     0.029 A 
ATOM     24  N   UNL A   1      42.766  29.623  33.107  1.00  0.00    -0.354 N 
ATOM     25  C   UNL A   1      39.203  31.211  31.060  1.00  0.00     0.074 A 
ATOM     26  C   UNL A   1      39.101  30.682  29.716  1.00  0.00     0.031 C 
ATOM     27  C   UNL A   1      44.612  28.354  33.228  1.00  0.00     0.029 A 
ATOM     28  C   UNL A   1      43.748  29.239  33.990  1.00  0.00     0.049 A 
ATOM     29  H   UNL A   1      42.028  30.228  33.348  1.00  0.00     0.167 HD
ATOM     30  C   UNL A   1      38.333  32.074  31.633  1.00  0.00     0.037 A 
ATOM     31  C   UNL A   1      43.947  29.595  35.270  1.00  0.00     0.037 A 
ATOM     32  C   UNL A   1      38.486  32.561  32.982  1.00  0.00     0.049 A 
ATOM     33  C   UNL A   1      42.967  30.555  35.868  1.00  0.00     0.074 A 
ATOM     34  C   UNL A   1      37.678  33.441  33.678  1.00  0.00     0.029 A 
ATOM     35  N   UNL A   1      39.520  32.202  33.842  1.00  0.00    -0.354 N 
ATOM     36  N   UNL A   1      41.891  31.074  35.319  1.00  0.00    -0.248 NA
ATOM     37  C   UNL A   1      43.229  31.000  37.238  1.00  0.00     0.031 C 
ATOM     38  C   UNL A   1      38.247  33.646  34.941  1.00  0.00     0.029 A 
ATOM     39  C   UNL A   1      39.381  32.855  35.053  1.00  0.00     0.049 A 
ATOM     40  H   UNL A   1      40.246  31.575  33.618  1.00  0.00     0.167 HD
ATOM     41  C   UNL A   1      41.348  31.915  36.276  1.00  0.00     0.074 A 
ATOM     42  C   UNL A   1      42.197  31.803  37.450  1.00  0.00     0.031 C 
ATOM     43  C   UNL A   1      40.258  32.716  36.192  1.00  0.00     0.037 A 
BRANCH  30  44
ATOM     44  C   UNL A   1      37.189  32.574  30.799  1.00  0.00     0.058 A 
ATOM     45  C   UNL A   1      37.315  33.680  29.943  1.00  0.00     0.135 A 
ATOM     46  C   UNL A   1      35.947  31.919  30.837  1.00  0.00     0.135 A 
ATOM     47  F   UNL A   1      38.471  34.360  29.884  1.00  0.00    -0.206 F 
ATOM     48  C   UNL A   1      36.249  34.126  29.166  1.00  0.00     0.059 A 
ATOM     49  C   UNL A   1      34.874  32.332  30.051  1.00  0.00     0.059 A 
ATOM     50  F   UNL A   1      35.765  30.863  31.645  1.00  0.00    -0.206 F 
ATOM     51  C   UNL A   1      35.032  33.444  29.225  1.00  0.00     0.060 A 
BRANCH  51  52
ATOM     52  S   UNL A   1      33.664  34.026  28.201  1.00  0.00     0.124 S 
ATOM     53  O   UNL A   1      34.365  34.835  27.208  1.00  0.00    -0.237 OA
ATOM     54  O   UNL A   1      33.091  32.776  27.709  1.00  0.00    -0.237 OA
ATOM     55  O   UNL A   1      32.828  34.769  29.138  1.00  0.00    -0.744 OA
ENDBRANCH  51  52
ENDBRANCH  30  44
BRANCH  31  56
ATOM     56  C   UNL A   1      45.127  29.080  36.011  1.00  0.00     0.058 A 
ATOM     57  C   UNL A   1      46.359  29.747  35.977  1.00  0.00     0.135 A 
ATOM     58  C   UNL A   1      45.029  27.932  36.816  1.00  0.00     0.135 A 
ATOM     59  F   UNL A   1      46.505  30.851  35.229  1.00  0.00    -0.206 F 
ATOM     60  C   UNL A   1      47.454  29.288  36.704  1.00  0.00     0.059 A 
ATOM     61  C   UNL A   1      46.097  27.475  37.577  1.00  0.00     0.059 A 
ATOM     62  F   UNL A   1      43.864  27.268  36.903  1.00  0.00    -0.206 F 
ATOM     63  C   UNL A   1      47.312  28.153  37.503  1.00  0.00     0.060 A 
BRANCH  63  64
ATOM     64  S   UNL A   1      48.724  27.587  38.475  1.00  0.00     0.124 S 
ATOM     65  O   UNL A   1      48.171  27.598  39.825  1.00  0.00    -0.237 OA
ATOM     66  O   UNL A   1      48.985  26.269  37.902  1.00  0.00    -0.237 OA
ATOM     67  O   UNL A   1      49.746  28.593  38.202  1.00  0.00    -0.744 OA
ENDBRANCH  63  64
ENDBRANCH  31  56
BRANCH  43  68
ATOM     68  C   UNL A   1      39.930  33.511  37.420  1.00  0.00     0.058 A 
ATOM     69  C   UNL A   1      40.606  34.702  37.724  1.00  0.00     0.135 A 
ATOM     70  C   UNL A   1      38.915  33.083  38.287  1.00  0.00     0.135 A 
ATOM     71  F   UNL A   1      41.595  35.141  36.929  1.00  0.00    -0.206 F 
ATOM     72  C   UNL A   1      40.306  35.428  38.868  1.00  0.00     0.059 A 
ATOM     73  C   UNL A   1      38.577  33.810  39.422  1.00  0.00     0.059 A 
ATOM     74  F   UNL A   1      38.237  31.953  38.032  1.00  0.00    -0.206 F 
ATOM     75  C   UNL A   1      39.290  34.974  39.711  1.00  0.00     0.060 A 
BRANCH  75  76
ATOM     76  S   UNL A   1      38.894  35.937  41.183  1.00  0.00     0.124 S 
ATOM     77  O   UNL A   1      40.197  36.028  41.833  1.00  0.00    -0.237 OA
ATOM     78  O   UNL A   1      38.380  37.179  40.614  1.00  0.00    -0.237 OA
ATOM     79  O   UNL A   1      37.905  35.113  41.872  1.00  0.00    -0.744 OA
ENDBRANCH  75  76
ENDBRANCH  43  68
ENDBRANCH  17  18
ENDBRANCH  10  12
ENDBRANCH   7   8
ENDBRANCH   6   7
ENDBRANCH   5   6
ENDBRANCH   1   5
BRANCH   2  80
ATOM     80  C   UNL A   1      40.893  21.752  25.761  1.00  0.00     0.197 C 
BRANCH  80  81
ATOM     81  N   UNL A   1      39.547  21.273  26.082  1.00  0.00    -0.340 N 
ATOM     82  C   UNL A   1      38.329  21.803  25.766  1.00  0.00     0.244 C 
ATOM     83  H   UNL A   1      39.515  20.440  26.607  1.00  0.00     0.164 HD
ATOM     84  O   UNL A   1      37.337  21.081  25.894  1.00  0.00    -0.273 OA
BRANCH  82  85
ATOM     85  C   UNL A   1      38.195  23.271  25.338  1.00  0.00     0.181 C 
BRANCH  85  86
ATOM     86  N   UNL A   1      37.409  23.359  24.098  1.00  0.00    -0.342 N 
ATOM     87  C   UNL A   1      36.124  23.055  23.765  1.00  0.00     0.243 C 
ATOM     88  H   UNL A   1      37.927  23.716  23.340  1.00  0.00     0.164 HD
ATOM     89  O   UNL A   1      35.891  22.991  22.552  1.00  0.00    -0.273 OA
BRANCH  87  90
ATOM     90  C   UNL A   1      34.959  22.810  24.773  1.00  0.00     0.176 C 
BRANCH  90  91
ATOM     91  N   UNL A   1      34.593  23.908  25.665  1.00  0.00    -0.340 N 
ATOM     92  C   UNL A   1      33.872  25.054  25.446  1.00  0.00     0.251 C 
ATOM     93  H   UNL A   1      34.923  23.806  26.588  1.00  0.00     0.164 HD
ATOM     94  O   UNL A   1      33.724  25.834  26.386  1.00  0.00    -0.269 OA
BRANCH  92  95
ATOM     95  C   UNL A   1      33.251  25.396  24.143  1.00  0.00     0.040 A 
ATOM     96  C   UNL A   1      31.904  25.033  23.974  1.00  0.00     0.017 A 
ATOM     97  C   UNL A   1      33.948  25.959  23.068  1.00  0.00     0.017 A 
ATOM     98  C   UNL A   1      31.250  25.279  22.765  1.00  0.00     0.040 A 
ATOM     99  C   UNL A   1      33.288  26.212  21.861  1.00  0.00     0.040 A 
ATOM    100  C   UNL A   1      31.946  25.875  21.723  1.00  0.00     0.123 A 
ATOM    101  F   UNL A   1      31.319  26.113  20.563  1.00  0.00    -0.207 F 
ENDBRANCH  92  95
ENDBRANCH  90  91
BRANCH  90 102
ATOM    102  C   UNL A   1      33.699  22.270  24.028  1.00  0.00     0.070 C 
BRANCH 102 103
ATOM    103  C   UNL A   1      33.581  20.757  23.973  1.00  0.00    -0.045 A 
ATOM    104  C   UNL A   1      34.886  19.786  24.725  1.00  0.00     0.004 A 
ATOM    105  C   UNL A   1      32.307  19.950  22.974  1.00  0.00     0.004 A 
ATOM    106  C   UNL A   1      34.912  17.990  24.565  1.00  0.00     0.000 A 
ATOM    107  C   UNL A   1      32.320  18.147  22.803  1.00  0.00     0.000 A 
ATOM    108  C   UNL A   1      33.677  17.168  23.554  1.00  0.00     0.000 A 
ENDBRANCH 102 103
ENDBRANCH  90 102
ENDBRANCH  87  90
ENDBRANCH  85  86
BRANCH  85 109
ATOM    109  C   UNL A   1      37.467  24.004  26.480  1.00  0.00     0.101 C 
BRANCH 109 110
ATOM    110  S   UNL A   1      38.607  25.020  27.481  1.00  0.00    -0.177 SA
ATOM    111  H   UNL A   1      37.952  25.490  28.577  1.00  0.00     0.102 HD
ENDBRANCH 109 110
ENDBRANCH  85 109
ENDBRANCH  82  85
ENDBRANCH  80  81
BRANCH  80 112
ATOM    112  C   UNL A   1      41.077  23.205  26.238  1.00  0.00     0.191 C 
BRANCH 112 113
ATOM    113  O   UNL A   1      41.994  23.911  25.396  1.00  0.00    -0.394 OA
ATOM    114  H   UNL A   1      42.729  23.326  25.156  1.00  0.00     0.210 HD
ENDBRANCH 112 113
ENDBRANCH  80 112
ENDBRANCH   2  80
TORSDOF 25
ENDMDL
