MODEL 1
REMARK VINA RESULT:     -12.1      0.000      0.000
REMARK SMILES O=C(/C=C\c1ccc(OCc2ccc(Br)cc2)cc1)NCCCNC(=O)c1ccc(-c2c3nc(c(-c4c(F)cc(S(=O)(=O)[O-])cc4F)c4ccc([nH]4)c(-c4c(F)cc(S(=O)(=O)[O-])cc4F)c4nc(c(-c5c(F)cc(S(=O)(=O)[O-])cc5F)c5ccc2[nH]5)C=C4)C=C3)cc1
REMARK SMILES IDX 21 1 20 2 1 3 2 4 3 6 4 7 5 8 6 9 19 10 7 11 18 12 8 13 9 14
REMARK SMILES IDX 10 15 11 16 12 17 17 18 13 19 16 20 14 21 15 22 22 23 23 24
REMARK SMILES IDX 24 25 25 26 26 28 27 29 28 30 92 31 29 32 91 33 30 34 31 35
REMARK SMILES IDX 32 36 85 37 33 38 90 39 84 40 86 41 34 42 89 43 83 44 82 45
REMARK SMILES IDX 35 47 69 48 48 49 68 50 49 51 52 52 67 53 87 54 50 55 51 56
REMARK SMILES IDX 66 58 88 59 53 60 36 61 37 62 46 63 38 64 39 65 45 66 47 67
REMARK SMILES IDX 40 68 41 69 42 70 43 71 44 72 70 73 71 74 80 75 72 76 73 77
REMARK SMILES IDX 79 78 81 79 74 80 75 81 76 82 77 83 78 84 54 85 55 86 64 87
REMARK SMILES IDX 56 88 57 89 63 90 65 91 58 92 59 93 60 94 61 95 62 96
REMARK H PARENT 20 5 24 27 86 46 52 57
REMARK Flexibility Score: inf
ROOT
ATOM      1  C   UNL A   1      39.673  22.701  26.640  1.00  0.00     0.118 C 
ENDROOT
BRANCH   1   2
ATOM      2  N   UNL A   1      38.785  21.618  26.238  1.00  0.00    -0.352 N 
ATOM      3  O   UNL A   1      37.457  22.879  24.859  1.00  0.00    -0.270 OA
ATOM      4  C   UNL A   1      37.740  21.803  25.374  1.00  0.00     0.244 C 
ATOM      5  H   UNL A   1      38.941  20.718  26.605  1.00  0.00     0.163 HD
BRANCH   4   6
ATOM      6  C   UNL A   1      36.990  20.584  24.960  1.00  0.00     0.072 C 
ATOM      7  C   UNL A   1      35.678  20.294  25.001  1.00  0.00     0.014 C 
BRANCH   7   8
ATOM      8  C   UNL A   1      34.603  21.158  25.469  1.00  0.00    -0.025 A 
ATOM      9  C   UNL A   1      34.710  21.761  26.726  1.00  0.00     0.012 A 
ATOM     10  C   UNL A   1      33.477  21.397  24.677  1.00  0.00     0.012 A 
ATOM     11  C   UNL A   1      33.760  22.691  27.130  1.00  0.00     0.047 A 
ATOM     12  C   UNL A   1      32.519  22.319  25.090  1.00  0.00     0.047 A 
ATOM     13  C   UNL A   1      32.709  23.020  26.280  1.00  0.00     0.119 A 
BRANCH  13  14
ATOM     14  O   UNL A   1      31.963  24.076  26.703  1.00  0.00    -0.489 OA
BRANCH  14  15
ATOM     15  C   UNL A   1      31.640  25.040  25.711  1.00  0.00     0.265 C 
BRANCH  15  16
ATOM     16  C   UNL A   1      32.163  26.444  25.961  1.00  0.00    -0.011 A 
ATOM     17  C   UNL A   1      33.950  26.765  25.804  1.00  0.00     0.008 A 
ATOM     18  C   UNL A   1      31.052  27.735  26.671  1.00  0.00     0.008 A 
ATOM     19  C   UNL A   1      34.663  28.364  26.351  1.00  0.00     0.016 A 
ATOM     20  C   UNL A   1      31.776  29.333  27.252  1.00  0.00     0.016 A 
ATOM     21  C   UNL A   1      33.566  29.618  27.082  1.00  0.00     0.017 A 
ATOM     22  Br  UNL A   1      34.309  31.256  27.653  1.00  0.00    -0.051 Br
ENDBRANCH  15  16
ENDBRANCH  14  15
ENDBRANCH  13  14
ENDBRANCH   7   8
ENDBRANCH   4   6
ENDBRANCH   1   2
BRANCH   1  23
ATOM     23  C   UNL A   1      41.021  22.219  27.161  1.00  0.00     0.042 C 
BRANCH  23  24
ATOM     24  C   UNL A   1      42.122  22.204  26.104  1.00  0.00     0.118 C 
BRANCH  24  25
ATOM     25  N   UNL A   1      42.361  23.666  25.332  1.00  0.00    -0.352 N 
ATOM     26  C   UNL A   1      42.195  25.613  25.565  1.00  0.00     0.251 C 
ATOM     27  H   UNL A   1      42.715  23.488  24.431  1.00  0.00     0.163 HD
ATOM     28  O   UNL A   1      42.532  26.557  24.778  1.00  0.00    -0.269 OA
BRANCH  26  29
ATOM     29  C   UNL A   1      41.572  26.592  26.741  1.00  0.00     0.039 A 
ATOM     30  C   UNL A   1      40.733  26.072  27.742  1.00  0.00     0.014 A 
ATOM     31  C   UNL A   1      41.797  27.971  26.779  1.00  0.00     0.014 A 
ATOM     32  C   UNL A   1      40.342  26.883  28.825  1.00  0.00     0.010 A 
ATOM     33  C   UNL A   1      41.671  28.670  27.952  1.00  0.00     0.010 A 
ATOM     34  C   UNL A   1      40.883  28.170  28.974  1.00  0.00    -0.014 A 
BRANCH  34  35
ATOM     35  C   UNL A   1      40.701  29.073  30.135  1.00  0.00     0.031 A 
ATOM     36  C   UNL A   1      41.514  28.841  31.399  1.00  0.00     0.074 A 
ATOM     37  C   UNL A   1      39.647  29.911  30.142  1.00  0.00     0.049 A 
ATOM     38  N   UNL A   1      41.356  29.353  32.592  1.00  0.00    -0.248 NA
ATOM     39  C   UNL A   1      42.571  27.808  31.345  1.00  0.00     0.031 C 
ATOM     40  C   UNL A   1      38.672  30.067  29.057  1.00  0.00     0.029 A 
ATOM     41  N   UNL A   1      39.200  30.771  31.108  1.00  0.00    -0.354 N 
ATOM     42  C   UNL A   1      42.245  28.666  33.417  1.00  0.00     0.074 A 
ATOM     43  C   UNL A   1      42.830  27.612  32.628  1.00  0.00     0.031 C 
ATOM     44  C   UNL A   1      37.778  31.009  29.396  1.00  0.00     0.029 A 
ATOM     45  C   UNL A   1      38.104  31.507  30.727  1.00  0.00     0.049 A 
ATOM     46  H   UNL A   1      39.624  30.855  31.993  1.00  0.00     0.167 HD
ATOM     47  C   UNL A   1      42.604  28.939  34.694  1.00  0.00     0.037 A 
ATOM     48  C   UNL A   1      37.463  32.497  31.373  1.00  0.00     0.037 A 
ATOM     49  C   UNL A   1      42.088  30.073  35.410  1.00  0.00     0.049 A 
ATOM     50  C   UNL A   1      37.993  32.914  32.717  1.00  0.00     0.074 A 
ATOM     51  C   UNL A   1      42.465  30.568  36.643  1.00  0.00     0.029 A 
ATOM     52  N   UNL A   1      41.095  30.912  34.922  1.00  0.00    -0.354 N 
ATOM     53  N   UNL A   1      38.934  32.351  33.440  1.00  0.00    -0.248 NA
ATOM     54  C   UNL A   1      37.406  34.115  33.319  1.00  0.00     0.031 C 
ATOM     55  C   UNL A   1      41.685  31.700  36.909  1.00  0.00     0.029 A 
ATOM     56  C   UNL A   1      40.850  31.929  35.824  1.00  0.00     0.049 A 
ATOM     57  H   UNL A   1      40.633  30.798  34.060  1.00  0.00     0.167 HD
ATOM     58  C   UNL A   1      39.079  33.152  34.566  1.00  0.00     0.074 A 
ATOM     59  C   UNL A   1      38.134  34.243  34.419  1.00  0.00     0.031 C 
ATOM     60  C   UNL A   1      39.913  33.005  35.625  1.00  0.00     0.037 A 
BRANCH  47  61
ATOM     61  C   UNL A   1      43.649  28.064  35.344  1.00  0.00     0.058 A 
ATOM     62  C   UNL A   1      45.025  28.319  35.190  1.00  0.00     0.135 A 
ATOM     63  C   UNL A   1      43.284  26.963  36.138  1.00  0.00     0.135 A 
ATOM     64  F   UNL A   1      45.442  29.352  34.440  1.00  0.00    -0.206 F 
ATOM     65  C   UNL A   1      45.993  27.490  35.746  1.00  0.00     0.059 A 
ATOM     66  C   UNL A   1      44.239  26.143  36.738  1.00  0.00     0.059 A 
ATOM     67  F   UNL A   1      41.990  26.668  36.332  1.00  0.00    -0.206 F 
ATOM     68  C   UNL A   1      45.592  26.402  36.518  1.00  0.00     0.060 A 
BRANCH  68  69
ATOM     69  S   UNL A   1      46.865  25.341  37.235  1.00  0.00     0.124 S 
ATOM     70  O   UNL A   1      46.568  24.062  36.598  1.00  0.00    -0.237 OA
ATOM     71  O   UNL A   1      48.096  25.993  36.801  1.00  0.00    -0.237 OA
ATOM     72  O   UNL A   1      46.596  25.407  38.668  1.00  0.00    -0.744 OA
ENDBRANCH  68  69
ENDBRANCH  47  61
BRANCH  48  73
ATOM     73  C   UNL A   1      36.367  33.238  30.696  1.00  0.00     0.058 A 
ATOM     74  C   UNL A   1      35.050  33.147  31.172  1.00  0.00     0.135 A 
ATOM     75  C   UNL A   1      36.608  34.088  29.605  1.00  0.00     0.135 A 
ATOM     76  F   UNL A   1      34.771  32.359  32.223  1.00  0.00    -0.206 F 
ATOM     77  C   UNL A   1      34.005  33.844  30.576  1.00  0.00     0.059 A 
ATOM     78  C   UNL A   1      35.582  34.814  29.005  1.00  0.00     0.059 A 
ATOM     79  F   UNL A   1      37.855  34.241  29.134  1.00  0.00    -0.206 F 
ATOM     80  C   UNL A   1      34.282  34.677  29.491  1.00  0.00     0.060 A 
BRANCH  80  81
ATOM     81  S   UNL A   1      32.920  35.605  28.751  1.00  0.00     0.124 S 
ATOM     82  O   UNL A   1      33.637  36.636  28.010  1.00  0.00    -0.237 OA
ATOM     83  O   UNL A   1      32.256  34.585  27.946  1.00  0.00    -0.237 OA
ATOM     84  O   UNL A   1      32.163  36.070  29.909  1.00  0.00    -0.744 OA
ENDBRANCH  80  81
ENDBRANCH  48  73
BRANCH  60  85
ATOM     85  C   UNL A   1      39.868  34.068  36.681  1.00  0.00     0.058 A 
ATOM     86  C   UNL A   1      39.031  33.954  37.800  1.00  0.00     0.135 A 
ATOM     87  C   UNL A   1      40.721  35.180  36.599  1.00  0.00     0.135 A 
ATOM     88  F   UNL A   1      38.198  32.908  37.918  1.00  0.00    -0.206 F 
ATOM     89  C   UNL A   1      39.024  34.922  38.796  1.00  0.00     0.059 A 
ATOM     90  C   UNL A   1      40.750  36.145  37.597  1.00  0.00     0.059 A 
ATOM     91  F   UNL A   1      41.549  35.323  35.552  1.00  0.00    -0.206 F 
ATOM     92  C   UNL A   1      39.889  36.013  38.685  1.00  0.00     0.060 A 
BRANCH  92  93
ATOM     93  S   UNL A   1      39.896  37.243  40.004  1.00  0.00     0.124 S 
ATOM     94  O   UNL A   1      38.784  38.100  39.611  1.00  0.00    -0.237 OA
ATOM     95  O   UNL A   1      39.677  36.426  41.194  1.00  0.00    -0.237 OA
ATOM     96  O   UNL A   1      41.222  37.844  39.900  1.00  0.00    -0.744 OA
ENDBRANCH  92  93
ENDBRANCH  60  85
ENDBRANCH  34  35
ENDBRANCH  26  29
ENDBRANCH  24  25
ENDBRANCH  23  24
ENDBRANCH   1  23
TORSDOF 17
ENDMDL
MODEL 2
REMARK VINA RESULT:     -12.1      6.288     12.236
REMARK SMILES O=C(/C=C\c1ccc(OCc2ccc(Br)cc2)cc1)NCCCNC(=O)c1ccc(-c2c3nc(c(-c4c(F)cc(S(=O)(=O)[O-])cc4F)c4ccc([nH]4)c(-c4c(F)cc(S(=O)(=O)[O-])cc4F)c4nc(c(-c5c(F)cc(S(=O)(=O)[O-])cc5F)c5ccc2[nH]5)C=C4)C=C3)cc1
REMARK SMILES IDX 21 1 20 2 1 3 2 4 3 6 4 7 5 8 6 9 19 10 7 11 18 12 8 13 9 14
REMARK SMILES IDX 10 15 11 16 12 17 17 18 13 19 16 20 14 21 15 22 22 23 23 24
REMARK SMILES IDX 24 25 25 26 26 28 27 29 28 30 92 31 29 32 91 33 30 34 31 35
REMARK SMILES IDX 32 36 85 37 33 38 90 39 84 40 86 41 34 42 89 43 83 44 82 45
REMARK SMILES IDX 35 47 69 48 48 49 68 50 49 51 52 52 67 53 87 54 50 55 51 56
REMARK SMILES IDX 66 58 88 59 53 60 36 61 37 62 46 63 38 64 39 65 45 66 47 67
REMARK SMILES IDX 40 68 41 69 42 70 43 71 44 72 70 73 71 74 80 75 72 76 73 77
REMARK SMILES IDX 79 78 81 79 74 80 75 81 76 82 77 83 78 84 54 85 55 86 64 87
REMARK SMILES IDX 56 88 57 89 63 90 65 91 58 92 59 93 60 94 61 95 62 96
REMARK H PARENT 20 5 24 27 86 46 52 57
REMARK Flexibility Score: inf
ROOT
ATOM      1  C   UNL A   1      34.581  31.328  27.633  1.00  0.00     0.118 C 
ENDROOT
BRANCH   1   2
ATOM      2  N   UNL A   1      33.711  30.183  27.864  1.00  0.00    -0.352 N 
ATOM      3  O   UNL A   1      32.039  30.844  26.443  1.00  0.00    -0.270 OA
ATOM      4  C   UNL A   1      32.500  30.039  27.244  1.00  0.00     0.244 C 
ATOM      5  H   UNL A   1      34.005  29.486  28.494  1.00  0.00     0.163 HD
BRANCH   4   6
ATOM      6  C   UNL A   1      31.772  28.761  27.485  1.00  0.00     0.072 C 
ATOM      7  C   UNL A   1      31.539  27.710  26.681  1.00  0.00     0.014 C 
BRANCH   7   8
ATOM      8  C   UNL A   1      31.982  27.542  25.304  1.00  0.00    -0.025 A 
ATOM      9  C   UNL A   1      33.300  27.148  25.055  1.00  0.00     0.012 A 
ATOM     10  C   UNL A   1      31.108  27.760  24.236  1.00  0.00     0.012 A 
ATOM     11  C   UNL A   1      33.700  26.855  23.757  1.00  0.00     0.047 A 
ATOM     12  C   UNL A   1      31.515  27.478  22.935  1.00  0.00     0.047 A 
ATOM     13  C   UNL A   1      32.786  26.950  22.712  1.00  0.00     0.119 A 
BRANCH  13  14
ATOM     14  O   UNL A   1      33.240  26.453  21.531  1.00  0.00    -0.489 OA
BRANCH  14  15
ATOM     15  C   UNL A   1      32.927  25.091  21.274  1.00  0.00     0.265 C 
BRANCH  15  16
ATOM     16  C   UNL A   1      33.077  24.146  22.455  1.00  0.00    -0.011 A 
ATOM     17  C   UNL A   1      31.632  23.817  23.516  1.00  0.00     0.008 A 
ATOM     18  C   UNL A   1      34.750  23.556  22.963  1.00  0.00     0.008 A 
ATOM     19  C   UNL A   1      31.823  22.906  25.096  1.00  0.00     0.016 A 
ATOM     20  C   UNL A   1      34.946  22.667  24.571  1.00  0.00     0.016 A 
ATOM     21  C   UNL A   1      33.481  22.358  25.607  1.00  0.00     0.017 A 
ATOM     22  Br  UNL A   1      33.670  21.431  27.239  1.00  0.00    -0.051 Br
ENDBRANCH  15  16
ENDBRANCH  14  15
ENDBRANCH  13  14
ENDBRANCH   7   8
ENDBRANCH   4   6
ENDBRANCH   1   2
BRANCH   1  23
ATOM     23  C   UNL A   1      34.035  32.632  28.199  1.00  0.00     0.042 C 
BRANCH  23  24
ATOM     24  C   UNL A   1      34.752  33.109  29.458  1.00  0.00     0.118 C 
BRANCH  24  25
ATOM     25  N   UNL A   1      35.020  31.915  30.596  1.00  0.00    -0.352 N 
ATOM     26  C   UNL A   1      36.256  30.469  31.097  1.00  0.00     0.251 C 
ATOM     27  H   UNL A   1      34.292  31.947  31.258  1.00  0.00     0.163 HD
ATOM     28  O   UNL A   1      36.245  29.707  32.119  1.00  0.00    -0.269 OA
BRANCH  26  29
ATOM     29  C   UNL A   1      37.586  29.784  30.395  1.00  0.00     0.039 A 
ATOM     30  C   UNL A   1      37.822  29.917  29.017  1.00  0.00     0.014 A 
ATOM     31  C   UNL A   1      38.506  29.009  31.108  1.00  0.00     0.014 A 
ATOM     32  C   UNL A   1      39.037  29.467  28.463  1.00  0.00     0.010 A 
ATOM     33  C   UNL A   1      39.786  28.840  30.646  1.00  0.00     0.010 A 
ATOM     34  C   UNL A   1      40.063  28.999  29.300  1.00  0.00    -0.014 A 
BRANCH  34  35
ATOM     35  C   UNL A   1      41.444  28.650  28.890  1.00  0.00     0.031 A 
ATOM     36  C   UNL A   1      42.485  29.751  28.753  1.00  0.00     0.074 A 
ATOM     37  C   UNL A   1      41.681  27.418  28.401  1.00  0.00     0.049 A 
ATOM     38  N   UNL A   1      43.667  29.708  28.196  1.00  0.00    -0.248 NA
ATOM     39  C   UNL A   1      42.098  31.108  29.194  1.00  0.00     0.031 C 
ATOM     40  C   UNL A   1      40.693  26.338  28.292  1.00  0.00     0.029 A 
ATOM     41  N   UNL A   1      42.820  26.872  27.877  1.00  0.00    -0.354 N 
ATOM     42  C   UNL A   1      44.121  31.025  28.176  1.00  0.00     0.074 A 
ATOM     43  C   UNL A   1      43.038  31.855  28.639  1.00  0.00     0.031 C 
ATOM     44  C   UNL A   1      41.287  25.244  27.789  1.00  0.00     0.029 A 
ATOM     45  C   UNL A   1      42.687  25.551  27.523  1.00  0.00     0.049 A 
ATOM     46  H   UNL A   1      43.657  27.378  27.763  1.00  0.00     0.167 HD
ATOM     47  C   UNL A   1      45.356  31.495  27.878  1.00  0.00     0.037 A 
ATOM     48  C   UNL A   1      43.608  24.683  27.069  1.00  0.00     0.037 A 
ATOM     49  C   UNL A   1      46.446  30.623  27.536  1.00  0.00     0.049 A 
ATOM     50  C   UNL A   1      45.021  25.175  26.919  1.00  0.00     0.074 A 
ATOM     51  C   UNL A   1      47.782  30.929  27.359  1.00  0.00     0.029 A 
ATOM     52  N   UNL A   1      46.315  29.253  27.356  1.00  0.00    -0.354 N 
ATOM     53  N   UNL A   1      45.482  26.400  27.041  1.00  0.00    -0.248 NA
ATOM     54  C   UNL A   1      46.045  24.172  26.610  1.00  0.00     0.031 C 
ATOM     55  C   UNL A   1      48.457  29.742  27.054  1.00  0.00     0.029 A 
ATOM     56  C   UNL A   1      47.547  28.693  27.078  1.00  0.00     0.049 A 
ATOM     57  H   UNL A   1      45.469  28.753  27.417  1.00  0.00     0.167 HD
ATOM     58  C   UNL A   1      46.856  26.309  26.859  1.00  0.00     0.074 A 
ATOM     59  C   UNL A   1      47.149  24.906  26.631  1.00  0.00     0.031 C 
ATOM     60  C   UNL A   1      47.793  27.289  26.878  1.00  0.00     0.037 A 
BRANCH  47  61
ATOM     61  C   UNL A   1      45.603  32.980  27.998  1.00  0.00     0.058 A 
ATOM     62  C   UNL A   1      45.410  33.851  26.909  1.00  0.00     0.135 A 
ATOM     63  C   UNL A   1      46.027  33.551  29.211  1.00  0.00     0.135 A 
ATOM     64  F   UNL A   1      45.011  33.369  25.721  1.00  0.00    -0.206 F 
ATOM     65  C   UNL A   1      45.681  35.212  26.999  1.00  0.00     0.059 A 
ATOM     66  C   UNL A   1      46.265  34.920  29.334  1.00  0.00     0.059 A 
ATOM     67  F   UNL A   1      46.223  32.780  30.291  1.00  0.00    -0.206 F 
ATOM     68  C   UNL A   1      46.110  35.739  28.215  1.00  0.00     0.060 A 
BRANCH  68  69
ATOM     69  S   UNL A   1      46.451  37.509  28.311  1.00  0.00     0.124 S 
ATOM     70  O   UNL A   1      47.290  37.578  29.504  1.00  0.00    -0.237 OA
ATOM     71  O   UNL A   1      47.131  37.766  27.045  1.00  0.00    -0.237 OA
ATOM     72  O   UNL A   1      45.126  38.106  28.440  1.00  0.00    -0.744 OA
ENDBRANCH  68  69
ENDBRANCH  47  61
BRANCH  48  73
ATOM     73  C   UNL A   1      43.249  23.254  26.874  1.00  0.00     0.058 A 
ATOM     74  C   UNL A   1      43.145  22.720  25.580  1.00  0.00     0.135 A 
ATOM     75  C   UNL A   1      43.057  22.382  27.956  1.00  0.00     0.135 A 
ATOM     76  F   UNL A   1      43.335  23.510  24.512  1.00  0.00    -0.206 F 
ATOM     77  C   UNL A   1      42.833  21.383  25.362  1.00  0.00     0.059 A 
ATOM     78  C   UNL A   1      42.765  21.033  27.764  1.00  0.00     0.059 A 
ATOM     79  F   UNL A   1      43.182  22.832  29.214  1.00  0.00    -0.206 F 
ATOM     80  C   UNL A   1      42.644  20.545  26.463  1.00  0.00     0.060 A 
BRANCH  80  81
ATOM     81  S   UNL A   1      42.276  18.802  26.164  1.00  0.00     0.124 S 
ATOM     82  O   UNL A   1      43.229  18.479  25.108  1.00  0.00    -0.237 OA
ATOM     83  O   UNL A   1      42.542  18.205  27.468  1.00  0.00    -0.237 OA
ATOM     84  O   UNL A   1      40.872  18.820  25.764  1.00  0.00    -0.744 OA
ENDBRANCH  80  81
ENDBRANCH  48  73
BRANCH  60  85
ATOM     85  C   UNL A   1      49.220  26.870  26.689  1.00  0.00     0.058 A 
ATOM     86  C   UNL A   1      50.011  26.456  27.770  1.00  0.00     0.135 A 
ATOM     87  C   UNL A   1      49.776  26.821  25.401  1.00  0.00     0.135 A 
ATOM     88  F   UNL A   1      49.521  26.488  29.019  1.00  0.00    -0.206 F 
ATOM     89  C   UNL A   1      51.320  26.029  27.583  1.00  0.00     0.059 A 
ATOM     90  C   UNL A   1      51.073  26.371  25.188  1.00  0.00     0.059 A 
ATOM     91  F   UNL A   1      49.051  27.195  24.335  1.00  0.00    -0.206 F 
ATOM     92  C   UNL A   1      51.840  25.988  26.288  1.00  0.00     0.060 A 
BRANCH  92  93
ATOM     93  S   UNL A   1      53.528  25.396  26.056  1.00  0.00     0.124 S 
ATOM     94  O   UNL A   1      53.297  24.044  25.560  1.00  0.00    -0.237 OA
ATOM     95  O   UNL A   1      54.062  26.345  25.086  1.00  0.00    -0.237 OA
ATOM     96  O   UNL A   1      54.105  25.485  27.395  1.00  0.00    -0.744 OA
ENDBRANCH  92  93
ENDBRANCH  60  85
ENDBRANCH  34  35
ENDBRANCH  26  29
ENDBRANCH  24  25
ENDBRANCH  23  24
ENDBRANCH   1  23
TORSDOF 17
ENDMDL
MODEL 3
REMARK VINA RESULT:     -12.0      6.580     12.342
REMARK SMILES O=C(/C=C\c1ccc(OCc2ccc(Br)cc2)cc1)NCCCNC(=O)c1ccc(-c2c3nc(c(-c4c(F)cc(S(=O)(=O)[O-])cc4F)c4ccc([nH]4)c(-c4c(F)cc(S(=O)(=O)[O-])cc4F)c4nc(c(-c5c(F)cc(S(=O)(=O)[O-])cc5F)c5ccc2[nH]5)C=C4)C=C3)cc1
REMARK SMILES IDX 21 1 20 2 1 3 2 4 3 6 4 7 5 8 6 9 19 10 7 11 18 12 8 13 9 14
REMARK SMILES IDX 10 15 11 16 12 17 17 18 13 19 16 20 14 21 15 22 22 23 23 24
REMARK SMILES IDX 24 25 25 26 26 28 27 29 28 30 92 31 29 32 91 33 30 34 31 35
REMARK SMILES IDX 32 36 85 37 33 38 90 39 84 40 86 41 34 42 89 43 83 44 82 45
REMARK SMILES IDX 35 47 69 48 48 49 68 50 49 51 52 52 67 53 87 54 50 55 51 56
REMARK SMILES IDX 66 58 88 59 53 60 36 61 37 62 46 63 38 64 39 65 45 66 47 67
REMARK SMILES IDX 40 68 41 69 42 70 43 71 44 72 70 73 71 74 80 75 72 76 73 77
REMARK SMILES IDX 79 78 81 79 74 80 75 81 76 82 77 83 78 84 54 85 55 86 64 87
REMARK SMILES IDX 56 88 57 89 63 90 65 91 58 92 59 93 60 94 61 95 62 96
REMARK H PARENT 20 5 24 27 86 46 52 57
REMARK Flexibility Score: inf
ROOT
ATOM      1  C   UNL A   1      32.963  29.442  26.191  1.00  0.00     0.118 C 
ENDROOT
BRANCH   1   2
ATOM      2  N   UNL A   1      31.693  29.244  25.505  1.00  0.00    -0.352 N 
ATOM      3  O   UNL A   1      32.588  28.779  23.446  1.00  0.00    -0.270 OA
ATOM      4  C   UNL A   1      31.614  28.928  24.176  1.00  0.00     0.244 C 
ATOM      5  H   UNL A   1      30.859  29.343  26.017  1.00  0.00     0.163 HD
BRANCH   4   6
ATOM      6  C   UNL A   1      30.255  28.638  23.636  1.00  0.00     0.072 C 
ATOM      7  C   UNL A   1      29.556  27.492  23.565  1.00  0.00     0.014 C 
BRANCH   7   8
ATOM      8  C   UNL A   1      29.970  26.181  24.045  1.00  0.00    -0.025 A 
ATOM      9  C   UNL A   1      30.348  25.204  23.119  1.00  0.00     0.012 A 
ATOM     10  C   UNL A   1      30.003  25.893  25.412  1.00  0.00     0.012 A 
ATOM     11  C   UNL A   1      30.872  23.996  23.564  1.00  0.00     0.047 A 
ATOM     12  C   UNL A   1      30.515  24.677  25.855  1.00  0.00     0.047 A 
ATOM     13  C   UNL A   1      31.022  23.767  24.928  1.00  0.00     0.119 A 
BRANCH  13  14
ATOM     14  O   UNL A   1      31.720  22.639  25.228  1.00  0.00    -0.489 OA
BRANCH  14  15
ATOM     15  C   UNL A   1      32.523  22.115  24.180  1.00  0.00     0.265 C 
BRANCH  15  16
ATOM     16  C   UNL A   1      34.023  22.132  24.427  1.00  0.00    -0.011 A 
ATOM     17  C   UNL A   1      34.888  20.560  24.744  1.00  0.00     0.008 A 
ATOM     18  C   UNL A   1      34.904  23.736  24.666  1.00  0.00     0.008 A 
ATOM     19  C   UNL A   1      36.632  20.552  25.308  1.00  0.00     0.016 A 
ATOM     20  C   UNL A   1      36.652  23.727  25.266  1.00  0.00     0.016 A 
ATOM     21  C   UNL A   1      37.483  22.138  25.576  1.00  0.00     0.017 A 
ATOM     22  Br  UNL A   1      39.275  22.121  26.167  1.00  0.00    -0.051 Br
ENDBRANCH  15  16
ENDBRANCH  14  15
ENDBRANCH  13  14
ENDBRANCH   7   8
ENDBRANCH   4   6
ENDBRANCH   1   2
BRANCH   1  23
ATOM     23  C   UNL A   1      33.004  30.705  27.041  1.00  0.00     0.042 C 
BRANCH  23  24
ATOM     24  C   UNL A   1      34.398  31.065  27.545  1.00  0.00     0.118 C 
BRANCH  24  25
ATOM     25  N   UNL A   1      34.768  30.451  29.054  1.00  0.00    -0.352 N 
ATOM     26  C   UNL A   1      36.267  29.900  30.203  1.00  0.00     0.251 C 
ATOM     27  H   UNL A   1      33.929  30.316  29.550  1.00  0.00     0.163 HD
ATOM     28  O   UNL A   1      36.260  29.501  31.414  1.00  0.00    -0.269 OA
BRANCH  26  29
ATOM     29  C   UNL A   1      37.898  29.741  29.986  1.00  0.00     0.039 A 
ATOM     30  C   UNL A   1      38.701  29.146  30.972  1.00  0.00     0.014 A 
ATOM     31  C   UNL A   1      38.563  30.224  28.856  1.00  0.00     0.014 A 
ATOM     32  C   UNL A   1      40.058  28.872  30.707  1.00  0.00     0.010 A 
ATOM     33  C   UNL A   1      39.778  29.707  28.483  1.00  0.00     0.010 A 
ATOM     34  C   UNL A   1      40.580  29.080  29.420  1.00  0.00    -0.014 A 
BRANCH  34  35
ATOM     35  C   UNL A   1      41.928  28.690  28.944  1.00  0.00     0.031 A 
ATOM     36  C   UNL A   1      42.999  29.756  28.771  1.00  0.00     0.074 A 
ATOM     37  C   UNL A   1      42.100  27.456  28.432  1.00  0.00     0.049 A 
ATOM     38  N   UNL A   1      44.153  29.680  28.160  1.00  0.00    -0.248 NA
ATOM     39  C   UNL A   1      42.680  31.120  29.244  1.00  0.00     0.031 C 
ATOM     40  C   UNL A   1      41.072  26.412  28.356  1.00  0.00     0.029 A 
ATOM     41  N   UNL A   1      43.195  26.879  27.850  1.00  0.00    -0.354 N 
ATOM     42  C   UNL A   1      44.651  30.981  28.134  1.00  0.00     0.074 A 
ATOM     43  C   UNL A   1      43.619  31.842  28.655  1.00  0.00     0.031 C 
ATOM     44  C   UNL A   1      41.604  25.304  27.815  1.00  0.00     0.029 A 
ATOM     45  C   UNL A   1      43.000  25.567  27.488  1.00  0.00     0.049 A 
ATOM     46  H   UNL A   1      44.043  27.357  27.704  1.00  0.00     0.167 HD
ATOM     47  C   UNL A   1      45.886  31.412  27.785  1.00  0.00     0.037 A 
ATOM     48  C   UNL A   1      43.869  24.674  26.983  1.00  0.00     0.037 A 
ATOM     49  C   UNL A   1      46.929  30.508  27.384  1.00  0.00     0.049 A 
ATOM     50  C   UNL A   1      45.290  25.120  26.774  1.00  0.00     0.074 A 
ATOM     51  C   UNL A   1      48.265  30.770  27.148  1.00  0.00     0.029 A 
ATOM     52  N   UNL A   1      46.743  29.145  27.195  1.00  0.00    -0.354 N 
ATOM     53  N   UNL A   1      45.798  26.326  26.888  1.00  0.00    -0.248 NA
ATOM     54  C   UNL A   1      46.263  24.087  26.408  1.00  0.00     0.031 C 
ATOM     55  C   UNL A   1      48.885  29.565  26.800  1.00  0.00     0.029 A 
ATOM     56  C   UNL A   1      47.941  28.548  26.855  1.00  0.00     0.049 A 
ATOM     57  H   UNL A   1      45.884  28.674  27.289  1.00  0.00     0.167 HD
ATOM     58  C   UNL A   1      47.158  26.191  26.642  1.00  0.00     0.074 A 
ATOM     59  C   UNL A   1      47.392  24.783  26.386  1.00  0.00     0.031 C 
ATOM     60  C   UNL A   1      48.129  27.138  26.629  1.00  0.00     0.037 A 
BRANCH  47  61
ATOM     61  C   UNL A   1      46.189  32.886  27.909  1.00  0.00     0.058 A 
ATOM     62  C   UNL A   1      45.963  33.779  26.845  1.00  0.00     0.135 A 
ATOM     63  C   UNL A   1      46.702  33.426  29.102  1.00  0.00     0.135 A 
ATOM     64  F   UNL A   1      45.479  33.329  25.675  1.00  0.00    -0.206 F 
ATOM     65  C   UNL A   1      46.284  35.129  26.936  1.00  0.00     0.059 A 
ATOM     66  C   UNL A   1      46.993  34.784  29.228  1.00  0.00     0.059 A 
ATOM     67  F   UNL A   1      46.935  32.632  30.159  1.00  0.00    -0.206 F 
ATOM     68  C   UNL A   1      46.800  35.624  28.131  1.00  0.00     0.060 A 
BRANCH  68  69
ATOM     69  S   UNL A   1      47.206  37.380  28.230  1.00  0.00     0.124 S 
ATOM     70  O   UNL A   1      46.240  37.955  27.300  1.00  0.00    -0.237 OA
ATOM     71  O   UNL A   1      46.976  37.675  29.642  1.00  0.00    -0.237 OA
ATOM     72  O   UNL A   1      48.600  37.433  27.801  1.00  0.00    -0.744 OA
ENDBRANCH  68  69
ENDBRANCH  47  61
BRANCH  48  73
ATOM     73  C   UNL A   1      43.452  23.261  26.790  1.00  0.00     0.058 A 
ATOM     74  C   UNL A   1      43.405  22.706  25.501  1.00  0.00     0.135 A 
ATOM     75  C   UNL A   1      43.149  22.421  27.872  1.00  0.00     0.135 A 
ATOM     76  F   UNL A   1      43.702  23.465  24.434  1.00  0.00    -0.206 F 
ATOM     77  C   UNL A   1      43.041  21.382  25.286  1.00  0.00     0.059 A 
ATOM     78  C   UNL A   1      42.803  21.084  27.684  1.00  0.00     0.059 A 
ATOM     79  F   UNL A   1      43.217  22.890  29.127  1.00  0.00    -0.206 F 
ATOM     80  C   UNL A   1      42.741  20.577  26.386  1.00  0.00     0.060 A 
BRANCH  80  81
ATOM     81  S   UNL A   1      42.307  18.848  26.093  1.00  0.00     0.124 S 
ATOM     82  O   UNL A   1      42.597  18.249  27.391  1.00  0.00    -0.237 OA
ATOM     83  O   UNL A   1      40.895  18.944  25.736  1.00  0.00    -0.237 OA
ATOM     84  O   UNL A   1      43.197  18.458  25.004  1.00  0.00    -0.744 OA
ENDBRANCH  80  81
ENDBRANCH  48  73
BRANCH  60  85
ATOM     85  C   UNL A   1      49.531  26.673  26.369  1.00  0.00     0.058 A 
ATOM     86  C   UNL A   1      50.291  26.050  27.368  1.00  0.00     0.135 A 
ATOM     87  C   UNL A   1      50.089  26.797  25.088  1.00  0.00     0.135 A 
ATOM     88  F   UNL A   1      49.797  25.912  28.609  1.00  0.00    -0.206 F 
ATOM     89  C   UNL A   1      51.574  25.583  27.111  1.00  0.00     0.059 A 
ATOM     90  C   UNL A   1      51.359  26.313  24.802  1.00  0.00     0.059 A 
ATOM     91  F   UNL A   1      49.391  27.375  24.098  1.00  0.00    -0.206 F 
ATOM     92  C   UNL A   1      52.098  25.718  25.823  1.00  0.00     0.060 A 
BRANCH  92  93
ATOM     93  S   UNL A   1      53.750  25.074  25.495  1.00  0.00     0.124 S 
ATOM     94  O   UNL A   1      54.049  25.683  24.204  1.00  0.00    -0.237 OA
ATOM     95  O   UNL A   1      54.515  25.581  26.629  1.00  0.00    -0.237 OA
ATOM     96  O   UNL A   1      53.552  23.627  25.477  1.00  0.00    -0.744 OA
ENDBRANCH  92  93
ENDBRANCH  60  85
ENDBRANCH  34  35
ENDBRANCH  26  29
ENDBRANCH  24  25
ENDBRANCH  23  24
ENDBRANCH   1  23
TORSDOF 17
ENDMDL
