MODEL 1
REMARK VINA RESULT:     -11.9      0.000      0.000
REMARK SMILES O=C(NCCCNC(=O)[C@H]1CC[C@H]2CCCC[C@@H]2[N@H+]1C[C@@H]1CCCCO1)c1ccc(-c2c3nc(c(-c4c(F)cc(S(=O)(=O)[O-])cc4F)c4ccc([nH]4)c(-c4c(F)cc(S(=O)(=O)[O-])cc4F)c4nc(c(-c5c(F)cc(S(=O)(=O)[O-])cc5F)c5ccc2[nH]5)C=C4)C=C3)cc1
REMARK SMILES IDX 4 1 3 2 1 3 2 4 27 6 28 7 92 8 29 9 91 10 30 11 31 12 32 13
REMARK SMILES IDX 85 14 33 15 90 16 84 17 86 18 34 19 89 20 83 21 82 22 35 24
REMARK SMILES IDX 69 25 48 26 68 27 49 28 52 29 67 30 87 31 50 32 51 33 66 35
REMARK SMILES IDX 88 36 53 37 36 38 37 39 46 40 38 41 39 42 45 43 47 44 40 45
REMARK SMILES IDX 41 46 42 47 43 48 44 49 70 50 71 51 80 52 72 53 73 54 79 55
REMARK SMILES IDX 81 56 74 57 75 58 76 59 77 60 78 61 54 62 55 63 64 64 56 65
REMARK SMILES IDX 57 66 63 67 65 68 58 69 59 70 60 71 61 72 62 73 5 74 6 75
REMARK SMILES IDX 7 76 8 77 9 79 10 80 11 81 19 82 12 83 18 84 13 86 17 87
REMARK SMILES IDX 14 88 16 89 15 90 20 91 21 92 22 93 26 94 23 95 25 96 24 97
REMARK H PARENT 3 5 86 23 52 34 7 78 19 85
REMARK Flexibility Score: inf
ROOT
ATOM      1  C   UNL A   1      33.981  28.487  26.871  1.00  0.00     0.118 C 
ENDROOT
BRANCH   1   2
ATOM      2  N   UNL A   1      33.745  29.836  27.376  1.00  0.00    -0.352 N 
ATOM      3  O   UNL A   1      34.068  31.631  28.704  1.00  0.00    -0.269 OA
ATOM      4  C   UNL A   1      34.535  30.620  28.183  1.00  0.00     0.251 C 
ATOM      5  H   UNL A   1      32.893  30.245  27.099  1.00  0.00     0.163 HD
BRANCH   4   6
ATOM      6  C   UNL A   1      35.935  30.224  28.431  1.00  0.00     0.039 A 
ATOM      7  C   UNL A   1      36.904  30.470  27.459  1.00  0.00     0.014 A 
ATOM      8  C   UNL A   1      36.287  29.598  29.629  1.00  0.00     0.014 A 
ATOM      9  C   UNL A   1      38.165  29.916  27.586  1.00  0.00     0.010 A 
ATOM     10  C   UNL A   1      37.604  29.176  29.823  1.00  0.00     0.010 A 
ATOM     11  C   UNL A   1      38.548  29.315  28.792  1.00  0.00    -0.014 A 
BRANCH  11  12
ATOM     12  C   UNL A   1      39.978  28.981  28.988  1.00  0.00     0.031 A 
ATOM     13  C   UNL A   1      40.541  27.657  28.567  1.00  0.00     0.074 A 
ATOM     14  C   UNL A   1      40.763  29.919  29.559  1.00  0.00     0.049 A 
ATOM     15  N   UNL A   1      41.758  27.204  28.715  1.00  0.00    -0.248 NA
ATOM     16  C   UNL A   1      39.627  26.713  27.903  1.00  0.00     0.031 C 
ATOM     17  C   UNL A   1      40.305  31.238  30.014  1.00  0.00     0.029 A 
ATOM     18  N   UNL A   1      42.101  29.922  29.850  1.00  0.00    -0.354 N 
ATOM     19  C   UNL A   1      41.753  25.914  28.199  1.00  0.00     0.074 A 
ATOM     20  C   UNL A   1      40.407  25.652  27.735  1.00  0.00     0.031 C 
ATOM     21  C   UNL A   1      41.347  31.932  30.487  1.00  0.00     0.029 A 
ATOM     22  C   UNL A   1      42.524  31.077  30.463  1.00  0.00     0.049 A 
ATOM     23  H   UNL A   1      42.702  29.170  29.640  1.00  0.00     0.167 HD
ATOM     24  C   UNL A   1      42.783  25.038  28.129  1.00  0.00     0.037 A 
ATOM     25  C   UNL A   1      43.714  31.401  30.999  1.00  0.00     0.037 A 
ATOM     26  C   UNL A   1      44.120  25.336  28.577  1.00  0.00     0.049 A 
ATOM     27  C   UNL A   1      44.823  30.394  30.936  1.00  0.00     0.074 A 
ATOM     28  C   UNL A   1      45.252  24.543  28.486  1.00  0.00     0.029 A 
ATOM     29  N   UNL A   1      44.505  26.508  29.215  1.00  0.00    -0.354 N 
ATOM     30  N   UNL A   1      44.815  29.201  30.390  1.00  0.00    -0.248 NA
ATOM     31  C   UNL A   1      46.093  30.765  31.567  1.00  0.00     0.031 C 
ATOM     32  C   UNL A   1      46.302  25.207  29.125  1.00  0.00     0.029 A 
ATOM     33  C   UNL A   1      45.844  26.440  29.562  1.00  0.00     0.049 A 
ATOM     34  H   UNL A   1      43.913  27.274  29.393  1.00  0.00     0.167 HD
ATOM     35  C   UNL A   1      46.084  28.681  30.605  1.00  0.00     0.074 A 
ATOM     36  C   UNL A   1      46.839  29.700  31.306  1.00  0.00     0.031 C 
ATOM     37  C   UNL A   1      46.577  27.468  30.259  1.00  0.00     0.037 A 
BRANCH  24  38
ATOM     38  C   UNL A   1      42.518  23.662  27.581  1.00  0.00     0.058 A 
ATOM     39  C   UNL A   1      42.555  23.387  26.206  1.00  0.00     0.135 A 
ATOM     40  C   UNL A   1      42.310  22.583  28.458  1.00  0.00     0.135 A 
ATOM     41  F   UNL A   1      42.734  24.380  25.320  1.00  0.00    -0.206 F 
ATOM     42  C   UNL A   1      42.390  22.092  25.719  1.00  0.00     0.059 A 
ATOM     43  C   UNL A   1      42.168  21.278  27.995  1.00  0.00     0.059 A 
ATOM     44  F   UNL A   1      42.263  22.791  29.783  1.00  0.00    -0.206 F 
ATOM     45  C   UNL A   1      42.203  21.044  26.623  1.00  0.00     0.060 A 
BRANCH  45  46
ATOM     46  S   UNL A   1      42.024  19.368  25.975  1.00  0.00     0.124 S 
ATOM     47  O   UNL A   1      42.909  19.408  24.814  1.00  0.00    -0.237 OA
ATOM     48  O   UNL A   1      42.485  18.551  27.093  1.00  0.00    -0.237 OA
ATOM     49  O   UNL A   1      40.600  19.267  25.674  1.00  0.00    -0.744 OA
ENDBRANCH  45  46
ENDBRANCH  24  38
BRANCH  25  50
ATOM     50  C   UNL A   1      43.885  32.706  31.689  1.00  0.00     0.058 A 
ATOM     51  C   UNL A   1      44.335  33.840  31.001  1.00  0.00     0.135 A 
ATOM     52  C   UNL A   1      43.584  32.846  33.055  1.00  0.00     0.135 A 
ATOM     53  F   UNL A   1      44.634  33.757  29.696  1.00  0.00    -0.206 F 
ATOM     54  C   UNL A   1      44.507  35.060  31.646  1.00  0.00     0.059 A 
ATOM     55  C   UNL A   1      43.715  34.063  33.713  1.00  0.00     0.059 A 
ATOM     56  F   UNL A   1      43.126  31.796  33.756  1.00  0.00    -0.206 F 
ATOM     57  C   UNL A   1      44.194  35.161  33.003  1.00  0.00     0.060 A 
BRANCH  57  58
ATOM     58  S   UNL A   1      44.404  36.752  33.826  1.00  0.00     0.124 S 
ATOM     59  O   UNL A   1      45.358  37.413  32.943  1.00  0.00    -0.237 OA
ATOM     60  O   UNL A   1      43.046  37.286  33.814  1.00  0.00    -0.237 OA
ATOM     61  O   UNL A   1      44.914  36.385  35.144  1.00  0.00    -0.744 OA
ENDBRANCH  57  58
ENDBRANCH  25  50
BRANCH  37  62
ATOM     62  C   UNL A   1      48.006  27.180  30.621  1.00  0.00     0.058 A 
ATOM     63  C   UNL A   1      48.343  26.541  31.823  1.00  0.00     0.135 A 
ATOM     64  C   UNL A   1      49.042  27.493  29.727  1.00  0.00     0.135 A 
ATOM     65  F   UNL A   1      47.389  26.236  32.718  1.00  0.00    -0.206 F 
ATOM     66  C   UNL A   1      49.661  26.227  32.132  1.00  0.00     0.059 A 
ATOM     67  C   UNL A   1      50.365  27.161  30.001  1.00  0.00     0.059 A 
ATOM     68  F   UNL A   1      48.770  28.103  28.563  1.00  0.00    -0.206 F 
ATOM     69  C   UNL A   1      50.664  26.533  31.210  1.00  0.00     0.060 A 
BRANCH  69  70
ATOM     70  S   UNL A   1      52.362  26.063  31.596  1.00  0.00     0.124 S 
ATOM     71  O   UNL A   1      52.703  27.020  32.643  1.00  0.00    -0.237 OA
ATOM     72  O   UNL A   1      52.209  24.676  32.029  1.00  0.00    -0.237 OA
ATOM     73  O   UNL A   1      53.063  26.243  30.327  1.00  0.00    -0.744 OA
ENDBRANCH  69  70
ENDBRANCH  37  62
ENDBRANCH  11  12
ENDBRANCH   4   6
ENDBRANCH   1   2
BRANCH   1  74
ATOM     74  C   UNL A   1      32.690  27.779  26.521  1.00  0.00     0.042 C 
BRANCH  74  75
ATOM     75  C   UNL A   1      32.912  26.329  26.154  1.00  0.00     0.118 C 
BRANCH  75  76
ATOM     76  N   UNL A   1      31.947  25.448  26.779  1.00  0.00    -0.351 N 
ATOM     77  C   UNL A   1      31.889  24.091  26.897  1.00  0.00     0.278 C 
ATOM     78  H   UNL A   1      31.190  25.917  27.197  1.00  0.00     0.163 HD
ATOM     79  O   UNL A   1      30.801  23.667  27.299  1.00  0.00    -0.268 OA
BRANCH  77  80
ATOM     80  C   UNL A   1      33.079  23.182  26.463  1.00  0.00     0.274 C 
ATOM     81  C   UNL A   1      33.130  21.796  27.129  1.00  0.00     0.076 C 
ATOM     82  N   UNL A   1      33.257  23.080  24.998  1.00  0.00    -0.320 N 
ATOM     83  C   UNL A   1      33.984  20.766  26.402  1.00  0.00     0.016 C 
ATOM     84  C   UNL A   1      34.489  22.405  24.578  1.00  0.00     0.187 C 
ATOM     85  H   UNL A   1      33.372  24.078  24.824  1.00  0.00     0.349 HD
ATOM     86  C   UNL A   1      35.089  21.490  25.667  1.00  0.00     0.048 C 
ATOM     87  C   UNL A   1      35.613  23.379  24.178  1.00  0.00     0.065 C 
ATOM     88  C   UNL A   1      36.113  20.568  25.018  1.00  0.00     0.010 C 
ATOM     89  C   UNL A   1      36.812  22.595  23.612  1.00  0.00     0.006 C 
ATOM     90  C   UNL A   1      37.268  21.412  24.479  1.00  0.00     0.001 C 
BRANCH  82  91
ATOM     91  C   UNL A   1      32.107  22.896  24.090  1.00  0.00     0.295 C 
BRANCH  91  92
ATOM     92  C   UNL A   1      31.542  23.853  22.975  1.00  0.00     0.173 C 
ATOM     93  C   UNL A   1      32.446  24.852  22.248  1.00  0.00     0.038 C 
ATOM     94  O   UNL A   1      30.212  24.329  23.191  1.00  0.00    -0.372 OA
ATOM     95  C   UNL A   1      32.214  26.335  22.519  1.00  0.00     0.005 C 
ATOM     96  C   UNL A   1      30.086  25.610  23.770  1.00  0.00     0.161 C 
ATOM     97  C   UNL A   1      30.821  26.702  23.009  1.00  0.00     0.029 C 
ENDBRANCH  91  92
ENDBRANCH  82  91
ENDBRANCH  77  80
ENDBRANCH  75  76
ENDBRANCH  74  75
ENDBRANCH   1  74
TORSDOF 15
ENDMDL
MODEL 2
REMARK VINA RESULT:     -11.7      4.901      9.818
REMARK SMILES O=C(NCCCNC(=O)[C@H]1CC[C@H]2CCCC[C@@H]2[N@H+]1C[C@@H]1CCCCO1)c1ccc(-c2c3nc(c(-c4c(F)cc(S(=O)(=O)[O-])cc4F)c4ccc([nH]4)c(-c4c(F)cc(S(=O)(=O)[O-])cc4F)c4nc(c(-c5c(F)cc(S(=O)(=O)[O-])cc5F)c5ccc2[nH]5)C=C4)C=C3)cc1
REMARK SMILES IDX 4 1 3 2 1 3 2 4 27 6 28 7 92 8 29 9 91 10 30 11 31 12 32 13
REMARK SMILES IDX 85 14 33 15 90 16 84 17 86 18 34 19 89 20 83 21 82 22 35 24
REMARK SMILES IDX 69 25 48 26 68 27 49 28 52 29 67 30 87 31 50 32 51 33 66 35
REMARK SMILES IDX 88 36 53 37 36 38 37 39 46 40 38 41 39 42 45 43 47 44 40 45
REMARK SMILES IDX 41 46 42 47 43 48 44 49 70 50 71 51 80 52 72 53 73 54 79 55
REMARK SMILES IDX 81 56 74 57 75 58 76 59 77 60 78 61 54 62 55 63 64 64 56 65
REMARK SMILES IDX 57 66 63 67 65 68 58 69 59 70 60 71 61 72 62 73 5 74 6 75
REMARK SMILES IDX 7 76 8 77 9 79 10 80 11 81 19 82 12 83 18 84 13 86 17 87
REMARK SMILES IDX 14 88 16 89 15 90 20 91 21 92 22 93 26 94 23 95 25 96 24 97
REMARK H PARENT 3 5 86 23 52 34 7 78 19 85
REMARK Flexibility Score: inf
ROOT
ATOM      1  C   UNL A   1      38.184  24.409  26.541  1.00  0.00     0.118 C 
ENDROOT
BRANCH   1   2
ATOM      2  N   UNL A   1      39.537  24.404  25.994  1.00  0.00    -0.352 N 
ATOM      3  O   UNL A   1      41.583  25.236  25.536  1.00  0.00    -0.269 OA
ATOM      4  C   UNL A   1      40.595  25.237  26.268  1.00  0.00     0.251 C 
ATOM      5  H   UNL A   1      39.718  23.701  25.329  1.00  0.00     0.163 HD
BRANCH   4   6
ATOM      6  C   UNL A   1      40.523  26.141  27.433  1.00  0.00     0.039 A 
ATOM      7  C   UNL A   1      41.305  27.295  27.459  1.00  0.00     0.014 A 
ATOM      8  C   UNL A   1      39.682  25.839  28.506  1.00  0.00     0.014 A 
ATOM      9  C   UNL A   1      41.409  28.032  28.625  1.00  0.00     0.010 A 
ATOM     10  C   UNL A   1      39.670  26.675  29.626  1.00  0.00     0.010 A 
ATOM     11  C   UNL A   1      40.550  27.767  29.700  1.00  0.00    -0.014 A 
BRANCH  11  12
ATOM     12  C   UNL A   1      40.500  28.739  30.816  1.00  0.00     0.031 A 
ATOM     13  C   UNL A   1      41.393  28.609  32.014  1.00  0.00     0.074 A 
ATOM     14  C   UNL A   1      39.620  29.757  30.715  1.00  0.00     0.049 A 
ATOM     15  N   UNL A   1      41.431  29.353  33.087  1.00  0.00    -0.248 NA
ATOM     16  C   UNL A   1      42.361  27.500  32.019  1.00  0.00     0.031 C 
ATOM     17  C   UNL A   1      38.697  29.965  29.591  1.00  0.00     0.029 A 
ATOM     18  N   UNL A   1      39.353  30.808  31.552  1.00  0.00    -0.354 N 
ATOM     19  C   UNL A   1      42.397  28.789  33.911  1.00  0.00     0.074 A 
ATOM     20  C   UNL A   1      42.921  27.633  33.215  1.00  0.00     0.031 C 
ATOM     21  C   UNL A   1      38.001  31.090  29.789  1.00  0.00     0.029 A 
ATOM     22  C   UNL A   1      38.350  31.630  31.094  1.00  0.00     0.049 A 
ATOM     23  H   UNL A   1      39.834  30.961  32.397  1.00  0.00     0.167 HD
ATOM     24  C   UNL A   1      42.796  29.205  35.136  1.00  0.00     0.037 A 
ATOM     25  C   UNL A   1      37.736  32.673  31.679  1.00  0.00     0.037 A 
ATOM     26  C   UNL A   1      42.273  30.375  35.796  1.00  0.00     0.049 A 
ATOM     27  C   UNL A   1      38.179  33.084  33.051  1.00  0.00     0.074 A 
ATOM     28  C   UNL A   1      42.662  30.922  37.006  1.00  0.00     0.029 A 
ATOM     29  N   UNL A   1      41.241  31.168  35.312  1.00  0.00    -0.354 N 
ATOM     30  N   UNL A   1      39.135  32.574  33.790  1.00  0.00    -0.248 NA
ATOM     31  C   UNL A   1      37.458  34.199  33.674  1.00  0.00     0.031 C 
ATOM     32  C   UNL A   1      41.823  32.004  37.286  1.00  0.00     0.029 A 
ATOM     33  C   UNL A   1      40.950  32.172  36.221  1.00  0.00     0.049 A 
ATOM     34  H   UNL A   1      40.784  31.036  34.450  1.00  0.00     0.167 HD
ATOM     35  C   UNL A   1      39.137  33.313  34.965  1.00  0.00     0.074 A 
ATOM     36  C   UNL A   1      38.105  34.321  34.826  1.00  0.00     0.031 C 
ATOM     37  C   UNL A   1      39.918  33.166  36.062  1.00  0.00     0.037 A 
BRANCH  24  38
ATOM     38  C   UNL A   1      43.824  28.387  35.871  1.00  0.00     0.058 A 
ATOM     39  C   UNL A   1      45.198  28.645  35.765  1.00  0.00     0.135 A 
ATOM     40  C   UNL A   1      43.414  27.383  36.766  1.00  0.00     0.135 A 
ATOM     41  F   UNL A   1      45.648  29.581  34.914  1.00  0.00    -0.206 F 
ATOM     42  C   UNL A   1      46.132  27.933  36.515  1.00  0.00     0.059 A 
ATOM     43  C   UNL A   1      44.327  26.677  37.544  1.00  0.00     0.059 A 
ATOM     44  F   UNL A   1      42.111  27.093  36.905  1.00  0.00    -0.206 F 
ATOM     45  C   UNL A   1      45.685  26.955  37.407  1.00  0.00     0.060 A 
BRANCH  45  46
ATOM     46  S   UNL A   1      46.907  26.066  38.395  1.00  0.00     0.124 S 
ATOM     47  O   UNL A   1      48.086  26.913  38.232  1.00  0.00    -0.237 OA
ATOM     48  O   UNL A   1      46.301  26.076  39.723  1.00  0.00    -0.237 OA
ATOM     49  O   UNL A   1      46.982  24.758  37.753  1.00  0.00    -0.744 OA
ENDBRANCH  45  46
ENDBRANCH  24  38
BRANCH  25  50
ATOM     50  C   UNL A   1      36.603  33.347  30.991  1.00  0.00     0.058 A 
ATOM     51  C   UNL A   1      36.818  34.200  29.902  1.00  0.00     0.135 A 
ATOM     52  C   UNL A   1      35.278  33.134  31.406  1.00  0.00     0.135 A 
ATOM     53  F   UNL A   1      38.066  34.432  29.468  1.00  0.00    -0.206 F 
ATOM     54  C   UNL A   1      35.762  34.840  29.262  1.00  0.00     0.059 A 
ATOM     55  C   UNL A   1      34.203  33.736  30.761  1.00  0.00     0.059 A 
ATOM     56  F   UNL A   1      35.014  32.307  32.430  1.00  0.00    -0.206 F 
ATOM     57  C   UNL A   1      34.458  34.602  29.700  1.00  0.00     0.060 A 
BRANCH  57  58
ATOM     58  S   UNL A   1      33.094  35.425  28.853  1.00  0.00     0.124 S 
ATOM     59  O   UNL A   1      32.508  34.320  28.104  1.00  0.00    -0.237 OA
ATOM     60  O   UNL A   1      32.302  35.934  29.967  1.00  0.00    -0.237 OA
ATOM     61  O   UNL A   1      33.764  36.446  28.052  1.00  0.00    -0.744 OA
ENDBRANCH  57  58
ENDBRANCH  25  50
BRANCH  37  62
ATOM     62  C   UNL A   1      39.697  34.128  37.194  1.00  0.00     0.058 A 
ATOM     63  C   UNL A   1      38.924  33.779  38.312  1.00  0.00     0.135 A 
ATOM     64  C   UNL A   1      40.315  35.388  37.188  1.00  0.00     0.135 A 
ATOM     65  F   UNL A   1      38.299  32.590  38.357  1.00  0.00    -0.206 F 
ATOM     66  C   UNL A   1      38.765  34.649  39.383  1.00  0.00     0.059 A 
ATOM     67  C   UNL A   1      40.195  36.263  38.262  1.00  0.00     0.059 A 
ATOM     68  F   UNL A   1      41.067  35.768  36.142  1.00  0.00    -0.206 F 
ATOM     69  C   UNL A   1      39.412  35.886  39.353  1.00  0.00     0.060 A 
BRANCH  69  70
ATOM     70  S   UNL A   1      39.248  36.980  40.778  1.00  0.00     0.124 S 
ATOM     71  O   UNL A   1      40.642  37.311  41.057  1.00  0.00    -0.237 OA
ATOM     72  O   UNL A   1      38.432  38.066  40.243  1.00  0.00    -0.237 OA
ATOM     73  O   UNL A   1      38.590  36.141  41.777  1.00  0.00    -0.744 OA
ENDBRANCH  69  70
ENDBRANCH  37  62
ENDBRANCH  11  12
ENDBRANCH   4   6
ENDBRANCH   1   2
BRANCH   1  74
ATOM     74  C   UNL A   1      37.270  23.458  25.800  1.00  0.00     0.042 C 
BRANCH  74  75
ATOM     75  C   UNL A   1      35.947  24.097  25.439  1.00  0.00     0.118 C 
BRANCH  75  76
ATOM     76  N   UNL A   1      35.470  23.680  24.137  1.00  0.00    -0.351 N 
ATOM     77  C   UNL A   1      34.483  24.158  23.327  1.00  0.00     0.278 C 
ATOM     78  H   UNL A   1      35.948  22.904  23.766  1.00  0.00     0.163 HD
ATOM     79  O   UNL A   1      34.200  23.414  22.383  1.00  0.00    -0.268 OA
BRANCH  77  80
ATOM     80  C   UNL A   1      33.736  25.488  23.650  1.00  0.00     0.274 C 
ATOM     81  C   UNL A   1      33.172  26.242  22.433  1.00  0.00     0.076 C 
ATOM     82  N   UNL A   1      32.723  25.366  24.722  1.00  0.00    -0.320 N 
ATOM     83  C   UNL A   1      32.084  27.258  22.757  1.00  0.00     0.016 C 
ATOM     84  C   UNL A   1      32.164  26.640  25.181  1.00  0.00     0.187 C 
ATOM     85  H   UNL A   1      33.358  25.024  25.444  1.00  0.00     0.349 HD
ATOM     86  C   UNL A   1      32.317  27.783  24.155  1.00  0.00     0.048 C 
ATOM     87  C   UNL A   1      32.802  27.154  26.485  1.00  0.00     0.065 C 
ATOM     88  C   UNL A   1      31.389  28.923  24.554  1.00  0.00     0.010 C 
ATOM     89  C   UNL A   1      32.060  28.411  26.975  1.00  0.00     0.006 C 
ATOM     90  C   UNL A   1      31.847  29.487  25.899  1.00  0.00     0.001 C 
BRANCH  82  91
ATOM     91  C   UNL A   1      31.793  24.220  24.779  1.00  0.00     0.295 C 
BRANCH  91  92
ATOM     92  C   UNL A   1      31.733  23.022  25.798  1.00  0.00     0.173 C 
ATOM     93  C   UNL A   1      32.258  23.164  27.229  1.00  0.00     0.038 C 
ATOM     94  O   UNL A   1      31.943  21.726  25.233  1.00  0.00    -0.372 OA
ATOM     95  C   UNL A   1      33.510  22.377  27.600  1.00  0.00     0.005 C 
ATOM     96  C   UNL A   1      33.249  21.200  25.328  1.00  0.00     0.161 C 
ATOM     97  C   UNL A   1      33.787  21.147  26.749  1.00  0.00     0.029 C 
ENDBRANCH  91  92
ENDBRANCH  82  91
ENDBRANCH  77  80
ENDBRANCH  75  76
ENDBRANCH  74  75
ENDBRANCH   1  74
TORSDOF 15
ENDMDL
MODEL 3
REMARK VINA RESULT:     -11.6      2.663      8.664
REMARK SMILES O=C(NCCCNC(=O)[C@H]1CC[C@H]2CCCC[C@@H]2[N@H+]1C[C@@H]1CCCCO1)c1ccc(-c2c3nc(c(-c4c(F)cc(S(=O)(=O)[O-])cc4F)c4ccc([nH]4)c(-c4c(F)cc(S(=O)(=O)[O-])cc4F)c4nc(c(-c5c(F)cc(S(=O)(=O)[O-])cc5F)c5ccc2[nH]5)C=C4)C=C3)cc1
REMARK SMILES IDX 4 1 3 2 1 3 2 4 27 6 28 7 92 8 29 9 91 10 30 11 31 12 32 13
REMARK SMILES IDX 85 14 33 15 90 16 84 17 86 18 34 19 89 20 83 21 82 22 35 24
REMARK SMILES IDX 69 25 48 26 68 27 49 28 52 29 67 30 87 31 50 32 51 33 66 35
REMARK SMILES IDX 88 36 53 37 36 38 37 39 46 40 38 41 39 42 45 43 47 44 40 45
REMARK SMILES IDX 41 46 42 47 43 48 44 49 70 50 71 51 80 52 72 53 73 54 79 55
REMARK SMILES IDX 81 56 74 57 75 58 76 59 77 60 78 61 54 62 55 63 64 64 56 65
REMARK SMILES IDX 57 66 63 67 65 68 58 69 59 70 60 71 61 72 62 73 5 74 6 75
REMARK SMILES IDX 7 76 8 77 9 79 10 80 11 81 19 82 12 83 18 84 13 86 17 87
REMARK SMILES IDX 14 88 16 89 15 90 20 91 21 92 22 93 26 94 23 95 25 96 24 97
REMARK H PARENT 3 5 86 23 52 34 7 78 19 85
REMARK Flexibility Score: inf
ROOT
ATOM      1  C   UNL A   1      35.327  29.194  27.556  1.00  0.00     0.118 C 
ENDROOT
BRANCH   1   2
ATOM      2  N   UNL A   1      35.238  30.169  28.639  1.00  0.00    -0.352 N 
ATOM      3  O   UNL A   1      35.865  31.208  30.540  1.00  0.00    -0.269 OA
ATOM      4  C   UNL A   1      36.191  30.554  29.551  1.00  0.00     0.251 C 
ATOM      5  H   UNL A   1      34.366  30.618  28.729  1.00  0.00     0.163 HD
BRANCH   4   6
ATOM      6  C   UNL A   1      37.597  30.157  29.341  1.00  0.00     0.039 A 
ATOM      7  C   UNL A   1      38.119  30.124  28.049  1.00  0.00     0.014 A 
ATOM      8  C   UNL A   1      38.398  29.806  30.430  1.00  0.00     0.014 A 
ATOM      9  C   UNL A   1      39.357  29.552  27.819  1.00  0.00     0.010 A 
ATOM     10  C   UNL A   1      39.708  29.376  30.209  1.00  0.00     0.010 A 
ATOM     11  C   UNL A   1      40.189  29.227  28.898  1.00  0.00    -0.014 A 
BRANCH  11  12
ATOM     12  C   UNL A   1      41.601  28.876  28.616  1.00  0.00     0.031 A 
ATOM     13  C   UNL A   1      42.690  29.906  28.656  1.00  0.00     0.074 A 
ATOM     14  C   UNL A   1      41.875  27.588  28.325  1.00  0.00     0.049 A 
ATOM     15  N   UNL A   1      43.961  29.760  28.388  1.00  0.00    -0.248 NA
ATOM     16  C   UNL A   1      42.312  31.277  29.034  1.00  0.00     0.031 C 
ATOM     17  C   UNL A   1      40.880  26.509  28.251  1.00  0.00     0.029 A 
ATOM     18  N   UNL A   1      43.058  26.956  28.045  1.00  0.00    -0.354 N 
ATOM     19  C   UNL A   1      44.530  31.019  28.529  1.00  0.00     0.074 A 
ATOM     20  C   UNL A   1      43.465  31.923  28.903  1.00  0.00     0.031 C 
ATOM     21  C   UNL A   1      41.497  25.352  27.987  1.00  0.00     0.029 A 
ATOM     22  C   UNL A   1      42.911  25.616  27.774  1.00  0.00     0.049 A 
ATOM     23  H   UNL A   1      43.928  27.417  28.039  1.00  0.00     0.167 HD
ATOM     24  C   UNL A   1      45.825  31.375  28.354  1.00  0.00     0.037 A 
ATOM     25  C   UNL A   1      43.803  24.705  27.347  1.00  0.00     0.037 A 
ATOM     26  C   UNL A   1      46.871  30.447  28.004  1.00  0.00     0.049 A 
ATOM     27  C   UNL A   1      45.221  25.142  27.129  1.00  0.00     0.074 A 
ATOM     28  C   UNL A   1      48.227  30.693  27.873  1.00  0.00     0.029 A 
ATOM     29  N   UNL A   1      46.680  29.103  27.714  1.00  0.00    -0.354 N 
ATOM     30  N   UNL A   1      45.752  26.324  27.325  1.00  0.00    -0.248 NA
ATOM     31  C   UNL A   1      46.155  24.131  26.624  1.00  0.00     0.031 C 
ATOM     32  C   UNL A   1      48.845  29.517  27.440  1.00  0.00     0.029 A 
ATOM     33  C   UNL A   1      47.886  28.519  27.360  1.00  0.00     0.049 A 
ATOM     34  H   UNL A   1      45.815  28.634  27.753  1.00  0.00     0.167 HD
ATOM     35  C   UNL A   1      47.089  26.199  26.974  1.00  0.00     0.074 A 
ATOM     36  C   UNL A   1      47.289  24.818  26.580  1.00  0.00     0.031 C 
ATOM     37  C   UNL A   1      48.062  27.141  26.972  1.00  0.00     0.037 A 
BRANCH  24  38
ATOM     38  C   UNL A   1      46.196  32.826  28.502  1.00  0.00     0.058 A 
ATOM     39  C   UNL A   1      46.143  33.723  27.425  1.00  0.00     0.135 A 
ATOM     40  C   UNL A   1      46.525  33.342  29.768  1.00  0.00     0.135 A 
ATOM     41  F   UNL A   1      45.849  33.284  26.191  1.00  0.00    -0.206 F 
ATOM     42  C   UNL A   1      46.408  35.080  27.597  1.00  0.00     0.059 A 
ATOM     43  C   UNL A   1      46.770  34.698  29.967  1.00  0.00     0.059 A 
ATOM     44  F   UNL A   1      46.592  32.527  30.832  1.00  0.00    -0.206 F 
ATOM     45  C   UNL A   1      46.715  35.558  28.873  1.00  0.00     0.060 A 
BRANCH  45  46
ATOM     46  S   UNL A   1      47.024  37.325  29.081  1.00  0.00     0.124 S 
ATOM     47  O   UNL A   1      45.809  37.902  28.512  1.00  0.00    -0.237 OA
ATOM     48  O   UNL A   1      47.164  37.448  30.528  1.00  0.00    -0.237 OA
ATOM     49  O   UNL A   1      48.244  37.552  28.314  1.00  0.00    -0.744 OA
ENDBRANCH  45  46
ENDBRANCH  24  38
BRANCH  25  50
ATOM     50  C   UNL A   1      43.358  23.320  27.043  1.00  0.00     0.058 A 
ATOM     51  C   UNL A   1      43.066  22.408  28.065  1.00  0.00     0.135 A 
ATOM     52  C   UNL A   1      43.203  22.887  25.715  1.00  0.00     0.135 A 
ATOM     53  F   UNL A   1      43.197  22.776  29.348  1.00  0.00    -0.206 F 
ATOM     54  C   UNL A   1      42.660  21.108  27.784  1.00  0.00     0.059 A 
ATOM     55  C   UNL A   1      42.766  21.603  25.409  1.00  0.00     0.059 A 
ATOM     56  F   UNL A   1      43.448  23.728  24.697  1.00  0.00    -0.206 F 
ATOM     57  C   UNL A   1      42.514  20.715  26.452  1.00  0.00     0.060 A 
BRANCH  57  58
ATOM     58  S   UNL A   1      41.971  19.031  26.099  1.00  0.00     0.124 S 
ATOM     59  O   UNL A   1      42.853  18.665  24.998  1.00  0.00    -0.237 OA
ATOM     60  O   UNL A   1      42.219  18.356  27.369  1.00  0.00    -0.237 OA
ATOM     61  O   UNL A   1      40.562  19.199  25.752  1.00  0.00    -0.744 OA
ENDBRANCH  57  58
ENDBRANCH  25  50
BRANCH  37  62
ATOM     62  C   UNL A   1      49.435  26.709  26.544  1.00  0.00     0.058 A 
ATOM     63  C   UNL A   1      50.333  26.121  27.448  1.00  0.00     0.135 A 
ATOM     64  C   UNL A   1      49.833  26.830  25.203  1.00  0.00     0.135 A 
ATOM     65  F   UNL A   1      50.005  25.999  28.744  1.00  0.00    -0.206 F 
ATOM     66  C   UNL A   1      51.583  25.673  27.038  1.00  0.00     0.059 A 
ATOM     67  C   UNL A   1      51.066  26.361  24.765  1.00  0.00     0.059 A 
ATOM     68  F   UNL A   1      49.008  27.383  24.300  1.00  0.00    -0.206 F 
ATOM     69  C   UNL A   1      51.937  25.789  25.692  1.00  0.00     0.060 A 
BRANCH  69  70
ATOM     70  S   UNL A   1      53.537  25.145  25.164  1.00  0.00     0.124 S 
ATOM     71  O   UNL A   1      53.581  25.574  23.769  1.00  0.00    -0.237 OA
ATOM     72  O   UNL A   1      54.460  25.827  26.067  1.00  0.00    -0.237 OA
ATOM     73  O   UNL A   1      53.412  23.706  25.375  1.00  0.00    -0.744 OA
ENDBRANCH  69  70
ENDBRANCH  37  62
ENDBRANCH  11  12
ENDBRANCH   4   6
ENDBRANCH   1   2
BRANCH   1  74
ATOM     74  C   UNL A   1      34.017  29.054  26.810  1.00  0.00     0.042 C 
BRANCH  74  75
ATOM     75  C   UNL A   1      33.775  27.638  26.337  1.00  0.00     0.118 C 
BRANCH  75  76
ATOM     76  N   UNL A   1      32.412  27.205  26.567  1.00  0.00    -0.351 N 
ATOM     77  C   UNL A   1      31.801  25.994  26.434  1.00  0.00     0.278 C 
ATOM     78  H   UNL A   1      31.812  27.921  26.879  1.00  0.00     0.163 HD
ATOM     79  O   UNL A   1      30.569  26.041  26.501  1.00  0.00    -0.268 OA
BRANCH  77  80
ATOM     80  C   UNL A   1      32.615  24.699  26.130  1.00  0.00     0.274 C 
ATOM     81  C   UNL A   1      32.012  23.395  26.681  1.00  0.00     0.076 C 
ATOM     82  N   UNL A   1      33.007  24.552  24.712  1.00  0.00    -0.320 N 
ATOM     83  C   UNL A   1      32.530  22.122  26.023  1.00  0.00     0.016 C 
ATOM     84  C   UNL A   1      33.945  23.457  24.448  1.00  0.00     0.187 C 
ATOM     85  H   UNL A   1      33.522  25.430  24.641  1.00  0.00     0.349 HD
ATOM     86  C   UNL A   1      33.942  22.369  25.542  1.00  0.00     0.048 C 
ATOM     87  C   UNL A   1      35.408  23.922  24.319  1.00  0.00     0.065 C 
ATOM     88  C   UNL A   1      34.639  21.129  24.998  1.00  0.00     0.010 C 
ATOM     89  C   UNL A   1      36.301  22.741  23.897  1.00  0.00     0.006 C 
ATOM     90  C   UNL A   1      36.105  21.464  24.729  1.00  0.00     0.001 C 
BRANCH  82  91
ATOM     91  C   UNL A   1      32.061  24.840  23.614  1.00  0.00     0.295 C 
BRANCH  91  92
ATOM     92  C   UNL A   1      32.040  26.036  22.591  1.00  0.00     0.173 C 
ATOM     93  C   UNL A   1      33.310  26.822  22.257  1.00  0.00     0.038 C 
ATOM     94  O   UNL A   1      30.855  26.834  22.606  1.00  0.00    -0.372 OA
ATOM     95  C   UNL A   1      33.386  28.270  22.729  1.00  0.00     0.005 C 
ATOM     96  C   UNL A   1      30.905  28.025  23.362  1.00  0.00     0.161 C 
ATOM     97  C   UNL A   1      32.047  28.951  22.974  1.00  0.00     0.029 C 
ENDBRANCH  91  92
ENDBRANCH  82  91
ENDBRANCH  77  80
ENDBRANCH  75  76
ENDBRANCH  74  75
ENDBRANCH   1  74
TORSDOF 15
ENDMDL
