MODEL 1
REMARK VINA RESULT:     -11.9      0.000      0.000
REMARK SMILES CC(C)CCc1cc2c(cc1Cl)C=C(C(=O)NCCCNC(=O)c1ccc(-c3c4nc(c(-c5c(F)cc(S(=O)(=O)[O-])cc5F)c5ccc([nH]5)c(-c5c(F)cc(S(=O)(=O)[O-])cc5F)c5nc(c(-c6c(F)cc(S(=O)(=O)[O-])cc6F)c6ccc3[nH]6)C=C5)C=C4)cc1)[C@H](C(F)(F)F)O2
REMARK SMILES IDX 19 1 18 2 17 3 15 4 16 5 14 7 6 8 7 9 11 10 8 11 10 12 12 13
REMARK SMILES IDX 9 14 95 15 13 16 90 17 5 18 4 19 2 20 1 21 3 22 91 23 92 24
REMARK SMILES IDX 93 25 94 26 20 27 21 28 22 29 23 31 24 32 25 33 89 34 26 35
REMARK SMILES IDX 88 36 27 37 28 38 29 39 82 40 30 41 87 42 81 43 83 44 31 45
REMARK SMILES IDX 86 46 80 47 79 48 32 50 66 51 45 52 65 53 46 54 49 55 64 56
REMARK SMILES IDX 84 57 47 58 48 59 63 61 85 62 50 63 33 64 34 65 43 66 35 67
REMARK SMILES IDX 36 68 42 69 44 70 37 71 38 72 39 73 40 74 41 75 67 76 68 77
REMARK SMILES IDX 77 78 69 79 70 80 76 81 78 82 71 83 72 84 73 85 74 86 75 87
REMARK SMILES IDX 51 88 52 89 61 90 53 91 54 92 60 93 62 94 55 95 56 96 57 97
REMARK SMILES IDX 58 98 59 99
REMARK H PARENT 17 6 21 30 83 49 49 60
REMARK Flexibility Score: inf
ROOT
ATOM      1  C   UNL A   1      33.357  28.057  25.611  1.00  0.00     0.042 C 
ENDROOT
BRANCH   1   2
ATOM      2  C   UNL A   1      31.872  28.290  25.362  1.00  0.00     0.118 C 
BRANCH   2   3
ATOM      3  N   UNL A   1      31.503  28.013  23.982  1.00  0.00    -0.352 N 
ATOM      4  C   UNL A   1      31.381  26.920  23.193  1.00  0.00     0.251 C 
ATOM      5  O   UNL A   1      30.909  27.129  22.071  1.00  0.00    -0.270 OA
ATOM      6  H   UNL A   1      31.284  28.839  23.492  1.00  0.00     0.163 HD
BRANCH   4   7
ATOM      7  C   UNL A   1      31.762  25.533  23.584  1.00  0.00     0.067 C 
ATOM      8  C   UNL A   1      34.334  21.274  24.483  1.00  0.00    -0.026 A 
ATOM      9  C   UNL A   1      32.983  21.654  24.531  1.00  0.00     0.052 A 
ATOM     10  C   UNL A   1      35.279  22.253  24.128  1.00  0.00     0.045 A 
ATOM     11  C   UNL A   1      32.585  22.938  24.176  1.00  0.00     0.128 A 
ATOM     12  C   UNL A   1      34.872  23.550  23.779  1.00  0.00     0.032 A 
ATOM     13  Cl  UNL A   1      36.976  21.925  24.084  1.00  0.00    -0.084 Cl
ATOM     14  C   UNL A   1      33.518  23.891  23.788  1.00  0.00     0.019 A 
ATOM     15  O   UNL A   1      31.240  23.172  24.177  1.00  0.00    -0.475 OA
ATOM     16  C   UNL A   1      33.051  25.206  23.369  1.00  0.00     0.025 C 
ATOM     17  C   UNL A   1      30.843  24.566  24.281  1.00  0.00     0.314 C 
BRANCH   8  18
ATOM     18  C   UNL A   1      34.693  19.842  24.815  1.00  0.00     0.037 C 
BRANCH  18  19
ATOM     19  C   UNL A   1      33.515  18.851  24.712  1.00  0.00     0.008 C 
BRANCH  19  20
ATOM     20  C   UNL A   1      33.578  17.889  23.507  1.00  0.00    -0.017 C 
ATOM     21  C   UNL A   1      33.563  16.425  23.942  1.00  0.00     0.007 C 
ATOM     22  C   UNL A   1      32.413  18.167  22.555  1.00  0.00     0.007 C 
ENDBRANCH  19  20
ENDBRANCH  18  19
ENDBRANCH   8  18
BRANCH  17  23
ATOM     23  C   UNL A   1      30.562  24.921  25.750  1.00  0.00     0.429 C 
ATOM     24  F   UNL A   1      31.674  25.301  26.418  1.00  0.00    -0.167 F 
ATOM     25  F   UNL A   1      29.661  25.922  25.874  1.00  0.00    -0.167 F 
ATOM     26  F   UNL A   1      30.047  23.845  26.394  1.00  0.00    -0.167 F 
ENDBRANCH  17  23
ENDBRANCH   4   7
ENDBRANCH   2   3
ENDBRANCH   1   2
BRANCH   1  27
ATOM     27  C   UNL A   1      33.751  28.273  27.068  1.00  0.00     0.118 C 
BRANCH  27  28
ATOM     28  N   UNL A   1      33.671  29.678  27.453  1.00  0.00    -0.352 N 
ATOM     29  C   UNL A   1      34.581  30.467  28.114  1.00  0.00     0.251 C 
ATOM     30  H   UNL A   1      32.833  30.130  27.202  1.00  0.00     0.163 HD
ATOM     31  O   UNL A   1      34.224  31.557  28.557  1.00  0.00    -0.269 OA
BRANCH  29  32
ATOM     32  C   UNL A   1      35.973  30.006  28.305  1.00  0.00     0.039 A 
ATOM     33  C   UNL A   1      36.383  29.475  29.529  1.00  0.00     0.014 A 
ATOM     34  C   UNL A   1      36.882  30.096  27.247  1.00  0.00     0.014 A 
ATOM     35  C   UNL A   1      37.730  29.217  29.753  1.00  0.00     0.010 A 
ATOM     36  C   UNL A   1      38.219  29.731  27.443  1.00  0.00     0.010 A 
ATOM     37  C   UNL A   1      38.665  29.335  28.713  1.00  0.00    -0.014 A 
BRANCH  37  38
ATOM     38  C   UNL A   1      40.096  29.033  28.984  1.00  0.00     0.031 A 
ATOM     39  C   UNL A   1      40.684  27.693  28.623  1.00  0.00     0.074 A 
ATOM     40  C   UNL A   1      40.885  29.997  29.500  1.00  0.00     0.049 A 
ATOM     41  N   UNL A   1      41.910  27.261  28.782  1.00  0.00    -0.248 NA
ATOM     42  C   UNL A   1      39.780  26.706  28.009  1.00  0.00     0.031 C 
ATOM     43  C   UNL A   1      40.436  31.341  29.876  1.00  0.00     0.029 A 
ATOM     44  N   UNL A   1      42.230  30.014  29.770  1.00  0.00    -0.354 N 
ATOM     45  C   UNL A   1      41.920  25.954  28.307  1.00  0.00     0.074 A 
ATOM     46  C   UNL A   1      40.571  25.649  27.885  1.00  0.00     0.031 C 
ATOM     47  C   UNL A   1      41.493  32.068  30.264  1.00  0.00     0.029 A 
ATOM     48  C   UNL A   1      42.682  31.224  30.243  1.00  0.00     0.049 A 
ATOM     49  H   UNL A   1      42.815  29.233  29.639  1.00  0.00     0.167 HD
ATOM     50  C   UNL A   1      42.964  25.094  28.215  1.00  0.00     0.037 A 
ATOM     51  C   UNL A   1      43.911  31.611  30.632  1.00  0.00     0.037 A 
ATOM     52  C   UNL A   1      44.311  25.415  28.615  1.00  0.00     0.049 A 
ATOM     53  C   UNL A   1      45.039  30.623  30.571  1.00  0.00     0.074 A 
ATOM     54  C   UNL A   1      45.440  24.616  28.551  1.00  0.00     0.029 A 
ATOM     55  N   UNL A   1      44.713  26.631  29.148  1.00  0.00    -0.354 N 
ATOM     56  N   UNL A   1      45.027  29.388  30.128  1.00  0.00    -0.248 NA
ATOM     57  C   UNL A   1      46.344  31.070  31.076  1.00  0.00     0.031 C 
ATOM     58  C   UNL A   1      46.514  25.333  29.087  1.00  0.00     0.029 A 
ATOM     59  C   UNL A   1      46.068  26.597  29.438  1.00  0.00     0.049 A 
ATOM     60  H   UNL A   1      44.123  27.405  29.299  1.00  0.00     0.167 HD
ATOM     61  C   UNL A   1      46.323  28.914  30.290  1.00  0.00     0.074 A 
ATOM     62  C   UNL A   1      47.098  30.002  30.852  1.00  0.00     0.031 C 
ATOM     63  C   UNL A   1      46.824  27.688  30.003  1.00  0.00     0.037 A 
BRANCH  50  64
ATOM     64  C   UNL A   1      42.696  23.717  27.669  1.00  0.00     0.058 A 
ATOM     65  C   UNL A   1      42.735  23.447  26.292  1.00  0.00     0.135 A 
ATOM     66  C   UNL A   1      42.451  22.641  28.539  1.00  0.00     0.135 A 
ATOM     67  F   UNL A   1      42.950  24.441  25.415  1.00  0.00    -0.206 F 
ATOM     68  C   UNL A   1      42.521  22.166  25.794  1.00  0.00     0.059 A 
ATOM     69  C   UNL A   1      42.259  21.344  28.064  1.00  0.00     0.059 A 
ATOM     70  F   UNL A   1      42.402  22.840  29.865  1.00  0.00    -0.206 F 
ATOM     71  C   UNL A   1      42.286  21.120  26.689  1.00  0.00     0.060 A 
BRANCH  71  72
ATOM     72  S   UNL A   1      42.018  19.462  26.024  1.00  0.00     0.124 S 
ATOM     73  O   UNL A   1      42.511  18.628  27.116  1.00  0.00    -0.237 OA
ATOM     74  O   UNL A   1      40.573  19.442  25.815  1.00  0.00    -0.237 OA
ATOM     75  O   UNL A   1      42.826  19.446  24.809  1.00  0.00    -0.744 OA
ENDBRANCH  71  72
ENDBRANCH  50  64
BRANCH  51  76
ATOM     76  C   UNL A   1      44.126  33.000  31.120  1.00  0.00     0.058 A 
ATOM     77  C   UNL A   1      44.422  34.040  30.228  1.00  0.00     0.135 A 
ATOM     78  C   UNL A   1      43.992  33.323  32.481  1.00  0.00     0.135 A 
ATOM     79  F   UNL A   1      44.567  33.781  28.919  1.00  0.00    -0.206 F 
ATOM     80  C   UNL A   1      44.581  35.351  30.665  1.00  0.00     0.059 A 
ATOM     81  C   UNL A   1      44.117  34.630  32.937  1.00  0.00     0.059 A 
ATOM     82  F   UNL A   1      43.695  32.366  33.372  1.00  0.00    -0.206 F 
ATOM     83  C   UNL A   1      44.416  35.638  32.022  1.00  0.00     0.060 A 
BRANCH  83  84
ATOM     84  S   UNL A   1      44.556  37.354  32.567  1.00  0.00     0.124 S 
ATOM     85  O   UNL A   1      45.883  37.363  33.171  1.00  0.00    -0.237 OA
ATOM     86  O   UNL A   1      44.420  38.083  31.309  1.00  0.00    -0.237 OA
ATOM     87  O   UNL A   1      43.438  37.504  33.494  1.00  0.00    -0.744 OA
ENDBRANCH  83  84
ENDBRANCH  51  76
BRANCH  63  88
ATOM     88  C   UNL A   1      48.282  27.453  30.282  1.00  0.00     0.058 A 
ATOM     89  C   UNL A   1      48.717  26.900  31.495  1.00  0.00     0.135 A 
ATOM     90  C   UNL A   1      49.248  27.722  29.298  1.00  0.00     0.135 A 
ATOM     91  F   UNL A   1      47.833  26.634  32.472  1.00  0.00    -0.206 F 
ATOM     92  C   UNL A   1      50.061  26.633  31.731  1.00  0.00     0.059 A 
ATOM     93  C   UNL A   1      50.595  27.437  29.502  1.00  0.00     0.059 A 
ATOM     94  F   UNL A   1      48.885  28.244  28.117  1.00  0.00    -0.206 F 
ATOM     95  C   UNL A   1      50.992  26.899  30.726  1.00  0.00     0.060 A 
BRANCH  95  96
ATOM     96  S   UNL A   1      52.726  26.502  31.032  1.00  0.00     0.124 S 
ATOM     97  O   UNL A   1      52.614  25.301  31.852  1.00  0.00    -0.237 OA
ATOM     98  O   UNL A   1      53.241  26.302  29.681  1.00  0.00    -0.237 OA
ATOM     99  O   UNL A   1      53.231  27.687  31.720  1.00  0.00    -0.744 OA
ENDBRANCH  95  96
ENDBRANCH  63  88
ENDBRANCH  37  38
ENDBRANCH  29  32
ENDBRANCH  27  28
ENDBRANCH   1  27
TORSDOF 17
ENDMDL
MODEL 2
REMARK VINA RESULT:     -11.8      5.246     10.176
REMARK SMILES CC(C)CCc1cc2c(cc1Cl)C=C(C(=O)NCCCNC(=O)c1ccc(-c3c4nc(c(-c5c(F)cc(S(=O)(=O)[O-])cc5F)c5ccc([nH]5)c(-c5c(F)cc(S(=O)(=O)[O-])cc5F)c5nc(c(-c6c(F)cc(S(=O)(=O)[O-])cc6F)c6ccc3[nH]6)C=C5)C=C4)cc1)[C@H](C(F)(F)F)O2
REMARK SMILES IDX 19 1 18 2 17 3 15 4 16 5 14 7 6 8 7 9 11 10 8 11 10 12 12 13
REMARK SMILES IDX 9 14 95 15 13 16 90 17 5 18 4 19 2 20 1 21 3 22 91 23 92 24
REMARK SMILES IDX 93 25 94 26 20 27 21 28 22 29 23 31 24 32 25 33 89 34 26 35
REMARK SMILES IDX 88 36 27 37 28 38 29 39 82 40 30 41 87 42 81 43 83 44 31 45
REMARK SMILES IDX 86 46 80 47 79 48 32 50 66 51 45 52 65 53 46 54 49 55 64 56
REMARK SMILES IDX 84 57 47 58 48 59 63 61 85 62 50 63 33 64 34 65 43 66 35 67
REMARK SMILES IDX 36 68 42 69 44 70 37 71 38 72 39 73 40 74 41 75 67 76 68 77
REMARK SMILES IDX 77 78 69 79 70 80 76 81 78 82 71 83 72 84 73 85 74 86 75 87
REMARK SMILES IDX 51 88 52 89 61 90 53 91 54 92 60 93 62 94 55 95 56 96 57 97
REMARK SMILES IDX 58 98 59 99
REMARK H PARENT 17 6 21 30 83 49 49 60
REMARK Flexibility Score: inf
ROOT
ATOM      1  C   UNL A   1      37.552  23.215  25.955  1.00  0.00     0.042 C 
ENDROOT
BRANCH   1   2
ATOM      2  C   UNL A   1      36.219  23.711  25.407  1.00  0.00     0.118 C 
BRANCH   2   3
ATOM      3  N   UNL A   1      35.091  23.043  26.039  1.00  0.00    -0.352 N 
ATOM      4  C   UNL A   1      33.745  23.177  26.050  1.00  0.00     0.251 C 
ATOM      5  O   UNL A   1      33.130  22.290  26.651  1.00  0.00    -0.270 OA
ATOM      6  H   UNL A   1      35.385  22.295  26.609  1.00  0.00     0.163 HD
BRANCH   4   7
ATOM      7  C   UNL A   1      32.987  24.285  25.402  1.00  0.00     0.067 C 
ATOM      8  C   UNL A   1      30.883  28.758  24.340  1.00  0.00    -0.026 A 
ATOM      9  C   UNL A   1      30.831  27.472  23.778  1.00  0.00     0.052 A 
ATOM     10  C   UNL A   1      31.710  28.953  25.461  1.00  0.00     0.045 A 
ATOM     11  C   UNL A   1      31.524  26.410  24.351  1.00  0.00     0.128 A 
ATOM     12  C   UNL A   1      32.412  27.880  26.029  1.00  0.00     0.032 A 
ATOM     13  Cl  UNL A   1      31.898  30.500  26.210  1.00  0.00    -0.084 Cl
ATOM     14  C   UNL A   1      32.308  26.599  25.483  1.00  0.00     0.019 A 
ATOM     15  O   UNL A   1      31.334  25.188  23.774  1.00  0.00    -0.475 OA
ATOM     16  C   UNL A   1      32.969  25.448  26.083  1.00  0.00     0.025 C 
ATOM     17  C   UNL A   1      32.370  24.202  24.032  1.00  0.00     0.314 C 
BRANCH   8  18
ATOM     18  C   UNL A   1      30.051  29.854  23.709  1.00  0.00     0.037 C 
BRANCH  18  19
ATOM     19  C   UNL A   1      29.131  29.377  22.567  1.00  0.00     0.008 C 
BRANCH  19  20
ATOM     20  C   UNL A   1      27.880  30.250  22.331  1.00  0.00    -0.017 C 
ATOM     21  C   UNL A   1      27.643  31.230  23.478  1.00  0.00     0.007 C 
ATOM     22  C   UNL A   1      28.014  31.009  21.009  1.00  0.00     0.007 C 
ENDBRANCH  19  20
ENDBRANCH  18  19
ENDBRANCH   8  18
BRANCH  17  23
ATOM     23  C   UNL A   1      33.394  24.207  22.885  1.00  0.00     0.429 C 
ATOM     24  F   UNL A   1      34.362  25.134  23.053  1.00  0.00    -0.167 F 
ATOM     25  F   UNL A   1      34.008  23.011  22.738  1.00  0.00    -0.167 F 
ATOM     26  F   UNL A   1      32.770  24.477  21.711  1.00  0.00    -0.167 F 
ENDBRANCH  17  23
ENDBRANCH   4   7
ENDBRANCH   2   3
ENDBRANCH   1   2
BRANCH   1  27
ATOM     27  C   UNL A   1      38.398  24.336  26.548  1.00  0.00     0.118 C 
BRANCH  27  28
ATOM     28  N   UNL A   1      39.754  24.340  26.010  1.00  0.00    -0.352 N 
ATOM     29  C   UNL A   1      40.830  25.135  26.326  1.00  0.00     0.251 C 
ATOM     30  H   UNL A   1      39.925  23.669  25.309  1.00  0.00     0.163 HD
ATOM     31  O   UNL A   1      41.813  25.142  25.587  1.00  0.00    -0.269 OA
BRANCH  29  32
ATOM     32  C   UNL A   1      40.801  25.989  27.534  1.00  0.00     0.039 A 
ATOM     33  C   UNL A   1      39.860  25.765  28.539  1.00  0.00     0.014 A 
ATOM     34  C   UNL A   1      41.733  27.023  27.670  1.00  0.00     0.014 A 
ATOM     35  C   UNL A   1      39.726  26.681  29.575  1.00  0.00     0.010 A 
ATOM     36  C   UNL A   1      41.665  27.880  28.774  1.00  0.00     0.010 A 
ATOM     37  C   UNL A   1      40.629  27.747  29.711  1.00  0.00    -0.014 A 
BRANCH  37  38
ATOM     38  C   UNL A   1      40.467  28.699  30.843  1.00  0.00     0.031 A 
ATOM     39  C   UNL A   1      41.399  28.657  32.026  1.00  0.00     0.074 A 
ATOM     40  C   UNL A   1      39.511  29.648  30.772  1.00  0.00     0.049 A 
ATOM     41  N   UNL A   1      41.408  29.412  33.095  1.00  0.00    -0.248 NA
ATOM     42  C   UNL A   1      42.457  27.633  32.012  1.00  0.00     0.031 C 
ATOM     43  C   UNL A   1      38.557  29.801  29.670  1.00  0.00     0.029 A 
ATOM     44  N   UNL A   1      39.200  30.680  31.620  1.00  0.00    -0.354 N 
ATOM     45  C   UNL A   1      42.454  28.946  33.886  1.00  0.00     0.074 A 
ATOM     46  C   UNL A   1      43.036  27.820  33.190  1.00  0.00     0.031 C 
ATOM     47  C   UNL A   1      37.815  30.897  29.878  1.00  0.00     0.029 A 
ATOM     48  C   UNL A   1      38.181  31.481  31.162  1.00  0.00     0.049 A 
ATOM     49  H   UNL A   1      39.662  30.831  32.476  1.00  0.00     0.167 HD
ATOM     50  C   UNL A   1      42.897  29.425  35.074  1.00  0.00     0.037 A 
ATOM     51  C   UNL A   1      37.593  32.558  31.717  1.00  0.00     0.037 A 
ATOM     52  C   UNL A   1      42.325  30.563  35.748  1.00  0.00     0.049 A 
ATOM     53  C   UNL A   1      38.067  33.036  33.059  1.00  0.00     0.074 A 
ATOM     54  C   UNL A   1      42.711  31.133  36.949  1.00  0.00     0.029 A 
ATOM     55  N   UNL A   1      41.252  31.309  35.279  1.00  0.00    -0.354 N 
ATOM     56  N   UNL A   1      39.051  32.576  33.795  1.00  0.00    -0.248 NA
ATOM     57  C   UNL A   1      37.345  34.167  33.656  1.00  0.00     0.031 C 
ATOM     58  C   UNL A   1      41.843  32.193  37.229  1.00  0.00     0.029 A 
ATOM     59  C   UNL A   1      40.948  32.318  36.179  1.00  0.00     0.049 A 
ATOM     60  H   UNL A   1      40.777  31.144  34.433  1.00  0.00     0.167 HD
ATOM     61  C   UNL A   1      39.073  33.367  34.936  1.00  0.00     0.074 A 
ATOM     62  C   UNL A   1      38.018  34.349  34.783  1.00  0.00     0.031 C 
ATOM     63  C   UNL A   1      39.891  33.285  36.014  1.00  0.00     0.037 A 
BRANCH  50  64
ATOM     64  C   UNL A   1      44.051  28.718  35.731  1.00  0.00     0.058 A 
ATOM     65  C   UNL A   1      43.855  27.643  36.613  1.00  0.00     0.135 A 
ATOM     66  C   UNL A   1      45.375  29.084  35.433  1.00  0.00     0.135 A 
ATOM     67  F   UNL A   1      42.612  27.261  36.946  1.00  0.00    -0.206 F 
ATOM     68  C   UNL A   1      44.927  26.970  37.192  1.00  0.00     0.059 A 
ATOM     69  C   UNL A   1      46.464  28.407  35.980  1.00  0.00     0.059 A 
ATOM     70  F   UNL A   1      45.622  30.104  34.596  1.00  0.00    -0.206 F 
ATOM     71  C   UNL A   1      46.228  27.359  36.867  1.00  0.00     0.060 A 
BRANCH  71  72
ATOM     72  S   UNL A   1      47.605  26.468  37.622  1.00  0.00     0.124 S 
ATOM     73  O   UNL A   1      47.143  26.331  39.000  1.00  0.00    -0.237 OA
ATOM     74  O   UNL A   1      47.642  25.235  36.842  1.00  0.00    -0.237 OA
ATOM     75  O   UNL A   1      48.740  27.364  37.428  1.00  0.00    -0.744 OA
ENDBRANCH  71  72
ENDBRANCH  50  64
BRANCH  51  76
ATOM     76  C   UNL A   1      36.486  33.245  30.999  1.00  0.00     0.058 A 
ATOM     77  C   UNL A   1      35.157  33.114  31.427  1.00  0.00     0.135 A 
ATOM     78  C   UNL A   1      36.739  34.082  29.900  1.00  0.00     0.135 A 
ATOM     79  F   UNL A   1      34.863  32.320  32.468  1.00  0.00    -0.206 F 
ATOM     80  C   UNL A   1      34.119  33.786  30.793  1.00  0.00     0.059 A 
ATOM     81  C   UNL A   1      35.722  34.787  29.267  1.00  0.00     0.059 A 
ATOM     82  F   UNL A   1      37.995  34.251  29.460  1.00  0.00    -0.206 F 
ATOM     83  C   UNL A   1      34.412  34.629  29.718  1.00  0.00     0.060 A 
BRANCH  83  84
ATOM     84  S   UNL A   1      33.064  35.549  28.947  1.00  0.00     0.124 S 
ATOM     85  O   UNL A   1      32.327  36.022  30.113  1.00  0.00    -0.237 OA
ATOM     86  O   UNL A   1      33.786  36.568  28.190  1.00  0.00    -0.237 OA
ATOM     87  O   UNL A   1      32.387  34.540  28.138  1.00  0.00    -0.744 OA
ENDBRANCH  83  84
ENDBRANCH  51  76
BRANCH  63  88
ATOM     88  C   UNL A   1      39.688  34.289  37.115  1.00  0.00     0.058 A 
ATOM     89  C   UNL A   1      38.926  33.985  38.252  1.00  0.00     0.135 A 
ATOM     90  C   UNL A   1      40.319  35.542  37.062  1.00  0.00     0.135 A 
ATOM     91  F   UNL A   1      38.295  32.802  38.347  1.00  0.00    -0.206 F 
ATOM     92  C   UNL A   1      38.784  34.894  39.295  1.00  0.00     0.059 A 
ATOM     93  C   UNL A   1      40.212  36.457  38.105  1.00  0.00     0.059 A 
ATOM     94  F   UNL A   1      41.066  35.880  35.999  1.00  0.00    -0.206 F 
ATOM     95  C   UNL A   1      39.436  36.125  39.215  1.00  0.00     0.060 A 
BRANCH  95  96
ATOM     96  S   UNL A   1      39.279  37.274  40.598  1.00  0.00     0.124 S 
ATOM     97  O   UNL A   1      40.642  37.779  40.719  1.00  0.00    -0.237 OA
ATOM     98  O   UNL A   1      38.291  38.226  40.099  1.00  0.00    -0.237 OA
ATOM     99  O   UNL A   1      38.824  36.426  41.697  1.00  0.00    -0.744 OA
ENDBRANCH  95  96
ENDBRANCH  63  88
ENDBRANCH  37  38
ENDBRANCH  29  32
ENDBRANCH  27  28
ENDBRANCH   1  27
TORSDOF 17
ENDMDL
MODEL 3
REMARK VINA RESULT:     -11.8      5.035      9.970
REMARK SMILES CC(C)CCc1cc2c(cc1Cl)C=C(C(=O)NCCCNC(=O)c1ccc(-c3c4nc(c(-c5c(F)cc(S(=O)(=O)[O-])cc5F)c5ccc([nH]5)c(-c5c(F)cc(S(=O)(=O)[O-])cc5F)c5nc(c(-c6c(F)cc(S(=O)(=O)[O-])cc6F)c6ccc3[nH]6)C=C5)C=C4)cc1)[C@H](C(F)(F)F)O2
REMARK SMILES IDX 19 1 18 2 17 3 15 4 16 5 14 7 6 8 7 9 11 10 8 11 10 12 12 13
REMARK SMILES IDX 9 14 95 15 13 16 90 17 5 18 4 19 2 20 1 21 3 22 91 23 92 24
REMARK SMILES IDX 93 25 94 26 20 27 21 28 22 29 23 31 24 32 25 33 89 34 26 35
REMARK SMILES IDX 88 36 27 37 28 38 29 39 82 40 30 41 87 42 81 43 83 44 31 45
REMARK SMILES IDX 86 46 80 47 79 48 32 50 66 51 45 52 65 53 46 54 49 55 64 56
REMARK SMILES IDX 84 57 47 58 48 59 63 61 85 62 50 63 33 64 34 65 43 66 35 67
REMARK SMILES IDX 36 68 42 69 44 70 37 71 38 72 39 73 40 74 41 75 67 76 68 77
REMARK SMILES IDX 77 78 69 79 70 80 76 81 78 82 71 83 72 84 73 85 74 86 75 87
REMARK SMILES IDX 51 88 52 89 61 90 53 91 54 92 60 93 62 94 55 95 56 96 57 97
REMARK SMILES IDX 58 98 59 99
REMARK H PARENT 17 6 21 30 83 49 49 60
REMARK Flexibility Score: inf
ROOT
ATOM      1  C   UNL A   1      37.764  23.752  25.774  1.00  0.00     0.042 C 
ENDROOT
BRANCH   1   2
ATOM      2  C   UNL A   1      36.985  22.479  25.469  1.00  0.00     0.118 C 
BRANCH   2   3
ATOM      3  N   UNL A   1      36.021  22.170  26.515  1.00  0.00    -0.352 N 
ATOM      4  C   UNL A   1      34.696  22.352  26.721  1.00  0.00     0.251 C 
ATOM      5  O   UNL A   1      34.239  21.809  27.732  1.00  0.00    -0.270 OA
ATOM      6  H   UNL A   1      36.444  21.705  27.274  1.00  0.00     0.163 HD
BRANCH   4   7
ATOM      7  C   UNL A   1      33.789  23.134  25.833  1.00  0.00     0.067 C 
ATOM      8  C   UNL A   1      31.619  26.828  23.148  1.00  0.00    -0.026 A 
ATOM      9  C   UNL A   1      31.296  25.497  23.458  1.00  0.00     0.052 A 
ATOM     10  C   UNL A   1      32.830  27.343  23.644  1.00  0.00     0.045 A 
ATOM     11  C   UNL A   1      32.116  24.732  24.282  1.00  0.00     0.128 A 
ATOM     12  C   UNL A   1      33.657  26.564  24.468  1.00  0.00     0.032 A 
ATOM     13  Cl  UNL A   1      33.364  28.949  23.290  1.00  0.00    -0.084 Cl
ATOM     14  C   UNL A   1      33.292  25.258  24.802  1.00  0.00     0.019 A 
ATOM     15  O   UNL A   1      31.663  23.481  24.586  1.00  0.00    -0.475 OA
ATOM     16  C   UNL A   1      34.090  24.441  25.707  1.00  0.00     0.025 C 
ATOM     17  C   UNL A   1      32.674  22.533  25.019  1.00  0.00     0.314 C 
BRANCH   8  18
ATOM     18  C   UNL A   1      30.650  27.627  22.304  1.00  0.00     0.037 C 
BRANCH  18  19
ATOM     19  C   UNL A   1      29.403  28.125  23.064  1.00  0.00     0.008 C 
BRANCH  19  20
ATOM     20  C   UNL A   1      29.264  29.659  23.150  1.00  0.00    -0.017 C 
ATOM     21  C   UNL A   1      30.235  30.266  24.161  1.00  0.00     0.007 C 
ATOM     22  C   UNL A   1      29.483  30.282  21.770  1.00  0.00     0.007 C 
ENDBRANCH  19  20
ENDBRANCH  18  19
ENDBRANCH   8  18
BRANCH  17  23
ATOM     23  C   UNL A   1      33.157  21.699  23.822  1.00  0.00     0.429 C 
ATOM     24  F   UNL A   1      32.322  21.772  22.763  1.00  0.00    -0.167 F 
ATOM     25  F   UNL A   1      34.382  22.076  23.392  1.00  0.00    -0.167 F 
ATOM     26  F   UNL A   1      33.250  20.392  24.178  1.00  0.00    -0.167 F 
ENDBRANCH  17  23
ENDBRANCH   4   7
ENDBRANCH   2   3
ENDBRANCH   1   2
BRANCH   1  27
ATOM     27  C   UNL A   1      38.929  23.515  26.730  1.00  0.00     0.118 C 
BRANCH  27  28
ATOM     28  N   UNL A   1      40.215  23.817  26.110  1.00  0.00    -0.352 N 
ATOM     29  C   UNL A   1      41.016  24.927  26.231  1.00  0.00     0.251 C 
ATOM     30  H   UNL A   1      40.561  23.118  25.510  1.00  0.00     0.163 HD
ATOM     31  O   UNL A   1      41.940  25.093  25.436  1.00  0.00    -0.269 OA
BRANCH  29  32
ATOM     32  C   UNL A   1      40.761  25.923  27.294  1.00  0.00     0.039 A 
ATOM     33  C   UNL A   1      41.404  27.162  27.275  1.00  0.00     0.014 A 
ATOM     34  C   UNL A   1      39.861  25.621  28.321  1.00  0.00     0.014 A 
ATOM     35  C   UNL A   1      41.297  28.011  28.370  1.00  0.00     0.010 A 
ATOM     36  C   UNL A   1      39.671  26.529  29.369  1.00  0.00     0.010 A 
ATOM     37  C   UNL A   1      40.426  27.711  29.428  1.00  0.00    -0.014 A 
BRANCH  37  38
ATOM     38  C   UNL A   1      40.322  28.652  30.576  1.00  0.00     0.031 A 
ATOM     39  C   UNL A   1      41.294  28.578  31.724  1.00  0.00     0.074 A 
ATOM     40  C   UNL A   1      39.383  29.620  30.549  1.00  0.00     0.049 A 
ATOM     41  N   UNL A   1      41.356  29.320  32.801  1.00  0.00    -0.248 NA
ATOM     42  C   UNL A   1      42.331  27.534  31.662  1.00  0.00     0.031 C 
ATOM     43  C   UNL A   1      38.394  29.804  29.483  1.00  0.00     0.029 A 
ATOM     44  N   UNL A   1      39.122  30.647  31.420  1.00  0.00    -0.354 N 
ATOM     45  C   UNL A   1      42.419  28.824  33.549  1.00  0.00     0.074 A 
ATOM     46  C   UNL A   1      42.955  27.696  32.820  1.00  0.00     0.031 C 
ATOM     47  C   UNL A   1      37.681  30.912  29.730  1.00  0.00     0.029 A 
ATOM     48  C   UNL A   1      38.104  31.474  31.007  1.00  0.00     0.049 A 
ATOM     49  H   UNL A   1      39.617  30.780  32.260  1.00  0.00     0.167 HD
ATOM     50  C   UNL A   1      42.913  29.281  34.726  1.00  0.00     0.037 A 
ATOM     51  C   UNL A   1      37.556  32.555  31.595  1.00  0.00     0.037 A 
ATOM     52  C   UNL A   1      42.387  30.421  35.433  1.00  0.00     0.049 A 
ATOM     53  C   UNL A   1      38.086  33.007  32.924  1.00  0.00     0.074 A 
ATOM     54  C   UNL A   1      42.826  30.969  36.626  1.00  0.00     0.029 A 
ATOM     55  N   UNL A   1      41.314  31.193  35.011  1.00  0.00    -0.354 N 
ATOM     56  N   UNL A   1      39.086  32.520  33.619  1.00  0.00    -0.248 NA
ATOM     57  C   UNL A   1      37.408  34.145  33.559  1.00  0.00     0.031 C 
ATOM     58  C   UNL A   1      41.989  32.042  36.948  1.00  0.00     0.029 A 
ATOM     59  C   UNL A   1      41.061  32.197  35.931  1.00  0.00     0.049 A 
ATOM     60  H   UNL A   1      40.805  31.048  34.180  1.00  0.00     0.167 HD
ATOM     61  C   UNL A   1      39.164  33.297  34.768  1.00  0.00     0.074 A 
ATOM     62  C   UNL A   1      38.124  34.300  34.664  1.00  0.00     0.031 C 
ATOM     63  C   UNL A   1      40.017  33.186  35.815  1.00  0.00     0.037 A 
BRANCH  50  64
ATOM     64  C   UNL A   1      44.076  28.544  35.334  1.00  0.00     0.058 A 
ATOM     65  C   UNL A   1      45.404  28.890  35.041  1.00  0.00     0.135 A 
ATOM     66  C   UNL A   1      43.859  27.513  36.264  1.00  0.00     0.135 A 
ATOM     67  F   UNL A   1      45.670  29.856  34.148  1.00  0.00    -0.206 F 
ATOM     68  C   UNL A   1      46.477  28.229  35.632  1.00  0.00     0.059 A 
ATOM     69  C   UNL A   1      44.917  26.855  36.888  1.00  0.00     0.059 A 
ATOM     70  F   UNL A   1      42.610  27.141  36.582  1.00  0.00    -0.206 F 
ATOM     71  C   UNL A   1      46.222  27.214  36.557  1.00  0.00     0.060 A 
BRANCH  71  72
ATOM     72  S   UNL A   1      47.627  26.373  37.319  1.00  0.00     0.124 S 
ATOM     73  O   UNL A   1      47.026  25.102  37.714  1.00  0.00    -0.237 OA
ATOM     74  O   UNL A   1      48.583  26.305  36.218  1.00  0.00    -0.237 OA
ATOM     75  O   UNL A   1      48.000  27.257  38.418  1.00  0.00    -0.744 OA
ENDBRANCH  71  72
ENDBRANCH  50  64
BRANCH  51  76
ATOM     76  C   UNL A   1      36.438  33.271  30.924  1.00  0.00     0.058 A 
ATOM     77  C   UNL A   1      35.129  33.191  31.420  1.00  0.00     0.135 A 
ATOM     78  C   UNL A   1      36.664  34.086  29.802  1.00  0.00     0.135 A 
ATOM     79  F   UNL A   1      34.861  32.419  32.485  1.00  0.00    -0.206 F 
ATOM     80  C   UNL A   1      34.083  33.891  30.830  1.00  0.00     0.059 A 
ATOM     81  C   UNL A   1      35.640  34.818  29.213  1.00  0.00     0.059 A 
ATOM     82  F   UNL A   1      37.901  34.206  29.297  1.00  0.00    -0.206 F 
ATOM     83  C   UNL A   1      34.350  34.711  29.730  1.00  0.00     0.060 A 
BRANCH  83  84
ATOM     84  S   UNL A   1      32.997  35.668  29.016  1.00  0.00     0.124 S 
ATOM     85  O   UNL A   1      32.386  34.692  28.121  1.00  0.00    -0.237 OA
ATOM     86  O   UNL A   1      32.220  36.025  30.199  1.00  0.00    -0.237 OA
ATOM     87  O   UNL A   1      33.680  36.782  28.365  1.00  0.00    -0.744 OA
ENDBRANCH  83  84
ENDBRANCH  51  76
BRANCH  63  88
ATOM     88  C   UNL A   1      39.873  34.180  36.934  1.00  0.00     0.058 A 
ATOM     89  C   UNL A   1      40.373  35.486  36.822  1.00  0.00     0.135 A 
ATOM     90  C   UNL A   1      39.169  33.843  38.101  1.00  0.00     0.135 A 
ATOM     91  F   UNL A   1      41.061  35.856  35.729  1.00  0.00    -0.206 F 
ATOM     92  C   UNL A   1      40.191  36.422  37.835  1.00  0.00     0.059 A 
ATOM     93  C   UNL A   1      38.952  34.771  39.115  1.00  0.00     0.059 A 
ATOM     94  F   UNL A   1      38.665  32.609  38.255  1.00  0.00    -0.206 F 
ATOM     95  C   UNL A   1      39.474  36.056  38.975  1.00  0.00     0.060 A 
BRANCH  95  96
ATOM     96  S   UNL A   1      39.208  37.297  40.259  1.00  0.00     0.124 S 
ATOM     97  O   UNL A   1      38.468  38.321  39.531  1.00  0.00    -0.237 OA
ATOM     98  O   UNL A   1      38.447  36.552  41.257  1.00  0.00    -0.237 OA
ATOM     99  O   UNL A   1      40.562  37.668  40.661  1.00  0.00    -0.744 OA
ENDBRANCH  95  96
ENDBRANCH  63  88
ENDBRANCH  37  38
ENDBRANCH  29  32
ENDBRANCH  27  28
ENDBRANCH   1  27
TORSDOF 17
ENDMDL
