MODEL 1
REMARK VINA RESULT:     -11.4      0.000      0.000
REMARK SMILES CC[NH2+][C@@]1(C(=O)NCCCNC(=O)c2ccc(-c3c4nc(c(-c5c(F)cc(S(=O)(=O)[O-])cc5F)c5ccc([nH]5)c(-c5c(F)cc(S(=O)(=O)[O-])cc5F)c5nc(c(-c6c(F)cc(S(=O)(=O)[O-])cc6F)c6ccc3[nH]6)C=C5)C=C4)cc2)CC[C@H]([NH+]2CCS(=O)(=O)CC2)C1
REMARK SMILES IDX 9 1 8 2 7 3 5 4 6 5 4 7 80 8 91 9 81 10 82 11 3 12 2 15 1 16
REMARK SMILES IDX 83 17 84 18 90 19 85 21 89 22 86 23 87 24 88 25 10 26 11 27
REMARK SMILES IDX 12 28 13 30 14 31 15 32 79 33 16 34 78 35 17 36 18 37 19 38
REMARK SMILES IDX 72 39 20 40 77 41 71 42 73 43 21 44 76 45 70 46 69 47 22 49
REMARK SMILES IDX 56 50 35 51 55 52 36 53 39 54 54 55 74 56 37 57 38 58 53 60
REMARK SMILES IDX 75 61 40 62 23 63 24 64 33 65 25 66 26 67 32 68 34 69 27 70
REMARK SMILES IDX 28 71 29 72 30 73 31 74 57 75 58 76 67 77 59 78 60 79 66 80
REMARK SMILES IDX 68 81 61 82 62 83 63 84 64 85 65 86 41 87 42 88 51 89 43 90
REMARK SMILES IDX 44 91 50 92 52 93 45 94 46 95 47 96 48 97 49 98
REMARK H PARENT 7 6 3 13 3 14 83 20 11 29 73 48 39 59
REMARK Flexibility Score: inf
ROOT
ATOM      1  C   UNL A   1      33.187  28.073  26.930  1.00  0.00     0.042 C 
ENDROOT
BRANCH   1   2
ATOM      2  C   UNL A   1      31.746  28.081  27.452  1.00  0.00     0.118 C 
BRANCH   2   3
ATOM      3  N   UNL A   1      31.017  26.862  27.075  1.00  0.00    -0.351 N 
ATOM      4  C   UNL A   1      30.656  25.999  26.112  1.00  0.00     0.281 C 
ATOM      5  O   UNL A   1      29.892  25.160  26.646  1.00  0.00    -0.268 OA
ATOM      6  H   UNL A   1      30.608  26.526  27.905  1.00  0.00     0.163 HD
BRANCH   4   7
ATOM      7  C   UNL A   1      30.926  25.855  24.503  1.00  0.00     0.181 C 
ATOM      8  C   UNL A   1      30.455  24.682  23.618  1.00  0.00     0.085 C 
ATOM      9  C   UNL A   1      32.473  25.892  24.226  1.00  0.00     0.144 C 
ATOM     10  C   UNL A   1      31.588  24.373  22.621  1.00  0.00     0.072 C 
ATOM     11  C   UNL A   1      32.882  24.647  23.359  1.00  0.00     0.191 C 
BRANCH   7  12
ATOM     12  N   UNL A   1      30.234  27.071  23.905  1.00  0.00    -0.334 N 
ATOM     13  H   UNL A   1      29.944  26.845  22.954  1.00  0.00     0.347 HD
ATOM     14  H   UNL A   1      29.437  27.295  24.500  1.00  0.00     0.347 HD
BRANCH  12  15
ATOM     15  C   UNL A   1      31.109  28.265  23.863  1.00  0.00     0.257 C 
ATOM     16  C   UNL A   1      31.168  28.903  22.488  1.00  0.00     0.071 C 
ENDBRANCH  12  15
ENDBRANCH   7  12
BRANCH  11  17
ATOM     17  N   UNL A   1      33.431  23.484  24.070  1.00  0.00    -0.331 N 
ATOM     18  C   UNL A   1      33.516  23.486  25.532  1.00  0.00     0.278 C 
ATOM     19  C   UNL A   1      34.521  22.761  23.465  1.00  0.00     0.278 C 
ATOM     20  H   UNL A   1      32.593  22.931  23.890  1.00  0.00     0.348 HD
ATOM     21  C   UNL A   1      34.841  23.893  26.175  1.00  0.00     0.198 C 
ATOM     22  C   UNL A   1      35.919  23.254  23.750  1.00  0.00     0.198 C 
ATOM     23  S   UNL A   1      36.255  23.100  25.457  1.00  0.00     0.161 S 
ATOM     24  O   UNL A   1      37.424  23.937  25.720  1.00  0.00    -0.228 OA
ATOM     25  O   UNL A   1      36.255  21.701  25.791  1.00  0.00    -0.228 OA
ENDBRANCH  11  17
ENDBRANCH   4   7
ENDBRANCH   2   3
ENDBRANCH   1   2
BRANCH   1  26
ATOM     26  C   UNL A   1      33.814  29.444  26.677  1.00  0.00     0.118 C 
BRANCH  26  27
ATOM     27  N   UNL A   1      33.705  30.454  27.723  1.00  0.00    -0.352 N 
ATOM     28  C   UNL A   1      34.696  30.919  28.580  1.00  0.00     0.251 C 
ATOM     29  H   UNL A   1      32.815  30.859  27.838  1.00  0.00     0.163 HD
ATOM     30  O   UNL A   1      34.474  31.878  29.313  1.00  0.00    -0.269 OA
BRANCH  28  31
ATOM     31  C   UNL A   1      36.015  30.242  28.632  1.00  0.00     0.039 A 
ATOM     32  C   UNL A   1      36.837  30.216  27.499  1.00  0.00     0.014 A 
ATOM     33  C   UNL A   1      36.472  29.691  29.825  1.00  0.00     0.014 A 
ATOM     34  C   UNL A   1      38.156  29.751  27.603  1.00  0.00     0.010 A 
ATOM     35  C   UNL A   1      37.813  29.366  29.958  1.00  0.00     0.010 A 
ATOM     36  C   UNL A   1      38.679  29.385  28.852  1.00  0.00    -0.014 A 
BRANCH  36  37
ATOM     37  C   UNL A   1      40.096  28.976  29.078  1.00  0.00     0.031 A 
ATOM     38  C   UNL A   1      41.077  30.019  29.555  1.00  0.00     0.074 A 
ATOM     39  C   UNL A   1      40.535  27.755  28.708  1.00  0.00     0.049 A 
ATOM     40  N   UNL A   1      42.382  30.027  29.491  1.00  0.00    -0.248 NA
ATOM     41  C   UNL A   1      40.498  31.263  30.092  1.00  0.00     0.031 C 
ATOM     42  C   UNL A   1      39.707  26.669  28.179  1.00  0.00     0.029 A 
ATOM     43  N   UNL A   1      41.807  27.233  28.690  1.00  0.00    -0.354 N 
ATOM     44  C   UNL A   1      42.770  31.300  29.896  1.00  0.00     0.074 A 
ATOM     45  C   UNL A   1      41.559  32.052  30.141  1.00  0.00     0.031 C 
ATOM     46  C   UNL A   1      40.485  25.606  27.915  1.00  0.00     0.029 A 
ATOM     47  C   UNL A   1      41.874  25.949  28.199  1.00  0.00     0.049 A 
ATOM     48  H   UNL A   1      42.597  27.732  29.001  1.00  0.00     0.167 HD
ATOM     49  C   UNL A   1      44.020  31.789  30.078  1.00  0.00     0.037 A 
ATOM     50  C   UNL A   1      42.937  25.148  27.988  1.00  0.00     0.037 A 
ATOM     51  C   UNL A   1      45.206  30.988  29.947  1.00  0.00     0.049 A 
ATOM     52  C   UNL A   1      44.314  25.672  28.303  1.00  0.00     0.074 A 
ATOM     53  C   UNL A   1      46.518  31.341  30.204  1.00  0.00     0.029 A 
ATOM     54  N   UNL A   1      45.216  29.655  29.561  1.00  0.00    -0.354 N 
ATOM     55  N   UNL A   1      44.666  26.873  28.703  1.00  0.00    -0.248 NA
ATOM     56  C   UNL A   1      45.439  24.739  28.146  1.00  0.00     0.031 C 
ATOM     57  C   UNL A   1      47.323  30.222  29.961  1.00  0.00     0.029 A 
ATOM     58  C   UNL A   1      46.507  29.165  29.588  1.00  0.00     0.049 A 
ATOM     59  H   UNL A   1      44.419  29.135  29.304  1.00  0.00     0.167 HD
ATOM     60  C   UNL A   1      46.044  26.826  28.882  1.00  0.00     0.074 A 
ATOM     61  C   UNL A   1      46.463  25.480  28.547  1.00  0.00     0.031 C 
ATOM     62  C   UNL A   1      46.888  27.807  29.287  1.00  0.00     0.037 A 
BRANCH  49  63
ATOM     63  C   UNL A   1      44.159  33.237  30.469  1.00  0.00     0.058 A 
ATOM     64  C   UNL A   1      44.199  33.641  31.814  1.00  0.00     0.135 A 
ATOM     65  C   UNL A   1      44.260  34.237  29.487  1.00  0.00     0.135 A 
ATOM     66  F   UNL A   1      44.095  32.731  32.797  1.00  0.00    -0.206 F 
ATOM     67  C   UNL A   1      44.280  34.982  32.172  1.00  0.00     0.059 A 
ATOM     68  C   UNL A   1      44.380  35.584  29.822  1.00  0.00     0.059 A 
ATOM     69  F   UNL A   1      44.233  33.912  28.185  1.00  0.00    -0.206 F 
ATOM     70  C   UNL A   1      44.366  35.947  31.168  1.00  0.00     0.060 A 
BRANCH  70  71
ATOM     71  S   UNL A   1      44.466  37.684  31.650  1.00  0.00     0.124 S 
ATOM     72  O   UNL A   1      43.867  38.341  30.492  1.00  0.00    -0.237 OA
ATOM     73  O   UNL A   1      43.671  37.716  32.875  1.00  0.00    -0.237 OA
ATOM     74  O   UNL A   1      45.897  37.906  31.828  1.00  0.00    -0.744 OA
ENDBRANCH  70  71
ENDBRANCH  49  63
BRANCH  50  75
ATOM     75  C   UNL A   1      42.742  23.755  27.499  1.00  0.00     0.058 A 
ATOM     76  C   UNL A   1      42.534  22.704  28.406  1.00  0.00     0.135 A 
ATOM     77  C   UNL A   1      42.736  23.442  26.132  1.00  0.00     0.135 A 
ATOM     78  F   UNL A   1      42.535  22.947  29.725  1.00  0.00    -0.206 F 
ATOM     79  C   UNL A   1      42.343  21.394  27.978  1.00  0.00     0.059 A 
ATOM     80  C   UNL A   1      42.524  22.142  25.676  1.00  0.00     0.059 A 
ATOM     81  F   UNL A   1      42.911  24.412  25.220  1.00  0.00    -0.206 F 
ATOM     82  C   UNL A   1      42.337  21.123  26.609  1.00  0.00     0.060 A 
BRANCH  82  83
ATOM     83  S   UNL A   1      42.034  19.426  26.065  1.00  0.00     0.124 S 
ATOM     84  O   UNL A   1      42.872  19.344  24.875  1.00  0.00    -0.237 OA
ATOM     85  O   UNL A   1      42.482  18.649  27.217  1.00  0.00    -0.237 OA
ATOM     86  O   UNL A   1      40.593  19.404  25.826  1.00  0.00    -0.744 OA
ENDBRANCH  82  83
ENDBRANCH  50  75
BRANCH  62  87
ATOM     87  C   UNL A   1      48.335  27.452  29.463  1.00  0.00     0.058 A 
ATOM     88  C   UNL A   1      49.279  27.674  28.451  1.00  0.00     0.135 A 
ATOM     89  C   UNL A   1      48.794  26.969  30.700  1.00  0.00     0.135 A 
ATOM     90  F   UNL A   1      48.888  28.130  27.250  1.00  0.00    -0.206 F 
ATOM     91  C   UNL A   1      50.631  27.424  28.655  1.00  0.00     0.059 A 
ATOM     92  C   UNL A   1      50.143  26.735  30.934  1.00  0.00     0.059 A 
ATOM     93  F   UNL A   1      47.929  26.750  31.704  1.00  0.00    -0.206 F 
ATOM     94  C   UNL A   1      51.055  26.961  29.904  1.00  0.00     0.060 A 
BRANCH  94  95
ATOM     95  S   UNL A   1      52.820  26.702  30.177  1.00  0.00     0.124 S 
ATOM     96  O   UNL A   1      53.268  28.054  30.496  1.00  0.00    -0.237 OA
ATOM     97  O   UNL A   1      52.828  25.754  31.286  1.00  0.00    -0.237 OA
ATOM     98  O   UNL A   1      53.288  26.170  28.902  1.00  0.00    -0.744 OA
ENDBRANCH  94  95
ENDBRANCH  62  87
ENDBRANCH  36  37
ENDBRANCH  28  31
ENDBRANCH  26  27
ENDBRANCH   1  26
TORSDOF 16
ENDMDL
MODEL 2
REMARK VINA RESULT:     -11.3      5.322     10.813
REMARK SMILES CC[NH2+][C@@]1(C(=O)NCCCNC(=O)c2ccc(-c3c4nc(c(-c5c(F)cc(S(=O)(=O)[O-])cc5F)c5ccc([nH]5)c(-c5c(F)cc(S(=O)(=O)[O-])cc5F)c5nc(c(-c6c(F)cc(S(=O)(=O)[O-])cc6F)c6ccc3[nH]6)C=C5)C=C4)cc2)CC[C@H]([NH+]2CCS(=O)(=O)CC2)C1
REMARK SMILES IDX 9 1 8 2 7 3 5 4 6 5 4 7 80 8 91 9 81 10 82 11 3 12 2 15 1 16
REMARK SMILES IDX 83 17 84 18 90 19 85 21 89 22 86 23 87 24 88 25 10 26 11 27
REMARK SMILES IDX 12 28 13 30 14 31 15 32 79 33 16 34 78 35 17 36 18 37 19 38
REMARK SMILES IDX 72 39 20 40 77 41 71 42 73 43 21 44 76 45 70 46 69 47 22 49
REMARK SMILES IDX 56 50 35 51 55 52 36 53 39 54 54 55 74 56 37 57 38 58 53 60
REMARK SMILES IDX 75 61 40 62 23 63 24 64 33 65 25 66 26 67 32 68 34 69 27 70
REMARK SMILES IDX 28 71 29 72 30 73 31 74 57 75 58 76 67 77 59 78 60 79 66 80
REMARK SMILES IDX 68 81 61 82 62 83 63 84 64 85 65 86 41 87 42 88 51 89 43 90
REMARK SMILES IDX 44 91 50 92 52 93 45 94 46 95 47 96 48 97 49 98
REMARK H PARENT 7 6 3 13 3 14 83 20 11 29 73 48 39 59
REMARK Flexibility Score: inf
ROOT
ATOM      1  C   UNL A   1      37.175  23.298  25.273  1.00  0.00     0.042 C 
ENDROOT
BRANCH   1   2
ATOM      2  C   UNL A   1      36.876  21.824  25.566  1.00  0.00     0.118 C 
BRANCH   2   3
ATOM      3  N   UNL A   1      35.673  21.659  26.394  1.00  0.00    -0.351 N 
ATOM      4  C   UNL A   1      34.346  21.462  26.454  1.00  0.00     0.281 C 
ATOM      5  O   UNL A   1      34.028  21.508  27.666  1.00  0.00    -0.268 OA
ATOM      6  H   UNL A   1      35.978  21.723  27.327  1.00  0.00     0.163 HD
BRANCH   4   7
ATOM      7  C   UNL A   1      33.140  21.253  25.366  1.00  0.00     0.181 C 
ATOM      8  C   UNL A   1      33.322  21.157  23.836  1.00  0.00     0.085 C 
ATOM      9  C   UNL A   1      32.095  22.417  25.512  1.00  0.00     0.144 C 
ATOM     10  C   UNL A   1      32.156  21.924  23.184  1.00  0.00     0.072 C 
ATOM     11  C   UNL A   1      31.846  23.082  24.110  1.00  0.00     0.191 C 
BRANCH   7  12
ATOM     12  N   UNL A   1      32.528  19.914  25.751  1.00  0.00    -0.334 N 
ATOM     13  H   UNL A   1      32.526  19.838  26.768  1.00  0.00     0.347 HD
ATOM     14  H   UNL A   1      31.584  19.886  25.368  1.00  0.00     0.347 HD
BRANCH  12  15
ATOM     15  C   UNL A   1      33.272  18.763  25.191  1.00  0.00     0.257 C 
ATOM     16  C   UNL A   1      32.366  17.612  24.797  1.00  0.00     0.071 C 
ENDBRANCH  12  15
ENDBRANCH   7  12
BRANCH  11  17
ATOM     17  N   UNL A   1      32.591  24.312  23.809  1.00  0.00    -0.331 N 
ATOM     18  C   UNL A   1      33.576  24.830  24.761  1.00  0.00     0.278 C 
ATOM     19  C   UNL A   1      31.912  25.370  23.104  1.00  0.00     0.278 C 
ATOM     20  H   UNL A   1      33.169  23.838  23.115  1.00  0.00     0.348 HD
ATOM     21  C   UNL A   1      33.131  25.916  25.739  1.00  0.00     0.198 C 
ATOM     22  C   UNL A   1      31.135  26.365  23.931  1.00  0.00     0.198 C 
ATOM     23  S   UNL A   1      32.231  27.239  24.974  1.00  0.00     0.161 S 
ATOM     24  O   UNL A   1      31.403  27.873  25.997  1.00  0.00    -0.228 OA
ATOM     25  O   UNL A   1      33.113  28.018  24.147  1.00  0.00    -0.228 OA
ENDBRANCH  11  17
ENDBRANCH   4   7
ENDBRANCH   2   3
ENDBRANCH   1   2
BRANCH   1  26
ATOM     26  C   UNL A   1      38.116  23.997  26.255  1.00  0.00     0.118 C 
BRANCH  26  27
ATOM     27  N   UNL A   1      39.548  23.757  26.126  1.00  0.00    -0.352 N 
ATOM     28  C   UNL A   1      40.592  24.380  26.799  1.00  0.00     0.251 C 
ATOM     29  H   UNL A   1      39.810  23.064  25.477  1.00  0.00     0.163 HD
ATOM     30  O   UNL A   1      41.738  23.962  26.677  1.00  0.00    -0.269 OA
BRANCH  28  31
ATOM     31  C   UNL A   1      40.328  25.570  27.646  1.00  0.00     0.039 A 
ATOM     32  C   UNL A   1      39.395  25.499  28.687  1.00  0.00     0.014 A 
ATOM     33  C   UNL A   1      41.056  26.740  27.454  1.00  0.00     0.014 A 
ATOM     34  C   UNL A   1      39.289  26.554  29.605  1.00  0.00     0.010 A 
ATOM     35  C   UNL A   1      41.051  27.717  28.438  1.00  0.00     0.010 A 
ATOM     36  C   UNL A   1      40.167  27.647  29.527  1.00  0.00    -0.014 A 
BRANCH  36  37
ATOM     37  C   UNL A   1      40.197  28.764  30.515  1.00  0.00     0.031 A 
ATOM     38  C   UNL A   1      41.138  28.659  31.691  1.00  0.00     0.074 A 
ATOM     39  C   UNL A   1      39.296  29.767  30.460  1.00  0.00     0.049 A 
ATOM     40  N   UNL A   1      41.112  29.285  32.838  1.00  0.00    -0.248 NA
ATOM     41  C   UNL A   1      42.194  27.637  31.593  1.00  0.00     0.031 C 
ATOM     42  C   UNL A   1      38.293  29.962  29.411  1.00  0.00     0.029 A 
ATOM     43  N   UNL A   1      39.056  30.799  31.335  1.00  0.00    -0.354 N 
ATOM     44  C   UNL A   1      42.087  28.674  33.620  1.00  0.00     0.074 A 
ATOM     45  C   UNL A   1      42.638  27.590  32.839  1.00  0.00     0.031 C 
ATOM     46  C   UNL A   1      37.567  31.058  29.689  1.00  0.00     0.029 A 
ATOM     47  C   UNL A   1      38.010  31.612  30.963  1.00  0.00     0.049 A 
ATOM     48  H   UNL A   1      39.584  30.943  32.154  1.00  0.00     0.167 HD
ATOM     49  C   UNL A   1      42.507  29.006  34.864  1.00  0.00     0.037 A 
ATOM     50  C   UNL A   1      37.462  32.674  31.588  1.00  0.00     0.037 A 
ATOM     51  C   UNL A   1      42.033  30.163  35.575  1.00  0.00     0.049 A 
ATOM     52  C   UNL A   1      38.019  33.097  32.922  1.00  0.00     0.074 A 
ATOM     53  C   UNL A   1      42.455  30.660  36.793  1.00  0.00     0.029 A 
ATOM     54  N   UNL A   1      41.053  31.027  35.104  1.00  0.00    -0.354 N 
ATOM     55  N   UNL A   1      38.953  32.521  33.643  1.00  0.00    -0.248 NA
ATOM     56  C   UNL A   1      37.456  34.312  33.528  1.00  0.00     0.031 C 
ATOM     57  C   UNL A   1      41.721  31.820  37.065  1.00  0.00     0.029 A 
ATOM     58  C   UNL A   1      40.869  32.063  35.999  1.00  0.00     0.049 A 
ATOM     59  H   UNL A   1      40.562  30.917  34.257  1.00  0.00     0.167 HD
ATOM     60  C   UNL A   1      39.116  33.325  34.766  1.00  0.00     0.074 A 
ATOM     61  C   UNL A   1      38.185  34.427  34.630  1.00  0.00     0.031 C 
ATOM     62  C   UNL A   1      39.961  33.168  35.816  1.00  0.00     0.037 A 
BRANCH  49  63
ATOM     63  C   UNL A   1      43.549  28.132  35.511  1.00  0.00     0.058 A 
ATOM     64  C   UNL A   1      44.923  28.333  35.296  1.00  0.00     0.135 A 
ATOM     65  C   UNL A   1      43.172  27.081  36.364  1.00  0.00     0.135 A 
ATOM     66  F   UNL A   1      45.344  29.314  34.482  1.00  0.00    -0.206 F 
ATOM     67  C   UNL A   1      45.880  27.494  35.858  1.00  0.00     0.059 A 
ATOM     68  C   UNL A   1      44.114  26.252  36.968  1.00  0.00     0.059 A 
ATOM     69  F   UNL A   1      41.874  26.844  36.612  1.00  0.00    -0.206 F 
ATOM     70  C   UNL A   1      45.465  26.454  36.690  1.00  0.00     0.060 A 
BRANCH  70  71
ATOM     71  S   UNL A   1      46.721  25.372  37.407  1.00  0.00     0.124 S 
ATOM     72  O   UNL A   1      47.656  25.238  36.294  1.00  0.00    -0.237 OA
ATOM     73  O   UNL A   1      47.198  26.155  38.543  1.00  0.00    -0.237 OA
ATOM     74  O   UNL A   1      45.974  24.166  37.749  1.00  0.00    -0.744 OA
ENDBRANCH  70  71
ENDBRANCH  49  63
BRANCH  50  75
ATOM     75  C   UNL A   1      36.360  33.439  30.941  1.00  0.00     0.058 A 
ATOM     76  C   UNL A   1      35.068  33.428  31.488  1.00  0.00     0.135 A 
ATOM     77  C   UNL A   1      36.569  34.209  29.787  1.00  0.00     0.135 A 
ATOM     78  F   UNL A   1      34.813  32.703  32.588  1.00  0.00    -0.206 F 
ATOM     79  C   UNL A   1      34.020  34.137  30.910  1.00  0.00     0.059 A 
ATOM     80  C   UNL A   1      35.542  34.947  29.202  1.00  0.00     0.059 A 
ATOM     81  F   UNL A   1      37.789  34.272  29.232  1.00  0.00    -0.206 F 
ATOM     82  C   UNL A   1      34.267  34.898  29.766  1.00  0.00     0.060 A 
BRANCH  82  83
ATOM     83  S   UNL A   1      32.911  35.857  29.056  1.00  0.00     0.124 S 
ATOM     84  O   UNL A   1      32.278  34.873  28.186  1.00  0.00    -0.237 OA
ATOM     85  O   UNL A   1      32.153  36.243  30.242  1.00  0.00    -0.237 OA
ATOM     86  O   UNL A   1      33.596  36.953  28.376  1.00  0.00    -0.744 OA
ENDBRANCH  82  83
ENDBRANCH  50  75
BRANCH  62  87
ATOM     87  C   UNL A   1      39.974  34.240  36.865  1.00  0.00     0.058 A 
ATOM     88  C   UNL A   1      40.757  35.395  36.731  1.00  0.00     0.135 A 
ATOM     89  C   UNL A   1      39.116  34.148  37.974  1.00  0.00     0.135 A 
ATOM     90  F   UNL A   1      41.596  35.527  35.692  1.00  0.00    -0.206 F 
ATOM     91  C   UNL A   1      40.695  36.424  37.666  1.00  0.00     0.059 A 
ATOM     92  C   UNL A   1      39.020  35.174  38.906  1.00  0.00     0.059 A 
ATOM     93  F   UNL A   1      38.339  33.066  38.139  1.00  0.00    -0.206 F 
ATOM     94  C   UNL A   1      39.817  36.306  38.747  1.00  0.00     0.060 A 
BRANCH  94  95
ATOM     95  S   UNL A   1      39.698  37.675  39.917  1.00  0.00     0.124 S 
ATOM     96  O   UNL A   1      39.688  36.969  41.194  1.00  0.00    -0.237 OA
ATOM     97  O   UNL A   1      40.906  38.440  39.626  1.00  0.00    -0.237 OA
ATOM     98  O   UNL A   1      38.446  38.328  39.550  1.00  0.00    -0.744 OA
ENDBRANCH  94  95
ENDBRANCH  62  87
ENDBRANCH  36  37
ENDBRANCH  28  31
ENDBRANCH  26  27
ENDBRANCH   1  26
TORSDOF 16
ENDMDL
MODEL 3
REMARK VINA RESULT:     -11.3      4.817     11.297
REMARK SMILES CC[NH2+][C@@]1(C(=O)NCCCNC(=O)c2ccc(-c3c4nc(c(-c5c(F)cc(S(=O)(=O)[O-])cc5F)c5ccc([nH]5)c(-c5c(F)cc(S(=O)(=O)[O-])cc5F)c5nc(c(-c6c(F)cc(S(=O)(=O)[O-])cc6F)c6ccc3[nH]6)C=C5)C=C4)cc2)CC[C@H]([NH+]2CCS(=O)(=O)CC2)C1
REMARK SMILES IDX 9 1 8 2 7 3 5 4 6 5 4 7 80 8 91 9 81 10 82 11 3 12 2 15 1 16
REMARK SMILES IDX 83 17 84 18 90 19 85 21 89 22 86 23 87 24 88 25 10 26 11 27
REMARK SMILES IDX 12 28 13 30 14 31 15 32 79 33 16 34 78 35 17 36 18 37 19 38
REMARK SMILES IDX 72 39 20 40 77 41 71 42 73 43 21 44 76 45 70 46 69 47 22 49
REMARK SMILES IDX 56 50 35 51 55 52 36 53 39 54 54 55 74 56 37 57 38 58 53 60
REMARK SMILES IDX 75 61 40 62 23 63 24 64 33 65 25 66 26 67 32 68 34 69 27 70
REMARK SMILES IDX 28 71 29 72 30 73 31 74 57 75 58 76 67 77 59 78 60 79 66 80
REMARK SMILES IDX 68 81 61 82 62 83 63 84 64 85 65 86 41 87 42 88 51 89 43 90
REMARK SMILES IDX 44 91 50 92 52 93 45 94 46 95 47 96 48 97 49 98
REMARK H PARENT 7 6 3 13 3 14 83 20 11 29 73 48 39 59
REMARK Flexibility Score: inf
ROOT
ATOM      1  C   UNL A   1      40.655  20.139  26.194  1.00  0.00     0.042 C 
ENDROOT
BRANCH   1   2
ATOM      2  C   UNL A   1      42.168  19.902  26.165  1.00  0.00     0.118 C 
BRANCH   2   3
ATOM      3  N   UNL A   1      42.876  20.951  25.418  1.00  0.00    -0.351 N 
ATOM      4  C   UNL A   1      43.577  22.096  25.444  1.00  0.00     0.281 C 
ATOM      5  O   UNL A   1      43.793  22.415  24.251  1.00  0.00    -0.268 OA
ATOM      6  H   UNL A   1      42.804  20.701  24.470  1.00  0.00     0.163 HD
BRANCH   4   7
ATOM      7  C   UNL A   1      44.114  23.118  26.606  1.00  0.00     0.181 C 
ATOM      8  C   UNL A   1      43.638  24.572  26.807  1.00  0.00     0.085 C 
ATOM      9  C   UNL A   1      45.671  23.282  26.480  1.00  0.00     0.144 C 
ATOM     10  C   UNL A   1      44.874  25.414  27.179  1.00  0.00     0.072 C 
ATOM     11  C   UNL A   1      46.037  24.810  26.419  1.00  0.00     0.191 C 
BRANCH   7  12
ATOM     12  N   UNL A   1      43.739  22.422  27.907  1.00  0.00    -0.334 N 
ATOM     13  H   UNL A   1      42.723  22.423  27.995  1.00  0.00     0.347 HD
ATOM     14  H   UNL A   1      44.115  21.475  27.869  1.00  0.00     0.347 HD
BRANCH  12  15
ATOM     15  C   UNL A   1      44.319  23.085  29.097  1.00  0.00     0.257 C 
ATOM     16  C   UNL A   1      43.382  23.077  30.290  1.00  0.00     0.071 C 
ENDBRANCH  12  15
ENDBRANCH   7  12
BRANCH  11  17
ATOM     17  N   UNL A   1      46.258  25.394  25.089  1.00  0.00    -0.331 N 
ATOM     18  C   UNL A   1      47.408  24.980  24.283  1.00  0.00     0.278 C 
ATOM     19  C   UNL A   1      45.927  26.782  24.886  1.00  0.00     0.278 C 
ATOM     20  H   UNL A   1      45.489  24.860  24.684  1.00  0.00     0.348 HD
ATOM     21  C   UNL A   1      48.672  25.837  24.336  1.00  0.00     0.198 C 
ATOM     22  C   UNL A   1      46.991  27.802  25.213  1.00  0.00     0.198 C 
ATOM     23  S   UNL A   1      48.362  27.574  24.155  1.00  0.00     0.161 S 
ATOM     24  O   UNL A   1      49.475  28.297  24.767  1.00  0.00    -0.228 OA
ATOM     25  O   UNL A   1      47.943  27.860  22.809  1.00  0.00    -0.228 OA
ENDBRANCH  11  17
ENDBRANCH   4   7
ENDBRANCH   2   3
ENDBRANCH   1   2
BRANCH   1  26
ATOM     26  C   UNL A   1      40.207  21.555  26.557  1.00  0.00     0.118 C 
BRANCH  26  27
ATOM     27  N   UNL A   1      39.010  22.085  25.915  1.00  0.00    -0.352 N 
ATOM     28  C   UNL A   1      38.562  23.400  25.876  1.00  0.00     0.251 C 
ATOM     29  H   UNL A   1      38.446  21.426  25.450  1.00  0.00     0.163 HD
ATOM     30  O   UNL A   1      37.605  23.702  25.171  1.00  0.00    -0.269 OA
BRANCH  28  31
ATOM     31  C   UNL A   1      39.220  24.438  26.708  1.00  0.00     0.039 A 
ATOM     32  C   UNL A   1      40.066  25.382  26.114  1.00  0.00     0.014 A 
ATOM     33  C   UNL A   1      38.946  24.521  28.070  1.00  0.00     0.014 A 
ATOM     34  C   UNL A   1      40.529  26.474  26.862  1.00  0.00     0.010 A 
ATOM     35  C   UNL A   1      39.287  25.670  28.766  1.00  0.00     0.010 A 
ATOM     36  C   UNL A   1      40.087  26.664  28.180  1.00  0.00    -0.014 A 
BRANCH  36  37
ATOM     37  C   UNL A   1      40.444  27.846  29.018  1.00  0.00     0.031 A 
ATOM     38  C   UNL A   1      41.702  27.784  29.850  1.00  0.00     0.074 A 
ATOM     39  C   UNL A   1      39.588  28.879  29.165  1.00  0.00     0.049 A 
ATOM     40  N   UNL A   1      42.046  28.490  30.895  1.00  0.00    -0.248 NA
ATOM     41  C   UNL A   1      42.656  26.714  29.511  1.00  0.00     0.031 C 
ATOM     42  C   UNL A   1      38.312  29.042  28.466  1.00  0.00     0.029 A 
ATOM     43  N   UNL A   1      39.651  29.979  29.987  1.00  0.00    -0.354 N 
ATOM     44  C   UNL A   1      43.206  27.895  31.383  1.00  0.00     0.074 A 
ATOM     45  C   UNL A   1      43.466  26.737  30.558  1.00  0.00     0.031 C 
ATOM     46  C   UNL A   1      37.728  30.184  28.867  1.00  0.00     0.029 A 
ATOM     47  C   UNL A   1      38.556  30.807  29.893  1.00  0.00     0.049 A 
ATOM     48  H   UNL A   1      40.411  30.158  30.588  1.00  0.00     0.167 HD
ATOM     49  C   UNL A   1      43.998  28.295  32.405  1.00  0.00     0.037 A 
ATOM     50  C   UNL A   1      38.249  31.932  30.571  1.00  0.00     0.037 A 
ATOM     51  C   UNL A   1      43.789  29.517  33.134  1.00  0.00     0.049 A 
ATOM     52  C   UNL A   1      39.202  32.424  31.629  1.00  0.00     0.074 A 
ATOM     53  C   UNL A   1      44.579  30.081  34.118  1.00  0.00     0.029 A 
ATOM     54  N   UNL A   1      42.728  30.386  32.922  1.00  0.00    -0.354 N 
ATOM     55  N   UNL A   1      40.304  31.861  32.070  1.00  0.00    -0.248 NA
ATOM     56  C   UNL A   1      38.878  33.700  32.281  1.00  0.00     0.031 C 
ATOM     57  C   UNL A   1      43.988  31.286  34.511  1.00  0.00     0.029 A 
ATOM     58  C   UNL A   1      42.850  31.489  33.745  1.00  0.00     0.049 A 
ATOM     59  H   UNL A   1      41.995  30.238  32.280  1.00  0.00     0.167 HD
ATOM     60  C   UNL A   1      40.823  32.734  33.019  1.00  0.00     0.074 A 
ATOM     61  C   UNL A   1      39.915  33.861  33.091  1.00  0.00     0.031 C 
ATOM     62  C   UNL A   1      41.950  32.615  33.765  1.00  0.00     0.037 A 
BRANCH  49  63
ATOM     63  C   UNL A   1      45.174  27.426  32.766  1.00  0.00     0.058 A 
ATOM     64  C   UNL A   1      45.061  26.371  33.688  1.00  0.00     0.135 A 
ATOM     65  C   UNL A   1      46.432  27.642  32.178  1.00  0.00     0.135 A 
ATOM     66  F   UNL A   1      43.887  26.122  34.290  1.00  0.00    -0.206 F 
ATOM     67  C   UNL A   1      46.159  25.599  34.053  1.00  0.00     0.059 A 
ATOM     68  C   UNL A   1      47.537  26.859  32.501  1.00  0.00     0.059 A 
ATOM     69  F   UNL A   1      46.600  28.631  31.287  1.00  0.00    -0.206 F 
ATOM     70  C   UNL A   1      47.394  25.854  33.457  1.00  0.00     0.060 A 
BRANCH  70  71
ATOM     71  S   UNL A   1      48.810  24.846  33.947  1.00  0.00     0.124 S 
ATOM     72  O   UNL A   1      48.154  23.621  34.393  1.00  0.00    -0.237 OA
ATOM     73  O   UNL A   1      49.566  24.741  32.702  1.00  0.00    -0.237 OA
ATOM     74  O   UNL A   1      49.443  25.638  34.997  1.00  0.00    -0.744 OA
ENDBRANCH  70  71
ENDBRANCH  49  63
BRANCH  50  75
ATOM     75  C   UNL A   1      37.014  32.695  30.238  1.00  0.00     0.058 A 
ATOM     76  C   UNL A   1      37.018  33.640  29.201  1.00  0.00     0.135 A 
ATOM     77  C   UNL A   1      35.807  32.488  30.923  1.00  0.00     0.135 A 
ATOM     78  F   UNL A   1      38.147  33.880  28.518  1.00  0.00    -0.206 F 
ATOM     79  C   UNL A   1      35.878  34.363  28.864  1.00  0.00     0.059 A 
ATOM     80  C   UNL A   1      34.646  33.182  30.589  1.00  0.00     0.059 A 
ATOM     81  F   UNL A   1      35.741  31.581  31.911  1.00  0.00    -0.206 F 
ATOM     82  C   UNL A   1      34.694  34.125  29.563  1.00  0.00     0.060 A 
BRANCH  82  83
ATOM     83  S   UNL A   1      33.208  35.032  29.080  1.00  0.00     0.124 S 
ATOM     84  O   UNL A   1      33.774  36.271  28.560  1.00  0.00    -0.237 OA
ATOM     85  O   UNL A   1      32.610  34.139  28.093  1.00  0.00    -0.237 OA
ATOM     86  O   UNL A   1      32.467  35.153  30.333  1.00  0.00    -0.744 OA
ENDBRANCH  82  83
ENDBRANCH  50  75
BRANCH  62  87
ATOM     87  C   UNL A   1      42.309  33.757  34.670  1.00  0.00     0.058 A 
ATOM     88  C   UNL A   1      41.939  33.772  36.022  1.00  0.00     0.135 A 
ATOM     89  C   UNL A   1      43.116  34.804  34.194  1.00  0.00     0.135 A 
ATOM     90  F   UNL A   1      41.165  32.797  36.523  1.00  0.00    -0.206 F 
ATOM     91  C   UNL A   1      42.353  34.791  36.873  1.00  0.00     0.059 A 
ATOM     92  C   UNL A   1      43.560  35.819  35.031  1.00  0.00     0.059 A 
ATOM     93  F   UNL A   1      43.504  34.827  32.908  1.00  0.00    -0.206 F 
ATOM     94  C   UNL A   1      43.169  35.807  36.369  1.00  0.00     0.060 A 
BRANCH  94  95
ATOM     95  S   UNL A   1      43.753  37.089  37.499  1.00  0.00     0.124 S 
ATOM     96  O   UNL A   1      42.572  37.307  38.329  1.00  0.00    -0.237 OA
ATOM     97  O   UNL A   1      44.879  36.435  38.158  1.00  0.00    -0.237 OA
ATOM     98  O   UNL A   1      44.108  38.190  36.609  1.00  0.00    -0.744 OA
ENDBRANCH  94  95
ENDBRANCH  62  87
ENDBRANCH  36  37
ENDBRANCH  28  31
ENDBRANCH  26  27
ENDBRANCH   1  26
TORSDOF 16
ENDMDL
