MODEL 1
REMARK VINA RESULT:     -11.3      0.000      0.000
REMARK SMILES C[C@@H](O)[C@@H](NC(=O)Nc1ccc(F)cc1F)C(=O)NCCCNC(=O)c1ccc(-c2c3nc(c(-c4c(F)cc(S(=O)(=O)[O-])cc4F)c4ccc([nH]4)c(-c4c(F)cc(S(=O)(=O)[O-])cc4F)c4nc(c(-c5c(F)cc(S(=O)(=O)[O-])cc5F)c5ccc2[nH]5)C=C4)C=C3)cc1
REMARK SMILES IDX 21 1 20 2 19 3 17 4 18 5 4 7 2 8 1 9 3 10 5 12 6 13 7 15
REMARK SMILES IDX 8 16 9 18 10 19 15 20 11 21 14 22 16 23 12 24 13 25 22 26
REMARK SMILES IDX 23 27 24 28 25 30 26 31 27 32 91 33 28 34 90 35 29 36 30 37
REMARK SMILES IDX 31 38 84 39 32 40 89 41 83 42 85 43 33 44 88 45 82 46 81 47
REMARK SMILES IDX 34 49 68 50 47 51 67 52 48 53 51 54 66 55 86 56 49 57 50 58
REMARK SMILES IDX 65 60 87 61 52 62 35 63 36 64 45 65 37 66 38 67 44 68 46 69
REMARK SMILES IDX 39 70 40 71 41 72 42 73 43 74 69 75 70 76 79 77 71 78 72 79
REMARK SMILES IDX 78 80 80 81 73 82 74 83 75 84 76 85 77 86 53 87 54 88 63 89
REMARK SMILES IDX 55 90 56 91 62 92 64 93 57 94 58 95 59 96 60 97 61 98
REMARK H PARENT 19 6 3 11 5 14 8 17 23 29 85 48 51 59
REMARK Flexibility Score: inf
ROOT
ATOM      1  C   UNL A   1      32.762  28.131  26.055  1.00  0.00     0.042 C 
ENDROOT
BRANCH   1   2
ATOM      2  C   UNL A   1      32.912  29.173  24.950  1.00  0.00     0.117 C 
BRANCH   2   3
ATOM      3  N   UNL A   1      31.663  29.296  24.230  1.00  0.00    -0.354 N 
ATOM      4  C   UNL A   1      31.476  28.765  22.984  1.00  0.00     0.245 C 
ATOM      5  O   UNL A   1      31.436  29.511  22.005  1.00  0.00    -0.273 OA
ATOM      6  H   UNL A   1      30.920  29.781  24.655  1.00  0.00     0.163 HD
BRANCH   4   7
ATOM      7  C   UNL A   1      31.391  27.237  22.849  1.00  0.00     0.201 C 
BRANCH   7   8
ATOM      8  C   UNL A   1      29.925  26.874  23.203  1.00  0.00     0.143 C 
ATOM      9  C   UNL A   1      29.694  26.524  24.666  1.00  0.00     0.041 C 
BRANCH   8  10
ATOM     10  O   UNL A   1      29.076  28.003  22.930  1.00  0.00    -0.391 OA
ATOM     11  H   UNL A   1      29.625  28.781  22.740  1.00  0.00     0.211 HD
ENDBRANCH   8  10
ENDBRANCH   7   8
BRANCH   7  12
ATOM     12  N   UNL A   1      31.896  26.761  21.551  1.00  0.00    -0.323 N 
ATOM     13  C   UNL A   1      32.638  25.684  21.198  1.00  0.00     0.320 C 
ATOM     14  H   UNL A   1      31.648  27.337  20.792  1.00  0.00     0.166 HD
ATOM     15  O   UNL A   1      32.982  25.600  20.015  1.00  0.00    -0.248 OA
ATOM     16  N   UNL A   1      33.174  24.827  22.100  1.00  0.00    -0.305 N 
ATOM     17  H   UNL A   1      34.024  24.420  21.815  1.00  0.00     0.171 HD
BRANCH  16  18
ATOM     18  C   UNL A   1      32.737  24.415  23.367  1.00  0.00     0.079 A 
ATOM     19  C   UNL A   1      31.626  23.590  23.530  1.00  0.00     0.032 A 
ATOM     20  C   UNL A   1      33.406  24.905  24.501  1.00  0.00     0.149 A 
ATOM     21  C   UNL A   1      31.117  23.367  24.811  1.00  0.00     0.041 A 
ATOM     22  C   UNL A   1      32.890  24.708  25.775  1.00  0.00     0.080 A 
ATOM     23  F   UNL A   1      34.470  25.709  24.348  1.00  0.00    -0.205 F 
ATOM     24  C   UNL A   1      31.734  23.953  25.915  1.00  0.00     0.126 A 
ATOM     25  F   UNL A   1      31.194  23.791  27.129  1.00  0.00    -0.207 F 
ENDBRANCH  16  18
ENDBRANCH   7  12
ENDBRANCH   4   7
ENDBRANCH   2   3
ENDBRANCH   1   2
BRANCH   1  26
ATOM     26  C   UNL A   1      33.502  28.502  27.340  1.00  0.00     0.118 C 
BRANCH  26  27
ATOM     27  N   UNL A   1      33.433  29.931  27.630  1.00  0.00    -0.352 N 
ATOM     28  C   UNL A   1      34.397  30.727  28.201  1.00  0.00     0.251 C 
ATOM     29  H   UNL A   1      32.591  30.380  27.387  1.00  0.00     0.163 HD
ATOM     30  O   UNL A   1      34.144  31.862  28.566  1.00  0.00    -0.269 OA
BRANCH  28  31
ATOM     31  C   UNL A   1      35.741  30.149  28.374  1.00  0.00     0.039 A 
ATOM     32  C   UNL A   1      36.640  30.191  27.310  1.00  0.00     0.014 A 
ATOM     33  C   UNL A   1      36.127  29.675  29.632  1.00  0.00     0.014 A 
ATOM     34  C   UNL A   1      37.963  29.810  27.528  1.00  0.00     0.010 A 
ATOM     35  C   UNL A   1      37.461  29.376  29.865  1.00  0.00     0.010 A 
ATOM     36  C   UNL A   1      38.391  29.438  28.816  1.00  0.00    -0.014 A 
BRANCH  36  37
ATOM     37  C   UNL A   1      39.809  29.104  29.086  1.00  0.00     0.031 A 
ATOM     38  C   UNL A   1      40.715  30.143  29.689  1.00  0.00     0.074 A 
ATOM     39  C   UNL A   1      40.289  27.895  28.735  1.00  0.00     0.049 A 
ATOM     40  N   UNL A   1      41.996  30.071  29.942  1.00  0.00    -0.248 NA
ATOM     41  C   UNL A   1      40.108  31.442  30.022  1.00  0.00     0.031 C 
ATOM     42  C   UNL A   1      39.514  26.830  28.096  1.00  0.00     0.029 A 
ATOM     43  N   UNL A   1      41.545  27.359  28.861  1.00  0.00    -0.354 N 
ATOM     44  C   UNL A   1      42.348  31.315  30.451  1.00  0.00     0.074 A 
ATOM     45  C   UNL A   1      41.162  32.141  30.415  1.00  0.00     0.031 C 
ATOM     46  C   UNL A   1      40.302  25.757  27.915  1.00  0.00     0.029 A 
ATOM     47  C   UNL A   1      41.647  26.071  28.388  1.00  0.00     0.049 A 
ATOM     48  H   UNL A   1      42.304  27.850  29.252  1.00  0.00     0.167 HD
ATOM     49  C   UNL A   1      43.545  31.720  30.934  1.00  0.00     0.037 A 
ATOM     50  C   UNL A   1      42.706  25.239  28.341  1.00  0.00     0.037 A 
ATOM     51  C   UNL A   1      44.710  30.878  30.993  1.00  0.00     0.049 A 
ATOM     52  C   UNL A   1      44.028  25.712  28.885  1.00  0.00     0.074 A 
ATOM     53  C   UNL A   1      45.958  31.174  31.512  1.00  0.00     0.029 A 
ATOM     54  N   UNL A   1      44.770  29.576  30.519  1.00  0.00    -0.354 N 
ATOM     55  N   UNL A   1      44.330  26.874  29.415  1.00  0.00    -0.248 NA
ATOM     56  C   UNL A   1      45.148  24.765  28.830  1.00  0.00     0.031 C 
ATOM     57  C   UNL A   1      46.785  30.063  31.314  1.00  0.00     0.029 A 
ATOM     58  C   UNL A   1      46.039  29.059  30.717  1.00  0.00     0.049 A 
ATOM     59  H   UNL A   1      44.021  29.091  30.103  1.00  0.00     0.167 HD
ATOM     60  C   UNL A   1      45.670  26.790  29.777  1.00  0.00     0.074 A 
ATOM     61  C   UNL A   1      46.115  25.458  29.417  1.00  0.00     0.031 C 
ATOM     62  C   UNL A   1      46.460  27.728  30.355  1.00  0.00     0.037 A 
BRANCH  49  63
ATOM     63  C   UNL A   1      43.650  33.129  31.450  1.00  0.00     0.058 A 
ATOM     64  C   UNL A   1      44.065  34.171  30.605  1.00  0.00     0.135 A 
ATOM     65  C   UNL A   1      43.377  33.442  32.790  1.00  0.00     0.135 A 
ATOM     66  F   UNL A   1      44.334  33.927  29.313  1.00  0.00    -0.206 F 
ATOM     67  C   UNL A   1      44.212  35.474  31.071  1.00  0.00     0.059 A 
ATOM     68  C   UNL A   1      43.489  34.742  33.272  1.00  0.00     0.059 A 
ATOM     69  F   UNL A   1      42.956  32.489  33.637  1.00  0.00    -0.206 F 
ATOM     70  C   UNL A   1      43.911  35.752  32.404  1.00  0.00     0.060 A 
BRANCH  70  71
ATOM     71  S   UNL A   1      44.065  37.429  33.051  1.00  0.00     0.124 S 
ATOM     72  O   UNL A   1      45.387  37.383  33.668  1.00  0.00    -0.237 OA
ATOM     73  O   UNL A   1      43.959  38.238  31.842  1.00  0.00    -0.237 OA
ATOM     74  O   UNL A   1      42.945  37.542  33.979  1.00  0.00    -0.744 OA
ENDBRANCH  70  71
ENDBRANCH  49  63
BRANCH  50  75
ATOM     75  C   UNL A   1      42.548  23.868  27.788  1.00  0.00     0.058 A 
ATOM     76  C   UNL A   1      42.415  22.751  28.628  1.00  0.00     0.135 A 
ATOM     77  C   UNL A   1      42.559  23.643  26.404  1.00  0.00     0.135 A 
ATOM     78  F   UNL A   1      42.416  22.909  29.962  1.00  0.00    -0.206 F 
ATOM     79  C   UNL A   1      42.314  21.459  28.120  1.00  0.00     0.059 A 
ATOM     80  C   UNL A   1      42.436  22.365  25.870  1.00  0.00     0.059 A 
ATOM     81  F   UNL A   1      42.678  24.679  25.558  1.00  0.00    -0.206 F 
ATOM     82  C   UNL A   1      42.319  21.278  26.738  1.00  0.00     0.060 A 
BRANCH  82  83
ATOM     83  S   UNL A   1      42.217  19.617  26.033  1.00  0.00     0.124 S 
ATOM     84  O   UNL A   1      40.793  19.507  25.742  1.00  0.00    -0.237 OA
ATOM     85  O   UNL A   1      43.099  19.725  24.875  1.00  0.00    -0.237 OA
ATOM     86  O   UNL A   1      42.711  18.763  27.110  1.00  0.00    -0.744 OA
ENDBRANCH  82  83
ENDBRANCH  50  75
BRANCH  62  87
ATOM     87  C   UNL A   1      47.881  27.348  30.661  1.00  0.00     0.058 A 
ATOM     88  C   UNL A   1      48.912  27.675  29.766  1.00  0.00     0.135 A 
ATOM     89  C   UNL A   1      48.211  26.593  31.797  1.00  0.00     0.135 A 
ATOM     90  F   UNL A   1      48.645  28.386  28.658  1.00  0.00    -0.206 F 
ATOM     91  C   UNL A   1      50.222  27.257  29.977  1.00  0.00     0.059 A 
ATOM     92  C   UNL A   1      49.519  26.188  32.042  1.00  0.00     0.059 A 
ATOM     93  F   UNL A   1      47.263  26.259  32.686  1.00  0.00    -0.206 F 
ATOM     94  C   UNL A   1      50.516  26.520  31.122  1.00  0.00     0.060 A 
BRANCH  94  95
ATOM     95  S   UNL A   1      52.200  25.946  31.433  1.00  0.00     0.124 S 
ATOM     96  O   UNL A   1      52.781  26.001  30.096  1.00  0.00    -0.237 OA
ATOM     97  O   UNL A   1      52.695  26.938  32.383  1.00  0.00    -0.237 OA
ATOM     98  O   UNL A   1      52.008  24.606  31.979  1.00  0.00    -0.744 OA
ENDBRANCH  94  95
ENDBRANCH  62  87
ENDBRANCH  36  37
ENDBRANCH  28  31
ENDBRANCH  26  27
ENDBRANCH   1  26
TORSDOF 17
ENDMDL
MODEL 2
REMARK VINA RESULT:     -11.3      4.974     10.448
REMARK SMILES C[C@@H](O)[C@@H](NC(=O)Nc1ccc(F)cc1F)C(=O)NCCCNC(=O)c1ccc(-c2c3nc(c(-c4c(F)cc(S(=O)(=O)[O-])cc4F)c4ccc([nH]4)c(-c4c(F)cc(S(=O)(=O)[O-])cc4F)c4nc(c(-c5c(F)cc(S(=O)(=O)[O-])cc5F)c5ccc2[nH]5)C=C4)C=C3)cc1
REMARK SMILES IDX 21 1 20 2 19 3 17 4 18 5 4 7 2 8 1 9 3 10 5 12 6 13 7 15
REMARK SMILES IDX 8 16 9 18 10 19 15 20 11 21 14 22 16 23 12 24 13 25 22 26
REMARK SMILES IDX 23 27 24 28 25 30 26 31 27 32 91 33 28 34 90 35 29 36 30 37
REMARK SMILES IDX 31 38 84 39 32 40 89 41 83 42 85 43 33 44 88 45 82 46 81 47
REMARK SMILES IDX 34 49 68 50 47 51 67 52 48 53 51 54 66 55 86 56 49 57 50 58
REMARK SMILES IDX 65 60 87 61 52 62 35 63 36 64 45 65 37 66 38 67 44 68 46 69
REMARK SMILES IDX 39 70 40 71 41 72 42 73 43 74 69 75 70 76 79 77 71 78 72 79
REMARK SMILES IDX 78 80 80 81 73 82 74 83 75 84 76 85 77 86 53 87 54 88 63 89
REMARK SMILES IDX 55 90 56 91 62 92 64 93 57 94 58 95 59 96 60 97 61 98
REMARK H PARENT 19 6 3 11 5 14 8 17 23 29 85 48 51 59
REMARK Flexibility Score: inf
ROOT
ATOM      1  C   UNL A   1      37.254  23.392  25.473  1.00  0.00     0.042 C 
ENDROOT
BRANCH   1   2
ATOM      2  C   UNL A   1      35.767  23.448  25.814  1.00  0.00     0.117 C 
BRANCH   2   3
ATOM      3  N   UNL A   1      35.237  22.104  25.882  1.00  0.00    -0.354 N 
ATOM      4  C   UNL A   1      34.017  21.820  26.430  1.00  0.00     0.245 C 
ATOM      5  O   UNL A   1      33.957  21.269  27.530  1.00  0.00    -0.273 OA
ATOM      6  H   UNL A   1      35.776  21.365  25.519  1.00  0.00     0.163 HD
BRANCH   4   7
ATOM      7  C   UNL A   1      32.757  22.268  25.673  1.00  0.00     0.201 C 
BRANCH   7   8
ATOM      8  C   UNL A   1      32.659  21.328  24.443  1.00  0.00     0.143 C 
ATOM      9  C   UNL A   1      33.007  21.985  23.115  1.00  0.00     0.041 C 
BRANCH   8  10
ATOM     10  O   UNL A   1      33.590  20.242  24.600  1.00  0.00    -0.391 OA
ATOM     11  H   UNL A   1      33.591  19.949  25.525  1.00  0.00     0.211 HD
ENDBRANCH   8  10
ENDBRANCH   7   8
BRANCH   7  12
ATOM     12  N   UNL A   1      31.574  22.339  26.548  1.00  0.00    -0.323 N 
ATOM     13  C   UNL A   1      30.699  23.335  26.823  1.00  0.00     0.320 C 
ATOM     14  H   UNL A   1      31.383  21.499  27.026  1.00  0.00     0.166 HD
ATOM     15  O   UNL A   1      29.842  23.110  27.684  1.00  0.00    -0.248 OA
ATOM     16  N   UNL A   1      30.846  24.599  26.357  1.00  0.00    -0.305 N 
ATOM     17  H   UNL A   1      30.490  25.294  26.956  1.00  0.00     0.171 HD
BRANCH  16  18
ATOM     18  C   UNL A   1      31.413  25.094  25.174  1.00  0.00     0.079 A 
ATOM     19  C   UNL A   1      30.770  24.977  23.944  1.00  0.00     0.032 A 
ATOM     20  C   UNL A   1      32.694  25.667  25.232  1.00  0.00     0.149 A 
ATOM     21  C   UNL A   1      31.456  25.311  22.774  1.00  0.00     0.041 A 
ATOM     22  C   UNL A   1      33.392  25.976  24.071  1.00  0.00     0.080 A 
ATOM     23  F   UNL A   1      33.322  25.771  26.414  1.00  0.00    -0.205 F 
ATOM     24  C   UNL A   1      32.768  25.774  22.848  1.00  0.00     0.126 A 
ATOM     25  F   UNL A   1      33.439  26.021  21.717  1.00  0.00    -0.207 F 
ENDBRANCH  16  18
ENDBRANCH   7  12
ENDBRANCH   4   7
ENDBRANCH   2   3
ENDBRANCH   1   2
BRANCH   1  26
ATOM     26  C   UNL A   1      38.130  24.166  26.458  1.00  0.00     0.118 C 
BRANCH  26  27
ATOM     27  N   UNL A   1      39.550  23.886  26.279  1.00  0.00    -0.352 N 
ATOM     28  C   UNL A   1      40.621  24.628  26.718  1.00  0.00     0.251 C 
ATOM     29  H   UNL A   1      39.769  23.066  25.782  1.00  0.00     0.163 HD
ATOM     30  O   UNL A   1      41.754  24.388  26.336  1.00  0.00    -0.269 OA
BRANCH  28  31
ATOM     31  C   UNL A   1      40.346  25.735  27.649  1.00  0.00     0.039 A 
ATOM     32  C   UNL A   1      39.440  25.537  28.690  1.00  0.00     0.014 A 
ATOM     33  C   UNL A   1      41.079  26.921  27.542  1.00  0.00     0.014 A 
ATOM     34  C   UNL A   1      39.315  26.518  29.673  1.00  0.00     0.010 A 
ATOM     35  C   UNL A   1      41.012  27.856  28.565  1.00  0.00     0.010 A 
ATOM     36  C   UNL A   1      40.128  27.664  29.637  1.00  0.00    -0.014 A 
BRANCH  36  37
ATOM     37  C   UNL A   1      40.067  28.682  30.713  1.00  0.00     0.031 A 
ATOM     38  C   UNL A   1      40.963  28.550  31.913  1.00  0.00     0.074 A 
ATOM     39  C   UNL A   1      39.167  29.682  30.635  1.00  0.00     0.049 A 
ATOM     40  N   UNL A   1      41.018  29.295  32.986  1.00  0.00    -0.248 NA
ATOM     41  C   UNL A   1      41.902  27.415  31.921  1.00  0.00     0.031 C 
ATOM     42  C   UNL A   1      38.211  29.878  29.542  1.00  0.00     0.029 A 
ATOM     43  N   UNL A   1      38.904  30.720  31.492  1.00  0.00    -0.354 N 
ATOM     44  C   UNL A   1      41.983  28.713  33.799  1.00  0.00     0.074 A 
ATOM     45  C   UNL A   1      42.445  27.521  33.124  1.00  0.00     0.031 C 
ATOM     46  C   UNL A   1      37.490  30.986  29.780  1.00  0.00     0.029 A 
ATOM     47  C   UNL A   1      37.903  31.558  31.058  1.00  0.00     0.049 A 
ATOM     48  H   UNL A   1      39.387  30.854  32.340  1.00  0.00     0.167 HD
ATOM     49  C   UNL A   1      42.460  29.151  34.986  1.00  0.00     0.037 A 
ATOM     50  C   UNL A   1      37.377  32.659  31.628  1.00  0.00     0.037 A 
ATOM     51  C   UNL A   1      42.014  30.355  35.633  1.00  0.00     0.049 A 
ATOM     52  C   UNL A   1      37.926  33.128  32.949  1.00  0.00     0.074 A 
ATOM     53  C   UNL A   1      42.470  30.917  36.812  1.00  0.00     0.029 A 
ATOM     54  N   UNL A   1      41.009  31.184  35.155  1.00  0.00    -0.354 N 
ATOM     55  N   UNL A   1      38.879  32.596  33.679  1.00  0.00    -0.248 NA
ATOM     56  C   UNL A   1      37.336  34.344  33.522  1.00  0.00     0.031 C 
ATOM     57  C   UNL A   1      41.712  32.065  37.068  1.00  0.00     0.029 A 
ATOM     58  C   UNL A   1      40.818  32.245  36.025  1.00  0.00     0.049 A 
ATOM     59  H   UNL A   1      40.506  31.039  34.321  1.00  0.00     0.167 HD
ATOM     60  C   UNL A   1      39.018  33.425  34.786  1.00  0.00     0.074 A 
ATOM     61  C   UNL A   1      38.059  34.500  34.623  1.00  0.00     0.031 C 
ATOM     62  C   UNL A   1      39.861  33.308  35.841  1.00  0.00     0.037 A 
BRANCH  49  63
ATOM     63  C   UNL A   1      43.532  28.333  35.653  1.00  0.00     0.058 A 
ATOM     64  C   UNL A   1      44.885  28.528  35.332  1.00  0.00     0.135 A 
ATOM     65  C   UNL A   1      43.219  27.328  36.581  1.00  0.00     0.135 A 
ATOM     66  F   UNL A   1      45.241  29.479  34.454  1.00  0.00    -0.206 F 
ATOM     67  C   UNL A   1      45.890  27.753  35.902  1.00  0.00     0.059 A 
ATOM     68  C   UNL A   1      44.208  26.560  37.186  1.00  0.00     0.059 A 
ATOM     69  F   UNL A   1      41.943  27.112  36.941  1.00  0.00    -0.206 F 
ATOM     70  C   UNL A   1      45.543  26.779  36.837  1.00  0.00     0.060 A 
BRANCH  70  71
ATOM     71  S   UNL A   1      46.810  25.763  37.621  1.00  0.00     0.124 S 
ATOM     72  O   UNL A   1      47.889  25.832  36.639  1.00  0.00    -0.237 OA
ATOM     73  O   UNL A   1      47.048  26.475  38.872  1.00  0.00    -0.237 OA
ATOM     74  O   UNL A   1      46.170  24.459  37.755  1.00  0.00    -0.744 OA
ENDBRANCH  70  71
ENDBRANCH  49  63
BRANCH  50  75
ATOM     75  C   UNL A   1      36.296  33.409  30.935  1.00  0.00     0.058 A 
ATOM     76  C   UNL A   1      36.566  34.224  29.824  1.00  0.00     0.135 A 
ATOM     77  C   UNL A   1      34.971  33.349  31.392  1.00  0.00     0.135 A 
ATOM     78  F   UNL A   1      37.820  34.330  29.357  1.00  0.00    -0.206 F 
ATOM     79  C   UNL A   1      35.567  34.964  29.199  1.00  0.00     0.059 A 
ATOM     80  C   UNL A   1      33.951  34.061  30.770  1.00  0.00     0.059 A 
ATOM     81  F   UNL A   1      34.660  32.579  32.447  1.00  0.00    -0.206 F 
ATOM     82  C   UNL A   1      34.261  34.872  29.677  1.00  0.00     0.060 A 
BRANCH  82  83
ATOM     83  S   UNL A   1      32.937  35.836  28.913  1.00  0.00     0.124 S 
ATOM     84  O   UNL A   1      32.325  34.851  28.031  1.00  0.00    -0.237 OA
ATOM     85  O   UNL A   1      32.145  36.234  30.074  1.00  0.00    -0.237 OA
ATOM     86  O   UNL A   1      33.651  36.922  28.249  1.00  0.00    -0.744 OA
ENDBRANCH  82  83
ENDBRANCH  50  75
BRANCH  62  87
ATOM     87  C   UNL A   1      39.811  34.379  36.895  1.00  0.00     0.058 A 
ATOM     88  C   UNL A   1      40.658  35.495  36.814  1.00  0.00     0.135 A 
ATOM     89  C   UNL A   1      38.984  34.261  38.022  1.00  0.00     0.135 A 
ATOM     90  F   UNL A   1      41.477  35.647  35.760  1.00  0.00    -0.206 F 
ATOM     91  C   UNL A   1      40.700  36.454  37.820  1.00  0.00     0.059 A 
ATOM     92  C   UNL A   1      38.989  35.223  39.027  1.00  0.00     0.059 A 
ATOM     93  F   UNL A   1      38.151  33.216  38.144  1.00  0.00    -0.206 F 
ATOM     94  C   UNL A   1      39.856  36.312  38.920  1.00  0.00     0.060 A 
BRANCH  94  95
ATOM     95  S   UNL A   1      39.882  37.526  40.256  1.00  0.00     0.124 S 
ATOM     96  O   UNL A   1      39.162  36.820  41.310  1.00  0.00    -0.237 OA
ATOM     97  O   UNL A   1      41.313  37.712  40.478  1.00  0.00    -0.237 OA
ATOM     98  O   UNL A   1      39.188  38.677  39.684  1.00  0.00    -0.744 OA
ENDBRANCH  94  95
ENDBRANCH  62  87
ENDBRANCH  36  37
ENDBRANCH  28  31
ENDBRANCH  26  27
ENDBRANCH   1  26
TORSDOF 17
ENDMDL
MODEL 3
REMARK VINA RESULT:     -11.2      2.895      9.112
REMARK SMILES C[C@@H](O)[C@@H](NC(=O)Nc1ccc(F)cc1F)C(=O)NCCCNC(=O)c1ccc(-c2c3nc(c(-c4c(F)cc(S(=O)(=O)[O-])cc4F)c4ccc([nH]4)c(-c4c(F)cc(S(=O)(=O)[O-])cc4F)c4nc(c(-c5c(F)cc(S(=O)(=O)[O-])cc5F)c5ccc2[nH]5)C=C4)C=C3)cc1
REMARK SMILES IDX 21 1 20 2 19 3 17 4 18 5 4 7 2 8 1 9 3 10 5 12 6 13 7 15
REMARK SMILES IDX 8 16 9 18 10 19 15 20 11 21 14 22 16 23 12 24 13 25 22 26
REMARK SMILES IDX 23 27 24 28 25 30 26 31 27 32 91 33 28 34 90 35 29 36 30 37
REMARK SMILES IDX 31 38 84 39 32 40 89 41 83 42 85 43 33 44 88 45 82 46 81 47
REMARK SMILES IDX 34 49 68 50 47 51 67 52 48 53 51 54 66 55 86 56 49 57 50 58
REMARK SMILES IDX 65 60 87 61 52 62 35 63 36 64 45 65 37 66 38 67 44 68 46 69
REMARK SMILES IDX 39 70 40 71 41 72 42 73 43 74 69 75 70 76 79 77 71 78 72 79
REMARK SMILES IDX 78 80 80 81 73 82 74 83 75 84 76 85 77 86 53 87 54 88 63 89
REMARK SMILES IDX 55 90 56 91 62 92 64 93 57 94 58 95 59 96 60 97 61 98
REMARK H PARENT 19 6 3 11 5 14 8 17 23 29 85 48 51 59
REMARK Flexibility Score: inf
ROOT
ATOM      1  C   UNL A   1      35.584  23.393  25.564  1.00  0.00     0.042 C 
ENDROOT
BRANCH   1   2
ATOM      2  C   UNL A   1      34.510  24.440  25.282  1.00  0.00     0.117 C 
BRANCH   2   3
ATOM      3  N   UNL A   1      34.448  24.697  23.859  1.00  0.00    -0.354 N 
ATOM      4  C   UNL A   1      33.274  24.956  23.208  1.00  0.00     0.245 C 
ATOM      5  O   UNL A   1      32.780  24.095  22.478  1.00  0.00    -0.273 OA
ATOM      6  H   UNL A   1      35.284  24.685  23.341  1.00  0.00     0.163 HD
BRANCH   4   7
ATOM      7  C   UNL A   1      32.577  26.300  23.471  1.00  0.00     0.201 C 
BRANCH   7   8
ATOM      8  C   UNL A   1      33.054  27.240  22.332  1.00  0.00     0.143 C 
ATOM      9  C   UNL A   1      34.083  28.277  22.757  1.00  0.00     0.041 C 
BRANCH   8  10
ATOM     10  O   UNL A   1      33.685  26.457  21.303  1.00  0.00    -0.391 OA
ATOM     11  H   UNL A   1      34.502  26.897  21.018  1.00  0.00     0.211 HD
ENDBRANCH   8  10
ENDBRANCH   7   8
BRANCH   7  12
ATOM     12  N   UNL A   1      31.122  26.152  23.641  1.00  0.00    -0.323 N 
ATOM     13  C   UNL A   1      30.265  26.581  24.599  1.00  0.00     0.320 C 
ATOM     14  H   UNL A   1      30.687  25.641  22.920  1.00  0.00     0.166 HD
ATOM     15  O   UNL A   1      29.089  26.216  24.506  1.00  0.00    -0.248 OA
ATOM     16  N   UNL A   1      30.673  27.204  25.731  1.00  0.00    -0.305 N 
ATOM     17  H   UNL A   1      30.099  27.038  26.512  1.00  0.00     0.171 HD
BRANCH  16  18
ATOM     18  C   UNL A   1      31.766  28.044  25.989  1.00  0.00     0.079 A 
ATOM     19  C   UNL A   1      32.829  27.643  26.795  1.00  0.00     0.032 A 
ATOM     20  C   UNL A   1      31.748  29.348  25.466  1.00  0.00     0.149 A 
ATOM     21  C   UNL A   1      33.793  28.579  27.177  1.00  0.00     0.041 A 
ATOM     22  C   UNL A   1      32.689  30.289  25.863  1.00  0.00     0.080 A 
ATOM     23  F   UNL A   1      30.720  29.742  24.698  1.00  0.00    -0.205 F 
ATOM     24  C   UNL A   1      33.696  29.896  26.735  1.00  0.00     0.126 A 
ATOM     25  F   UNL A   1      34.584  30.799  27.167  1.00  0.00    -0.207 F 
ENDBRANCH  16  18
ENDBRANCH   7  12
ENDBRANCH   4   7
ENDBRANCH   2   3
ENDBRANCH   1   2
BRANCH   1  26
ATOM     26  C   UNL A   1      36.962  23.781  25.032  1.00  0.00     0.118 C 
BRANCH  26  27
ATOM     27  N   UNL A   1      37.980  22.781  25.337  1.00  0.00    -0.352 N 
ATOM     28  C   UNL A   1      39.152  22.951  26.036  1.00  0.00     0.251 C 
ATOM     29  H   UNL A   1      37.805  21.872  25.002  1.00  0.00     0.163 HD
ATOM     30  O   UNL A   1      40.007  22.082  26.055  1.00  0.00    -0.269 OA
BRANCH  28  31
ATOM     31  C   UNL A   1      39.344  24.230  26.740  1.00  0.00     0.039 A 
ATOM     32  C   UNL A   1      38.819  24.384  28.023  1.00  0.00     0.014 A 
ATOM     33  C   UNL A   1      40.144  25.219  26.160  1.00  0.00     0.014 A 
ATOM     34  C   UNL A   1      39.153  25.520  28.757  1.00  0.00     0.010 A 
ATOM     35  C   UNL A   1      40.540  26.307  26.925  1.00  0.00     0.010 A 
ATOM     36  C   UNL A   1      40.047  26.469  28.228  1.00  0.00    -0.014 A 
BRANCH  36  37
ATOM     37  C   UNL A   1      40.476  27.645  29.022  1.00  0.00     0.031 A 
ATOM     38  C   UNL A   1      41.815  27.630  29.707  1.00  0.00     0.074 A 
ATOM     39  C   UNL A   1      39.638  28.690  29.173  1.00  0.00     0.049 A 
ATOM     40  N   UNL A   1      42.346  28.527  30.496  1.00  0.00    -0.248 NA
ATOM     41  C   UNL A   1      42.654  26.438  29.501  1.00  0.00     0.031 C 
ATOM     42  C   UNL A   1      38.295  28.788  28.598  1.00  0.00     0.029 A 
ATOM     43  N   UNL A   1      39.790  29.867  29.860  1.00  0.00    -0.354 N 
ATOM     44  C   UNL A   1      43.571  28.003  30.889  1.00  0.00     0.074 A 
ATOM     45  C   UNL A   1      43.679  26.687  30.302  1.00  0.00     0.031 C 
ATOM     46  C   UNL A   1      37.759  29.975  28.928  1.00  0.00     0.029 A 
ATOM     47  C   UNL A   1      38.703  30.705  29.770  1.00  0.00     0.049 A 
ATOM     48  H   UNL A   1      40.602  30.093  30.370  1.00  0.00     0.167 HD
ATOM     49  C   UNL A   1      44.531  28.583  31.646  1.00  0.00     0.037 A 
ATOM     50  C   UNL A   1      38.491  31.921  30.309  1.00  0.00     0.037 A 
ATOM     51  C   UNL A   1      44.424  29.905  32.199  1.00  0.00     0.049 A 
ATOM     52  C   UNL A   1      39.574  32.545  31.147  1.00  0.00     0.074 A 
ATOM     53  C   UNL A   1      45.362  30.607  32.937  1.00  0.00     0.029 A 
ATOM     54  N   UNL A   1      43.314  30.728  32.075  1.00  0.00    -0.354 N 
ATOM     55  N   UNL A   1      40.752  32.059  31.463  1.00  0.00    -0.248 NA
ATOM     56  C   UNL A   1      39.306  33.880  31.697  1.00  0.00     0.031 C 
ATOM     57  C   UNL A   1      44.802  31.838  33.293  1.00  0.00     0.029 A 
ATOM     58  C   UNL A   1      43.535  31.924  32.737  1.00  0.00     0.049 A 
ATOM     59  H   UNL A   1      42.490  30.496  31.588  1.00  0.00     0.167 HD
ATOM     60  C   UNL A   1      41.374  33.038  32.230  1.00  0.00     0.074 A 
ATOM     61  C   UNL A   1      40.446  34.148  32.319  1.00  0.00     0.031 C 
ATOM     62  C   UNL A   1      42.600  33.019  32.808  1.00  0.00     0.037 A 
BRANCH  49  63
ATOM     63  C   UNL A   1      45.786  27.794  31.906  1.00  0.00     0.058 A 
ATOM     64  C   UNL A   1      46.837  27.798  30.976  1.00  0.00     0.135 A 
ATOM     65  C   UNL A   1      45.933  27.005  33.057  1.00  0.00     0.135 A 
ATOM     66  F   UNL A   1      46.751  28.540  29.860  1.00  0.00    -0.206 F 
ATOM     67  C   UNL A   1      47.989  27.042  31.173  1.00  0.00     0.059 A 
ATOM     68  C   UNL A   1      47.086  26.264  33.289  1.00  0.00     0.059 A 
ATOM     69  F   UNL A   1      44.967  26.980  33.989  1.00  0.00    -0.206 F 
ATOM     70  C   UNL A   1      48.109  26.286  32.338  1.00  0.00     0.060 A 
BRANCH  70  71
ATOM     71  S   UNL A   1      49.591  25.306  32.651  1.00  0.00     0.124 S 
ATOM     72  O   UNL A   1      49.054  24.214  33.458  1.00  0.00    -0.237 OA
ATOM     73  O   UNL A   1      50.014  24.946  31.302  1.00  0.00    -0.237 OA
ATOM     74  O   UNL A   1      50.471  26.232  33.356  1.00  0.00    -0.744 OA
ENDBRANCH  70  71
ENDBRANCH  49  63
BRANCH  50  75
ATOM     75  C   UNL A   1      37.215  32.638  30.043  1.00  0.00     0.058 A 
ATOM     76  C   UNL A   1      37.096  33.553  28.984  1.00  0.00     0.135 A 
ATOM     77  C   UNL A   1      36.095  32.446  30.865  1.00  0.00     0.135 A 
ATOM     78  F   UNL A   1      38.144  33.787  28.177  1.00  0.00    -0.206 F 
ATOM     79  C   UNL A   1      35.920  34.262  28.757  1.00  0.00     0.059 A 
ATOM     80  C   UNL A   1      34.901  33.125  30.645  1.00  0.00     0.059 A 
ATOM     81  F   UNL A   1      36.156  31.578  31.888  1.00  0.00    -0.206 F 
ATOM     82  C   UNL A   1      34.826  34.036  29.590  1.00  0.00     0.060 A 
BRANCH  82  83
ATOM     83  S   UNL A   1      33.288  34.954  29.350  1.00  0.00     0.124 S 
ATOM     84  O   UNL A   1      32.712  34.919  30.689  1.00  0.00    -0.237 OA
ATOM     85  O   UNL A   1      33.778  36.253  28.899  1.00  0.00    -0.237 OA
ATOM     86  O   UNL A   1      32.584  34.171  28.338  1.00  0.00    -0.744 OA
ENDBRANCH  82  83
ENDBRANCH  50  75
BRANCH  62  87
ATOM     87  C   UNL A   1      43.029  34.243  33.569  1.00  0.00     0.058 A 
ATOM     88  C   UNL A   1      43.631  35.320  32.899  1.00  0.00     0.135 A 
ATOM     89  C   UNL A   1      42.919  34.316  34.965  1.00  0.00     0.135 A 
ATOM     90  F   UNL A   1      43.771  35.293  31.564  1.00  0.00    -0.206 F 
ATOM     91  C   UNL A   1      44.123  36.424  33.587  1.00  0.00     0.059 A 
ATOM     92  C   UNL A   1      43.378  35.423  35.671  1.00  0.00     0.059 A 
ATOM     93  F   UNL A   1      42.345  33.315  35.652  1.00  0.00    -0.206 F 
ATOM     94  C   UNL A   1      43.984  36.469  34.973  1.00  0.00     0.060 A 
BRANCH  94  95
ATOM     95  S   UNL A   1      44.616  37.877  35.910  1.00  0.00     0.124 S 
ATOM     96  O   UNL A   1      43.669  37.942  37.018  1.00  0.00    -0.237 OA
ATOM     97  O   UNL A   1      45.966  37.441  36.252  1.00  0.00    -0.237 OA
ATOM     98  O   UNL A   1      44.543  38.981  34.957  1.00  0.00    -0.744 OA
ENDBRANCH  94  95
ENDBRANCH  62  87
ENDBRANCH  36  37
ENDBRANCH  28  31
ENDBRANCH  26  27
ENDBRANCH   1  26
TORSDOF 17
ENDMDL
