MODEL 1
REMARK VINA RESULT:     -11.6      0.000      0.000
REMARK SMILES O=C(COc1ccccc1[C@@H]1[NH2+]CCc2cc(O)c(O)cc21)NCCCNC(=O)c1ccc(-c2c3nc(c(-c4c(F)cc(S(=O)(=O)[O-])cc4F)c4ccc([nH]4)c(-c4c(F)cc(S(=O)(=O)[O-])cc4F)c4nc(c(-c5c(F)cc(S(=O)(=O)[O-])cc5F)c5ccc2[nH]5)C=C4)C=C3)cc1
REMARK SMILES IDX 24 1 23 2 1 3 2 4 3 6 4 7 5 8 6 9 10 10 7 11 9 12 8 13 11 14
REMARK SMILES IDX 12 15 22 16 13 17 15 20 21 21 14 22 16 23 19 24 17 25 20 26
REMARK SMILES IDX 18 28 25 30 26 31 27 32 28 33 29 35 30 36 31 37 95 38 32 39
REMARK SMILES IDX 94 40 33 41 34 42 35 43 88 44 36 45 93 46 87 47 89 48 37 49
REMARK SMILES IDX 92 50 86 51 85 52 38 54 72 55 51 56 71 57 52 58 55 59 70 60
REMARK SMILES IDX 90 61 53 62 54 63 69 65 91 66 56 67 39 68 40 69 49 70 41 71
REMARK SMILES IDX 42 72 48 73 50 74 43 75 44 76 45 77 46 78 47 79 73 80 74 81
REMARK SMILES IDX 83 82 75 83 76 84 82 85 84 86 77 87 78 88 79 89 80 90 81 91
REMARK SMILES IDX 57 92 58 93 67 94 59 95 60 96 66 97 68 98 61 99 62 100
REMARK SMILES IDX 63 101 64 102 65 103
REMARK H PARENT 23 5 12 18 12 19 20 27 18 29 27 34 89 53 55 64
REMARK Flexibility Score: inf
ROOT
ATOM      1  C   UNL A   1      33.112  29.221  24.830  1.00  0.00     0.117 C 
ENDROOT
BRANCH   1   2
ATOM      2  N   UNL A   1      32.197  28.560  23.922  1.00  0.00    -0.353 N 
ATOM      3  O   UNL A   1      33.732  28.222  22.255  1.00  0.00    -0.271 OA
ATOM      4  C   UNL A   1      32.625  27.996  22.738  1.00  0.00     0.257 C 
ATOM      5  H   UNL A   1      31.242  28.512  24.158  1.00  0.00     0.163 HD
BRANCH   4   6
ATOM      6  C   UNL A   1      31.612  27.057  22.072  1.00  0.00     0.329 C 
BRANCH   6   7
ATOM      7  O   UNL A   1      31.175  25.872  22.699  1.00  0.00    -0.483 OA
BRANCH   7   8
ATOM      8  C   UNL A   1      31.513  25.383  23.926  1.00  0.00     0.129 A 
ATOM      9  C   UNL A   1      30.424  25.604  24.800  1.00  0.00     0.047 A 
ATOM     10  C   UNL A   1      32.693  24.800  24.440  1.00  0.00     0.056 A 
ATOM     11  C   UNL A   1      30.506  25.374  26.169  1.00  0.00     0.004 A 
ATOM     12  C   UNL A   1      32.779  24.673  25.854  1.00  0.00     0.014 A 
ATOM     13  C   UNL A   1      31.707  24.953  26.704  1.00  0.00     0.001 A 
BRANCH  10  14
ATOM     14  C   UNL A   1      33.887  24.312  23.615  1.00  0.00     0.249 C 
ATOM     15  N   UNL A   1      33.480  23.643  22.370  1.00  0.00    -0.336 N 
ATOM     16  C   UNL A   1      34.926  23.396  24.273  1.00  0.00     0.021 A 
ATOM     17  C   UNL A   1      32.875  22.321  22.581  1.00  0.00     0.266 C 
ATOM     18  H   UNL A   1      34.305  23.531  21.780  1.00  0.00     0.347 HD
ATOM     19  H   UNL A   1      32.769  24.230  21.934  1.00  0.00     0.347 HD
ATOM     20  C   UNL A   1      34.628  22.014  24.337  1.00  0.00    -0.029 A 
ATOM     21  C   UNL A   1      36.198  23.857  24.647  1.00  0.00     0.060 A 
ATOM     22  C   UNL A   1      33.259  21.591  23.879  1.00  0.00     0.097 C 
ATOM     23  C   UNL A   1      35.595  21.100  24.753  1.00  0.00     0.054 A 
ATOM     24  C   UNL A   1      37.161  22.930  25.030  1.00  0.00     0.157 A 
ATOM     25  C   UNL A   1      36.862  21.567  25.070  1.00  0.00     0.157 A 
BRANCH  24  26
ATOM     26  O   UNL A   1      38.442  23.302  25.338  1.00  0.00    -0.504 OA
ATOM     27  H   UNL A   1      39.045  23.520  24.655  1.00  0.00     0.293 HD
ENDBRANCH  24  26
BRANCH  25  28
ATOM     28  O   UNL A   1      37.842  20.667  25.380  1.00  0.00    -0.504 OA
ATOM     29  H   UNL A   1      38.000  20.437  26.275  1.00  0.00     0.293 HD
ENDBRANCH  25  28
ENDBRANCH  10  14
ENDBRANCH   7   8
ENDBRANCH   6   7
ENDBRANCH   4   6
ENDBRANCH   1   2
BRANCH   1  30
ATOM     30  C   UNL A   1      33.821  28.296  25.802  1.00  0.00     0.042 C 
BRANCH  30  31
ATOM     31  C   UNL A   1      33.437  28.527  27.253  1.00  0.00     0.118 C 
BRANCH  31  32
ATOM     32  N   UNL A   1      33.433  29.937  27.617  1.00  0.00    -0.352 N 
ATOM     33  C   UNL A   1      34.419  30.699  28.201  1.00  0.00     0.251 C 
ATOM     34  H   UNL A   1      32.599  30.418  27.416  1.00  0.00     0.163 HD
ATOM     35  O   UNL A   1      34.171  31.836  28.571  1.00  0.00    -0.269 OA
BRANCH  33  36
ATOM     36  C   UNL A   1      35.765  30.118  28.404  1.00  0.00     0.039 A 
ATOM     37  C   UNL A   1      36.667  30.119  27.338  1.00  0.00     0.014 A 
ATOM     38  C   UNL A   1      36.145  29.602  29.647  1.00  0.00     0.014 A 
ATOM     39  C   UNL A   1      37.979  29.686  27.545  1.00  0.00     0.010 A 
ATOM     40  C   UNL A   1      37.473  29.255  29.873  1.00  0.00     0.010 A 
ATOM     41  C   UNL A   1      38.404  29.301  28.827  1.00  0.00    -0.014 A 
BRANCH  41  42
ATOM     42  C   UNL A   1      39.826  28.970  29.103  1.00  0.00     0.031 A 
ATOM     43  C   UNL A   1      40.755  30.019  29.650  1.00  0.00     0.074 A 
ATOM     44  C   UNL A   1      40.295  27.747  28.785  1.00  0.00     0.049 A 
ATOM     45  N   UNL A   1      42.042  29.947  29.871  1.00  0.00    -0.248 NA
ATOM     46  C   UNL A   1      40.164  31.330  29.966  1.00  0.00     0.031 C 
ATOM     47  C   UNL A   1      39.503  26.661  28.202  1.00  0.00     0.029 A 
ATOM     48  N   UNL A   1      41.555  27.215  28.891  1.00  0.00    -0.354 N 
ATOM     49  C   UNL A   1      42.416  31.200  30.339  1.00  0.00     0.074 A 
ATOM     50  C   UNL A   1      41.231  32.030  30.322  1.00  0.00     0.031 C 
ATOM     51  C   UNL A   1      40.290  25.589  28.021  1.00  0.00     0.029 A 
ATOM     52  C   UNL A   1      41.650  25.922  28.428  1.00  0.00     0.049 A 
ATOM     53  H   UNL A   1      42.321  27.710  29.262  1.00  0.00     0.167 HD
ATOM     54  C   UNL A   1      43.633  31.615  30.764  1.00  0.00     0.037 A 
ATOM     55  C   UNL A   1      42.716  25.103  28.327  1.00  0.00     0.037 A 
ATOM     56  C   UNL A   1      44.804  30.778  30.792  1.00  0.00     0.049 A 
ATOM     57  C   UNL A   1      44.061  25.594  28.787  1.00  0.00     0.074 A 
ATOM     58  C   UNL A   1      46.070  31.085  31.263  1.00  0.00     0.029 A 
ATOM     59  N   UNL A   1      44.859  29.472  30.325  1.00  0.00    -0.354 N 
ATOM     60  N   UNL A   1      44.384  26.761  29.294  1.00  0.00    -0.248 NA
ATOM     61  C   UNL A   1      45.187  24.659  28.663  1.00  0.00     0.031 C 
ATOM     62  C   UNL A   1      46.901  29.984  31.033  1.00  0.00     0.029 A 
ATOM     63  C   UNL A   1      46.143  28.971  30.468  1.00  0.00     0.049 A 
ATOM     64  H   UNL A   1      44.098  28.975  29.947  1.00  0.00     0.167 HD
ATOM     65  C   UNL A   1      45.746  26.693  29.567  1.00  0.00     0.074 A 
ATOM     66  C   UNL A   1      46.181  25.365  29.188  1.00  0.00     0.031 C 
ATOM     67  C   UNL A   1      46.562  27.645  30.083  1.00  0.00     0.037 A 
BRANCH  54  68
ATOM     68  C   UNL A   1      43.761  33.039  31.233  1.00  0.00     0.058 A 
ATOM     69  C   UNL A   1      44.197  34.063  30.376  1.00  0.00     0.135 A 
ATOM     70  C   UNL A   1      43.407  33.393  32.546  1.00  0.00     0.135 A 
ATOM     71  F   UNL A   1      44.563  33.778  29.115  1.00  0.00    -0.206 F 
ATOM     72  C   UNL A   1      44.305  35.380  30.810  1.00  0.00     0.059 A 
ATOM     73  C   UNL A   1      43.479  34.711  32.992  1.00  0.00     0.059 A 
ATOM     74  F   UNL A   1      42.985  32.457  33.409  1.00  0.00    -0.206 F 
ATOM     75  C   UNL A   1      43.942  35.694  32.121  1.00  0.00     0.060 A 
BRANCH  75  76
ATOM     76  S   UNL A   1      44.082  37.409  32.663  1.00  0.00     0.124 S 
ATOM     77  O   UNL A   1      43.777  38.130  31.431  1.00  0.00    -0.237 OA
ATOM     78  O   UNL A   1      43.068  37.488  33.710  1.00  0.00    -0.237 OA
ATOM     79  O   UNL A   1      45.463  37.510  33.123  1.00  0.00    -0.744 OA
ENDBRANCH  75  76
ENDBRANCH  54  68
BRANCH  55  80
ATOM     80  C   UNL A   1      42.549  23.732  27.775  1.00  0.00     0.058 A 
ATOM     81  C   UNL A   1      42.515  23.511  26.391  1.00  0.00     0.135 A 
ATOM     82  C   UNL A   1      42.429  22.615  28.617  1.00  0.00     0.135 A 
ATOM     83  F   UNL A   1      42.617  24.547  25.544  1.00  0.00    -0.206 F 
ATOM     84  C   UNL A   1      42.357  22.235  25.859  1.00  0.00     0.059 A 
ATOM     85  C   UNL A   1      42.297  21.327  28.109  1.00  0.00     0.059 A 
ATOM     86  F   UNL A   1      42.470  22.770  29.950  1.00  0.00    -0.206 F 
ATOM     87  C   UNL A   1      42.252  21.148  26.728  1.00  0.00     0.060 A 
BRANCH  87  88
ATOM     88  S   UNL A   1      42.097  19.491  26.026  1.00  0.00     0.124 S 
ATOM     89  O   UNL A   1      42.613  18.663  27.109  1.00  0.00    -0.237 OA
ATOM     90  O   UNL A   1      40.661  19.398  25.777  1.00  0.00    -0.237 OA
ATOM     91  O   UNL A   1      42.929  19.556  24.828  1.00  0.00    -0.744 OA
ENDBRANCH  87  88
ENDBRANCH  55  80
BRANCH  67  92
ATOM     92  C   UNL A   1      48.007  27.281  30.287  1.00  0.00     0.058 A 
ATOM     93  C   UNL A   1      48.969  27.496  29.287  1.00  0.00     0.135 A 
ATOM     94  C   UNL A   1      48.443  26.756  31.514  1.00  0.00     0.135 A 
ATOM     95  F   UNL A   1      48.603  27.988  28.093  1.00  0.00    -0.206 F 
ATOM     96  C   UNL A   1      50.308  27.184  29.489  1.00  0.00     0.059 A 
ATOM     97  C   UNL A   1      49.783  26.463  31.748  1.00  0.00     0.059 A 
ATOM     98  F   UNL A   1      47.566  26.538  32.508  1.00  0.00    -0.206 F 
ATOM     99  C   UNL A   1      50.707  26.670  30.725  1.00  0.00     0.060 A 
BRANCH  99 100
ATOM    100  S   UNL A   1      52.455  26.303  30.986  1.00  0.00     0.124 S 
ATOM    101  O   UNL A   1      52.952  26.246  29.615  1.00  0.00    -0.237 OA
ATOM    102  O   UNL A   1      52.901  27.448  31.774  1.00  0.00    -0.237 OA
ATOM    103  O   UNL A   1      52.433  25.030  31.700  1.00  0.00    -0.744 OA
ENDBRANCH  99 100
ENDBRANCH  67  92
ENDBRANCH  41  42
ENDBRANCH  33  36
ENDBRANCH  31  32
ENDBRANCH  30  31
ENDBRANCH   1  30
TORSDOF 18
ENDMDL
MODEL 2
REMARK VINA RESULT:     -11.3      4.679     10.439
REMARK SMILES O=C(COc1ccccc1[C@@H]1[NH2+]CCc2cc(O)c(O)cc21)NCCCNC(=O)c1ccc(-c2c3nc(c(-c4c(F)cc(S(=O)(=O)[O-])cc4F)c4ccc([nH]4)c(-c4c(F)cc(S(=O)(=O)[O-])cc4F)c4nc(c(-c5c(F)cc(S(=O)(=O)[O-])cc5F)c5ccc2[nH]5)C=C4)C=C3)cc1
REMARK SMILES IDX 24 1 23 2 1 3 2 4 3 6 4 7 5 8 6 9 10 10 7 11 9 12 8 13 11 14
REMARK SMILES IDX 12 15 22 16 13 17 15 20 21 21 14 22 16 23 19 24 17 25 20 26
REMARK SMILES IDX 18 28 25 30 26 31 27 32 28 33 29 35 30 36 31 37 95 38 32 39
REMARK SMILES IDX 94 40 33 41 34 42 35 43 88 44 36 45 93 46 87 47 89 48 37 49
REMARK SMILES IDX 92 50 86 51 85 52 38 54 72 55 51 56 71 57 52 58 55 59 70 60
REMARK SMILES IDX 90 61 53 62 54 63 69 65 91 66 56 67 39 68 40 69 49 70 41 71
REMARK SMILES IDX 42 72 48 73 50 74 43 75 44 76 45 77 46 78 47 79 73 80 74 81
REMARK SMILES IDX 83 82 75 83 76 84 82 85 84 86 77 87 78 88 79 89 80 90 81 91
REMARK SMILES IDX 57 92 58 93 67 94 59 95 60 96 66 97 68 98 61 99 62 100
REMARK SMILES IDX 63 101 64 102 65 103
REMARK H PARENT 23 5 12 18 12 19 20 27 18 29 27 34 89 53 55 64
REMARK Flexibility Score: inf
ROOT
ATOM      1  C   UNL A   1      40.230  21.376  26.234  1.00  0.00     0.117 C 
ENDROOT
BRANCH   1   2
ATOM      2  N   UNL A   1      38.928  21.916  25.901  1.00  0.00    -0.353 N 
ATOM      3  O   UNL A   1      38.119  19.995  24.948  1.00  0.00    -0.271 OA
ATOM      4  C   UNL A   1      37.920  21.126  25.387  1.00  0.00     0.257 C 
ATOM      5  H   UNL A   1      38.757  22.875  26.046  1.00  0.00     0.163 HD
BRANCH   4   6
ATOM      6  C   UNL A   1      36.528  21.767  25.410  1.00  0.00     0.329 C 
BRANCH   6   7
ATOM      7  O   UNL A   1      35.359  20.998  25.581  1.00  0.00    -0.483 OA
BRANCH   7   8
ATOM      8  C   UNL A   1      34.222  20.996  24.829  1.00  0.00     0.129 A 
ATOM      9  C   UNL A   1      33.789  19.658  24.692  1.00  0.00     0.047 A 
ATOM     10  C   UNL A   1      33.502  22.017  24.167  1.00  0.00     0.056 A 
ATOM     11  C   UNL A   1      32.751  19.291  23.843  1.00  0.00     0.004 A 
ATOM     12  C   UNL A   1      32.516  21.599  23.232  1.00  0.00     0.014 A 
ATOM     13  C   UNL A   1      32.145  20.263  23.072  1.00  0.00     0.001 A 
BRANCH  10  14
ATOM     14  C   UNL A   1      33.703  23.524  24.355  1.00  0.00     0.249 C 
ATOM     15  N   UNL A   1      33.506  23.953  25.748  1.00  0.00    -0.336 N 
ATOM     16  C   UNL A   1      32.896  24.498  23.489  1.00  0.00     0.021 A 
ATOM     17  C   UNL A   1      32.104  23.918  26.183  1.00  0.00     0.266 C 
ATOM     18  H   UNL A   1      33.850  24.908  25.841  1.00  0.00     0.347 HD
ATOM     19  H   UNL A   1      34.018  23.296  26.337  1.00  0.00     0.347 HD
ATOM     20  C   UNL A   1      31.576  24.798  23.903  1.00  0.00    -0.029 A 
ATOM     21  C   UNL A   1      33.475  25.208  22.424  1.00  0.00     0.060 A 
ATOM     22  C   UNL A   1      31.039  24.027  25.078  1.00  0.00     0.097 C 
ATOM     23  C   UNL A   1      30.850  25.809  23.274  1.00  0.00     0.054 A 
ATOM     24  C   UNL A   1      32.749  26.232  21.827  1.00  0.00     0.157 A 
ATOM     25  C   UNL A   1      31.456  26.534  22.258  1.00  0.00     0.157 A 
BRANCH  24  26
ATOM     26  O   UNL A   1      33.278  27.011  20.834  1.00  0.00    -0.504 OA
ATOM     27  H   UNL A   1      32.711  27.456  20.235  1.00  0.00     0.293 HD
ENDBRANCH  24  26
BRANCH  25  28
ATOM     28  O   UNL A   1      30.786  27.589  21.707  1.00  0.00    -0.504 OA
ATOM     29  H   UNL A   1      29.867  27.523  21.538  1.00  0.00     0.293 HD
ENDBRANCH  25  28
ENDBRANCH  10  14
ENDBRANCH   7   8
ENDBRANCH   6   7
ENDBRANCH   4   6
ENDBRANCH   1   2
BRANCH   1  30
ATOM     30  C   UNL A   1      40.823  21.902  27.528  1.00  0.00     0.042 C 
BRANCH  30  31
ATOM     31  C   UNL A   1      41.944  22.904  27.321  1.00  0.00     0.118 C 
BRANCH  31  32
ATOM     32  N   UNL A   1      41.720  23.770  26.171  1.00  0.00    -0.352 N 
ATOM     33  C   UNL A   1      41.385  25.104  26.125  1.00  0.00     0.251 C 
ATOM     34  H   UNL A   1      41.825  23.336  25.295  1.00  0.00     0.163 HD
ATOM     35  O   UNL A   1      41.089  25.620  25.058  1.00  0.00    -0.269 OA
BRANCH  33  36
ATOM     36  C   UNL A   1      41.353  25.892  27.377  1.00  0.00     0.039 A 
ATOM     37  C   UNL A   1      42.428  26.733  27.669  1.00  0.00     0.014 A 
ATOM     38  C   UNL A   1      40.257  25.823  28.241  1.00  0.00     0.014 A 
ATOM     39  C   UNL A   1      42.362  27.574  28.783  1.00  0.00     0.010 A 
ATOM     40  C   UNL A   1      40.155  26.723  29.298  1.00  0.00     0.010 A 
ATOM     41  C   UNL A   1      41.203  27.612  29.575  1.00  0.00    -0.014 A 
BRANCH  41  42
ATOM     42  C   UNL A   1      41.052  28.593  30.679  1.00  0.00     0.031 A 
ATOM     43  C   UNL A   1      41.911  28.487  31.909  1.00  0.00     0.074 A 
ATOM     44  C   UNL A   1      40.086  29.530  30.605  1.00  0.00     0.049 A 
ATOM     45  N   UNL A   1      41.866  29.191  33.010  1.00  0.00    -0.248 NA
ATOM     46  C   UNL A   1      42.939  27.433  31.912  1.00  0.00     0.031 C 
ATOM     47  C   UNL A   1      39.157  29.702  29.485  1.00  0.00     0.029 A 
ATOM     48  N   UNL A   1      39.712  30.505  31.495  1.00  0.00    -0.354 N 
ATOM     49  C   UNL A   1      42.846  28.661  33.839  1.00  0.00     0.074 A 
ATOM     50  C   UNL A   1      43.436  27.542  33.136  1.00  0.00     0.031 C 
ATOM     51  C   UNL A   1      38.336  30.731  29.747  1.00  0.00     0.029 A 
ATOM     52  C   UNL A   1      38.645  31.263  31.070  1.00  0.00     0.049 A 
ATOM     53  H   UNL A   1      40.164  30.650  32.358  1.00  0.00     0.167 HD
ATOM     54  C   UNL A   1      43.233  29.081  35.067  1.00  0.00     0.037 A 
ATOM     55  C   UNL A   1      37.979  32.261  31.683  1.00  0.00     0.037 A 
ATOM     56  C   UNL A   1      42.652  30.205  35.754  1.00  0.00     0.049 A 
ATOM     57  C   UNL A   1      38.415  32.696  33.055  1.00  0.00     0.074 A 
ATOM     58  C   UNL A   1      43.015  30.749  36.974  1.00  0.00     0.029 A 
ATOM     59  N   UNL A   1      41.580  30.953  35.287  1.00  0.00    -0.354 N 
ATOM     60  N   UNL A   1      39.392  32.230  33.795  1.00  0.00    -0.248 NA
ATOM     61  C   UNL A   1      37.661  33.794  33.674  1.00  0.00     0.031 C 
ATOM     62  C   UNL A   1      42.130  31.792  37.268  1.00  0.00     0.029 A 
ATOM     63  C   UNL A   1      41.249  31.934  36.208  1.00  0.00     0.049 A 
ATOM     64  H   UNL A   1      41.121  30.808  34.428  1.00  0.00     0.167 HD
ATOM     65  C   UNL A   1      39.381  32.989  34.961  1.00  0.00     0.074 A 
ATOM     66  C   UNL A   1      38.315  33.958  34.817  1.00  0.00     0.031 C 
ATOM     67  C   UNL A   1      40.181  32.891  36.051  1.00  0.00     0.037 A 
BRANCH  54  68
ATOM     68  C   UNL A   1      44.340  28.322  35.748  1.00  0.00     0.058 A 
ATOM     69  C   UNL A   1      44.077  27.224  36.583  1.00  0.00     0.135 A 
ATOM     70  C   UNL A   1      45.684  28.672  35.535  1.00  0.00     0.135 A 
ATOM     71  F   UNL A   1      42.810  26.854  36.835  1.00  0.00    -0.206 F 
ATOM     72  C   UNL A   1      45.102  26.518  37.204  1.00  0.00     0.059 A 
ATOM     73  C   UNL A   1      46.727  27.961  36.122  1.00  0.00     0.059 A 
ATOM     74  F   UNL A   1      45.994  29.713  34.747  1.00  0.00    -0.206 F 
ATOM     75  C   UNL A   1      46.425  26.894  36.966  1.00  0.00     0.060 A 
BRANCH  75  76
ATOM     76  S   UNL A   1      47.742  25.962  37.774  1.00  0.00     0.124 S 
ATOM     77  O   UNL A   1      47.512  24.619  37.250  1.00  0.00    -0.237 OA
ATOM     78  O   UNL A   1      48.943  26.634  37.288  1.00  0.00    -0.237 OA
ATOM     79  O   UNL A   1      47.461  26.136  39.195  1.00  0.00    -0.744 OA
ENDBRANCH  75  76
ENDBRANCH  54  68
BRANCH  55  80
ATOM     80  C   UNL A   1      36.835  32.921  30.997  1.00  0.00     0.058 A 
ATOM     81  C   UNL A   1      35.512  32.629  31.357  1.00  0.00     0.135 A 
ATOM     82  C   UNL A   1      37.040  33.863  29.977  1.00  0.00     0.135 A 
ATOM     83  F   UNL A   1      35.263  31.729  32.321  1.00  0.00    -0.206 F 
ATOM     84  C   UNL A   1      34.432  33.235  30.724  1.00  0.00     0.059 A 
ATOM     85  C   UNL A   1      35.978  34.503  29.348  1.00  0.00     0.059 A 
ATOM     86  F   UNL A   1      38.288  34.190  29.604  1.00  0.00    -0.206 F 
ATOM     87  C   UNL A   1      34.676  34.175  29.721  1.00  0.00     0.060 A 
BRANCH  87  88
ATOM     88  S   UNL A   1      33.267  34.993  28.941  1.00  0.00     0.124 S 
ATOM     89  O   UNL A   1      33.892  36.187  28.384  1.00  0.00    -0.237 OA
ATOM     90  O   UNL A   1      32.829  33.990  27.975  1.00  0.00    -0.237 OA
ATOM     91  O   UNL A   1      32.352  35.220  30.055  1.00  0.00    -0.744 OA
ENDBRANCH  87  88
ENDBRANCH  55  80
BRANCH  67  92
ATOM     92  C   UNL A   1      39.948  33.869  37.170  1.00  0.00     0.058 A 
ATOM     93  C   UNL A   1      40.527  35.148  37.163  1.00  0.00     0.135 A 
ATOM     94  C   UNL A   1      39.096  33.541  38.237  1.00  0.00     0.135 A 
ATOM     95  F   UNL A   1      41.355  35.509  36.171  1.00  0.00    -0.206 F 
ATOM     96  C   UNL A   1      40.287  36.059  38.186  1.00  0.00     0.059 A 
ATOM     97  C   UNL A   1      38.818  34.447  39.256  1.00  0.00     0.059 A 
ATOM     98  F   UNL A   1      38.509  32.334  38.288  1.00  0.00    -0.206 F 
ATOM     99  C   UNL A   1      39.428  35.701  39.227  1.00  0.00     0.060 A 
BRANCH  99 100
ATOM    100  S   UNL A   1      39.097  36.906  40.529  1.00  0.00     0.124 S 
ATOM    101  O   UNL A   1      40.430  37.114  41.084  1.00  0.00    -0.237 OA
ATOM    102  O   UNL A   1      38.540  38.029  39.781  1.00  0.00    -0.237 OA
ATOM    103  O   UNL A   1      38.154  36.214  41.403  1.00  0.00    -0.744 OA
ENDBRANCH  99 100
ENDBRANCH  67  92
ENDBRANCH  41  42
ENDBRANCH  33  36
ENDBRANCH  31  32
ENDBRANCH  30  31
ENDBRANCH   1  30
TORSDOF 18
ENDMDL
MODEL 3
REMARK VINA RESULT:     -11.2      1.524      2.557
REMARK SMILES O=C(COc1ccccc1[C@@H]1[NH2+]CCc2cc(O)c(O)cc21)NCCCNC(=O)c1ccc(-c2c3nc(c(-c4c(F)cc(S(=O)(=O)[O-])cc4F)c4ccc([nH]4)c(-c4c(F)cc(S(=O)(=O)[O-])cc4F)c4nc(c(-c5c(F)cc(S(=O)(=O)[O-])cc5F)c5ccc2[nH]5)C=C4)C=C3)cc1
REMARK SMILES IDX 24 1 23 2 1 3 2 4 3 6 4 7 5 8 6 9 10 10 7 11 9 12 8 13 11 14
REMARK SMILES IDX 12 15 22 16 13 17 15 20 21 21 14 22 16 23 19 24 17 25 20 26
REMARK SMILES IDX 18 28 25 30 26 31 27 32 28 33 29 35 30 36 31 37 95 38 32 39
REMARK SMILES IDX 94 40 33 41 34 42 35 43 88 44 36 45 93 46 87 47 89 48 37 49
REMARK SMILES IDX 92 50 86 51 85 52 38 54 72 55 51 56 71 57 52 58 55 59 70 60
REMARK SMILES IDX 90 61 53 62 54 63 69 65 91 66 56 67 39 68 40 69 49 70 41 71
REMARK SMILES IDX 42 72 48 73 50 74 43 75 44 76 45 77 46 78 47 79 73 80 74 81
REMARK SMILES IDX 83 82 75 83 76 84 82 85 84 86 77 87 78 88 79 89 80 90 81 91
REMARK SMILES IDX 57 92 58 93 67 94 59 95 60 96 66 97 68 98 61 99 62 100
REMARK SMILES IDX 63 101 64 102 65 103
REMARK H PARENT 23 5 12 18 12 19 20 27 18 29 27 34 89 53 55 64
REMARK Flexibility Score: inf
ROOT
ATOM      1  C   UNL A   1      31.669  28.939  25.128  1.00  0.00     0.117 C 
ENDROOT
BRANCH   1   2
ATOM      2  N   UNL A   1      31.315  27.729  25.843  1.00  0.00    -0.353 N 
ATOM      3  O   UNL A   1      30.192  26.753  24.100  1.00  0.00    -0.271 OA
ATOM      4  C   UNL A   1      30.701  26.665  25.215  1.00  0.00     0.257 C 
ATOM      5  H   UNL A   1      31.521  27.665  26.803  1.00  0.00     0.163 HD
BRANCH   4   6
ATOM      6  C   UNL A   1      30.705  25.358  26.017  1.00  0.00     0.329 C 
BRANCH   6   7
ATOM      7  O   UNL A   1      31.844  24.530  26.080  1.00  0.00    -0.483 OA
BRANCH   7   8
ATOM      8  C   UNL A   1      32.659  24.124  25.065  1.00  0.00     0.129 A 
ATOM      9  C   UNL A   1      33.455  25.225  24.676  1.00  0.00     0.047 A 
ATOM     10  C   UNL A   1      32.784  22.908  24.355  1.00  0.00     0.056 A 
ATOM     11  C   UNL A   1      34.276  25.196  23.554  1.00  0.00     0.004 A 
ATOM     12  C   UNL A   1      33.550  22.943  23.159  1.00  0.00     0.014 A 
ATOM     13  C   UNL A   1      34.284  24.064  22.764  1.00  0.00     0.001 A 
BRANCH  10  14
ATOM     14  C   UNL A   1      32.155  21.569  24.751  1.00  0.00     0.249 C 
ATOM     15  N   UNL A   1      32.145  21.356  26.206  1.00  0.00    -0.336 N 
ATOM     16  C   UNL A   1      32.699  20.276  24.132  1.00  0.00     0.021 A 
ATOM     17  C   UNL A   1      33.473  21.086  26.772  1.00  0.00     0.266 C 
ATOM     18  H   UNL A   1      31.540  20.560  26.411  1.00  0.00     0.347 HD
ATOM     19  H   UNL A   1      31.808  22.219  26.632  1.00  0.00     0.347 HD
ATOM     20  C   UNL A   1      33.855  19.709  24.720  1.00  0.00    -0.029 A 
ATOM     21  C   UNL A   1      32.003  19.573  23.137  1.00  0.00     0.060 A 
ATOM     22  C   UNL A   1      34.523  20.502  25.811  1.00  0.00     0.097 C 
ATOM     23  C   UNL A   1      34.299  18.446  24.332  1.00  0.00     0.054 A 
ATOM     24  C   UNL A   1      32.440  18.302  22.782  1.00  0.00     0.157 A 
ATOM     25  C   UNL A   1      33.570  17.744  23.383  1.00  0.00     0.157 A 
BRANCH  24  26
ATOM     26  O   UNL A   1      31.768  17.532  21.871  1.00  0.00    -0.504 OA
ATOM     27  H   UNL A   1      31.515  16.658  22.093  1.00  0.00     0.293 HD
ENDBRANCH  24  26
BRANCH  25  28
ATOM     28  O   UNL A   1      33.943  16.467  23.072  1.00  0.00    -0.504 OA
ATOM     29  H   UNL A   1      34.820  16.183  23.236  1.00  0.00     0.293 HD
ENDBRANCH  25  28
ENDBRANCH  10  14
ENDBRANCH   7   8
ENDBRANCH   6   7
ENDBRANCH   4   6
ENDBRANCH   1   2
BRANCH   1  30
ATOM     30  C   UNL A   1      33.149  29.091  24.831  1.00  0.00     0.042 C 
BRANCH  30  31
ATOM     31  C   UNL A   1      34.024  29.075  26.071  1.00  0.00     0.118 C 
BRANCH  31  32
ATOM     32  N   UNL A   1      33.830  30.247  26.914  1.00  0.00    -0.352 N 
ATOM     33  C   UNL A   1      34.620  30.748  27.923  1.00  0.00     0.251 C 
ATOM     34  H   UNL A   1      33.009  30.759  26.735  1.00  0.00     0.163 HD
ATOM     35  O   UNL A   1      34.210  31.661  28.621  1.00  0.00    -0.269 OA
BRANCH  33  36
ATOM     36  C   UNL A   1      35.951  30.149  28.172  1.00  0.00     0.039 A 
ATOM     37  C   UNL A   1      36.903  30.177  27.151  1.00  0.00     0.014 A 
ATOM     38  C   UNL A   1      36.266  29.591  29.414  1.00  0.00     0.014 A 
ATOM     39  C   UNL A   1      38.200  29.726  27.407  1.00  0.00     0.010 A 
ATOM     40  C   UNL A   1      37.579  29.225  29.692  1.00  0.00     0.010 A 
ATOM     41  C   UNL A   1      38.561  29.296  28.694  1.00  0.00    -0.014 A 
BRANCH  41  42
ATOM     42  C   UNL A   1      39.964  28.945  29.028  1.00  0.00     0.031 A 
ATOM     43  C   UNL A   1      40.880  29.975  29.629  1.00  0.00     0.074 A 
ATOM     44  C   UNL A   1      40.433  27.720  28.715  1.00  0.00     0.049 A 
ATOM     45  N   UNL A   1      42.156  29.885  29.905  1.00  0.00    -0.248 NA
ATOM     46  C   UNL A   1      40.291  31.289  29.937  1.00  0.00     0.031 C 
ATOM     47  C   UNL A   1      39.654  26.652  28.083  1.00  0.00     0.029 A 
ATOM     48  N   UNL A   1      41.681  27.171  28.868  1.00  0.00    -0.354 N 
ATOM     49  C   UNL A   1      42.524  31.127  30.406  1.00  0.00     0.074 A 
ATOM     50  C   UNL A   1      41.350  31.971  30.348  1.00  0.00     0.031 C 
ATOM     51  C   UNL A   1      40.436  25.572  27.922  1.00  0.00     0.029 A 
ATOM     52  C   UNL A   1      41.781  25.884  28.393  1.00  0.00     0.049 A 
ATOM     53  H   UNL A   1      42.435  27.653  29.279  1.00  0.00     0.167 HD
ATOM     54  C   UNL A   1      43.726  31.521  30.889  1.00  0.00     0.037 A 
ATOM     55  C   UNL A   1      42.841  25.053  28.328  1.00  0.00     0.037 A 
ATOM     56  C   UNL A   1      44.885  30.670  30.958  1.00  0.00     0.049 A 
ATOM     57  C   UNL A   1      44.170  25.522  28.852  1.00  0.00     0.074 A 
ATOM     58  C   UNL A   1      46.132  30.955  31.487  1.00  0.00     0.029 A 
ATOM     59  N   UNL A   1      44.945  29.370  30.476  1.00  0.00    -0.354 N 
ATOM     60  N   UNL A   1      44.483  26.677  29.389  1.00  0.00    -0.248 NA
ATOM     61  C   UNL A   1      45.290  24.575  28.765  1.00  0.00     0.031 C 
ATOM     62  C   UNL A   1      46.959  29.847  31.278  1.00  0.00     0.029 A 
ATOM     63  C   UNL A   1      46.215  28.851  30.668  1.00  0.00     0.049 A 
ATOM     64  H   UNL A   1      44.195  28.887  30.058  1.00  0.00     0.167 HD
ATOM     65  C   UNL A   1      45.832  26.590  29.720  1.00  0.00     0.074 A 
ATOM     66  C   UNL A   1      46.268  25.261  29.342  1.00  0.00     0.031 C 
ATOM     67  C   UNL A   1      46.635  27.525  30.284  1.00  0.00     0.037 A 
BRANCH  54  68
ATOM     68  C   UNL A   1      43.850  32.937  31.383  1.00  0.00     0.058 A 
ATOM     69  C   UNL A   1      43.559  33.283  32.713  1.00  0.00     0.135 A 
ATOM     70  C   UNL A   1      44.301  33.956  30.527  1.00  0.00     0.135 A 
ATOM     71  F   UNL A   1      43.109  32.353  33.571  1.00  0.00    -0.206 F 
ATOM     72  C   UNL A   1      43.684  34.591  33.170  1.00  0.00     0.059 A 
ATOM     73  C   UNL A   1      44.462  35.266  30.971  1.00  0.00     0.059 A 
ATOM     74  F   UNL A   1      44.592  33.683  29.246  1.00  0.00    -0.206 F 
ATOM     75  C   UNL A   1      44.138  35.576  32.291  1.00  0.00     0.060 A 
BRANCH  75  76
ATOM     76  S   UNL A   1      44.301  37.265  32.903  1.00  0.00     0.124 S 
ATOM     77  O   UNL A   1      43.932  38.040  31.723  1.00  0.00    -0.237 OA
ATOM     78  O   UNL A   1      43.343  37.292  34.004  1.00  0.00    -0.237 OA
ATOM     79  O   UNL A   1      45.704  37.352  33.295  1.00  0.00    -0.744 OA
ENDBRANCH  75  76
ENDBRANCH  54  68
BRANCH  55  80
ATOM     80  C   UNL A   1      42.682  23.691  27.750  1.00  0.00     0.058 A 
ATOM     81  C   UNL A   1      42.458  22.580  28.575  1.00  0.00     0.135 A 
ATOM     82  C   UNL A   1      42.741  23.474  26.364  1.00  0.00     0.135 A 
ATOM     83  F   UNL A   1      42.402  22.734  29.907  1.00  0.00    -0.206 F 
ATOM     84  C   UNL A   1      42.311  21.300  28.050  1.00  0.00     0.059 A 
ATOM     85  C   UNL A   1      42.569  22.209  25.814  1.00  0.00     0.059 A 
ATOM     86  F   UNL A   1      42.939  24.507  25.530  1.00  0.00    -0.206 F 
ATOM     87  C   UNL A   1      42.365  21.125  26.667  1.00  0.00     0.060 A 
BRANCH  87  88
ATOM     88  S   UNL A   1      42.122  19.466  25.994  1.00  0.00     0.124 S 
ATOM     89  O   UNL A   1      42.591  18.631  27.093  1.00  0.00    -0.237 OA
ATOM     90  O   UNL A   1      40.684  19.447  25.743  1.00  0.00    -0.237 OA
ATOM     91  O   UNL A   1      42.958  19.465  24.797  1.00  0.00    -0.744 OA
ENDBRANCH  87  88
ENDBRANCH  55  80
BRANCH  67  92
ATOM     92  C   UNL A   1      48.065  27.141  30.545  1.00  0.00     0.058 A 
ATOM     93  C   UNL A   1      49.071  27.348  29.588  1.00  0.00     0.135 A 
ATOM     94  C   UNL A   1      48.443  26.604  31.787  1.00  0.00     0.135 A 
ATOM     95  F   UNL A   1      48.762  27.851  28.383  1.00  0.00    -0.206 F 
ATOM     96  C   UNL A   1      50.397  27.017  29.844  1.00  0.00     0.059 A 
ATOM     97  C   UNL A   1      49.769  26.292  32.076  1.00  0.00     0.059 A 
ATOM     98  F   UNL A   1      47.523  26.393  32.742  1.00  0.00    -0.206 F 
ATOM     99  C   UNL A   1      50.737  26.492  31.093  1.00  0.00     0.060 A 
BRANCH  99 100
ATOM    100  S   UNL A   1      52.467  26.101  31.424  1.00  0.00     0.124 S 
ATOM    101  O   UNL A   1      53.049  26.182  30.088  1.00  0.00    -0.237 OA
ATOM    102  O   UNL A   1      52.856  27.161  32.349  1.00  0.00    -0.237 OA
ATOM    103  O   UNL A   1      52.409  24.762  32.004  1.00  0.00    -0.744 OA
ENDBRANCH  99 100
ENDBRANCH  67  92
ENDBRANCH  41  42
ENDBRANCH  33  36
ENDBRANCH  31  32
ENDBRANCH  30  31
ENDBRANCH   1  30
TORSDOF 18
ENDMDL
