MODEL 1
REMARK VINA RESULT:     -11.4      0.000      0.000
REMARK SMILES COc1ccc(F)cc1[C@@H](C(=O)NCCCNC(=O)c1ccc(-c2c3nc(c(-c4c(F)cc(S(=O)(=O)[O-])cc4F)c4ccc([nH]4)c(-c4c(F)cc(S(=O)(=O)[O-])cc4F)c4nc(c(-c5c(F)cc(S(=O)(=O)[O-])cc5F)c5ccc2[nH]5)C=C4)C=C3)cc1)[N@@H+](C)CCn1ccnc1C
REMARK SMILES IDX 14 1 13 2 11 3 12 4 10 6 9 7 3 8 4 9 5 10 8 11 6 12 7 13
REMARK SMILES IDX 2 14 1 15 86 16 87 17 88 19 89 20 90 21 91 22 94 23 92 24
REMARK SMILES IDX 93 25 95 26 15 27 16 28 17 29 18 30 19 32 20 33 21 34 85 35
REMARK SMILES IDX 22 36 84 37 23 38 24 39 25 40 78 41 26 42 83 43 77 44 79 45
REMARK SMILES IDX 27 46 82 47 76 48 75 49 28 51 62 52 41 53 61 54 42 55 45 56
REMARK SMILES IDX 60 57 80 58 43 59 44 60 59 62 81 63 46 64 29 65 30 66 39 67
REMARK SMILES IDX 31 68 32 69 38 70 40 71 33 72 34 73 35 74 36 75 37 76 63 77
REMARK SMILES IDX 64 78 73 79 65 80 66 81 72 82 74 83 67 84 68 85 69 86 70 87
REMARK SMILES IDX 71 88 47 89 48 90 57 91 49 92 50 93 56 94 58 95 51 96 52 97
REMARK SMILES IDX 53 98 54 99 55 100
REMARK H PARENT 13 5 86 18 17 31 79 50 45 61
REMARK Flexibility Score: inf
ROOT
ATOM      1  C   UNL A   1      33.829  29.138  27.769  1.00  0.00     0.118 C 
ENDROOT
BRANCH   1   2
ATOM      2  N   UNL A   1      32.569  29.644  27.195  1.00  0.00    -0.351 N 
ATOM      3  C   UNL A   1      31.831  28.946  26.255  1.00  0.00     0.283 C 
ATOM      4  O   UNL A   1      31.166  28.019  26.756  1.00  0.00    -0.268 OA
ATOM      5  H   UNL A   1      32.238  30.521  27.493  1.00  0.00     0.163 HD
BRANCH   3   6
ATOM      6  C   UNL A   1      31.546  29.375  24.691  1.00  0.00     0.309 C 
BRANCH   6   7
ATOM      7  C   UNL A   1      30.174  29.585  23.963  1.00  0.00     0.064 A 
ATOM      8  C   UNL A   1      29.465  28.522  23.369  1.00  0.00     0.128 A 
ATOM      9  C   UNL A   1      28.271  28.752  22.633  1.00  0.00     0.050 A 
ATOM     10  C   UNL A   1      27.763  30.036  22.445  1.00  0.00     0.043 A 
ATOM     11  C   UNL A   1      29.544  30.856  23.833  1.00  0.00     0.053 A 
ATOM     12  C   UNL A   1      28.395  31.080  23.074  1.00  0.00     0.124 A 
ATOM     13  F   UNL A   1      27.979  32.338  22.876  1.00  0.00    -0.207 F 
BRANCH   8  14
ATOM     14  O   UNL A   1      29.989  27.264  23.518  1.00  0.00    -0.496 OA
ATOM     15  C   UNL A   1      29.071  26.336  24.090  1.00  0.00     0.278 C 
ENDBRANCH   8  14
ENDBRANCH   6   7
BRANCH   6  16
ATOM     16  N   UNL A   1      32.441  28.580  23.810  1.00  0.00    -0.322 N 
ATOM     17  C   UNL A   1      33.005  29.328  22.685  1.00  0.00     0.333 C 
ATOM     18  H   UNL A   1      31.766  27.926  23.412  1.00  0.00     0.348 HD
BRANCH  16  19
ATOM     19  C   UNL A   1      33.392  27.658  24.442  1.00  0.00     0.285 C 
BRANCH  19  20
ATOM     20  C   UNL A   1      33.325  26.097  24.332  1.00  0.00     0.184 C 
BRANCH  20  21
ATOM     21  N   UNL A   1      33.572  25.102  23.278  1.00  0.00    -0.330 N 
ATOM     22  C   UNL A   1      34.090  23.880  23.740  1.00  0.00     0.107 A 
ATOM     23  C   UNL A   1      33.168  24.802  21.968  1.00  0.00     0.105 A 
ATOM     24  C   UNL A   1      33.935  22.954  22.754  1.00  0.00     0.131 A 
ATOM     25  N   UNL A   1      33.354  23.524  21.691  1.00  0.00    -0.242 NA
ATOM     26  C   UNL A   1      32.608  25.561  20.830  1.00  0.00     0.087 C 
ENDBRANCH  20  21
ENDBRANCH  19  20
ENDBRANCH  16  19
ENDBRANCH   6  16
ENDBRANCH   3   6
ENDBRANCH   1   2
BRANCH   1  27
ATOM     27  C   UNL A   1      35.128  29.971  27.583  1.00  0.00     0.042 C 
BRANCH  27  28
ATOM     28  C   UNL A   1      35.219  31.406  28.158  1.00  0.00     0.118 C 
BRANCH  28  29
ATOM     29  N   UNL A   1      35.483  31.354  29.601  1.00  0.00    -0.352 N 
ATOM     30  C   UNL A   1      36.253  30.483  30.341  1.00  0.00     0.251 C 
ATOM     31  H   UNL A   1      35.036  32.058  30.126  1.00  0.00     0.163 HD
ATOM     32  O   UNL A   1      35.881  30.223  31.487  1.00  0.00    -0.269 OA
BRANCH  30  33
ATOM     33  C   UNL A   1      37.535  29.901  29.852  1.00  0.00     0.039 A 
ATOM     34  C   UNL A   1      38.376  29.255  30.775  1.00  0.00     0.014 A 
ATOM     35  C   UNL A   1      38.014  30.137  28.561  1.00  0.00     0.014 A 
ATOM     36  C   UNL A   1      39.671  28.851  30.411  1.00  0.00     0.010 A 
ATOM     37  C   UNL A   1      39.291  29.691  28.185  1.00  0.00     0.010 A 
ATOM     38  C   UNL A   1      40.146  29.065  29.108  1.00  0.00    -0.014 A 
BRANCH  38  39
ATOM     39  C   UNL A   1      41.538  28.685  28.719  1.00  0.00     0.031 A 
ATOM     40  C   UNL A   1      42.648  29.711  28.753  1.00  0.00     0.074 A 
ATOM     41  C   UNL A   1      41.812  27.427  28.316  1.00  0.00     0.049 A 
ATOM     42  N   UNL A   1      43.904  29.589  28.403  1.00  0.00    -0.248 NA
ATOM     43  C   UNL A   1      42.291  31.056  29.231  1.00  0.00     0.031 C 
ATOM     44  C   UNL A   1      40.835  26.343  28.225  1.00  0.00     0.029 A 
ATOM     45  N   UNL A   1      42.989  26.845  27.905  1.00  0.00    -0.354 N 
ATOM     46  C   UNL A   1      44.482  30.838  28.606  1.00  0.00     0.074 A 
ATOM     47  C   UNL A   1      43.427  31.717  29.060  1.00  0.00     0.031 C 
ATOM     48  C   UNL A   1      41.454  25.223  27.815  1.00  0.00     0.029 A 
ATOM     49  C   UNL A   1      42.864  25.515  27.574  1.00  0.00     0.049 A 
ATOM     50  H   UNL A   1      43.841  27.335  27.854  1.00  0.00     0.167 HD
ATOM     51  C   UNL A   1      45.777  31.214  28.455  1.00  0.00     0.037 A 
ATOM     52  C   UNL A   1      43.778  24.630  27.125  1.00  0.00     0.037 A 
ATOM     53  C   UNL A   1      46.829  30.329  28.022  1.00  0.00     0.049 A 
ATOM     54  C   UNL A   1      45.203  25.075  26.933  1.00  0.00     0.074 A 
ATOM     55  C   UNL A   1      48.176  30.606  27.863  1.00  0.00     0.029 A 
ATOM     56  N   UNL A   1      46.654  28.993  27.685  1.00  0.00    -0.354 N 
ATOM     57  N   UNL A   1      45.734  26.255  27.153  1.00  0.00    -0.248 NA
ATOM     58  C   UNL A   1      46.156  24.072  26.437  1.00  0.00     0.031 C 
ATOM     59  C   UNL A   1      48.807  29.452  27.389  1.00  0.00     0.029 A 
ATOM     60  C   UNL A   1      47.866  28.439  27.305  1.00  0.00     0.049 A 
ATOM     61  H   UNL A   1      45.797  28.512  27.712  1.00  0.00     0.167 HD
ATOM     62  C   UNL A   1      47.085  26.129  26.847  1.00  0.00     0.074 A 
ATOM     63  C   UNL A   1      47.293  24.756  26.435  1.00  0.00     0.031 C 
ATOM     64  C   UNL A   1      48.063  27.066  26.906  1.00  0.00     0.037 A 
BRANCH  51  65
ATOM     65  C   UNL A   1      46.139  32.642  28.774  1.00  0.00     0.058 A 
ATOM     66  C   UNL A   1      46.135  33.627  27.774  1.00  0.00     0.135 A 
ATOM     67  C   UNL A   1      46.544  33.026  30.064  1.00  0.00     0.135 A 
ATOM     68  F   UNL A   1      45.758  33.321  26.523  1.00  0.00    -0.206 F 
ATOM     69  C   UNL A   1      46.525  34.938  28.038  1.00  0.00     0.059 A 
ATOM     70  C   UNL A   1      46.909  34.337  30.358  1.00  0.00     0.059 A 
ATOM     71  F   UNL A   1      46.551  32.129  31.064  1.00  0.00    -0.206 F 
ATOM     72  C   UNL A   1      46.909  35.284  29.334  1.00  0.00     0.060 A 
BRANCH  72  73
ATOM     73  S   UNL A   1      47.369  36.998  29.672  1.00  0.00     0.124 S 
ATOM     74  O   UNL A   1      46.097  37.576  30.088  1.00  0.00    -0.237 OA
ATOM     75  O   UNL A   1      48.372  36.844  30.721  1.00  0.00    -0.237 OA
ATOM     76  O   UNL A   1      47.886  37.468  28.390  1.00  0.00    -0.744 OA
ENDBRANCH  72  73
ENDBRANCH  51  65
BRANCH  52  77
ATOM     77  C   UNL A   1      43.373  23.220  26.867  1.00  0.00     0.058 A 
ATOM     78  C   UNL A   1      43.110  22.328  27.918  1.00  0.00     0.135 A 
ATOM     79  C   UNL A   1      43.289  22.725  25.556  1.00  0.00     0.135 A 
ATOM     80  F   UNL A   1      43.182  22.746  29.190  1.00  0.00    -0.206 F 
ATOM     81  C   UNL A   1      42.811  20.989  27.681  1.00  0.00     0.059 A 
ATOM     82  C   UNL A   1      42.966  21.396  25.294  1.00  0.00     0.059 A 
ATOM     83  F   UNL A   1      43.515  23.542  24.517  1.00  0.00    -0.206 F 
ATOM     84  C   UNL A   1      42.749  20.531  26.364  1.00  0.00     0.060 A 
BRANCH  84  85
ATOM     85  S   UNL A   1      42.386  18.783  26.087  1.00  0.00     0.124 S 
ATOM     86  O   UNL A   1      40.976  18.838  25.696  1.00  0.00    -0.237 OA
ATOM     87  O   UNL A   1      43.323  18.432  25.045  1.00  0.00    -0.237 OA
ATOM     88  O   UNL A   1      42.639  18.178  27.400  1.00  0.00    -0.744 OA
ENDBRANCH  84  85
ENDBRANCH  52  77
BRANCH  64  89
ATOM     89  C   UNL A   1      49.462  26.647  26.545  1.00  0.00     0.058 A 
ATOM     90  C   UNL A   1      49.917  26.761  25.222  1.00  0.00     0.135 A 
ATOM     91  C   UNL A   1      50.318  26.051  27.485  1.00  0.00     0.135 A 
ATOM     92  F   UNL A   1      49.137  27.319  24.283  1.00  0.00    -0.206 F 
ATOM     93  C   UNL A   1      51.162  26.277  24.836  1.00  0.00     0.059 A 
ATOM     94  C   UNL A   1      51.580  25.585  27.126  1.00  0.00     0.059 A 
ATOM     95  F   UNL A   1      49.934  25.928  28.765  1.00  0.00    -0.206 F 
ATOM     96  C   UNL A   1      51.985  25.685  25.796  1.00  0.00     0.060 A 
BRANCH  96  97
ATOM     97  S   UNL A   1      53.597  25.061  25.277  1.00  0.00     0.124 S 
ATOM     98  O   UNL A   1      53.753  25.684  23.967  1.00  0.00    -0.237 OA
ATOM     99  O   UNL A   1      54.476  25.565  26.328  1.00  0.00    -0.237 OA
ATOM    100  O   UNL A   1      53.414  23.613  25.265  1.00  0.00    -0.744 OA
ENDBRANCH  96  97
ENDBRANCH  64  89
ENDBRANCH  38  39
ENDBRANCH  30  33
ENDBRANCH  28  29
ENDBRANCH  27  28
ENDBRANCH   1  27
TORSDOF 19
ENDMDL
MODEL 2
REMARK VINA RESULT:     -11.3      4.910      9.813
REMARK SMILES COc1ccc(F)cc1[C@@H](C(=O)NCCCNC(=O)c1ccc(-c2c3nc(c(-c4c(F)cc(S(=O)(=O)[O-])cc4F)c4ccc([nH]4)c(-c4c(F)cc(S(=O)(=O)[O-])cc4F)c4nc(c(-c5c(F)cc(S(=O)(=O)[O-])cc5F)c5ccc2[nH]5)C=C4)C=C3)cc1)[N@@H+](C)CCn1ccnc1C
REMARK SMILES IDX 14 1 13 2 11 3 12 4 10 6 9 7 3 8 4 9 5 10 8 11 6 12 7 13
REMARK SMILES IDX 2 14 1 15 86 16 87 17 88 19 89 20 90 21 91 22 94 23 92 24
REMARK SMILES IDX 93 25 95 26 15 27 16 28 17 29 18 30 19 32 20 33 21 34 85 35
REMARK SMILES IDX 22 36 84 37 23 38 24 39 25 40 78 41 26 42 83 43 77 44 79 45
REMARK SMILES IDX 27 46 82 47 76 48 75 49 28 51 62 52 41 53 61 54 42 55 45 56
REMARK SMILES IDX 60 57 80 58 43 59 44 60 59 62 81 63 46 64 29 65 30 66 39 67
REMARK SMILES IDX 31 68 32 69 38 70 40 71 33 72 34 73 35 74 36 75 37 76 63 77
REMARK SMILES IDX 64 78 73 79 65 80 66 81 72 82 74 83 67 84 68 85 69 86 70 87
REMARK SMILES IDX 71 88 47 89 48 90 57 91 49 92 50 93 56 94 58 95 51 96 52 97
REMARK SMILES IDX 53 98 54 99 55 100
REMARK H PARENT 13 5 86 18 17 31 79 50 45 61
REMARK Flexibility Score: inf
ROOT
ATOM      1  C   UNL A   1      31.972  26.703  26.948  1.00  0.00     0.118 C 
ENDROOT
BRANCH   1   2
ATOM      2  N   UNL A   1      31.443  25.590  26.140  1.00  0.00    -0.351 N 
ATOM      3  C   UNL A   1      31.834  24.274  26.315  1.00  0.00     0.283 C 
ATOM      4  O   UNL A   1      31.296  23.739  27.304  1.00  0.00    -0.268 OA
ATOM      5  H   UNL A   1      30.781  25.792  25.440  1.00  0.00     0.163 HD
BRANCH   3   6
ATOM      6  C   UNL A   1      32.661  23.329  25.251  1.00  0.00     0.309 C 
BRANCH   6   7
ATOM      7  C   UNL A   1      34.180  22.943  25.252  1.00  0.00     0.064 A 
ATOM      8  C   UNL A   1      34.637  21.676  24.837  1.00  0.00     0.128 A 
ATOM      9  C   UNL A   1      36.009  21.318  24.937  1.00  0.00     0.050 A 
ATOM     10  C   UNL A   1      36.956  22.189  25.471  1.00  0.00     0.043 A 
ATOM     11  C   UNL A   1      35.211  23.827  25.680  1.00  0.00     0.053 A 
ATOM     12  C   UNL A   1      36.549  23.454  25.815  1.00  0.00     0.124 A 
ATOM     13  F   UNL A   1      37.411  24.308  26.385  1.00  0.00    -0.207 F 
BRANCH   8  14
ATOM     14  O   UNL A   1      33.698  20.804  24.352  1.00  0.00    -0.496 OA
ATOM     15  C   UNL A   1      33.930  19.452  24.742  1.00  0.00     0.278 C 
ENDBRANCH   8  14
ENDBRANCH   6   7
BRANCH   6  16
ATOM     16  N   UNL A   1      32.265  23.710  23.869  1.00  0.00    -0.322 N 
ATOM     17  C   UNL A   1      30.846  23.506  23.568  1.00  0.00     0.333 C 
ATOM     18  H   UNL A   1      32.777  23.007  23.335  1.00  0.00     0.348 HD
BRANCH  16  19
ATOM     19  C   UNL A   1      32.815  24.949  23.309  1.00  0.00     0.285 C 
BRANCH  19  20
ATOM     20  C   UNL A   1      31.972  26.041  22.566  1.00  0.00     0.184 C 
BRANCH  20  21
ATOM     21  N   UNL A   1      31.069  27.130  22.967  1.00  0.00    -0.330 N 
ATOM     22  C   UNL A   1      31.476  28.409  22.552  1.00  0.00     0.107 A 
ATOM     23  C   UNL A   1      29.735  27.331  23.353  1.00  0.00     0.105 A 
ATOM     24  C   UNL A   1      30.412  29.251  22.662  1.00  0.00     0.131 A 
ATOM     25  N   UNL A   1      29.354  28.576  23.130  1.00  0.00    -0.242 NA
ATOM     26  C   UNL A   1      28.668  26.503  23.958  1.00  0.00     0.087 C 
ENDBRANCH  20  21
ENDBRANCH  19  20
ENDBRANCH  16  19
ENDBRANCH   6  16
ENDBRANCH   3   6
ENDBRANCH   1   2
BRANCH   1  27
ATOM     27  C   UNL A   1      32.135  28.101  26.286  1.00  0.00     0.042 C 
BRANCH  27  28
ATOM     28  C   UNL A   1      33.541  28.608  25.881  1.00  0.00     0.118 C 
BRANCH  28  29
ATOM     29  N   UNL A   1      33.673  30.036  26.196  1.00  0.00    -0.352 N 
ATOM     30  C   UNL A   1      34.312  30.667  27.242  1.00  0.00     0.251 C 
ATOM     31  H   UNL A   1      33.232  30.641  25.556  1.00  0.00     0.163 HD
ATOM     32  O   UNL A   1      33.824  31.719  27.659  1.00  0.00    -0.269 OA
BRANCH  30  33
ATOM     33  C   UNL A   1      35.588  30.180  27.839  1.00  0.00     0.039 A 
ATOM     34  C   UNL A   1      35.569  29.682  29.153  1.00  0.00     0.014 A 
ATOM     35  C   UNL A   1      36.823  30.374  27.214  1.00  0.00     0.014 A 
ATOM     36  C   UNL A   1      36.763  29.382  29.828  1.00  0.00     0.010 A 
ATOM     37  C   UNL A   1      38.013  30.030  27.874  1.00  0.00     0.010 A 
ATOM     38  C   UNL A   1      38.004  29.553  29.195  1.00  0.00    -0.014 A 
BRANCH  38  39
ATOM     39  C   UNL A   1      39.285  29.284  29.917  1.00  0.00     0.031 A 
ATOM     40  C   UNL A   1      40.211  28.187  29.447  1.00  0.00     0.074 A 
ATOM     41  C   UNL A   1      39.615  30.008  31.006  1.00  0.00     0.049 A 
ATOM     42  N   UNL A   1      41.336  27.767  29.970  1.00  0.00    -0.248 NA
ATOM     43  C   UNL A   1      39.809  27.454  28.236  1.00  0.00     0.031 C 
ATOM     44  C   UNL A   1      38.809  31.088  31.574  1.00  0.00     0.029 A 
ATOM     45  N   UNL A   1      40.714  29.947  31.833  1.00  0.00    -0.354 N 
ATOM     46  C   UNL A   1      41.768  26.720  29.163  1.00  0.00     0.074 A 
ATOM     47  C   UNL A   1      40.757  26.533  28.145  1.00  0.00     0.031 C 
ATOM     48  C   UNL A   1      39.449  31.607  32.635  1.00  0.00     0.029 A 
ATOM     49  C   UNL A   1      40.693  30.872  32.852  1.00  0.00     0.049 A 
ATOM     50  H   UNL A   1      41.446  29.302  31.707  1.00  0.00     0.167 HD
ATOM     51  C   UNL A   1      42.913  25.997  29.242  1.00  0.00     0.037 A 
ATOM     52  C   UNL A   1      41.571  31.104  33.849  1.00  0.00     0.037 A 
ATOM     53  C   UNL A   1      43.928  26.200  30.246  1.00  0.00     0.049 A 
ATOM     54  C   UNL A   1      42.820  30.269  33.939  1.00  0.00     0.074 A 
ATOM     55  C   UNL A   1      45.134  25.538  30.397  1.00  0.00     0.029 A 
ATOM     56  N   UNL A   1      43.858  27.140  31.265  1.00  0.00    -0.354 N 
ATOM     57  N   UNL A   1      43.220  29.298  33.153  1.00  0.00    -0.248 NA
ATOM     58  C   UNL A   1      43.740  30.560  35.049  1.00  0.00     0.031 C 
ATOM     59  C   UNL A   1      45.774  26.047  31.531  1.00  0.00     0.029 A 
ATOM     60  C   UNL A   1      44.994  27.064  32.056  1.00  0.00     0.049 A 
ATOM     61  H   UNL A   1      43.113  27.767  31.406  1.00  0.00     0.167 HD
ATOM     62  C   UNL A   1      44.449  28.882  33.655  1.00  0.00     0.074 A 
ATOM     63  C   UNL A   1      44.731  29.711  34.809  1.00  0.00     0.031 C 
ATOM     64  C   UNL A   1      45.268  27.902  33.198  1.00  0.00     0.037 A 
BRANCH  51  65
ATOM     65  C   UNL A   1      43.144  24.924  28.209  1.00  0.00     0.058 A 
ATOM     66  C   UNL A   1      42.879  23.576  28.498  1.00  0.00     0.135 A 
ATOM     67  C   UNL A   1      43.681  25.225  26.946  1.00  0.00     0.135 A 
ATOM     68  F   UNL A   1      42.366  23.226  29.688  1.00  0.00    -0.206 F 
ATOM     69  C   UNL A   1      43.144  22.566  27.576  1.00  0.00     0.059 A 
ATOM     70  C   UNL A   1      43.925  24.235  25.998  1.00  0.00     0.059 A 
ATOM     71  F   UNL A   1      43.938  26.499  26.608  1.00  0.00    -0.206 F 
ATOM     72  C   UNL A   1      43.665  22.905  26.327  1.00  0.00     0.060 A 
BRANCH  72  73
ATOM     73  S   UNL A   1      43.960  21.589  25.126  1.00  0.00     0.124 S 
ATOM     74  O   UNL A   1      45.284  21.117  25.513  1.00  0.00    -0.237 OA
ATOM     75  O   UNL A   1      42.854  20.675  25.396  1.00  0.00    -0.237 OA
ATOM     76  O   UNL A   1      43.887  22.280  23.842  1.00  0.00    -0.744 OA
ENDBRANCH  72  73
ENDBRANCH  51  65
BRANCH  52  77
ATOM     77  C   UNL A   1      41.313  32.207  34.818  1.00  0.00     0.058 A 
ATOM     78  C   UNL A   1      41.835  33.494  34.620  1.00  0.00     0.135 A 
ATOM     79  C   UNL A   1      40.574  31.976  35.988  1.00  0.00     0.135 A 
ATOM     80  F   UNL A   1      42.553  33.768  33.521  1.00  0.00    -0.206 F 
ATOM     81  C   UNL A   1      41.663  34.503  35.563  1.00  0.00     0.059 A 
ATOM     82  C   UNL A   1      40.367  32.977  36.934  1.00  0.00     0.059 A 
ATOM     83  F   UNL A   1      40.040  30.766  36.215  1.00  0.00    -0.206 F 
ATOM     84  C   UNL A   1      40.933  34.232  36.722  1.00  0.00     0.060 A 
BRANCH  84  85
ATOM     85  S   UNL A   1      40.750  35.552  37.940  1.00  0.00     0.124 S 
ATOM     86  O   UNL A   1      42.122  36.054  38.034  1.00  0.00    -0.237 OA
ATOM     87  O   UNL A   1      39.792  36.429  37.307  1.00  0.00    -0.237 OA
ATOM     88  O   UNL A   1      40.269  34.842  39.132  1.00  0.00    -0.744 OA
ENDBRANCH  84  85
ENDBRANCH  52  77
BRANCH  64  89
ATOM     89  C   UNL A   1      46.568  27.679  33.921  1.00  0.00     0.058 A 
ATOM     90  C   UNL A   1      47.726  28.369  33.526  1.00  0.00     0.135 A 
ATOM     91  C   UNL A   1      46.691  26.722  34.940  1.00  0.00     0.135 A 
ATOM     92  F   UNL A   1      47.666  29.292  32.553  1.00  0.00    -0.206 F 
ATOM     93  C   UNL A   1      48.965  28.100  34.099  1.00  0.00     0.059 A 
ATOM     94  C   UNL A   1      47.916  26.457  35.546  1.00  0.00     0.059 A 
ATOM     95  F   UNL A   1      45.612  26.043  35.362  1.00  0.00    -0.206 F 
ATOM     96  C   UNL A   1      49.050  27.137  35.106  1.00  0.00     0.060 A 
BRANCH  96  97
ATOM     97  S   UNL A   1      50.666  26.800  35.836  1.00  0.00     0.124 S 
ATOM     98  O   UNL A   1      51.540  27.654  35.039  1.00  0.00    -0.237 OA
ATOM     99  O   UNL A   1      50.469  27.212  37.223  1.00  0.00    -0.237 OA
ATOM    100  O   UNL A   1      50.837  25.364  35.635  1.00  0.00    -0.744 OA
ENDBRANCH  96  97
ENDBRANCH  64  89
ENDBRANCH  38  39
ENDBRANCH  30  33
ENDBRANCH  28  29
ENDBRANCH  27  28
ENDBRANCH   1  27
TORSDOF 19
ENDMDL
MODEL 3
REMARK VINA RESULT:     -11.2      1.623      3.522
REMARK SMILES COc1ccc(F)cc1[C@@H](C(=O)NCCCNC(=O)c1ccc(-c2c3nc(c(-c4c(F)cc(S(=O)(=O)[O-])cc4F)c4ccc([nH]4)c(-c4c(F)cc(S(=O)(=O)[O-])cc4F)c4nc(c(-c5c(F)cc(S(=O)(=O)[O-])cc5F)c5ccc2[nH]5)C=C4)C=C3)cc1)[N@@H+](C)CCn1ccnc1C
REMARK SMILES IDX 14 1 13 2 11 3 12 4 10 6 9 7 3 8 4 9 5 10 8 11 6 12 7 13
REMARK SMILES IDX 2 14 1 15 86 16 87 17 88 19 89 20 90 21 91 22 94 23 92 24
REMARK SMILES IDX 93 25 95 26 15 27 16 28 17 29 18 30 19 32 20 33 21 34 85 35
REMARK SMILES IDX 22 36 84 37 23 38 24 39 25 40 78 41 26 42 83 43 77 44 79 45
REMARK SMILES IDX 27 46 82 47 76 48 75 49 28 51 62 52 41 53 61 54 42 55 45 56
REMARK SMILES IDX 60 57 80 58 43 59 44 60 59 62 81 63 46 64 29 65 30 66 39 67
REMARK SMILES IDX 31 68 32 69 38 70 40 71 33 72 34 73 35 74 36 75 37 76 63 77
REMARK SMILES IDX 64 78 73 79 65 80 66 81 72 82 74 83 67 84 68 85 69 86 70 87
REMARK SMILES IDX 71 88 47 89 48 90 57 91 49 92 50 93 56 94 58 95 51 96 52 97
REMARK SMILES IDX 53 98 54 99 55 100
REMARK H PARENT 13 5 86 18 17 31 79 50 45 61
REMARK Flexibility Score: inf
ROOT
ATOM      1  C   UNL A   1      32.686  29.193  27.307  1.00  0.00     0.118 C 
ENDROOT
BRANCH   1   2
ATOM      2  N   UNL A   1      33.080  27.811  26.981  1.00  0.00    -0.351 N 
ATOM      3  C   UNL A   1      33.143  27.327  25.686  1.00  0.00     0.283 C 
ATOM      4  O   UNL A   1      34.165  27.702  25.080  1.00  0.00    -0.268 OA
ATOM      5  H   UNL A   1      33.308  27.202  27.720  1.00  0.00     0.163 HD
BRANCH   3   6
ATOM      6  C   UNL A   1      32.206  26.152  25.014  1.00  0.00     0.309 C 
BRANCH   6   7
ATOM      7  C   UNL A   1      32.630  24.742  24.478  1.00  0.00     0.064 A 
ATOM      8  C   UNL A   1      33.190  24.558  23.198  1.00  0.00     0.128 A 
ATOM      9  C   UNL A   1      33.478  23.258  22.699  1.00  0.00     0.050 A 
ATOM     10  C   UNL A   1      33.198  22.111  23.439  1.00  0.00     0.043 A 
ATOM     11  C   UNL A   1      32.475  23.541  25.228  1.00  0.00     0.053 A 
ATOM     12  C   UNL A   1      32.721  22.266  24.716  1.00  0.00     0.124 A 
ATOM     13  F   UNL A   1      32.383  21.194  25.445  1.00  0.00    -0.207 F 
BRANCH   8  14
ATOM     14  O   UNL A   1      33.424  25.684  22.453  1.00  0.00    -0.496 OA
ATOM     15  C   UNL A   1      32.786  25.660  21.179  1.00  0.00     0.278 C 
ENDBRANCH   8  14
ENDBRANCH   6   7
BRANCH   6  16
ATOM     16  N   UNL A   1      31.287  26.783  24.030  1.00  0.00    -0.322 N 
ATOM     17  C   UNL A   1      29.967  26.155  23.945  1.00  0.00     0.333 C 
ATOM     18  H   UNL A   1      31.771  26.556  23.161  1.00  0.00     0.348 HD
BRANCH  16  19
ATOM     19  C   UNL A   1      31.249  28.248  23.961  1.00  0.00     0.285 C 
BRANCH  19  20
ATOM     20  C   UNL A   1      30.419  29.068  22.915  1.00  0.00     0.184 C 
BRANCH  20  21
ATOM     21  N   UNL A   1      29.074  29.661  22.866  1.00  0.00    -0.330 N 
ATOM     22  C   UNL A   1      28.023  28.736  22.983  1.00  0.00     0.107 A 
ATOM     23  C   UNL A   1      28.437  30.894  23.072  1.00  0.00     0.105 A 
ATOM     24  C   UNL A   1      26.885  29.421  23.281  1.00  0.00     0.131 A 
ATOM     25  N   UNL A   1      27.156  30.730  23.353  1.00  0.00    -0.242 NA
ATOM     26  C   UNL A   1      28.839  32.317  23.035  1.00  0.00     0.087 C 
ENDBRANCH  20  21
ENDBRANCH  19  20
ENDBRANCH  16  19
ENDBRANCH   6  16
ENDBRANCH   3   6
ENDBRANCH   1   2
BRANCH   1  27
ATOM     27  C   UNL A   1      33.737  30.329  27.159  1.00  0.00     0.042 C 
BRANCH  27  28
ATOM     28  C   UNL A   1      35.188  30.114  27.655  1.00  0.00     0.118 C 
BRANCH  28  29
ATOM     29  N   UNL A   1      35.295  30.477  29.074  1.00  0.00    -0.352 N 
ATOM     30  C   UNL A   1      36.230  30.120  30.022  1.00  0.00     0.251 C 
ATOM     31  H   UNL A   1      34.582  31.073  29.401  1.00  0.00     0.163 HD
ATOM     32  O   UNL A   1      35.846  30.002  31.187  1.00  0.00    -0.269 OA
BRANCH  30  33
ATOM     33  C   UNL A   1      37.678  29.938  29.721  1.00  0.00     0.039 A 
ATOM     34  C   UNL A   1      38.106  30.043  28.386  1.00  0.00     0.014 A 
ATOM     35  C   UNL A   1      38.586  29.487  30.681  1.00  0.00     0.014 A 
ATOM     36  C   UNL A   1      39.419  29.704  28.020  1.00  0.00     0.010 A 
ATOM     37  C   UNL A   1      39.911  29.192  30.322  1.00  0.00     0.010 A 
ATOM     38  C   UNL A   1      40.340  29.273  28.987  1.00  0.00    -0.014 A 
BRANCH  38  39
ATOM     39  C   UNL A   1      41.726  28.861  28.606  1.00  0.00     0.031 A 
ATOM     40  C   UNL A   1      42.853  29.867  28.624  1.00  0.00     0.074 A 
ATOM     41  C   UNL A   1      41.977  27.591  28.226  1.00  0.00     0.049 A 
ATOM     42  N   UNL A   1      44.107  29.716  28.277  1.00  0.00    -0.248 NA
ATOM     43  C   UNL A   1      42.521  31.227  29.077  1.00  0.00     0.031 C 
ATOM     44  C   UNL A   1      40.981  26.523  28.153  1.00  0.00     0.029 A 
ATOM     45  N   UNL A   1      43.144  26.981  27.827  1.00  0.00    -0.354 N 
ATOM     46  C   UNL A   1      44.708  30.958  28.459  1.00  0.00     0.074 A 
ATOM     47  C   UNL A   1      43.669  31.864  28.896  1.00  0.00     0.031 C 
ATOM     48  C   UNL A   1      41.580  25.386  27.763  1.00  0.00     0.029 A 
ATOM     49  C   UNL A   1      42.996  25.648  27.519  1.00  0.00     0.049 A 
ATOM     50  H   UNL A   1      44.005  27.455  27.768  1.00  0.00     0.167 HD
ATOM     51  C   UNL A   1      46.009  31.308  28.303  1.00  0.00     0.037 A 
ATOM     52  C   UNL A   1      43.894  24.739  27.087  1.00  0.00     0.037 A 
ATOM     53  C   UNL A   1      47.045  30.397  27.887  1.00  0.00     0.049 A 
ATOM     54  C   UNL A   1      45.326  25.155  26.889  1.00  0.00     0.074 A 
ATOM     55  C   UNL A   1      48.397  30.647  27.724  1.00  0.00     0.029 A 
ATOM     56  N   UNL A   1      46.847  29.059  27.573  1.00  0.00    -0.354 N 
ATOM     57  N   UNL A   1      45.878  26.329  27.088  1.00  0.00    -0.248 NA
ATOM     58  C   UNL A   1      46.262  24.126  26.411  1.00  0.00     0.031 C 
ATOM     59  C   UNL A   1      49.008  29.474  27.272  1.00  0.00     0.029 A 
ATOM     60  C   UNL A   1      48.049  28.477  27.205  1.00  0.00     0.049 A 
ATOM     61  H   UNL A   1      45.981  28.594  27.608  1.00  0.00     0.167 HD
ATOM     62  C   UNL A   1      47.227  26.173  26.787  1.00  0.00     0.074 A 
ATOM     63  C   UNL A   1      47.411  24.789  26.399  1.00  0.00     0.031 C 
ATOM     64  C   UNL A   1      48.222  27.094  26.830  1.00  0.00     0.037 A 
BRANCH  51  65
ATOM     65  C   UNL A   1      46.397  32.735  28.597  1.00  0.00     0.058 A 
ATOM     66  C   UNL A   1      46.747  33.133  29.897  1.00  0.00     0.135 A 
ATOM     67  C   UNL A   1      46.371  33.723  27.599  1.00  0.00     0.135 A 
ATOM     68  F   UNL A   1      46.789  32.234  30.893  1.00  0.00    -0.206 F 
ATOM     69  C   UNL A   1      47.049  34.459  30.198  1.00  0.00     0.059 A 
ATOM     70  C   UNL A   1      46.698  35.049  27.871  1.00  0.00     0.059 A 
ATOM     71  F   UNL A   1      46.060  33.397  26.334  1.00  0.00    -0.206 F 
ATOM     72  C   UNL A   1      47.024  35.410  29.178  1.00  0.00     0.060 A 
BRANCH  72  73
ATOM     73  S   UNL A   1      47.463  37.117  29.574  1.00  0.00     0.124 S 
ATOM     74  O   UNL A   1      46.585  37.400  30.703  1.00  0.00    -0.237 OA
ATOM     75  O   UNL A   1      48.884  37.002  29.886  1.00  0.00    -0.237 OA
ATOM     76  O   UNL A   1      47.160  37.839  28.342  1.00  0.00    -0.744 OA
ENDBRANCH  72  73
ENDBRANCH  51  65
BRANCH  52  77
ATOM     77  C   UNL A   1      43.464  23.331  26.853  1.00  0.00     0.058 A 
ATOM     78  C   UNL A   1      43.158  22.472  27.919  1.00  0.00     0.135 A 
ATOM     79  C   UNL A   1      43.399  22.807  25.553  1.00  0.00     0.135 A 
ATOM     80  F   UNL A   1      43.210  22.919  29.182  1.00  0.00    -0.206 F 
ATOM     81  C   UNL A   1      42.835  21.134  27.707  1.00  0.00     0.059 A 
ATOM     82  C   UNL A   1      43.053  21.479  25.315  1.00  0.00     0.059 A 
ATOM     83  F   UNL A   1      43.666  23.593  24.500  1.00  0.00    -0.206 F 
ATOM     84  C   UNL A   1      42.793  20.645  26.400  1.00  0.00     0.060 A 
BRANCH  84  85
ATOM     85  S   UNL A   1      42.397  18.900  26.157  1.00  0.00     0.124 S 
ATOM     86  O   UNL A   1      40.984  18.972  25.782  1.00  0.00    -0.237 OA
ATOM     87  O   UNL A   1      43.317  18.515  25.111  1.00  0.00    -0.237 OA
ATOM     88  O   UNL A   1      42.657  18.312  27.477  1.00  0.00    -0.744 OA
ENDBRANCH  84  85
ENDBRANCH  52  77
BRANCH  64  89
ATOM     89  C   UNL A   1      49.613  26.643  26.478  1.00  0.00     0.058 A 
ATOM     90  C   UNL A   1      50.089  26.770  25.163  1.00  0.00     0.135 A 
ATOM     91  C   UNL A   1      50.441  26.006  27.416  1.00  0.00     0.135 A 
ATOM     92  F   UNL A   1      49.336  27.368  24.225  1.00  0.00    -0.206 F 
ATOM     93  C   UNL A   1      51.325  26.260  24.783  1.00  0.00     0.059 A 
ATOM     94  C   UNL A   1      51.694  25.513  27.064  1.00  0.00     0.059 A 
ATOM     95  F   UNL A   1      50.038  25.869  28.689  1.00  0.00    -0.206 F 
ATOM     96  C   UNL A   1      52.119  25.627  25.741  1.00  0.00     0.060 A 
BRANCH  96  97
ATOM     97  S   UNL A   1      53.720  24.969  25.230  1.00  0.00     0.124 S 
ATOM     98  O   UNL A   1      53.493  23.530  25.311  1.00  0.00    -0.237 OA
ATOM     99  O   UNL A   1      53.862  25.515  23.883  1.00  0.00    -0.237 OA
ATOM    100  O   UNL A   1      54.644  25.515  26.220  1.00  0.00    -0.744 OA
ENDBRANCH  96  97
ENDBRANCH  64  89
ENDBRANCH  38  39
ENDBRANCH  30  33
ENDBRANCH  28  29
ENDBRANCH  27  28
ENDBRANCH   1  27
TORSDOF 19
ENDMDL
