MODEL 1
REMARK VINA RESULT:     -11.1      0.000      0.000
REMARK SMILES O=C(CCCNC(=O)N1CSC[C@@H]1C(=O)NCCCNC(=O)c1ccc(-c2c3nc(c(-c4c(F)cc(S(=O)(=O)[O-])cc4F)c4ccc([nH]4)c(-c4c(F)cc(S(=O)(=O)[O-])cc4F)c4nc(c(-c5c(F)cc(S(=O)(=O)[O-])cc5F)c5ccc2[nH]5)C=C4)C=C3)cc1)NC1CC1
REMARK SMILES IDX 14 1 15 2 16 3 13 5 9 6 10 7 11 8 12 9 7 10 6 11 8 13 5 14
REMARK SMILES IDX 4 15 3 16 2 17 1 18 89 19 90 21 91 22 92 23 17 24 18 25
REMARK SMILES IDX 19 26 20 27 21 28 22 30 23 31 24 32 88 33 25 34 87 35 26 36
REMARK SMILES IDX 27 37 28 38 81 39 29 40 86 41 80 42 82 43 30 44 85 45 79 46
REMARK SMILES IDX 78 47 31 49 65 50 44 51 64 52 45 53 48 54 63 55 83 56 46 57
REMARK SMILES IDX 47 58 62 60 84 61 49 62 32 63 33 64 42 65 34 66 35 67 41 68
REMARK SMILES IDX 43 69 36 70 37 71 38 72 39 73 40 74 66 75 67 76 76 77 68 78
REMARK SMILES IDX 69 79 75 80 77 81 70 82 71 83 72 84 73 85 74 86 50 87 51 88
REMARK SMILES IDX 60 89 52 90 53 91 59 92 61 93 54 94 55 95 56 96 57 97 58 98
REMARK H PARENT 16 4 6 12 89 20 20 29 82 48 48 59
REMARK Flexibility Score: inf
ROOT
ATOM      1  C   UNL A   1      35.186  22.640  26.343  1.00  0.00     0.243 C 
ATOM      2  O   UNL A   1      34.394  22.895  27.256  1.00  0.00    -0.273 OA
ATOM      3  N   UNL A   1      36.466  23.090  26.511  1.00  0.00    -0.354 N 
ATOM      4  H   UNL A   1      36.674  23.402  27.421  1.00  0.00     0.163 HD
ENDROOT
BRANCH   1   5
ATOM      5  C   UNL A   1      34.748  21.891  25.061  1.00  0.00     0.187 C 
ATOM      6  N   UNL A   1      33.973  22.767  24.170  1.00  0.00    -0.303 N 
ATOM      7  C   UNL A   1      32.805  22.138  23.605  1.00  0.00     0.192 C 
ATOM      8  S   UNL A   1      32.221  20.954  24.810  1.00  0.00    -0.138 SA
ATOM      9  C   UNL A   1      33.884  20.683  25.473  1.00  0.00     0.106 C 
BRANCH   6  10
ATOM     10  C   UNL A   1      34.623  23.637  23.346  1.00  0.00     0.318 C 
ATOM     11  N   UNL A   1      34.400  24.963  23.534  1.00  0.00    -0.338 N 
ATOM     12  H   UNL A   1      34.765  25.553  22.836  1.00  0.00     0.165 HD
ATOM     13  O   UNL A   1      35.411  23.268  22.480  1.00  0.00    -0.249 OA
BRANCH  11  14
ATOM     14  C   UNL A   1      33.700  25.638  24.617  1.00  0.00     0.118 C 
BRANCH  14  15
ATOM     15  C   UNL A   1      32.948  26.897  24.174  1.00  0.00     0.031 C 
BRANCH  15  16
ATOM     16  C   UNL A   1      33.681  28.222  24.390  1.00  0.00     0.102 C 
BRANCH  16  17
ATOM     17  C   UNL A   1      33.334  28.846  25.726  1.00  0.00     0.220 C 
ATOM     18  O   UNL A   1      32.201  28.791  26.183  1.00  0.00    -0.275 OA
ATOM     19  N   UNL A   1      34.396  29.522  26.297  1.00  0.00    -0.353 N 
ATOM     20  H   UNL A   1      35.258  29.500  25.821  1.00  0.00     0.163 HD
BRANCH  19  21
ATOM     21  C   UNL A   1      34.336  30.249  27.523  1.00  0.00     0.082 C 
ATOM     22  C   UNL A   1      35.213  31.466  27.686  1.00  0.00     0.027 C 
ATOM     23  C   UNL A   1      33.721  31.609  27.677  1.00  0.00     0.027 C 
ENDBRANCH  19  21
ENDBRANCH  16  17
ENDBRANCH  15  16
ENDBRANCH  14  15
ENDBRANCH  11  14
ENDBRANCH   6  10
ENDBRANCH   1   5
BRANCH   3  24
ATOM     24  C   UNL A   1      37.572  23.187  25.571  1.00  0.00     0.117 C 
BRANCH  24  25
ATOM     25  C   UNL A   1      38.799  22.433  26.076  1.00  0.00     0.042 C 
BRANCH  25  26
ATOM     26  C   UNL A   1      39.774  23.267  26.894  1.00  0.00     0.118 C 
BRANCH  26  27
ATOM     27  N   UNL A   1      40.695  24.020  26.067  1.00  0.00    -0.352 N 
ATOM     28  C   UNL A   1      41.144  25.316  26.159  1.00  0.00     0.251 C 
ATOM     29  H   UNL A   1      41.064  23.515  25.307  1.00  0.00     0.163 HD
ATOM     30  O   UNL A   1      41.783  25.769  25.212  1.00  0.00    -0.269 OA
BRANCH  28  31
ATOM     31  C   UNL A   1      40.868  26.183  27.337  1.00  0.00     0.039 A 
ATOM     32  C   UNL A   1      41.683  27.307  27.522  1.00  0.00     0.014 A 
ATOM     33  C   UNL A   1      39.901  25.888  28.303  1.00  0.00     0.014 A 
ATOM     34  C   UNL A   1      41.512  28.131  28.641  1.00  0.00     0.010 A 
ATOM     35  C   UNL A   1      39.663  26.768  29.366  1.00  0.00     0.010 A 
ATOM     36  C   UNL A   1      40.484  27.886  29.565  1.00  0.00    -0.014 A 
BRANCH  36  37
ATOM     37  C   UNL A   1      40.301  28.778  30.745  1.00  0.00     0.031 A 
ATOM     38  C   UNL A   1      41.169  28.630  31.972  1.00  0.00     0.074 A 
ATOM     39  C   UNL A   1      39.351  29.735  30.715  1.00  0.00     0.049 A 
ATOM     40  N   UNL A   1      41.191  29.357  33.062  1.00  0.00    -0.248 NA
ATOM     41  C   UNL A   1      42.123  27.511  31.985  1.00  0.00     0.031 C 
ATOM     42  C   UNL A   1      38.407  29.953  29.617  1.00  0.00     0.029 A 
ATOM     43  N   UNL A   1      39.029  30.712  31.625  1.00  0.00    -0.354 N 
ATOM     44  C   UNL A   1      42.149  28.780  33.889  1.00  0.00     0.074 A 
ATOM     45  C   UNL A   1      42.644  27.609  33.200  1.00  0.00     0.031 C 
ATOM     46  C   UNL A   1      37.643  31.021  29.897  1.00  0.00     0.029 A 
ATOM     47  C   UNL A   1      38.020  31.547  31.206  1.00  0.00     0.049 A 
ATOM     48  H   UNL A   1      39.478  30.806  32.495  1.00  0.00     0.167 HD
ATOM     49  C   UNL A   1      42.597  29.197  35.099  1.00  0.00     0.037 A 
ATOM     50  C   UNL A   1      37.466  32.623  31.799  1.00  0.00     0.037 A 
ATOM     51  C   UNL A   1      42.116  30.374  35.778  1.00  0.00     0.049 A 
ATOM     52  C   UNL A   1      37.995  33.082  33.131  1.00  0.00     0.074 A 
ATOM     53  C   UNL A   1      42.541  30.910  36.982  1.00  0.00     0.029 A 
ATOM     54  N   UNL A   1      41.101  31.197  35.315  1.00  0.00    -0.354 N 
ATOM     55  N   UNL A   1      38.951  32.563  33.864  1.00  0.00    -0.248 NA
ATOM     56  C   UNL A   1      37.380  34.286  33.707  1.00  0.00     0.031 C 
ATOM     57  C   UNL A   1      41.755  32.032  37.266  1.00  0.00     0.029 A 
ATOM     58  C   UNL A   1      40.875  32.228  36.214  1.00  0.00     0.049 A 
ATOM     59  H   UNL A   1      40.610  31.069  34.469  1.00  0.00     0.167 HD
ATOM     60  C   UNL A   1      39.070  33.391  34.975  1.00  0.00     0.074 A 
ATOM     61  C   UNL A   1      38.102  34.455  34.806  1.00  0.00     0.031 C 
ATOM     62  C   UNL A   1      39.906  33.280  36.039  1.00  0.00     0.037 A 
BRANCH  49  63
ATOM     63  C   UNL A   1      43.672  28.378  35.766  1.00  0.00     0.058 A 
ATOM     64  C   UNL A   1      43.360  27.328  36.647  1.00  0.00     0.135 A 
ATOM     65  C   UNL A   1      45.029  28.621  35.501  1.00  0.00     0.135 A 
ATOM     66  F   UNL A   1      42.080  27.057  36.950  1.00  0.00    -0.206 F 
ATOM     67  C   UNL A   1      44.352  26.575  37.266  1.00  0.00     0.059 A 
ATOM     68  C   UNL A   1      46.039  27.861  36.086  1.00  0.00     0.059 A 
ATOM     69  F   UNL A   1      45.388  29.608  34.665  1.00  0.00    -0.206 F 
ATOM     70  C   UNL A   1      45.690  26.849  36.980  1.00  0.00     0.060 A 
BRANCH  70  71
ATOM     71  S   UNL A   1      46.966  25.863  37.792  1.00  0.00     0.124 S 
ATOM     72  O   UNL A   1      46.671  24.528  37.281  1.00  0.00    -0.237 OA
ATOM     73  O   UNL A   1      48.196  26.472  37.295  1.00  0.00    -0.237 OA
ATOM     74  O   UNL A   1      46.701  26.065  39.213  1.00  0.00    -0.744 OA
ENDBRANCH  70  71
ENDBRANCH  49  63
BRANCH  50  75
ATOM     75  C   UNL A   1      36.373  33.365  31.115  1.00  0.00     0.058 A 
ATOM     76  C   UNL A   1      35.062  33.348  31.615  1.00  0.00     0.135 A 
ATOM     77  C   UNL A   1      36.620  34.121  29.959  1.00  0.00     0.135 A 
ATOM     78  F   UNL A   1      34.774  32.637  32.716  1.00  0.00    -0.206 F 
ATOM     79  C   UNL A   1      34.031  34.039  30.986  1.00  0.00     0.059 A 
ATOM     80  C   UNL A   1      35.612  34.842  29.326  1.00  0.00     0.059 A 
ATOM     81  F   UNL A   1      37.861  34.190  29.451  1.00  0.00    -0.206 F 
ATOM     82  C   UNL A   1      34.317  34.786  29.843  1.00  0.00     0.060 A 
BRANCH  82  83
ATOM     83  S   UNL A   1      32.987  35.730  29.066  1.00  0.00     0.124 S 
ATOM     84  O   UNL A   1      32.182  36.108  30.222  1.00  0.00    -0.237 OA
ATOM     85  O   UNL A   1      33.718  36.811  28.414  1.00  0.00    -0.237 OA
ATOM     86  O   UNL A   1      32.377  34.761  28.160  1.00  0.00    -0.744 OA
ENDBRANCH  82  83
ENDBRANCH  50  75
BRANCH  62  87
ATOM     87  C   UNL A   1      39.832  34.361  37.083  1.00  0.00     0.058 A 
ATOM     88  C   UNL A   1      39.006  34.246  38.214  1.00  0.00     0.135 A 
ATOM     89  C   UNL A   1      40.601  35.529  36.953  1.00  0.00     0.135 A 
ATOM     90  F   UNL A   1      38.247  33.152  38.387  1.00  0.00    -0.206 F 
ATOM     91  C   UNL A   1      38.907  35.271  39.150  1.00  0.00     0.059 A 
ATOM     92  C   UNL A   1      40.542  36.553  37.894  1.00  0.00     0.059 A 
ATOM     93  F   UNL A   1      41.421  35.686  35.901  1.00  0.00    -0.206 F 
ATOM     94  C   UNL A   1      39.674  36.424  38.976  1.00  0.00     0.060 A 
BRANCH  94  95
ATOM     95  S   UNL A   1      39.525  37.756  40.186  1.00  0.00     0.124 S 
ATOM     96  O   UNL A   1      38.656  38.694  39.484  1.00  0.00    -0.237 OA
ATOM     97  O   UNL A   1      38.928  37.075  41.332  1.00  0.00    -0.237 OA
ATOM     98  O   UNL A   1      40.904  38.198  40.376  1.00  0.00    -0.744 OA
ENDBRANCH  94  95
ENDBRANCH  62  87
ENDBRANCH  36  37
ENDBRANCH  28  31
ENDBRANCH  26  27
ENDBRANCH  25  26
ENDBRANCH  24  25
ENDBRANCH   3  24
TORSDOF 19
ENDMDL
MODEL 2
REMARK VINA RESULT:     -10.8      1.287      2.230
REMARK SMILES O=C(CCCNC(=O)N1CSC[C@@H]1C(=O)NCCCNC(=O)c1ccc(-c2c3nc(c(-c4c(F)cc(S(=O)(=O)[O-])cc4F)c4ccc([nH]4)c(-c4c(F)cc(S(=O)(=O)[O-])cc4F)c4nc(c(-c5c(F)cc(S(=O)(=O)[O-])cc5F)c5ccc2[nH]5)C=C4)C=C3)cc1)NC1CC1
REMARK SMILES IDX 14 1 15 2 16 3 13 5 9 6 10 7 11 8 12 9 7 10 6 11 8 13 5 14
REMARK SMILES IDX 4 15 3 16 2 17 1 18 89 19 90 21 91 22 92 23 17 24 18 25
REMARK SMILES IDX 19 26 20 27 21 28 22 30 23 31 24 32 88 33 25 34 87 35 26 36
REMARK SMILES IDX 27 37 28 38 81 39 29 40 86 41 80 42 82 43 30 44 85 45 79 46
REMARK SMILES IDX 78 47 31 49 65 50 44 51 64 52 45 53 48 54 63 55 83 56 46 57
REMARK SMILES IDX 47 58 62 60 84 61 49 62 32 63 33 64 42 65 34 66 35 67 41 68
REMARK SMILES IDX 43 69 36 70 37 71 38 72 39 73 40 74 66 75 67 76 76 77 68 78
REMARK SMILES IDX 69 79 75 80 77 81 70 82 71 83 72 84 73 85 74 86 50 87 51 88
REMARK SMILES IDX 60 89 52 90 53 91 59 92 61 93 54 94 55 95 56 96 57 97 58 98
REMARK H PARENT 16 4 6 12 89 20 20 29 82 48 48 59
REMARK Flexibility Score: inf
ROOT
ATOM      1  C   UNL A   1      35.175  21.761  26.175  1.00  0.00     0.243 C 
ATOM      2  O   UNL A   1      34.374  21.647  27.108  1.00  0.00    -0.273 OA
ATOM      3  N   UNL A   1      36.399  22.281  26.490  1.00  0.00    -0.354 N 
ATOM      4  H   UNL A   1      36.586  22.331  27.455  1.00  0.00     0.163 HD
ENDROOT
BRANCH   1   5
ATOM      5  C   UNL A   1      34.802  21.380  24.722  1.00  0.00     0.187 C 
ATOM      6  N   UNL A   1      33.741  22.254  24.196  1.00  0.00    -0.303 N 
ATOM      7  C   UNL A   1      32.713  21.550  23.470  1.00  0.00     0.192 C 
ATOM      8  S   UNL A   1      32.577  19.927  24.207  1.00  0.00    -0.138 SA
ATOM      9  C   UNL A   1      34.316  19.917  24.709  1.00  0.00     0.106 C 
BRANCH   6  10
ATOM     10  C   UNL A   1      34.061  23.486  23.710  1.00  0.00     0.318 C 
ATOM     11  N   UNL A   1      33.555  24.566  24.358  1.00  0.00    -0.338 N 
ATOM     12  H   UNL A   1      33.682  25.428  23.900  1.00  0.00     0.165 HD
ATOM     13  O   UNL A   1      34.801  23.647  22.744  1.00  0.00    -0.249 OA
BRANCH  11  14
ATOM     14  C   UNL A   1      32.854  24.635  25.632  1.00  0.00     0.118 C 
BRANCH  14  15
ATOM     15  C   UNL A   1      31.329  24.570  25.499  1.00  0.00     0.031 C 
BRANCH  15  16
ATOM     16  C   UNL A   1      30.607  25.917  25.445  1.00  0.00     0.102 C 
BRANCH  16  17
ATOM     17  C   UNL A   1      30.414  26.396  24.021  1.00  0.00     0.220 C 
ATOM     18  O   UNL A   1      30.915  25.806  23.074  1.00  0.00    -0.275 OA
ATOM     19  N   UNL A   1      29.698  27.576  23.942  1.00  0.00    -0.353 N 
ATOM     20  H   UNL A   1      29.357  27.958  24.783  1.00  0.00     0.163 HD
BRANCH  19  21
ATOM     21  C   UNL A   1      29.417  28.280  22.733  1.00  0.00     0.082 C 
ATOM     22  C   UNL A   1      28.280  29.272  22.722  1.00  0.00     0.027 C 
ATOM     23  C   UNL A   1      29.688  29.741  22.517  1.00  0.00     0.027 C 
ENDBRANCH  19  21
ENDBRANCH  16  17
ENDBRANCH  15  16
ENDBRANCH  14  15
ENDBRANCH  11  14
ENDBRANCH   6  10
ENDBRANCH   1   5
BRANCH   3  24
ATOM     24  C   UNL A   1      37.472  22.773  25.641  1.00  0.00     0.117 C 
BRANCH  24  25
ATOM     25  C   UNL A   1      38.832  22.262  26.109  1.00  0.00     0.042 C 
BRANCH  25  26
ATOM     26  C   UNL A   1      39.656  23.264  26.904  1.00  0.00     0.118 C 
BRANCH  26  27
ATOM     27  N   UNL A   1      40.577  24.013  26.074  1.00  0.00    -0.352 N 
ATOM     28  C   UNL A   1      41.038  25.305  26.168  1.00  0.00     0.251 C 
ATOM     29  H   UNL A   1      40.937  23.508  25.309  1.00  0.00     0.163 HD
ATOM     30  O   UNL A   1      41.674  25.756  25.218  1.00  0.00    -0.269 OA
BRANCH  28  31
ATOM     31  C   UNL A   1      40.777  26.170  27.351  1.00  0.00     0.039 A 
ATOM     32  C   UNL A   1      41.589  27.298  27.523  1.00  0.00     0.014 A 
ATOM     33  C   UNL A   1      39.828  25.869  28.333  1.00  0.00     0.014 A 
ATOM     34  C   UNL A   1      41.433  28.121  28.645  1.00  0.00     0.010 A 
ATOM     35  C   UNL A   1      39.604  26.746  29.400  1.00  0.00     0.010 A 
ATOM     36  C   UNL A   1      40.422  27.869  29.586  1.00  0.00    -0.014 A 
BRANCH  36  37
ATOM     37  C   UNL A   1      40.255  28.759  30.770  1.00  0.00     0.031 A 
ATOM     38  C   UNL A   1      41.132  28.603  31.989  1.00  0.00     0.074 A 
ATOM     39  C   UNL A   1      39.311  29.723  30.750  1.00  0.00     0.049 A 
ATOM     40  N   UNL A   1      41.168  29.327  33.081  1.00  0.00    -0.248 NA
ATOM     41  C   UNL A   1      42.079  27.477  31.992  1.00  0.00     0.031 C 
ATOM     42  C   UNL A   1      38.359  29.949  29.661  1.00  0.00     0.029 A 
ATOM     43  N   UNL A   1      39.002  30.699  31.665  1.00  0.00    -0.354 N 
ATOM     44  C   UNL A   1      42.129  28.741  33.899  1.00  0.00     0.074 A 
ATOM     45  C   UNL A   1      42.611  27.569  33.203  1.00  0.00     0.031 C 
ATOM     46  C   UNL A   1      37.604  31.021  29.950  1.00  0.00     0.029 A 
ATOM     47  C   UNL A   1      37.995  31.542  31.257  1.00  0.00     0.049 A 
ATOM     48  H   UNL A   1      39.460  30.788  32.532  1.00  0.00     0.167 HD
ATOM     49  C   UNL A   1      42.590  29.153  35.106  1.00  0.00     0.037 A 
ATOM     50  C   UNL A   1      37.453  32.619  31.857  1.00  0.00     0.037 A 
ATOM     51  C   UNL A   1      42.122  30.331  35.791  1.00  0.00     0.049 A 
ATOM     52  C   UNL A   1      37.996  33.072  33.185  1.00  0.00     0.074 A 
ATOM     53  C   UNL A   1      42.560  30.861  36.993  1.00  0.00     0.029 A 
ATOM     54  N   UNL A   1      41.108  31.162  35.339  1.00  0.00    -0.354 N 
ATOM     55  N   UNL A   1      38.955  32.545  33.909  1.00  0.00    -0.248 NA
ATOM     56  C   UNL A   1      37.394  34.279  33.770  1.00  0.00     0.031 C 
ATOM     57  C   UNL A   1      41.784  31.987  37.287  1.00  0.00     0.029 A 
ATOM     58  C   UNL A   1      40.897  32.192  36.243  1.00  0.00     0.049 A 
ATOM     59  H   UNL A   1      40.610  31.039  34.497  1.00  0.00     0.167 HD
ATOM     60  C   UNL A   1      39.089  33.369  35.021  1.00  0.00     0.074 A 
ATOM     61  C   UNL A   1      38.126  34.440  34.863  1.00  0.00     0.031 C 
ATOM     62  C   UNL A   1      39.933  33.251  36.078  1.00  0.00     0.037 A 
BRANCH  49  63
ATOM     63  C   UNL A   1      43.664  28.325  35.762  1.00  0.00     0.058 A 
ATOM     64  C   UNL A   1      45.029  28.583  35.547  1.00  0.00     0.135 A 
ATOM     65  C   UNL A   1      43.331  27.281  36.641  1.00  0.00     0.135 A 
ATOM     66  F   UNL A   1      45.409  29.559  34.707  1.00  0.00    -0.206 F 
ATOM     67  C   UNL A   1      46.021  27.815  36.150  1.00  0.00     0.059 A 
ATOM     68  C   UNL A   1      44.307  26.519  37.279  1.00  0.00     0.059 A 
ATOM     69  F   UNL A   1      42.044  26.991  36.888  1.00  0.00    -0.206 F 
ATOM     70  C   UNL A   1      45.650  26.783  37.014  1.00  0.00     0.060 A 
BRANCH  70  71
ATOM     71  S   UNL A   1      46.949  25.797  37.787  1.00  0.00     0.124 S 
ATOM     72  O   UNL A   1      48.149  26.512  37.364  1.00  0.00    -0.237 OA
ATOM     73  O   UNL A   1      46.617  25.900  39.205  1.00  0.00    -0.237 OA
ATOM     74  O   UNL A   1      46.767  24.472  37.200  1.00  0.00    -0.744 OA
ENDBRANCH  70  71
ENDBRANCH  49  63
BRANCH  50  75
ATOM     75  C   UNL A   1      36.360  33.371  31.184  1.00  0.00     0.058 A 
ATOM     76  C   UNL A   1      36.606  34.128  30.028  1.00  0.00     0.135 A 
ATOM     77  C   UNL A   1      35.044  33.333  31.670  1.00  0.00     0.135 A 
ATOM     78  F   UNL A   1      37.848  34.200  29.527  1.00  0.00    -0.206 F 
ATOM     79  C   UNL A   1      35.593  34.835  29.388  1.00  0.00     0.059 A 
ATOM     80  C   UNL A   1      34.008  34.009  31.033  1.00  0.00     0.059 A 
ATOM     81  F   UNL A   1      34.749  32.605  32.759  1.00  0.00    -0.206 F 
ATOM     82  C   UNL A   1      34.295  34.766  29.897  1.00  0.00     0.060 A 
BRANCH  82  83
ATOM     83  S   UNL A   1      32.973  35.636  29.026  1.00  0.00     0.124 S 
ATOM     84  O   UNL A   1      32.462  34.590  28.149  1.00  0.00    -0.237 OA
ATOM     85  O   UNL A   1      32.097  36.036  30.122  1.00  0.00    -0.237 OA
ATOM     86  O   UNL A   1      33.675  36.732  28.364  1.00  0.00    -0.744 OA
ENDBRANCH  82  83
ENDBRANCH  50  75
BRANCH  62  87
ATOM     87  C   UNL A   1      39.874  34.330  37.125  1.00  0.00     0.058 A 
ATOM     88  C   UNL A   1      39.177  34.156  38.332  1.00  0.00     0.135 A 
ATOM     89  C   UNL A   1      40.529  35.555  36.921  1.00  0.00     0.135 A 
ATOM     90  F   UNL A   1      38.530  33.005  38.579  1.00  0.00    -0.206 F 
ATOM     91  C   UNL A   1      39.087  35.176  39.274  1.00  0.00     0.059 A 
ATOM     92  C   UNL A   1      40.480  36.577  37.864  1.00  0.00     0.059 A 
ATOM     93  F   UNL A   1      41.225  35.771  35.792  1.00  0.00    -0.206 F 
ATOM     94  C   UNL A   1      39.736  36.387  39.027  1.00  0.00     0.060 A 
BRANCH  94  95
ATOM     95  S   UNL A   1      39.599  37.710  40.247  1.00  0.00     0.124 S 
ATOM     96  O   UNL A   1      38.715  38.648  39.563  1.00  0.00    -0.237 OA
ATOM     97  O   UNL A   1      39.024  37.019  41.397  1.00  0.00    -0.237 OA
ATOM     98  O   UNL A   1      40.978  38.158  40.417  1.00  0.00    -0.744 OA
ENDBRANCH  94  95
ENDBRANCH  62  87
ENDBRANCH  36  37
ENDBRANCH  28  31
ENDBRANCH  26  27
ENDBRANCH  25  26
ENDBRANCH  24  25
ENDBRANCH   3  24
TORSDOF 19
ENDMDL
MODEL 3
REMARK VINA RESULT:     -10.7      6.583     12.487
REMARK SMILES O=C(CCCNC(=O)N1CSC[C@@H]1C(=O)NCCCNC(=O)c1ccc(-c2c3nc(c(-c4c(F)cc(S(=O)(=O)[O-])cc4F)c4ccc([nH]4)c(-c4c(F)cc(S(=O)(=O)[O-])cc4F)c4nc(c(-c5c(F)cc(S(=O)(=O)[O-])cc5F)c5ccc2[nH]5)C=C4)C=C3)cc1)NC1CC1
REMARK SMILES IDX 14 1 15 2 16 3 13 5 9 6 10 7 11 8 12 9 7 10 6 11 8 13 5 14
REMARK SMILES IDX 4 15 3 16 2 17 1 18 89 19 90 21 91 22 92 23 17 24 18 25
REMARK SMILES IDX 19 26 20 27 21 28 22 30 23 31 24 32 88 33 25 34 87 35 26 36
REMARK SMILES IDX 27 37 28 38 81 39 29 40 86 41 80 42 82 43 30 44 85 45 79 46
REMARK SMILES IDX 78 47 31 49 65 50 44 51 64 52 45 53 48 54 63 55 83 56 46 57
REMARK SMILES IDX 47 58 62 60 84 61 49 62 32 63 33 64 42 65 34 66 35 67 41 68
REMARK SMILES IDX 43 69 36 70 37 71 38 72 39 73 40 74 66 75 67 76 76 77 68 78
REMARK SMILES IDX 69 79 75 80 77 81 70 82 71 83 72 84 73 85 74 86 50 87 51 88
REMARK SMILES IDX 60 89 52 90 53 91 59 92 61 93 54 94 55 95 56 96 57 97 58 98
REMARK H PARENT 16 4 6 12 89 20 20 29 82 48 48 59
REMARK Flexibility Score: inf
ROOT
ATOM      1  C   UNL A   1      32.999  29.138  24.713  1.00  0.00     0.243 C 
ATOM      2  O   UNL A   1      33.597  28.933  23.652  1.00  0.00    -0.273 OA
ATOM      3  N   UNL A   1      33.729  29.711  25.716  1.00  0.00    -0.354 N 
ATOM      4  H   UNL A   1      34.597  30.078  25.432  1.00  0.00     0.163 HD
ENDROOT
BRANCH   1   5
ATOM      5  C   UNL A   1      31.520  28.729  24.914  1.00  0.00     0.187 C 
ATOM      6  N   UNL A   1      31.364  27.266  24.906  1.00  0.00    -0.303 N 
ATOM      7  C   UNL A   1      30.234  26.804  24.139  1.00  0.00     0.192 C 
ATOM      8  S   UNL A   1      30.003  27.970  22.804  1.00  0.00    -0.138 SA
ATOM      9  C   UNL A   1      30.685  29.341  23.771  1.00  0.00     0.106 C 
BRANCH   6  10
ATOM     10  C   UNL A   1      31.634  26.553  26.036  1.00  0.00     0.318 C 
ATOM     11  N   UNL A   1      32.600  25.603  25.961  1.00  0.00    -0.338 N 
ATOM     12  H   UNL A   1      32.669  25.011  26.745  1.00  0.00     0.165 HD
ATOM     13  O   UNL A   1      31.065  26.761  27.104  1.00  0.00    -0.249 OA
BRANCH  11  14
ATOM     14  C   UNL A   1      33.550  25.334  24.892  1.00  0.00     0.118 C 
BRANCH  14  15
ATOM     15  C   UNL A   1      34.785  24.550  25.349  1.00  0.00     0.031 C 
BRANCH  15  16
ATOM     16  C   UNL A   1      34.510  23.193  26.000  1.00  0.00     0.102 C 
BRANCH  16  17
ATOM     17  C   UNL A   1      34.308  22.103  24.967  1.00  0.00     0.220 C 
ATOM     18  O   UNL A   1      34.238  22.358  23.774  1.00  0.00    -0.275 OA
ATOM     19  N   UNL A   1      34.143  20.852  25.531  1.00  0.00    -0.353 N 
ATOM     20  H   UNL A   1      34.211  20.782  26.511  1.00  0.00     0.163 HD
BRANCH  19  21
ATOM     21  C   UNL A   1      33.880  19.656  24.799  1.00  0.00     0.082 C 
ATOM     22  C   UNL A   1      32.867  18.681  25.347  1.00  0.00     0.027 C 
ATOM     23  C   UNL A   1      32.611  19.380  24.046  1.00  0.00     0.027 C 
ENDBRANCH  19  21
ENDBRANCH  16  17
ENDBRANCH  15  16
ENDBRANCH  14  15
ENDBRANCH  11  14
ENDBRANCH   6  10
ENDBRANCH   1   5
BRANCH   3  24
ATOM     24  C   UNL A   1      33.439  29.871  27.132  1.00  0.00     0.117 C 
BRANCH  24  25
ATOM     25  C   UNL A   1      33.980  31.196  27.665  1.00  0.00     0.042 C 
BRANCH  25  26
ATOM     26  C   UNL A   1      35.411  31.145  28.180  1.00  0.00     0.118 C 
BRANCH  26  27
ATOM     27  N   UNL A   1      35.483  30.877  29.602  1.00  0.00    -0.352 N 
ATOM     28  C   UNL A   1      36.437  30.237  30.357  1.00  0.00     0.251 C 
ATOM     29  H   UNL A   1      34.714  31.212  30.118  1.00  0.00     0.163 HD
ATOM     30  O   UNL A   1      36.162  29.977  31.527  1.00  0.00    -0.269 OA
BRANCH  28  31
ATOM     31  C   UNL A   1      37.761  29.834  29.810  1.00  0.00     0.039 A 
ATOM     32  C   UNL A   1      38.775  29.523  30.724  1.00  0.00     0.014 A 
ATOM     33  C   UNL A   1      38.064  29.832  28.445  1.00  0.00     0.014 A 
ATOM     34  C   UNL A   1      40.059  29.192  30.276  1.00  0.00     0.010 A 
ATOM     35  C   UNL A   1      39.317  29.403  27.993  1.00  0.00     0.010 A 
ATOM     36  C   UNL A   1      40.341  29.104  28.903  1.00  0.00    -0.014 A 
BRANCH  36  37
ATOM     37  C   UNL A   1      41.707  28.736  28.435  1.00  0.00     0.031 A 
ATOM     38  C   UNL A   1      42.814  29.762  28.388  1.00  0.00     0.074 A 
ATOM     39  C   UNL A   1      41.962  27.468  28.053  1.00  0.00     0.049 A 
ATOM     40  N   UNL A   1      44.075  29.605  28.069  1.00  0.00    -0.248 NA
ATOM     41  C   UNL A   1      42.456  31.148  28.726  1.00  0.00     0.031 C 
ATOM     42  C   UNL A   1      40.972  26.389  27.995  1.00  0.00     0.029 A 
ATOM     43  N   UNL A   1      43.128  26.865  27.653  1.00  0.00    -0.354 N 
ATOM     44  C   UNL A   1      44.654  30.866  28.158  1.00  0.00     0.074 A 
ATOM     45  C   UNL A   1      43.595  31.788  28.504  1.00  0.00     0.031 C 
ATOM     46  C   UNL A   1      41.581  25.251  27.628  1.00  0.00     0.029 A 
ATOM     47  C   UNL A   1      42.997  25.521  27.394  1.00  0.00     0.049 A 
ATOM     48  H   UNL A   1      43.980  27.350  27.561  1.00  0.00     0.167 HD
ATOM     49  C   UNL A   1      45.952  31.225  27.994  1.00  0.00     0.037 A 
ATOM     50  C   UNL A   1      43.911  24.604  27.021  1.00  0.00     0.037 A 
ATOM     51  C   UNL A   1      47.011  30.303  27.666  1.00  0.00     0.049 A 
ATOM     52  C   UNL A   1      45.349  25.019  26.868  1.00  0.00     0.074 A 
ATOM     53  C   UNL A   1      48.364  30.559  27.528  1.00  0.00     0.029 A 
ATOM     54  N   UNL A   1      46.836  28.949  27.421  1.00  0.00    -0.354 N 
ATOM     55  N   UNL A   1      45.888  26.204  27.026  1.00  0.00    -0.248 NA
ATOM     56  C   UNL A   1      46.306  23.966  26.501  1.00  0.00     0.031 C 
ATOM     57  C   UNL A   1      49.001  29.369  27.160  1.00  0.00     0.029 A 
ATOM     58  C   UNL A   1      48.053  28.359  27.120  1.00  0.00     0.049 A 
ATOM     59  H   UNL A   1      45.972  28.476  27.456  1.00  0.00     0.167 HD
ATOM     60  C   UNL A   1      47.251  26.034  26.806  1.00  0.00     0.074 A 
ATOM     61  C   UNL A   1      47.454  24.628  26.522  1.00  0.00     0.031 C 
ATOM     62  C   UNL A   1      48.244  26.959  26.835  1.00  0.00     0.037 A 
BRANCH  49  63
ATOM     63  C   UNL A   1      46.303  32.679  28.175  1.00  0.00     0.058 A 
ATOM     64  C   UNL A   1      46.129  33.615  27.141  1.00  0.00     0.135 A 
ATOM     65  C   UNL A   1      46.789  33.153  29.405  1.00  0.00     0.135 A 
ATOM     66  F   UNL A   1      45.681  33.219  25.939  1.00  0.00    -0.206 F 
ATOM     67  C   UNL A   1      46.458  34.957  27.307  1.00  0.00     0.059 A 
ATOM     68  C   UNL A   1      47.096  34.497  29.604  1.00  0.00     0.059 A 
ATOM     69  F   UNL A   1      46.971  32.306  30.431  1.00  0.00    -0.206 F 
ATOM     70  C   UNL A   1      46.942  35.389  28.543  1.00  0.00     0.060 A 
BRANCH  70  71
ATOM     71  S   UNL A   1      47.363  37.133  28.743  1.00  0.00     0.124 S 
ATOM     72  O   UNL A   1      47.197  37.310  30.182  1.00  0.00    -0.237 OA
ATOM     73  O   UNL A   1      48.738  37.180  28.254  1.00  0.00    -0.237 OA
ATOM     74  O   UNL A   1      46.382  37.819  27.907  1.00  0.00    -0.744 OA
ENDBRANCH  70  71
ENDBRANCH  49  63
BRANCH  50  75
ATOM     75  C   UNL A   1      43.498  23.190  26.808  1.00  0.00     0.058 A 
ATOM     76  C   UNL A   1      43.441  22.638  25.519  1.00  0.00     0.135 A 
ATOM     77  C   UNL A   1      43.170  22.357  27.889  1.00  0.00     0.135 A 
ATOM     78  F   UNL A   1      43.741  23.395  24.453  1.00  0.00    -0.206 F 
ATOM     79  C   UNL A   1      43.057  21.318  25.306  1.00  0.00     0.059 A 
ATOM     80  C   UNL A   1      42.809  21.026  27.704  1.00  0.00     0.059 A 
ATOM     81  F   UNL A   1      43.231  22.828  29.144  1.00  0.00    -0.206 F 
ATOM     82  C   UNL A   1      42.746  20.519  26.406  1.00  0.00     0.060 A 
BRANCH  82  83
ATOM     83  S   UNL A   1      42.308  18.788  26.127  1.00  0.00     0.124 S 
ATOM     84  O   UNL A   1      43.225  18.423  25.054  1.00  0.00    -0.237 OA
ATOM     85  O   UNL A   1      42.578  18.190  27.430  1.00  0.00    -0.237 OA
ATOM     86  O   UNL A   1      40.897  18.857  25.758  1.00  0.00    -0.744 OA
ENDBRANCH  82  83
ENDBRANCH  50  75
BRANCH  62  87
ATOM     87  C   UNL A   1      49.645  26.467  26.589  1.00  0.00     0.058 A 
ATOM     88  C   UNL A   1      50.450  25.967  27.626  1.00  0.00     0.135 A 
ATOM     89  C   UNL A   1      50.190  26.494  25.295  1.00  0.00     0.135 A 
ATOM     90  F   UNL A   1      49.979  25.921  28.884  1.00  0.00    -0.206 F 
ATOM     91  C   UNL A   1      51.760  25.559  27.399  1.00  0.00     0.059 A 
ATOM     92  C   UNL A   1      51.488  26.061  25.039  1.00  0.00     0.059 A 
ATOM     93  F   UNL A   1      49.461  26.946  24.262  1.00  0.00    -0.206 F 
ATOM     94  C   UNL A   1      52.273  25.618  26.102  1.00  0.00     0.060 A 
BRANCH  94  95
ATOM     95  S   UNL A   1      53.981  25.104  25.819  1.00  0.00     0.124 S 
ATOM     96  O   UNL A   1      53.809  23.700  25.462  1.00  0.00    -0.237 OA
ATOM     97  O   UNL A   1      54.401  25.988  24.736  1.00  0.00    -0.237 OA
ATOM     98  O   UNL A   1      54.626  25.350  27.106  1.00  0.00    -0.744 OA
ENDBRANCH  94  95
ENDBRANCH  62  87
ENDBRANCH  36  37
ENDBRANCH  28  31
ENDBRANCH  26  27
ENDBRANCH  25  26
ENDBRANCH  24  25
ENDBRANCH   3  24
TORSDOF 19
ENDMDL
