MODEL 1
REMARK VINA RESULT:     -13.7      0.000      0.000
REMARK SMILES Cc1ccc(C(=O)NCCCNC(=O)c2ccc(-c3c4nc(c(-c5c(F)cc(S(=O)(=O)[O-])cc5F)c5ccc([nH]5)c(-c5c(F)cc(S(=O)(=O)[O-])cc5F)c5nc(c(-c6c(F)cc(S(=O)(=O)[O-])cc6F)c6ccc3[nH]6)C=C5)C=C4)cc2)c(NC(=O)CN2C(=O)/C(=C/c3ccccc3C)SC2=S)c1
REMARK SMILES IDX 9 1 8 2 6 3 7 4 5 6 1 7 2 8 3 9 101 10 4 11 81 12 82 13
REMARK SMILES IDX 83 14 84 16 85 17 86 18 87 19 99 20 88 21 89 22 98 23 100 24
REMARK SMILES IDX 90 25 91 26 92 27 96 28 93 29 95 30 97 31 94 32 10 33 11 34
REMARK SMILES IDX 12 35 13 36 14 38 15 39 16 40 80 41 17 42 79 43 18 44 19 45
REMARK SMILES IDX 20 46 73 47 21 48 78 49 72 50 74 51 22 52 77 53 71 54 70 55
REMARK SMILES IDX 23 57 57 58 36 59 56 60 37 61 40 62 55 63 75 64 38 65 39 66
REMARK SMILES IDX 54 68 76 69 41 70 24 71 25 72 34 73 26 74 27 75 33 76 35 77
REMARK SMILES IDX 28 78 29 79 30 80 31 81 32 82 58 83 59 84 68 85 60 86 61 87
REMARK SMILES IDX 67 88 69 89 62 90 63 91 64 92 65 93 66 94 42 95 43 96 52 97
REMARK SMILES IDX 44 98 45 99 51 100 53 101 46 102 47 103 48 104 49 105 50 106
REMARK H PARENT 8 5 82 15 12 37 74 56 40 67
REMARK Flexibility Score: inf
ROOT
ATOM      1  C   UNL A   1      30.893  29.632  24.090  1.00  0.00     0.118 C 
ENDROOT
BRANCH   1   2
ATOM      2  N   UNL A   1      32.009  29.240  23.147  1.00  0.00    -0.352 N 
ATOM      3  C   UNL A   1      33.246  28.568  23.287  1.00  0.00     0.253 C 
ATOM      4  O   UNL A   1      34.251  28.917  22.668  1.00  0.00    -0.269 OA
ATOM      5  H   UNL A   1      31.834  29.518  22.220  1.00  0.00     0.163 HD
BRANCH   3   6
ATOM      6  C   UNL A   1      33.509  27.358  24.113  1.00  0.00     0.063 A 
ATOM      7  C   UNL A   1      30.861  26.825  27.173  1.00  0.00     0.044 C 
ATOM      8  C   UNL A   1      31.964  26.635  26.173  1.00  0.00    -0.049 A 
ATOM      9  C   UNL A   1      33.209  27.187  26.470  1.00  0.00     0.004 A 
ATOM     10  C   UNL A   1      31.769  26.050  24.900  1.00  0.00     0.030 A 
ATOM     11  C   UNL A   1      34.015  27.550  25.407  1.00  0.00     0.016 A 
ATOM     12  C   UNL A   1      32.689  26.309  23.877  1.00  0.00     0.054 A 
BRANCH  12  13
ATOM     13  N   UNL A   1      32.654  25.732  22.608  1.00  0.00    -0.324 N 
ATOM     14  C   UNL A   1      33.266  24.640  22.045  1.00  0.00     0.244 C 
ATOM     15  H   UNL A   1      32.064  26.210  21.980  1.00  0.00     0.170 HD
ATOM     16  O   UNL A   1      32.950  24.558  20.838  1.00  0.00    -0.273 OA
BRANCH  14  17
ATOM     17  C   UNL A   1      34.012  23.359  22.702  1.00  0.00     0.227 C 
BRANCH  17  18
ATOM     18  N   UNL A   1      33.735  22.178  23.585  1.00  0.00    -0.283 N 
ATOM     19  C   UNL A   1      32.798  21.239  23.267  1.00  0.00     0.266 C 
ATOM     20  C   UNL A   1      33.850  22.207  24.964  1.00  0.00     0.148 C 
ATOM     21  O   UNL A   1      31.939  21.353  22.397  1.00  0.00    -0.268 OA
ATOM     22  C   UNL A   1      32.785  20.095  24.190  1.00  0.00     0.081 C 
ATOM     23  S   UNL A   1      33.216  20.716  25.711  1.00  0.00    -0.054 SA
ATOM     24  S   UNL A   1      34.472  23.423  25.926  1.00  0.00    -0.052 S 
ATOM     25  C   UNL A   1      32.676  18.839  23.725  1.00  0.00     0.029 C 
BRANCH  25  26
ATOM     26  C   UNL A   1      32.984  17.552  24.374  1.00  0.00    -0.021 A 
ATOM     27  C   UNL A   1      31.937  16.737  24.842  1.00  0.00     0.008 A 
ATOM     28  C   UNL A   1      34.309  17.186  24.686  1.00  0.00    -0.044 A 
ATOM     29  C   UNL A   1      32.193  15.533  25.503  1.00  0.00     0.001 A 
ATOM     30  C   UNL A   1      34.554  15.953  25.319  1.00  0.00     0.004 A 
ATOM     31  C   UNL A   1      35.497  18.045  24.337  1.00  0.00     0.045 C 
ATOM     32  C   UNL A   1      33.503  15.129  25.719  1.00  0.00     0.000 A 
ENDBRANCH  25  26
ENDBRANCH  17  18
ENDBRANCH  14  17
ENDBRANCH  12  13
ENDBRANCH   3   6
ENDBRANCH   1   2
BRANCH   1  33
ATOM     33  C   UNL A   1      31.072  30.744  25.341  1.00  0.00     0.042 C 
BRANCH  33  34
ATOM     34  C   UNL A   1      31.951  30.439  26.706  1.00  0.00     0.118 C 
BRANCH  34  35
ATOM     35  N   UNL A   1      33.653  30.463  26.921  1.00  0.00    -0.352 N 
ATOM     36  C   UNL A   1      34.928  30.864  27.623  1.00  0.00     0.251 C 
ATOM     37  H   UNL A   1      33.977  29.910  26.173  1.00  0.00     0.163 HD
ATOM     38  O   UNL A   1      35.833  30.037  27.366  1.00  0.00    -0.269 OA
BRANCH  36  39
ATOM     39  C   UNL A   1      35.447  31.947  28.791  1.00  0.00     0.039 A 
ATOM     40  C   UNL A   1      36.677  32.672  28.697  1.00  0.00     0.014 A 
ATOM     41  C   UNL A   1      34.862  32.198  30.013  1.00  0.00     0.014 A 
ATOM     42  C   UNL A   1      37.532  32.803  29.856  1.00  0.00     0.010 A 
ATOM     43  C   UNL A   1      35.691  32.270  31.161  1.00  0.00     0.010 A 
ATOM     44  C   UNL A   1      37.079  32.327  31.083  1.00  0.00    -0.014 A 
BRANCH  44  45
ATOM     45  C   UNL A   1      37.907  31.892  32.264  1.00  0.00     0.031 A 
ATOM     46  C   UNL A   1      38.149  32.871  33.312  1.00  0.00     0.074 A 
ATOM     47  C   UNL A   1      38.374  30.650  32.579  1.00  0.00     0.049 A 
ATOM     48  N   UNL A   1      39.294  33.345  33.661  1.00  0.00    -0.248 NA
ATOM     49  C   UNL A   1      37.021  33.392  34.065  1.00  0.00     0.031 C 
ATOM     50  C   UNL A   1      39.230  30.148  33.676  1.00  0.00     0.029 A 
ATOM     51  N   UNL A   1      38.244  29.502  31.831  1.00  0.00    -0.354 N 
ATOM     52  C   UNL A   1      39.067  33.964  34.874  1.00  0.00     0.074 A 
ATOM     53  C   UNL A   1      37.642  34.186  34.934  1.00  0.00     0.031 C 
ATOM     54  C   UNL A   1      39.866  29.025  33.262  1.00  0.00     0.029 A 
ATOM     55  C   UNL A   1      39.435  28.769  31.906  1.00  0.00     0.049 A 
ATOM     56  H   UNL A   1      37.441  29.237  31.326  1.00  0.00     0.167 HD
ATOM     57  C   UNL A   1      40.011  33.937  35.862  1.00  0.00     0.037 A 
ATOM     58  C   UNL A   1      40.187  28.686  30.763  1.00  0.00     0.037 A 
ATOM     59  C   UNL A   1      41.085  32.998  35.506  1.00  0.00     0.049 A 
ATOM     60  C   UNL A   1      41.435  29.547  30.904  1.00  0.00     0.074 A 
ATOM     61  C   UNL A   1      41.385  31.719  35.956  1.00  0.00     0.029 A 
ATOM     62  N   UNL A   1      41.801  33.162  34.323  1.00  0.00    -0.354 N 
ATOM     63  N   UNL A   1      41.566  30.461  31.831  1.00  0.00    -0.248 NA
ATOM     64  C   UNL A   1      42.659  29.408  30.115  1.00  0.00     0.031 C 
ATOM     65  C   UNL A   1      42.215  31.090  34.990  1.00  0.00     0.029 A 
ATOM     66  C   UNL A   1      42.434  31.988  33.958  1.00  0.00     0.049 A 
ATOM     67  H   UNL A   1      41.850  34.003  33.813  1.00  0.00     0.167 HD
ATOM     68  C   UNL A   1      42.829  30.987  31.821  1.00  0.00     0.074 A 
ATOM     69  C   UNL A   1      43.475  30.295  30.719  1.00  0.00     0.031 C 
ATOM     70  C   UNL A   1      43.239  31.917  32.741  1.00  0.00     0.037 A 
BRANCH  57  71
ATOM     71  C   UNL A   1      39.771  34.456  37.275  1.00  0.00     0.058 A 
ATOM     72  C   UNL A   1      40.002  35.807  37.609  1.00  0.00     0.135 A 
ATOM     73  C   UNL A   1      39.257  33.679  38.339  1.00  0.00     0.135 A 
ATOM     74  F   UNL A   1      40.367  36.706  36.686  1.00  0.00    -0.206 F 
ATOM     75  C   UNL A   1      39.830  36.315  38.902  1.00  0.00     0.059 A 
ATOM     76  C   UNL A   1      39.143  34.143  39.652  1.00  0.00     0.059 A 
ATOM     77  F   UNL A   1      38.755  32.453  38.136  1.00  0.00    -0.206 F 
ATOM     78  C   UNL A   1      39.422  35.471  39.925  1.00  0.00     0.060 A 
BRANCH  78  79
ATOM     79  S   UNL A   1      39.162  36.153  41.572  1.00  0.00     0.124 S 
ATOM     80  O   UNL A   1      37.846  35.627  41.920  1.00  0.00    -0.237 OA
ATOM     81  O   UNL A   1      40.287  35.592  42.314  1.00  0.00    -0.237 OA
ATOM     82  O   UNL A   1      39.215  37.597  41.359  1.00  0.00    -0.744 OA
ENDBRANCH  78  79
ENDBRANCH  57  71
BRANCH  58  83
ATOM     83  C   UNL A   1      39.268  28.483  29.555  1.00  0.00     0.058 A 
ATOM     84  C   UNL A   1      39.424  29.470  28.564  1.00  0.00     0.135 A 
ATOM     85  C   UNL A   1      39.146  27.224  29.006  1.00  0.00     0.135 A 
ATOM     86  F   UNL A   1      39.212  30.752  28.891  1.00  0.00    -0.206 F 
ATOM     87  C   UNL A   1      40.109  29.189  27.362  1.00  0.00     0.059 A 
ATOM     88  C   UNL A   1      39.634  26.980  27.698  1.00  0.00     0.059 A 
ATOM     89  F   UNL A   1      38.667  26.201  29.733  1.00  0.00    -0.206 F 
ATOM     90  C   UNL A   1      40.402  27.902  26.999  1.00  0.00     0.060 A 
BRANCH  90  91
ATOM     91  S   UNL A   1      42.007  27.728  25.822  1.00  0.00     0.124 S 
ATOM     92  O   UNL A   1      43.103  27.714  26.774  1.00  0.00    -0.237 OA
ATOM     93  O   UNL A   1      41.792  26.462  25.141  1.00  0.00    -0.237 OA
ATOM     94  O   UNL A   1      42.176  28.895  24.979  1.00  0.00    -0.744 OA
ENDBRANCH  90  91
ENDBRANCH  58  83
BRANCH  70  95
ATOM     95  C   UNL A   1      44.486  32.777  32.664  1.00  0.00     0.058 A 
ATOM     96  C   UNL A   1      44.520  34.076  32.135  1.00  0.00     0.135 A 
ATOM     97  C   UNL A   1      45.697  32.349  33.278  1.00  0.00     0.135 A 
ATOM     98  F   UNL A   1      43.421  34.663  31.644  1.00  0.00    -0.206 F 
ATOM     99  C   UNL A   1      45.680  34.853  32.128  1.00  0.00     0.059 A 
ATOM    100  C   UNL A   1      46.840  33.138  33.351  1.00  0.00     0.059 A 
ATOM    101  F   UNL A   1      45.818  31.141  33.848  1.00  0.00    -0.206 F 
ATOM    102  C   UNL A   1      46.836  34.375  32.735  1.00  0.00     0.060 A 
BRANCH 102 103
ATOM    103  S   UNL A   1      48.322  35.389  32.736  1.00  0.00     0.124 S 
ATOM    104  O   UNL A   1      47.762  36.721  32.949  1.00  0.00    -0.237 OA
ATOM    105  O   UNL A   1      49.083  34.839  33.855  1.00  0.00    -0.237 OA
ATOM    106  O   UNL A   1      48.901  35.152  31.418  1.00  0.00    -0.744 OA
ENDBRANCH 102 103
ENDBRANCH  70  95
ENDBRANCH  44  45
ENDBRANCH  36  39
ENDBRANCH  34  35
ENDBRANCH  33  34
ENDBRANCH   1  33
TORSDOF 17
ENDMDL
MODEL 2
REMARK VINA RESULT:     -13.6      1.606      2.312
REMARK SMILES Cc1ccc(C(=O)NCCCNC(=O)c2ccc(-c3c4nc(c(-c5c(F)cc(S(=O)(=O)[O-])cc5F)c5ccc([nH]5)c(-c5c(F)cc(S(=O)(=O)[O-])cc5F)c5nc(c(-c6c(F)cc(S(=O)(=O)[O-])cc6F)c6ccc3[nH]6)C=C5)C=C4)cc2)c(NC(=O)CN2C(=O)/C(=C/c3ccccc3C)SC2=S)c1
REMARK SMILES IDX 9 1 8 2 6 3 7 4 5 6 1 7 2 8 3 9 101 10 4 11 81 12 82 13
REMARK SMILES IDX 83 14 84 16 85 17 86 18 87 19 99 20 88 21 89 22 98 23 100 24
REMARK SMILES IDX 90 25 91 26 92 27 96 28 93 29 95 30 97 31 94 32 10 33 11 34
REMARK SMILES IDX 12 35 13 36 14 38 15 39 16 40 80 41 17 42 79 43 18 44 19 45
REMARK SMILES IDX 20 46 73 47 21 48 78 49 72 50 74 51 22 52 77 53 71 54 70 55
REMARK SMILES IDX 23 57 57 58 36 59 56 60 37 61 40 62 55 63 75 64 38 65 39 66
REMARK SMILES IDX 54 68 76 69 41 70 24 71 25 72 34 73 26 74 27 75 33 76 35 77
REMARK SMILES IDX 28 78 29 79 30 80 31 81 32 82 58 83 59 84 68 85 60 86 61 87
REMARK SMILES IDX 67 88 69 89 62 90 63 91 64 92 65 93 66 94 42 95 43 96 52 97
REMARK SMILES IDX 44 98 45 99 51 100 53 101 46 102 47 103 48 104 49 105 50 106
REMARK H PARENT 8 5 82 15 12 37 74 56 40 67
REMARK Flexibility Score: inf
ROOT
ATOM      1  C   UNL A   1      32.079  29.780  25.283  1.00  0.00     0.118 C 
ENDROOT
BRANCH   1   2
ATOM      2  N   UNL A   1      32.183  28.273  25.328  1.00  0.00    -0.352 N 
ATOM      3  C   UNL A   1      31.339  27.201  24.954  1.00  0.00     0.253 C 
ATOM      4  O   UNL A   1      31.249  26.175  25.628  1.00  0.00    -0.269 OA
ATOM      5  H   UNL A   1      33.038  27.965  25.706  1.00  0.00     0.163 HD
BRANCH   3   6
ATOM      6  C   UNL A   1      30.510  27.114  23.721  1.00  0.00     0.063 A 
ATOM      7  C   UNL A   1      28.717  30.628  22.671  1.00  0.00     0.044 C 
ATOM      8  C   UNL A   1      29.222  29.215  22.679  1.00  0.00    -0.049 A 
ATOM      9  C   UNL A   1      28.454  28.257  23.340  1.00  0.00     0.004 A 
ATOM     10  C   UNL A   1      30.488  28.837  22.174  1.00  0.00     0.030 A 
ATOM     11  C   UNL A   1      29.116  27.164  23.868  1.00  0.00     0.016 A 
ATOM     12  C   UNL A   1      31.072  27.641  22.610  1.00  0.00     0.054 A 
BRANCH  12  13
ATOM     13  N   UNL A   1      32.273  27.119  22.130  1.00  0.00    -0.324 N 
ATOM     14  C   UNL A   1      32.905  25.909  22.270  1.00  0.00     0.244 C 
ATOM     15  H   UNL A   1      32.776  27.755  21.570  1.00  0.00     0.170 HD
ATOM     16  O   UNL A   1      34.008  25.941  21.680  1.00  0.00    -0.273 OA
BRANCH  14  17
ATOM     17  C   UNL A   1      32.370  24.459  22.759  1.00  0.00     0.227 C 
BRANCH  17  18
ATOM     18  N   UNL A   1      32.856  23.201  23.417  1.00  0.00    -0.283 N 
ATOM     19  C   UNL A   1      32.028  22.394  24.139  1.00  0.00     0.266 C 
ATOM     20  C   UNL A   1      34.138  23.041  23.914  1.00  0.00     0.148 C 
ATOM     21  O   UNL A   1      30.903  22.692  24.530  1.00  0.00    -0.268 OA
ATOM     22  C   UNL A   1      32.668  21.144  24.576  1.00  0.00     0.081 C 
ATOM     23  S   UNL A   1      34.302  21.525  24.840  1.00  0.00    -0.054 SA
ATOM     24  S   UNL A   1      35.448  24.064  23.750  1.00  0.00    -0.052 S 
ATOM     25  C   UNL A   1      32.014  19.973  24.496  1.00  0.00     0.029 C 
BRANCH  25  26
ATOM     26  C   UNL A   1      32.526  18.591  24.527  1.00  0.00    -0.021 A 
ATOM     27  C   UNL A   1      32.862  17.999  25.758  1.00  0.00     0.008 A 
ATOM     28  C   UNL A   1      32.843  17.900  23.341  1.00  0.00    -0.044 A 
ATOM     29  C   UNL A   1      33.393  16.709  25.822  1.00  0.00     0.001 A 
ATOM     30  C   UNL A   1      33.343  16.586  23.421  1.00  0.00     0.004 A 
ATOM     31  C   UNL A   1      32.635  18.490  21.970  1.00  0.00     0.045 C 
ATOM     32  C   UNL A   1      33.610  15.992  24.653  1.00  0.00     0.000 A 
ENDBRANCH  25  26
ENDBRANCH  17  18
ENDBRANCH  14  17
ENDBRANCH  12  13
ENDBRANCH   3   6
ENDBRANCH   1   2
BRANCH   1  33
ATOM     33  C   UNL A   1      31.396  30.709  26.509  1.00  0.00     0.042 C 
BRANCH  33  34
ATOM     34  C   UNL A   1      31.574  32.348  26.612  1.00  0.00     0.118 C 
BRANCH  34  35
ATOM     35  N   UNL A   1      32.628  33.257  27.615  1.00  0.00    -0.352 N 
ATOM     36  C   UNL A   1      33.977  33.637  28.177  1.00  0.00     0.251 C 
ATOM     37  H   UNL A   1      32.014  33.869  28.082  1.00  0.00     0.163 HD
ATOM     38  O   UNL A   1      33.942  34.812  28.610  1.00  0.00    -0.269 OA
BRANCH  36  39
ATOM     39  C   UNL A   1      35.546  33.051  28.216  1.00  0.00     0.039 A 
ATOM     40  C   UNL A   1      35.867  31.659  28.125  1.00  0.00     0.014 A 
ATOM     41  C   UNL A   1      36.697  33.770  28.455  1.00  0.00     0.014 A 
ATOM     42  C   UNL A   1      36.867  31.088  28.999  1.00  0.00     0.010 A 
ATOM     43  C   UNL A   1      37.655  33.239  29.356  1.00  0.00     0.010 A 
ATOM     44  C   UNL A   1      37.597  31.933  29.831  1.00  0.00    -0.014 A 
BRANCH  44  45
ATOM     45  C   UNL A   1      38.285  31.581  31.123  1.00  0.00     0.031 A 
ATOM     46  C   UNL A   1      38.526  32.658  32.070  1.00  0.00     0.074 A 
ATOM     47  C   UNL A   1      38.614  30.354  31.619  1.00  0.00     0.049 A 
ATOM     48  N   UNL A   1      39.676  33.080  32.466  1.00  0.00    -0.248 NA
ATOM     49  C   UNL A   1      37.391  33.352  32.654  1.00  0.00     0.031 C 
ATOM     50  C   UNL A   1      39.331  29.923  32.839  1.00  0.00     0.029 A 
ATOM     51  N   UNL A   1      38.444  29.137  30.998  1.00  0.00    -0.354 N 
ATOM     52  C   UNL A   1      39.408  33.857  33.575  1.00  0.00     0.074 A 
ATOM     53  C   UNL A   1      38.007  34.195  33.480  1.00  0.00     0.031 C 
ATOM     54  C   UNL A   1      39.898  28.712  32.616  1.00  0.00     0.029 A 
ATOM     55  C   UNL A   1      39.557  28.329  31.264  1.00  0.00     0.049 A 
ATOM     56  H   UNL A   1      37.665  28.876  30.456  1.00  0.00     0.167 HD
ATOM     57  C   UNL A   1      40.263  33.877  34.641  1.00  0.00     0.037 A 
ATOM     58  C   UNL A   1      40.388  28.050  30.211  1.00  0.00     0.037 A 
ATOM     59  C   UNL A   1      41.276  32.821  34.493  1.00  0.00     0.049 A 
ATOM     60  C   UNL A   1      41.691  28.821  30.365  1.00  0.00     0.074 A 
ATOM     61  C   UNL A   1      41.425  31.587  35.111  1.00  0.00     0.029 A 
ATOM     62  N   UNL A   1      42.096  32.785  33.368  1.00  0.00    -0.354 N 
ATOM     63  N   UNL A   1      41.827  29.828  31.190  1.00  0.00    -0.248 NA
ATOM     64  C   UNL A   1      42.958  28.494  29.711  1.00  0.00     0.031 C 
ATOM     65  C   UNL A   1      42.271  30.783  34.302  1.00  0.00     0.029 A 
ATOM     66  C   UNL A   1      42.651  31.529  33.199  1.00  0.00     0.049 A 
ATOM     67  H   UNL A   1      42.260  33.551  32.773  1.00  0.00     0.167 HD
ATOM     68  C   UNL A   1      43.128  30.249  31.234  1.00  0.00     0.074 A 
ATOM     69  C   UNL A   1      43.798  29.381  30.282  1.00  0.00     0.031 C 
ATOM     70  C   UNL A   1      43.542  31.249  32.075  1.00  0.00     0.037 A 
BRANCH  57  71
ATOM     71  C   UNL A   1      39.956  34.580  35.957  1.00  0.00     0.058 A 
ATOM     72  C   UNL A   1      40.356  35.914  36.187  1.00  0.00     0.135 A 
ATOM     73  C   UNL A   1      39.218  34.008  37.020  1.00  0.00     0.135 A 
ATOM     74  F   UNL A   1      40.952  36.642  35.235  1.00  0.00    -0.206 F 
ATOM     75  C   UNL A   1      40.127  36.583  37.395  1.00  0.00     0.059 A 
ATOM     76  C   UNL A   1      39.036  34.629  38.259  1.00  0.00     0.059 A 
ATOM     77  F   UNL A   1      38.557  32.852  36.874  1.00  0.00    -0.206 F 
ATOM     78  C   UNL A   1      39.487  35.926  38.436  1.00  0.00     0.060 A 
BRANCH  78  79
ATOM     79  S   UNL A   1      39.160  36.818  39.967  1.00  0.00     0.124 S 
ATOM     80  O   UNL A   1      38.290  35.892  40.685  1.00  0.00    -0.237 OA
ATOM     81  O   UNL A   1      40.502  36.984  40.514  1.00  0.00    -0.237 OA
ATOM     82  O   UNL A   1      38.516  38.050  39.516  1.00  0.00    -0.744 OA
ENDBRANCH  78  79
ENDBRANCH  57  71
BRANCH  58  83
ATOM     83  C   UNL A   1      39.556  27.773  28.955  1.00  0.00     0.058 A 
ATOM     84  C   UNL A   1      39.758  28.720  27.934  1.00  0.00     0.135 A 
ATOM     85  C   UNL A   1      39.495  26.489  28.457  1.00  0.00     0.135 A 
ATOM     86  F   UNL A   1      39.500  30.010  28.188  1.00  0.00    -0.206 F 
ATOM     87  C   UNL A   1      40.526  28.402  26.792  1.00  0.00     0.059 A 
ATOM     88  C   UNL A   1      40.073  26.200  27.196  1.00  0.00     0.059 A 
ATOM     89  F   UNL A   1      38.989  25.488  29.196  1.00  0.00    -0.206 F 
ATOM     90  C   UNL A   1      40.868  27.108  26.507  1.00  0.00     0.060 A 
BRANCH  90  91
ATOM     91  S   UNL A   1      42.550  26.919  25.447  1.00  0.00     0.124 S 
ATOM     92  O   UNL A   1      43.584  27.068  26.455  1.00  0.00    -0.237 OA
ATOM     93  O   UNL A   1      42.450  25.580  24.888  1.00  0.00    -0.237 OA
ATOM     94  O   UNL A   1      42.705  28.005  24.499  1.00  0.00    -0.744 OA
ENDBRANCH  90  91
ENDBRANCH  58  83
BRANCH  70  95
ATOM     95  C   UNL A   1      44.863  31.994  32.015  1.00  0.00     0.058 A 
ATOM     96  C   UNL A   1      46.075  31.496  32.518  1.00  0.00     0.135 A 
ATOM     97  C   UNL A   1      44.972  33.214  31.292  1.00  0.00     0.135 A 
ATOM     98  F   UNL A   1      46.151  30.295  33.105  1.00  0.00    -0.206 F 
ATOM     99  C   UNL A   1      47.279  32.192  32.398  1.00  0.00     0.059 A 
ATOM    100  C   UNL A   1      46.174  33.884  31.094  1.00  0.00     0.059 A 
ATOM    101  F   UNL A   1      43.906  33.807  30.731  1.00  0.00    -0.206 F 
ATOM    102  C   UNL A   1      47.319  33.387  31.688  1.00  0.00     0.060 A 
BRANCH 102 103
ATOM    103  S   UNL A   1      48.878  34.270  31.524  1.00  0.00     0.124 S 
ATOM    104  O   UNL A   1      49.821  33.166  31.377  1.00  0.00    -0.237 OA
ATOM    105  O   UNL A   1      48.662  35.079  30.327  1.00  0.00    -0.237 OA
ATOM    106  O   UNL A   1      48.978  35.024  32.770  1.00  0.00    -0.744 OA
ENDBRANCH 102 103
ENDBRANCH  70  95
ENDBRANCH  44  45
ENDBRANCH  36  39
ENDBRANCH  34  35
ENDBRANCH  33  34
ENDBRANCH   1  33
TORSDOF 17
ENDMDL
MODEL 3
REMARK VINA RESULT:     -13.5      1.908      2.906
REMARK SMILES Cc1ccc(C(=O)NCCCNC(=O)c2ccc(-c3c4nc(c(-c5c(F)cc(S(=O)(=O)[O-])cc5F)c5ccc([nH]5)c(-c5c(F)cc(S(=O)(=O)[O-])cc5F)c5nc(c(-c6c(F)cc(S(=O)(=O)[O-])cc6F)c6ccc3[nH]6)C=C5)C=C4)cc2)c(NC(=O)CN2C(=O)/C(=C/c3ccccc3C)SC2=S)c1
REMARK SMILES IDX 9 1 8 2 6 3 7 4 5 6 1 7 2 8 3 9 101 10 4 11 81 12 82 13
REMARK SMILES IDX 83 14 84 16 85 17 86 18 87 19 99 20 88 21 89 22 98 23 100 24
REMARK SMILES IDX 90 25 91 26 92 27 96 28 93 29 95 30 97 31 94 32 10 33 11 34
REMARK SMILES IDX 12 35 13 36 14 38 15 39 16 40 80 41 17 42 79 43 18 44 19 45
REMARK SMILES IDX 20 46 73 47 21 48 78 49 72 50 74 51 22 52 77 53 71 54 70 55
REMARK SMILES IDX 23 57 57 58 36 59 56 60 37 61 40 62 55 63 75 64 38 65 39 66
REMARK SMILES IDX 54 68 76 69 41 70 24 71 25 72 34 73 26 74 27 75 33 76 35 77
REMARK SMILES IDX 28 78 29 79 30 80 31 81 32 82 58 83 59 84 68 85 60 86 61 87
REMARK SMILES IDX 67 88 69 89 62 90 63 91 64 92 65 93 66 94 42 95 43 96 52 97
REMARK SMILES IDX 44 98 45 99 51 100 53 101 46 102 47 103 48 104 49 105 50 106
REMARK H PARENT 8 5 82 15 12 37 74 56 40 67
REMARK Flexibility Score: inf
ROOT
ATOM      1  C   UNL A   1      31.121  29.293  23.631  1.00  0.00     0.118 C 
ENDROOT
BRANCH   1   2
ATOM      2  N   UNL A   1      32.229  28.338  23.247  1.00  0.00    -0.352 N 
ATOM      3  C   UNL A   1      32.743  27.134  23.783  1.00  0.00     0.253 C 
ATOM      4  O   UNL A   1      33.948  26.888  23.795  1.00  0.00    -0.269 OA
ATOM      5  H   UNL A   1      32.704  28.621  22.433  1.00  0.00     0.163 HD
BRANCH   3   6
ATOM      6  C   UNL A   1      31.951  26.003  24.340  1.00  0.00     0.063 A 
ATOM      7  C   UNL A   1      27.910  26.531  24.116  1.00  0.00     0.044 C 
ATOM      8  C   UNL A   1      29.277  25.948  24.325  1.00  0.00    -0.049 A 
ATOM      9  C   UNL A   1      29.906  26.193  25.546  1.00  0.00     0.004 A 
ATOM     10  C   UNL A   1      30.006  25.287  23.309  1.00  0.00     0.030 A 
ATOM     11  C   UNL A   1      31.288  26.210  25.558  1.00  0.00     0.016 A 
ATOM     12  C   UNL A   1      31.398  25.180  23.422  1.00  0.00     0.054 A 
BRANCH  12  13
ATOM     13  N   UNL A   1      32.218  24.486  22.532  1.00  0.00    -0.324 N 
ATOM     14  C   UNL A   1      33.293  23.648  22.690  1.00  0.00     0.244 C 
ATOM     15  H   UNL A   1      31.975  24.628  21.588  1.00  0.00     0.170 HD
ATOM     16  O   UNL A   1      33.730  23.311  21.567  1.00  0.00    -0.273 OA
BRANCH  14  17
ATOM     17  C   UNL A   1      33.850  22.832  23.975  1.00  0.00     0.227 C 
BRANCH  17  18
ATOM     18  N   UNL A   1      35.038  22.029  24.419  1.00  0.00    -0.283 N 
ATOM     19  C   UNL A   1      36.296  22.281  23.958  1.00  0.00     0.266 C 
ATOM     20  C   UNL A   1      34.974  20.689  24.758  1.00  0.00     0.148 C 
ATOM     21  O   UNL A   1      36.575  22.991  22.995  1.00  0.00    -0.268 OA
ATOM     22  C   UNL A   1      37.331  21.477  24.623  1.00  0.00     0.081 C 
ATOM     23  S   UNL A   1      36.598  19.992  25.001  1.00  0.00    -0.054 SA
ATOM     24  S   UNL A   1      33.619  19.729  24.938  1.00  0.00    -0.052 S 
ATOM     25  C   UNL A   1      38.495  22.033  25.001  1.00  0.00     0.029 C 
BRANCH  25  26
ATOM     26  C   UNL A   1      39.508  21.562  25.963  1.00  0.00    -0.021 A 
ATOM     27  C   UNL A   1      39.975  20.237  25.892  1.00  0.00     0.008 A 
ATOM     28  C   UNL A   1      39.907  22.356  27.057  1.00  0.00    -0.044 A 
ATOM     29  C   UNL A   1      40.901  19.742  26.814  1.00  0.00     0.001 A 
ATOM     30  C   UNL A   1      40.868  21.858  27.957  1.00  0.00     0.004 A 
ATOM     31  C   UNL A   1      39.376  23.747  27.293  1.00  0.00     0.045 C 
ATOM     32  C   UNL A   1      41.366  20.563  27.832  1.00  0.00     0.000 A 
ENDBRANCH  25  26
ENDBRANCH  17  18
ENDBRANCH  14  17
ENDBRANCH  12  13
ENDBRANCH   3   6
ENDBRANCH   1   2
BRANCH   1  33
ATOM     33  C   UNL A   1      31.139  30.235  25.025  1.00  0.00     0.042 C 
BRANCH  33  34
ATOM     34  C   UNL A   1      31.986  29.829  26.384  1.00  0.00     0.118 C 
BRANCH  34  35
ATOM     35  N   UNL A   1      33.677  29.901  26.662  1.00  0.00    -0.352 N 
ATOM     36  C   UNL A   1      34.916  30.374  27.382  1.00  0.00     0.251 C 
ATOM     37  H   UNL A   1      34.040  29.303  25.968  1.00  0.00     0.163 HD
ATOM     38  O   UNL A   1      35.845  29.549  27.220  1.00  0.00    -0.269 OA
BRANCH  36  39
ATOM     39  C   UNL A   1      35.371  31.547  28.490  1.00  0.00     0.039 A 
ATOM     40  C   UNL A   1      36.540  32.358  28.338  1.00  0.00     0.014 A 
ATOM     41  C   UNL A   1      34.788  31.810  29.711  1.00  0.00     0.014 A 
ATOM     42  C   UNL A   1      37.401  32.607  29.472  1.00  0.00     0.010 A 
ATOM     43  C   UNL A   1      35.628  31.997  30.837  1.00  0.00     0.010 A 
ATOM     44  C   UNL A   1      37.007  32.155  30.729  1.00  0.00    -0.014 A 
BRANCH  44  45
ATOM     45  C   UNL A   1      37.885  31.840  31.911  1.00  0.00     0.031 A 
ATOM     46  C   UNL A   1      38.083  32.888  32.899  1.00  0.00     0.074 A 
ATOM     47  C   UNL A   1      38.439  30.649  32.280  1.00  0.00     0.049 A 
ATOM     48  N   UNL A   1      39.202  33.452  33.196  1.00  0.00    -0.248 NA
ATOM     49  C   UNL A   1      36.939  33.375  33.651  1.00  0.00     0.031 C 
ATOM     50  C   UNL A   1      39.348  30.263  33.381  1.00  0.00     0.029 A 
ATOM     51  N   UNL A   1      38.369  29.455  31.598  1.00  0.00    -0.354 N 
ATOM     52  C   UNL A   1      38.960  34.121  34.379  1.00  0.00     0.074 A 
ATOM     53  C   UNL A   1      37.525  34.253  34.461  1.00  0.00     0.031 C 
ATOM     54  C   UNL A   1      40.048  29.163  33.013  1.00  0.00     0.029 A 
ATOM     55  C   UNL A   1      39.607  28.806  31.683  1.00  0.00     0.049 A 
ATOM     56  H   UNL A   1      37.575  29.113  31.127  1.00  0.00     0.167 HD
ATOM     57  C   UNL A   1      39.924  34.208  35.345  1.00  0.00     0.037 A 
ATOM     58  C   UNL A   1      40.339  28.710  30.529  1.00  0.00     0.037 A 
ATOM     59  C   UNL A   1      41.050  33.322  35.013  1.00  0.00     0.049 A 
ATOM     60  C   UNL A   1      41.530  29.655  30.594  1.00  0.00     0.074 A 
ATOM     61  C   UNL A   1      41.441  32.092  35.523  1.00  0.00     0.029 A 
ATOM     62  N   UNL A   1      41.729  33.467  33.806  1.00  0.00    -0.354 N 
ATOM     63  N   UNL A   1      41.621  30.625  31.468  1.00  0.00    -0.248 NA
ATOM     64  C   UNL A   1      42.744  29.552  29.785  1.00  0.00     0.031 C 
ATOM     65  C   UNL A   1      42.291  31.465  34.572  1.00  0.00     0.029 A 
ATOM     66  C   UNL A   1      42.430  32.318  33.489  1.00  0.00     0.049 A 
ATOM     67  H   UNL A   1      41.712  34.281  33.252  1.00  0.00     0.167 HD
ATOM     68  C   UNL A   1      42.846  31.229  31.400  1.00  0.00     0.074 A 
ATOM     69  C   UNL A   1      43.513  30.521  30.321  1.00  0.00     0.031 C 
ATOM     70  C   UNL A   1      43.212  32.233  32.258  1.00  0.00     0.037 A 
BRANCH  57  71
ATOM     71  C   UNL A   1      39.679  34.787  36.733  1.00  0.00     0.058 A 
ATOM     72  C   UNL A   1      40.117  36.084  37.075  1.00  0.00     0.135 A 
ATOM     73  C   UNL A   1      38.966  34.130  37.762  1.00  0.00     0.135 A 
ATOM     74  F   UNL A   1      40.695  36.889  36.175  1.00  0.00    -0.206 F 
ATOM     75  C   UNL A   1      39.945  36.638  38.348  1.00  0.00     0.059 A 
ATOM     76  C   UNL A   1      38.841  34.631  39.061  1.00  0.00     0.059 A 
ATOM     77  F   UNL A   1      38.274  33.006  37.531  1.00  0.00    -0.206 F 
ATOM     78  C   UNL A   1      39.327  35.896  39.345  1.00  0.00     0.060 A 
BRANCH  78  79
ATOM     79  S   UNL A   1      39.074  36.642  40.965  1.00  0.00     0.124 S 
ATOM     80  O   UNL A   1      37.965  35.857  41.497  1.00  0.00    -0.237 OA
ATOM     81  O   UNL A   1      40.369  36.429  41.603  1.00  0.00    -0.237 OA
ATOM     82  O   UNL A   1      38.755  38.034  40.656  1.00  0.00    -0.744 OA
ENDBRANCH  78  79
ENDBRANCH  57  71
BRANCH  58  83
ATOM     83  C   UNL A   1      39.411  28.382  29.355  1.00  0.00     0.058 A 
ATOM     84  C   UNL A   1      39.515  29.297  28.291  1.00  0.00     0.135 A 
ATOM     85  C   UNL A   1      39.328  27.082  28.905  1.00  0.00     0.135 A 
ATOM     86  F   UNL A   1      39.260  30.591  28.524  1.00  0.00    -0.206 F 
ATOM     87  C   UNL A   1      40.192  28.950  27.101  1.00  0.00     0.059 A 
ATOM     88  C   UNL A   1      39.806  26.758  27.611  1.00  0.00     0.059 A 
ATOM     89  F   UNL A   1      38.899  26.100  29.715  1.00  0.00    -0.206 F 
ATOM     90  C   UNL A   1      40.529  27.652  26.831  1.00  0.00     0.060 A 
BRANCH  90  91
ATOM     91  S   UNL A   1      42.122  27.448  25.642  1.00  0.00     0.124 S 
ATOM     92  O   UNL A   1      43.232  27.566  26.571  1.00  0.00    -0.237 OA
ATOM     93  O   UNL A   1      41.956  26.118  25.078  1.00  0.00    -0.237 OA
ATOM     94  O   UNL A   1      42.223  28.543  24.699  1.00  0.00    -0.744 OA
ENDBRANCH  90  91
ENDBRANCH  58  83
BRANCH  70  95
ATOM     95  C   UNL A   1      44.399  33.165  32.107  1.00  0.00     0.058 A 
ATOM     96  C   UNL A   1      45.520  33.163  32.952  1.00  0.00     0.135 A 
ATOM     97  C   UNL A   1      44.506  34.022  30.976  1.00  0.00     0.135 A 
ATOM     98  F   UNL A   1      45.621  32.312  33.982  1.00  0.00    -0.206 F 
ATOM     99  C   UNL A   1      46.615  34.005  32.749  1.00  0.00     0.059 A 
ATOM    100  C   UNL A   1      45.620  34.811  30.713  1.00  0.00     0.059 A 
ATOM    101  F   UNL A   1      43.527  34.120  30.064  1.00  0.00    -0.206 F 
ATOM    102  C   UNL A   1      46.655  34.828  31.628  1.00  0.00     0.060 A 
BRANCH 102 103
ATOM    103  S   UNL A   1      48.077  35.898  31.365  1.00  0.00     0.124 S 
ATOM    104  O   UNL A   1      47.643  37.123  32.029  1.00  0.00    -0.237 OA
ATOM    105  O   UNL A   1      49.153  35.167  32.029  1.00  0.00    -0.237 OA
ATOM    106  O   UNL A   1      48.186  35.973  29.911  1.00  0.00    -0.744 OA
ENDBRANCH 102 103
ENDBRANCH  70  95
ENDBRANCH  44  45
ENDBRANCH  36  39
ENDBRANCH  34  35
ENDBRANCH  33  34
ENDBRANCH   1  33
TORSDOF 17
ENDMDL
