MODEL 1
REMARK VINA RESULT:     -13.6      0.000      0.000
REMARK SMILES CC(C)(C)OC(=O)N1CCC(n2c(=S)[nH]c3cc(C(=O)NCCCNC(=O)c4ccc(-c5c6nc(c(-c7c(F)cc(S(=O)(=O)[O-])cc7F)c7ccc([nH]7)c(-c7c(F)cc(S(=O)(=O)[O-])cc7F)c7nc(c(-c8c(F)cc(S(=O)(=O)[O-])cc8F)c8ccc5[nH]8)C=C7)C=C6)cc4)ccc3c2=O)CC1
REMARK SMILES IDX 23 1 22 2 21 3 19 4 20 5 18 7 12 8 13 9 97 10 14 11 15 12
REMARK SMILES IDX 96 13 98 14 16 15 95 17 17 18 94 19 11 20 6 21 7 22 8 23
REMARK SMILES IDX 9 24 100 25 10 26 99 27 5 28 2 29 1 30 3 31 4 32 24 33 25 34
REMARK SMILES IDX 26 35 27 37 28 38 29 39 93 40 30 41 92 42 31 43 32 44 33 45
REMARK SMILES IDX 86 46 34 47 91 48 85 49 87 50 35 51 90 52 84 53 83 54 36 56
REMARK SMILES IDX 70 57 49 58 69 59 50 60 53 61 68 62 88 63 51 64 52 65 67 67
REMARK SMILES IDX 89 68 54 69 37 70 38 71 47 72 39 73 40 74 46 75 48 76 41 77
REMARK SMILES IDX 42 78 43 79 44 80 45 81 71 82 72 83 81 84 73 85 74 86 80 87
REMARK SMILES IDX 82 88 75 89 76 90 77 91 78 92 79 93 55 94 56 95 65 96 57 97
REMARK SMILES IDX 58 98 64 99 66 100 59 101 60 102 61 103 62 104 63 105
REMARK H PARENT 21 6 15 16 25 36 87 55 53 66
REMARK Flexibility Score: inf
ROOT
ATOM      1  C   UNL A   1      40.510  22.102  27.391  1.00  0.00     0.042 C 
ENDROOT
BRANCH   1   2
ATOM      2  C   UNL A   1      39.461  22.343  26.308  1.00  0.00     0.118 C 
BRANCH   2   3
ATOM      3  N   UNL A   1      38.992  21.083  25.752  1.00  0.00    -0.352 N 
ATOM      4  C   UNL A   1      37.831  20.727  25.114  1.00  0.00     0.251 C 
ATOM      5  O   UNL A   1      37.733  19.566  24.717  1.00  0.00    -0.269 OA
ATOM      6  H   UNL A   1      39.633  20.343  25.853  1.00  0.00     0.163 HD
BRANCH   4   7
ATOM      7  C   UNL A   1      36.730  21.686  24.817  1.00  0.00     0.041 A 
ATOM      8  N   UNL A   1      32.300  24.098  24.829  1.00  0.00    -0.282 N 
ATOM      9  C   UNL A   1      32.219  23.174  25.885  1.00  0.00     0.180 A 
ATOM     10  C   UNL A   1      33.291  23.980  23.856  1.00  0.00     0.262 A 
ATOM     11  S   UNL A   1      30.955  22.980  26.976  1.00  0.00    -0.040 S 
ATOM     12  N   UNL A   1      33.292  22.332  26.063  1.00  0.00    -0.332 N 
ATOM     13  C   UNL A   1      34.501  23.251  24.225  1.00  0.00     0.064 A 
ATOM     14  O   UNL A   1      33.216  24.366  22.692  1.00  0.00    -0.269 OA
ATOM     15  C   UNL A   1      34.452  22.381  25.296  1.00  0.00     0.054 A 
ATOM     16  H   UNL A   1      33.236  21.654  26.775  1.00  0.00     0.169 HD
ATOM     17  C   UNL A   1      35.675  23.428  23.503  1.00  0.00     0.017 A 
ATOM     18  C   UNL A   1      35.554  21.576  25.586  1.00  0.00     0.040 A 
ATOM     19  C   UNL A   1      36.798  22.679  23.834  1.00  0.00     0.015 A 
BRANCH   8  20
ATOM     20  C   UNL A   1      31.344  25.247  24.733  1.00  0.00     0.097 C 
ATOM     21  C   UNL A   1      30.438  28.576  22.541  1.00  0.00     0.410 C 
ATOM     22  O   UNL A   1      31.506  29.119  22.309  1.00  0.00    -0.224 OA
ATOM     23  N   UNL A   1      30.278  27.678  23.579  1.00  0.00    -0.308 N 
ATOM     24  C   UNL A   1      31.216  27.739  24.678  1.00  0.00     0.125 C 
ATOM     25  C   UNL A   1      29.431  26.499  23.519  1.00  0.00     0.125 C 
ATOM     26  C   UNL A   1      32.155  26.556  24.619  1.00  0.00     0.047 C 
ATOM     27  C   UNL A   1      30.299  25.231  23.577  1.00  0.00     0.047 C 
BRANCH  21  28
ATOM     28  O   UNL A   1      29.258  28.888  21.942  1.00  0.00    -0.444 OA
BRANCH  28  29
ATOM     29  C   UNL A   1      28.516  30.040  22.435  1.00  0.00     0.106 C 
ATOM     30  C   UNL A   1      27.235  29.464  23.062  1.00  0.00     0.056 C 
ATOM     31  C   UNL A   1      28.134  30.964  21.277  1.00  0.00     0.056 C 
ATOM     32  C   UNL A   1      29.264  30.796  23.550  1.00  0.00     0.056 C 
ENDBRANCH  28  29
ENDBRANCH  21  28
ENDBRANCH   8  20
ENDBRANCH   4   7
ENDBRANCH   2   3
ENDBRANCH   1   2
BRANCH   1  33
ATOM     33  C   UNL A   1      41.708  23.031  27.260  1.00  0.00     0.118 C 
BRANCH  33  34
ATOM     34  N   UNL A   1      41.548  23.983  26.166  1.00  0.00    -0.352 N 
ATOM     35  C   UNL A   1      41.264  25.328  26.220  1.00  0.00     0.251 C 
ATOM     36  H   UNL A   1      41.659  23.611  25.261  1.00  0.00     0.163 HD
ATOM     37  O   UNL A   1      40.972  25.939  25.198  1.00  0.00    -0.269 OA
BRANCH  35  38
ATOM     38  C   UNL A   1      41.280  26.011  27.529  1.00  0.00     0.039 A 
ATOM     39  C   UNL A   1      40.181  25.901  28.383  1.00  0.00     0.014 A 
ATOM     40  C   UNL A   1      42.362  26.827  27.867  1.00  0.00     0.014 A 
ATOM     41  C   UNL A   1      40.071  26.762  29.464  1.00  0.00     0.010 A 
ATOM     42  C   UNL A   1      42.291  27.618  29.016  1.00  0.00     0.010 A 
ATOM     43  C   UNL A   1      41.117  27.641  29.787  1.00  0.00    -0.014 A 
BRANCH  43  44
ATOM     44  C   UNL A   1      40.940  28.606  30.904  1.00  0.00     0.031 A 
ATOM     45  C   UNL A   1      39.860  29.657  30.840  1.00  0.00     0.074 A 
ATOM     46  C   UNL A   1      41.708  28.491  32.005  1.00  0.00     0.049 A 
ATOM     47  N   UNL A   1      39.569  30.594  31.706  1.00  0.00    -0.248 NA
ATOM     48  C   UNL A   1      38.990  29.660  29.649  1.00  0.00     0.031 C 
ATOM     49  C   UNL A   1      42.766  27.494  32.195  1.00  0.00     0.029 A 
ATOM     50  N   UNL A   1      41.708  29.198  33.180  1.00  0.00    -0.354 N 
ATOM     51  C   UNL A   1      38.505  31.305  31.161  1.00  0.00     0.074 A 
ATOM     52  C   UNL A   1      38.217  30.714  29.874  1.00  0.00     0.031 C 
ATOM     53  C   UNL A   1      43.278  27.624  33.427  1.00  0.00     0.029 A 
ATOM     54  C   UNL A   1      42.644  28.759  34.087  1.00  0.00     0.049 A 
ATOM     55  H   UNL A   1      41.096  29.949  33.358  1.00  0.00     0.167 HD
ATOM     56  C   UNL A   1      37.820  32.343  31.697  1.00  0.00     0.037 A 
ATOM     57  C   UNL A   1      42.975  29.233  35.303  1.00  0.00     0.037 A 
ATOM     58  C   UNL A   1      38.092  32.904  32.996  1.00  0.00     0.049 A 
ATOM     59  C   UNL A   1      42.241  30.429  35.842  1.00  0.00     0.074 A 
ATOM     60  C   UNL A   1      37.441  33.946  33.633  1.00  0.00     0.029 A 
ATOM     61  N   UNL A   1      39.087  32.468  33.858  1.00  0.00    -0.354 N 
ATOM     62  N   UNL A   1      41.239  31.088  35.310  1.00  0.00    -0.248 NA
ATOM     63  C   UNL A   1      42.688  30.953  37.139  1.00  0.00     0.031 C 
ATOM     64  C   UNL A   1      38.076  34.174  34.857  1.00  0.00     0.029 A 
ATOM     65  C   UNL A   1      39.084  33.238  35.009  1.00  0.00     0.049 A 
ATOM     66  H   UNL A   1      39.704  31.722  33.678  1.00  0.00     0.167 HD
ATOM     67  C   UNL A   1      40.927  32.096  36.216  1.00  0.00     0.074 A 
ATOM     68  C   UNL A   1      41.827  31.942  37.339  1.00  0.00     0.031 C 
ATOM     69  C   UNL A   1      39.985  33.068  36.122  1.00  0.00     0.037 A 
BRANCH  56  70
ATOM     70  C   UNL A   1      36.704  32.955  30.893  1.00  0.00     0.058 A 
ATOM     71  C   UNL A   1      35.357  32.672  31.168  1.00  0.00     0.135 A 
ATOM     72  C   UNL A   1      36.981  33.916  29.906  1.00  0.00     0.135 A 
ATOM     73  F   UNL A   1      35.034  31.747  32.087  1.00  0.00    -0.206 F 
ATOM     74  C   UNL A   1      34.326  33.319  30.495  1.00  0.00     0.059 A 
ATOM     75  C   UNL A   1      35.967  34.595  29.238  1.00  0.00     0.059 A 
ATOM     76  F   UNL A   1      38.252  34.222  29.601  1.00  0.00    -0.206 F 
ATOM     77  C   UNL A   1      34.641  34.289  29.539  1.00  0.00     0.060 A 
BRANCH  77  78
ATOM     78  S   UNL A   1      33.287  35.153  28.715  1.00  0.00     0.124 S 
ATOM     79  O   UNL A   1      34.012  36.144  27.924  1.00  0.00    -0.237 OA
ATOM     80  O   UNL A   1      32.651  34.080  27.958  1.00  0.00    -0.237 OA
ATOM     81  O   UNL A   1      32.501  35.691  29.820  1.00  0.00    -0.744 OA
ENDBRANCH  77  78
ENDBRANCH  56  70
BRANCH  57  82
ATOM     82  C   UNL A   1      44.072  28.594  36.078  1.00  0.00     0.058 A 
ATOM     83  C   UNL A   1      43.811  27.551  36.978  1.00  0.00     0.135 A 
ATOM     84  C   UNL A   1      45.405  29.016  35.938  1.00  0.00     0.135 A 
ATOM     85  F   UNL A   1      42.555  27.115  37.154  1.00  0.00    -0.206 F 
ATOM     86  C   UNL A   1      44.826  26.964  37.727  1.00  0.00     0.059 A 
ATOM     87  C   UNL A   1      46.441  28.423  36.649  1.00  0.00     0.059 A 
ATOM     88  F   UNL A   1      45.712  30.002  35.079  1.00  0.00    -0.206 F 
ATOM     89  C   UNL A   1      46.139  27.406  37.554  1.00  0.00     0.060 A 
BRANCH  89  90
ATOM     90  S   UNL A   1      47.450  26.621  38.514  1.00  0.00     0.124 S 
ATOM     91  O   UNL A   1      47.076  26.986  39.875  1.00  0.00    -0.237 OA
ATOM     92  O   UNL A   1      47.285  25.214  38.160  1.00  0.00    -0.237 OA
ATOM     93  O   UNL A   1      48.664  27.250  38.003  1.00  0.00    -0.744 OA
ENDBRANCH  89  90
ENDBRANCH  57  82
BRANCH  69  94
ATOM     94  C   UNL A   1      39.868  34.032  37.268  1.00  0.00     0.058 A 
ATOM     95  C   UNL A   1      40.562  35.253  37.273  1.00  0.00     0.135 A 
ATOM     96  C   UNL A   1      39.007  33.762  38.345  1.00  0.00     0.135 A 
ATOM     97  F   UNL A   1      41.404  35.556  36.273  1.00  0.00    -0.206 F 
ATOM     98  C   UNL A   1      40.422  36.162  38.316  1.00  0.00     0.059 A 
ATOM     99  C   UNL A   1      38.827  34.671  39.381  1.00  0.00     0.059 A 
ATOM    100  F   UNL A   1      38.311  32.615  38.383  1.00  0.00    -0.206 F 
ATOM    101  C   UNL A   1      39.548  35.865  39.363  1.00  0.00     0.060 A 
BRANCH 101 102
ATOM    102  S   UNL A   1      39.353  37.074  40.688  1.00  0.00     0.124 S 
ATOM    103  O   UNL A   1      40.710  37.595  40.814  1.00  0.00    -0.237 OA
ATOM    104  O   UNL A   1      38.370  37.994  40.126  1.00  0.00    -0.237 OA
ATOM    105  O   UNL A   1      38.882  36.272  41.814  1.00  0.00    -0.744 OA
ENDBRANCH 101 102
ENDBRANCH  69  94
ENDBRANCH  43  44
ENDBRANCH  35  38
ENDBRANCH  33  34
ENDBRANCH   1  33
TORSDOF 16
ENDMDL
MODEL 2
REMARK VINA RESULT:     -13.5      0.352      7.941
REMARK SMILES CC(C)(C)OC(=O)N1CCC(n2c(=S)[nH]c3cc(C(=O)NCCCNC(=O)c4ccc(-c5c6nc(c(-c7c(F)cc(S(=O)(=O)[O-])cc7F)c7ccc([nH]7)c(-c7c(F)cc(S(=O)(=O)[O-])cc7F)c7nc(c(-c8c(F)cc(S(=O)(=O)[O-])cc8F)c8ccc5[nH]8)C=C7)C=C6)cc4)ccc3c2=O)CC1
REMARK SMILES IDX 23 1 22 2 21 3 19 4 20 5 18 7 12 8 13 9 97 10 14 11 15 12
REMARK SMILES IDX 96 13 98 14 16 15 95 17 17 18 94 19 11 20 6 21 7 22 8 23
REMARK SMILES IDX 9 24 100 25 10 26 99 27 5 28 2 29 1 30 3 31 4 32 24 33 25 34
REMARK SMILES IDX 26 35 27 37 28 38 29 39 93 40 30 41 92 42 31 43 32 44 33 45
REMARK SMILES IDX 86 46 34 47 91 48 85 49 87 50 35 51 90 52 84 53 83 54 36 56
REMARK SMILES IDX 70 57 49 58 69 59 50 60 53 61 68 62 88 63 51 64 52 65 67 67
REMARK SMILES IDX 89 68 54 69 37 70 38 71 47 72 39 73 40 74 46 75 48 76 41 77
REMARK SMILES IDX 42 78 43 79 44 80 45 81 71 82 72 83 81 84 73 85 74 86 80 87
REMARK SMILES IDX 82 88 75 89 76 90 77 91 78 92 79 93 55 94 56 95 65 96 57 97
REMARK SMILES IDX 58 98 64 99 66 100 59 101 60 102 61 103 62 104 63 105
REMARK H PARENT 21 6 15 16 25 36 87 55 53 66
REMARK Flexibility Score: inf
ROOT
ATOM      1  C   UNL A   1      40.429  22.046  27.389  1.00  0.00     0.042 C 
ENDROOT
BRANCH   1   2
ATOM      2  C   UNL A   1      39.397  22.289  26.290  1.00  0.00     0.118 C 
BRANCH   2   3
ATOM      3  N   UNL A   1      38.915  21.030  25.746  1.00  0.00    -0.352 N 
ATOM      4  C   UNL A   1      37.749  20.679  25.113  1.00  0.00     0.251 C 
ATOM      5  O   UNL A   1      37.639  19.516  24.725  1.00  0.00    -0.269 OA
ATOM      6  H   UNL A   1      39.549  20.284  25.851  1.00  0.00     0.163 HD
BRANCH   4   7
ATOM      7  C   UNL A   1      36.656  21.647  24.810  1.00  0.00     0.041 A 
ATOM      8  N   UNL A   1      32.244  24.092  24.803  1.00  0.00    -0.282 N 
ATOM      9  C   UNL A   1      32.153  23.169  25.860  1.00  0.00     0.180 A 
ATOM     10  C   UNL A   1      33.239  23.965  23.834  1.00  0.00     0.262 A 
ATOM     11  S   UNL A   1      30.883  22.986  26.946  1.00  0.00    -0.040 S 
ATOM     12  N   UNL A   1      33.219  22.320  26.043  1.00  0.00    -0.332 N 
ATOM     13  C   UNL A   1      34.442  23.228  24.208  1.00  0.00     0.064 A 
ATOM     14  O   UNL A   1      33.171  24.350  22.670  1.00  0.00    -0.269 OA
ATOM     15  C   UNL A   1      34.382  22.359  25.280  1.00  0.00     0.054 A 
ATOM     16  H   UNL A   1      33.155  21.643  26.756  1.00  0.00     0.169 HD
ATOM     17  C   UNL A   1      35.619  23.395  23.490  1.00  0.00     0.017 A 
ATOM     18  C   UNL A   1      35.477  21.546  25.575  1.00  0.00     0.040 A 
ATOM     19  C   UNL A   1      36.735  22.637  23.827  1.00  0.00     0.015 A 
BRANCH   8  20
ATOM     20  C   UNL A   1      31.297  25.248  24.702  1.00  0.00     0.097 C 
ATOM     21  C   UNL A   1      30.480  28.631  22.560  1.00  0.00     0.410 C 
ATOM     22  O   UNL A   1      31.558  29.174  22.376  1.00  0.00    -0.224 OA
ATOM     23  N   UNL A   1      30.282  27.710  23.572  1.00  0.00    -0.308 N 
ATOM     24  C   UNL A   1      31.183  27.741  24.701  1.00  0.00     0.125 C 
ATOM     25  C   UNL A   1      29.431  26.538  23.456  1.00  0.00     0.125 C 
ATOM     26  C   UNL A   1      32.119  26.555  24.646  1.00  0.00     0.047 C 
ATOM     27  C   UNL A   1      30.291  25.264  23.513  1.00  0.00     0.047 C 
BRANCH  21  28
ATOM     28  O   UNL A   1      29.322  28.963  21.930  1.00  0.00    -0.444 OA
BRANCH  28  29
ATOM     29  C   UNL A   1      28.561  30.096  22.435  1.00  0.00     0.106 C 
ATOM     30  C   UNL A   1      27.264  29.498  23.005  1.00  0.00     0.056 C 
ATOM     31  C   UNL A   1      28.210  31.056  21.296  1.00  0.00     0.056 C 
ATOM     32  C   UNL A   1      29.271  30.821  23.596  1.00  0.00     0.056 C 
ENDBRANCH  28  29
ENDBRANCH  21  28
ENDBRANCH   8  20
ENDBRANCH   4   7
ENDBRANCH   2   3
ENDBRANCH   1   2
BRANCH   1  33
ATOM     33  C   UNL A   1      41.659  22.928  27.239  1.00  0.00     0.118 C 
BRANCH  33  34
ATOM     34  N   UNL A   1      41.527  23.873  26.135  1.00  0.00    -0.352 N 
ATOM     35  C   UNL A   1      41.265  25.223  26.174  1.00  0.00     0.251 C 
ATOM     36  H   UNL A   1      41.642  23.491  25.236  1.00  0.00     0.163 HD
ATOM     37  O   UNL A   1      40.994  25.830  25.144  1.00  0.00    -0.269 OA
BRANCH  35  38
ATOM     38  C   UNL A   1      41.278  25.918  27.477  1.00  0.00     0.039 A 
ATOM     39  C   UNL A   1      40.163  25.844  28.314  1.00  0.00     0.014 A 
ATOM     40  C   UNL A   1      42.375  26.709  27.825  1.00  0.00     0.014 A 
ATOM     41  C   UNL A   1      40.059  26.718  29.386  1.00  0.00     0.010 A 
ATOM     42  C   UNL A   1      42.306  27.512  28.965  1.00  0.00     0.010 A 
ATOM     43  C   UNL A   1      41.122  27.573  29.717  1.00  0.00    -0.014 A 
BRANCH  43  44
ATOM     44  C   UNL A   1      40.952  28.553  30.822  1.00  0.00     0.031 A 
ATOM     45  C   UNL A   1      41.884  28.536  32.008  1.00  0.00     0.074 A 
ATOM     46  C   UNL A   1      39.999  29.501  30.724  1.00  0.00     0.049 A 
ATOM     47  N   UNL A   1      41.877  29.298  33.073  1.00  0.00    -0.248 NA
ATOM     48  C   UNL A   1      42.967  27.536  32.001  1.00  0.00     0.031 C 
ATOM     49  C   UNL A   1      39.056  29.636  29.609  1.00  0.00     0.029 A 
ATOM     50  N   UNL A   1      39.676  30.542  31.556  1.00  0.00    -0.354 N 
ATOM     51  C   UNL A   1      42.933  28.859  33.865  1.00  0.00     0.074 A 
ATOM     52  C   UNL A   1      43.543  27.744  33.178  1.00  0.00     0.031 C 
ATOM     53  C   UNL A   1      38.296  30.723  29.804  1.00  0.00     0.029 A 
ATOM     54  C   UNL A   1      38.639  31.317  31.091  1.00  0.00     0.049 A 
ATOM     55  H   UNL A   1      40.142  30.719  32.405  1.00  0.00     0.167 HD
ATOM     56  C   UNL A   1      43.363  29.355  35.050  1.00  0.00     0.037 A 
ATOM     57  C   UNL A   1      38.015  32.371  31.649  1.00  0.00     0.037 A 
ATOM     58  C   UNL A   1      42.768  30.489  35.712  1.00  0.00     0.049 A 
ATOM     59  C   UNL A   1      38.473  32.857  32.996  1.00  0.00     0.074 A 
ATOM     60  C   UNL A   1      43.144  31.078  36.907  1.00  0.00     0.029 A 
ATOM     61  N   UNL A   1      41.683  31.209  35.236  1.00  0.00    -0.354 N 
ATOM     62  N   UNL A   1      39.471  32.428  33.731  1.00  0.00    -0.248 NA
ATOM     63  C   UNL A   1      37.713  33.962  33.596  1.00  0.00     0.031 C 
ATOM     64  C   UNL A   1      42.254  32.120  37.179  1.00  0.00     0.029 A 
ATOM     65  C   UNL A   1      41.359  32.218  36.127  1.00  0.00     0.049 A 
ATOM     66  H   UNL A   1      41.212  31.029  34.391  1.00  0.00     0.167 HD
ATOM     67  C   UNL A   1      39.468  33.221  34.873  1.00  0.00     0.074 A 
ATOM     68  C   UNL A   1      38.388  34.172  34.719  1.00  0.00     0.031 C 
ATOM     69  C   UNL A   1      40.282  33.161  35.956  1.00  0.00     0.037 A 
BRANCH  56  70
ATOM     70  C   UNL A   1      44.532  28.689  35.723  1.00  0.00     0.058 A 
ATOM     71  C   UNL A   1      45.853  29.100  35.483  1.00  0.00     0.135 A 
ATOM     72  C   UNL A   1      44.323  27.699  36.698  1.00  0.00     0.135 A 
ATOM     73  F   UNL A   1      46.113  30.028  34.548  1.00  0.00    -0.206 F 
ATOM     74  C   UNL A   1      46.923  28.555  36.185  1.00  0.00     0.059 A 
ATOM     75  C   UNL A   1      45.375  27.158  37.430  1.00  0.00     0.059 A 
ATOM     76  F   UNL A   1      43.081  27.266  36.964  1.00  0.00    -0.206 F 
ATOM     77  C   UNL A   1      46.672  27.592  37.166  1.00  0.00     0.060 A 
BRANCH  77  78
ATOM     78  S   UNL A   1      48.071  26.936  38.101  1.00  0.00     0.124 S 
ATOM     79  O   UNL A   1      48.191  25.592  37.542  1.00  0.00    -0.237 OA
ATOM     80  O   UNL A   1      49.139  27.866  37.752  1.00  0.00    -0.237 OA
ATOM     81  O   UNL A   1      47.616  26.997  39.486  1.00  0.00    -0.744 OA
ENDBRANCH  77  78
ENDBRANCH  56  70
BRANCH  57  82
ATOM     82  C   UNL A   1      36.873  33.017  30.949  1.00  0.00     0.058 A 
ATOM     83  C   UNL A   1      37.083  33.891  29.873  1.00  0.00     0.135 A 
ATOM     84  C   UNL A   1      35.546  32.777  31.344  1.00  0.00     0.135 A 
ATOM     85  F   UNL A   1      38.331  34.160  29.461  1.00  0.00    -0.206 F 
ATOM     86  C   UNL A   1      36.023  34.521  29.228  1.00  0.00     0.059 A 
ATOM     87  C   UNL A   1      34.469  33.367  30.694  1.00  0.00     0.059 A 
ATOM     88  F   UNL A   1      35.287  31.937  32.359  1.00  0.00    -0.206 F 
ATOM     89  C   UNL A   1      34.718  34.250  29.645  1.00  0.00     0.060 A 
BRANCH  89  90
ATOM     90  S   UNL A   1      33.351  35.055  28.785  1.00  0.00     0.124 S 
ATOM     91  O   UNL A   1      32.829  33.960  27.976  1.00  0.00    -0.237 OA
ATOM     92  O   UNL A   1      32.507  35.489  29.895  1.00  0.00    -0.237 OA
ATOM     93  O   UNL A   1      34.005  36.130  28.045  1.00  0.00    -0.744 OA
ENDBRANCH  89  90
ENDBRANCH  57  82
BRANCH  69  94
ATOM     94  C   UNL A   1      40.046  34.159  37.055  1.00  0.00     0.058 A 
ATOM     95  C   UNL A   1      40.600  35.448  37.006  1.00  0.00     0.135 A 
ATOM     96  C   UNL A   1      39.209  33.845  38.139  1.00  0.00     0.135 A 
ATOM     97  F   UNL A   1      41.413  35.796  35.996  1.00  0.00    -0.206 F 
ATOM     98  C   UNL A   1      40.350  36.384  38.004  1.00  0.00     0.059 A 
ATOM     99  C   UNL A   1      38.919  34.776  39.130  1.00  0.00     0.059 A 
ATOM    100  F   UNL A   1      38.645  32.630  38.227  1.00  0.00    -0.206 F 
ATOM    101  C   UNL A   1      39.502  36.040  39.058  1.00  0.00     0.060 A 
BRANCH 101 102
ATOM    102  S   UNL A   1      39.161  37.280  40.325  1.00  0.00     0.124 S 
ATOM    103  O   UNL A   1      38.330  36.526  41.259  1.00  0.00    -0.237 OA
ATOM    104  O   UNL A   1      40.499  37.617  40.797  1.00  0.00    -0.237 OA
ATOM    105  O   UNL A   1      38.475  38.339  39.589  1.00  0.00    -0.744 OA
ENDBRANCH 101 102
ENDBRANCH  69  94
ENDBRANCH  43  44
ENDBRANCH  35  38
ENDBRANCH  33  34
ENDBRANCH   1  33
TORSDOF 16
ENDMDL
MODEL 3
REMARK VINA RESULT:     -13.0      6.260     11.849
REMARK SMILES CC(C)(C)OC(=O)N1CCC(n2c(=S)[nH]c3cc(C(=O)NCCCNC(=O)c4ccc(-c5c6nc(c(-c7c(F)cc(S(=O)(=O)[O-])cc7F)c7ccc([nH]7)c(-c7c(F)cc(S(=O)(=O)[O-])cc7F)c7nc(c(-c8c(F)cc(S(=O)(=O)[O-])cc8F)c8ccc5[nH]8)C=C7)C=C6)cc4)ccc3c2=O)CC1
REMARK SMILES IDX 23 1 22 2 21 3 19 4 20 5 18 7 12 8 13 9 97 10 14 11 15 12
REMARK SMILES IDX 96 13 98 14 16 15 95 17 17 18 94 19 11 20 6 21 7 22 8 23
REMARK SMILES IDX 9 24 100 25 10 26 99 27 5 28 2 29 1 30 3 31 4 32 24 33 25 34
REMARK SMILES IDX 26 35 27 37 28 38 29 39 93 40 30 41 92 42 31 43 32 44 33 45
REMARK SMILES IDX 86 46 34 47 91 48 85 49 87 50 35 51 90 52 84 53 83 54 36 56
REMARK SMILES IDX 70 57 49 58 69 59 50 60 53 61 68 62 88 63 51 64 52 65 67 67
REMARK SMILES IDX 89 68 54 69 37 70 38 71 47 72 39 73 40 74 46 75 48 76 41 77
REMARK SMILES IDX 42 78 43 79 44 80 45 81 71 82 72 83 81 84 73 85 74 86 80 87
REMARK SMILES IDX 82 88 75 89 76 90 77 91 78 92 79 93 55 94 56 95 65 96 57 97
REMARK SMILES IDX 58 98 64 99 66 100 59 101 60 102 61 103 62 104 63 105
REMARK H PARENT 21 6 15 16 25 36 87 55 53 66
REMARK Flexibility Score: inf
ROOT
ATOM      1  C   UNL A   1      35.179  32.655  28.007  1.00  0.00     0.042 C 
ENDROOT
BRANCH   1   2
ATOM      2  C   UNL A   1      34.213  31.477  27.905  1.00  0.00     0.118 C 
BRANCH   2   3
ATOM      3  N   UNL A   1      32.949  31.894  27.320  1.00  0.00    -0.352 N 
ATOM      4  C   UNL A   1      31.989  31.219  26.609  1.00  0.00     0.251 C 
ATOM      5  O   UNL A   1      30.987  31.846  26.266  1.00  0.00    -0.269 OA
ATOM      6  H   UNL A   1      32.741  32.846  27.461  1.00  0.00     0.163 HD
BRANCH   4   7
ATOM      7  C   UNL A   1      32.069  29.762  26.301  1.00  0.00     0.041 A 
ATOM      8  N   UNL A   1      32.306  25.354  23.860  1.00  0.00    -0.282 N 
ATOM      9  C   UNL A   1      32.432  26.336  22.862  1.00  0.00     0.180 A 
ATOM     10  C   UNL A   1      31.841  25.690  25.131  1.00  0.00     0.262 A 
ATOM     11  S   UNL A   1      32.698  26.091  21.220  1.00  0.00    -0.040 S 
ATOM     12  N   UNL A   1      32.336  27.649  23.259  1.00  0.00    -0.332 N 
ATOM     13  C   UNL A   1      31.993  27.080  25.550  1.00  0.00     0.064 A 
ATOM     14  O   UNL A   1      31.247  24.945  25.907  1.00  0.00    -0.269 OA
ATOM     15  C   UNL A   1      32.173  28.049  24.582  1.00  0.00     0.054 A 
ATOM     16  H   UNL A   1      32.384  28.348  22.567  1.00  0.00     0.169 HD
ATOM     17  C   UNL A   1      31.949  27.416  26.897  1.00  0.00     0.017 A 
ATOM     18  C   UNL A   1      32.188  29.396  24.945  1.00  0.00     0.040 A 
ATOM     19  C   UNL A   1      32.035  28.753  27.268  1.00  0.00     0.015 A 
BRANCH   8  20
ATOM     20  C   UNL A   1      32.693  23.931  23.598  1.00  0.00     0.097 C 
ATOM     21  C   UNL A   1      32.845  20.216  25.294  1.00  0.00     0.410 C 
ATOM     22  O   UNL A   1      33.270  20.386  26.425  1.00  0.00    -0.224 OA
ATOM     23  N   UNL A   1      33.038  21.142  24.286  1.00  0.00    -0.308 N 
ATOM     24  C   UNL A   1      34.137  22.070  24.422  1.00  0.00     0.125 C 
ATOM     25  C   UNL A   1      32.060  21.445  23.255  1.00  0.00     0.125 C 
ATOM     26  C   UNL A   1      33.609  23.450  24.744  1.00  0.00     0.047 C 
ATOM     27  C   UNL A   1      31.550  22.885  23.429  1.00  0.00     0.047 C 
BRANCH  21  28
ATOM     28  O   UNL A   1      32.286  19.064  24.836  1.00  0.00    -0.444 OA
BRANCH  28  29
ATOM     29  C   UNL A   1      33.170  17.969  24.462  1.00  0.00     0.106 C 
ATOM     30  C   UNL A   1      32.807  17.629  23.007  1.00  0.00     0.056 C 
ATOM     31  C   UNL A   1      32.907  16.745  25.342  1.00  0.00     0.056 C 
ATOM     32  C   UNL A   1      34.657  18.374  24.474  1.00  0.00     0.056 C 
ENDBRANCH  28  29
ENDBRANCH  21  28
ENDBRANCH   8  20
ENDBRANCH   4   7
ENDBRANCH   2   3
ENDBRANCH   1   2
BRANCH   1  33
ATOM     33  C   UNL A   1      36.405  32.333  28.850  1.00  0.00     0.118 C 
BRANCH  33  34
ATOM     34  N   UNL A   1      36.046  31.820  30.167  1.00  0.00    -0.352 N 
ATOM     35  C   UNL A   1      36.552  30.733  30.843  1.00  0.00     0.251 C 
ATOM     36  H   UNL A   1      35.344  32.321  30.640  1.00  0.00     0.163 HD
ATOM     37  O   UNL A   1      36.000  30.328  31.860  1.00  0.00    -0.269 OA
BRANCH  35  38
ATOM     38  C   UNL A   1      37.742  30.045  30.304  1.00  0.00     0.039 A 
ATOM     39  C   UNL A   1      38.711  29.548  31.178  1.00  0.00     0.014 A 
ATOM     40  C   UNL A   1      37.927  29.969  28.922  1.00  0.00     0.014 A 
ATOM     41  C   UNL A   1      39.947  29.170  30.677  1.00  0.00     0.010 A 
ATOM     42  C   UNL A   1      39.138  29.489  28.418  1.00  0.00     0.010 A 
ATOM     43  C   UNL A   1      40.182  29.148  29.293  1.00  0.00    -0.014 A 
BRANCH  43  44
ATOM     44  C   UNL A   1      41.540  28.814  28.789  1.00  0.00     0.031 A 
ATOM     45  C   UNL A   1      42.626  29.860  28.769  1.00  0.00     0.074 A 
ATOM     46  C   UNL A   1      41.812  27.548  28.413  1.00  0.00     0.049 A 
ATOM     47  N   UNL A   1      43.861  29.758  28.348  1.00  0.00    -0.248 NA
ATOM     48  C   UNL A   1      42.286  31.197  29.290  1.00  0.00     0.031 C 
ATOM     49  C   UNL A   1      40.850  26.442  28.418  1.00  0.00     0.029 A 
ATOM     50  N   UNL A   1      42.977  26.970  27.978  1.00  0.00    -0.354 N 
ATOM     51  C   UNL A   1      44.435  31.012  28.533  1.00  0.00     0.074 A 
ATOM     52  C   UNL A   1      43.407  31.871  29.075  1.00  0.00     0.031 C 
ATOM     53  C   UNL A   1      41.474  25.314  28.050  1.00  0.00     0.029 A 
ATOM     54  C   UNL A   1      42.857  25.626  27.708  1.00  0.00     0.049 A 
ATOM     55  H   UNL A   1      43.819  27.468  27.868  1.00  0.00     0.167 HD
ATOM     56  C   UNL A   1      45.709  31.402  28.289  1.00  0.00     0.037 A 
ATOM     57  C   UNL A   1      43.751  24.748  27.215  1.00  0.00     0.037 A 
ATOM     58  C   UNL A   1      46.736  30.530  27.779  1.00  0.00     0.049 A 
ATOM     59  C   UNL A   1      45.138  25.229  26.892  1.00  0.00     0.074 A 
ATOM     60  C   UNL A   1      48.061  30.828  27.515  1.00  0.00     0.029 A 
ATOM     61  N   UNL A   1      46.558  29.191  27.464  1.00  0.00    -0.354 N 
ATOM     62  N   UNL A   1      45.661  26.418  27.071  1.00  0.00    -0.248 NA
ATOM     63  C   UNL A   1      46.054  24.252  26.287  1.00  0.00     0.031 C 
ATOM     64  C   UNL A   1      48.671  29.684  26.991  1.00  0.00     0.029 A 
ATOM     65  C   UNL A   1      47.742  28.658  26.983  1.00  0.00     0.049 A 
ATOM     66  H   UNL A   1      45.714  28.693  27.566  1.00  0.00     0.167 HD
ATOM     67  C   UNL A   1      46.971  26.328  26.616  1.00  0.00     0.074 A 
ATOM     68  C   UNL A   1      47.169  24.962  26.179  1.00  0.00     0.031 C 
ATOM     69  C   UNL A   1      47.923  27.293  26.556  1.00  0.00     0.037 A 
BRANCH  56  70
ATOM     70  C   UNL A   1      46.084  32.834  28.563  1.00  0.00     0.058 A 
ATOM     71  C   UNL A   1      45.943  33.833  27.586  1.00  0.00     0.135 A 
ATOM     72  C   UNL A   1      46.489  33.230  29.849  1.00  0.00     0.135 A 
ATOM     73  F   UNL A   1      45.579  33.508  26.335  1.00  0.00    -0.206 F 
ATOM     74  C   UNL A   1      46.190  35.171  27.875  1.00  0.00     0.059 A 
ATOM     75  C   UNL A   1      46.717  34.565  30.167  1.00  0.00     0.059 A 
ATOM     76  F   UNL A   1      46.644  32.315  30.819  1.00  0.00    -0.206 F 
ATOM     77  C   UNL A   1      46.564  35.529  29.172  1.00  0.00     0.060 A 
BRANCH  77  78
ATOM     78  S   UNL A   1      46.829  37.278  29.537  1.00  0.00     0.124 S 
ATOM     79  O   UNL A   1      47.951  37.215  30.470  1.00  0.00    -0.237 OA
ATOM     80  O   UNL A   1      47.130  37.826  28.219  1.00  0.00    -0.237 OA
ATOM     81  O   UNL A   1      45.559  37.703  30.116  1.00  0.00    -0.744 OA
ENDBRANCH  77  78
ENDBRANCH  56  70
BRANCH  57  82
ATOM     82  C   UNL A   1      43.352  23.336  26.971  1.00  0.00     0.058 A 
ATOM     83  C   UNL A   1      43.260  22.417  28.025  1.00  0.00     0.135 A 
ATOM     84  C   UNL A   1      43.058  22.876  25.677  1.00  0.00     0.135 A 
ATOM     85  F   UNL A   1      43.537  22.804  29.279  1.00  0.00    -0.206 F 
ATOM     86  C   UNL A   1      42.913  21.088  27.804  1.00  0.00     0.059 A 
ATOM     87  C   UNL A   1      42.676  21.562  25.435  1.00  0.00     0.059 A 
ATOM     88  F   UNL A   1      43.116  23.719  24.633  1.00  0.00    -0.206 F 
ATOM     89  C   UNL A   1      42.621  20.670  26.504  1.00  0.00     0.060 A 
BRANCH  89  90
ATOM     90  S   UNL A   1      42.149  18.950  26.234  1.00  0.00     0.124 S 
ATOM     91  O   UNL A   1      43.140  18.525  25.252  1.00  0.00    -0.237 OA
ATOM     92  O   UNL A   1      42.290  18.382  27.571  1.00  0.00    -0.237 OA
ATOM     93  O   UNL A   1      40.777  19.050  25.744  1.00  0.00    -0.744 OA
ENDBRANCH  89  90
ENDBRANCH  57  82
BRANCH  69  94
ATOM     94  C   UNL A   1      49.269  26.904  26.013  1.00  0.00     0.058 A 
ATOM     95  C   UNL A   1      49.571  27.022  24.647  1.00  0.00     0.135 A 
ATOM     96  C   UNL A   1      50.290  26.468  26.875  1.00  0.00     0.135 A 
ATOM     97  F   UNL A   1      48.630  27.427  23.780  1.00  0.00    -0.206 F 
ATOM     98  C   UNL A   1      50.830  26.699  24.151  1.00  0.00     0.059 A 
ATOM     99  C   UNL A   1      51.564  26.172  26.406  1.00  0.00     0.059 A 
ATOM    100  F   UNL A   1      50.057  26.349  28.192  1.00  0.00    -0.206 F 
ATOM    101  C   UNL A   1      51.822  26.281  25.040  1.00  0.00     0.060 A 
BRANCH 101 102
ATOM    102  S   UNL A   1      53.459  25.902  24.383  1.00  0.00     0.124 S 
ATOM    103  O   UNL A   1      54.298  26.838  25.124  1.00  0.00    -0.237 OA
ATOM    104  O   UNL A   1      53.615  24.495  24.734  1.00  0.00    -0.237 OA
ATOM    105  O   UNL A   1      53.325  26.176  22.954  1.00  0.00    -0.744 OA
ENDBRANCH 101 102
ENDBRANCH  69  94
ENDBRANCH  43  44
ENDBRANCH  35  38
ENDBRANCH  33  34
ENDBRANCH   1  33
TORSDOF 16
ENDMDL
