MODEL 1
REMARK VINA RESULT:     -12.2      0.000      0.000
REMARK SMILES O=C(NCCCNC(=O)c1ccc(Cl)nc1NC[C@@H]1C[N@@H+]2CCC[C@@H]2CO1)c1ccc(-c2c3nc(c(-c4c(F)cc(S(=O)(=O)[O-])cc4F)c4ccc([nH]4)c(-c4c(F)cc(S(=O)(=O)[O-])cc4F)c4nc(c(-c5c(F)cc(S(=O)(=O)[O-])cc5F)c5ccc2[nH]5)C=C4)C=C3)cc1
REMARK SMILES IDX 5 1 4 2 3 3 1 4 2 5 28 7 29 8 93 9 30 10 92 11 31 12 32 13
REMARK SMILES IDX 33 14 86 15 34 16 91 17 85 18 87 19 35 20 90 21 84 22 83 23
REMARK SMILES IDX 36 25 70 26 49 27 69 28 50 29 53 30 68 31 88 32 51 33 52 34
REMARK SMILES IDX 67 36 89 37 54 38 37 39 38 40 47 41 39 42 40 43 46 44 48 45
REMARK SMILES IDX 41 46 42 47 43 48 44 49 45 50 71 51 72 52 81 53 73 54 74 55
REMARK SMILES IDX 80 56 82 57 75 58 76 59 77 60 78 61 79 62 55 63 56 64 65 65
REMARK SMILES IDX 57 66 58 67 64 68 66 69 59 70 60 71 61 72 62 73 63 74 6 75
REMARK SMILES IDX 7 76 8 77 9 79 10 80 11 81 16 82 12 83 15 84 13 85 14 86
REMARK SMILES IDX 17 87 18 89 19 90 20 91 27 92 21 93 26 94 22 95 25 96 23 98
REMARK SMILES IDX 24 99
REMARK H PARENT 3 6 87 24 53 35 7 78 17 88 21 97
REMARK Flexibility Score: inf
ROOT
ATOM      1  C   UNL A   1      37.392  23.680  25.444  1.00  0.00     0.042 C 
ENDROOT
BRANCH   1   2
ATOM      2  C   UNL A   1      38.374  24.023  26.557  1.00  0.00     0.118 C 
BRANCH   2   3
ATOM      3  N   UNL A   1      39.764  23.957  26.123  1.00  0.00    -0.352 N 
ATOM      4  O   UNL A   1      41.883  24.636  25.810  1.00  0.00    -0.269 OA
ATOM      5  C   UNL A   1      40.841  24.741  26.456  1.00  0.00     0.251 C 
ATOM      6  H   UNL A   1      39.962  23.232  25.487  1.00  0.00     0.163 HD
BRANCH   5   7
ATOM      7  C   UNL A   1      40.752  25.713  27.567  1.00  0.00     0.039 A 
ATOM      8  C   UNL A   1      39.764  25.594  28.544  1.00  0.00     0.014 A 
ATOM      9  C   UNL A   1      41.699  26.739  27.656  1.00  0.00     0.014 A 
ATOM     10  C   UNL A   1      39.623  26.581  29.513  1.00  0.00     0.010 A 
ATOM     11  C   UNL A   1      41.617  27.675  28.691  1.00  0.00     0.010 A 
ATOM     12  C   UNL A   1      40.561  27.621  29.612  1.00  0.00    -0.014 A 
BRANCH  12  13
ATOM     13  C   UNL A   1      40.453  28.590  30.733  1.00  0.00     0.031 A 
ATOM     14  C   UNL A   1      41.369  28.514  31.923  1.00  0.00     0.074 A 
ATOM     15  C   UNL A   1      39.528  29.568  30.651  1.00  0.00     0.049 A 
ATOM     16  N   UNL A   1      41.412  29.287  32.978  1.00  0.00    -0.248 NA
ATOM     17  C   UNL A   1      42.361  27.427  31.936  1.00  0.00     0.031 C 
ATOM     18  C   UNL A   1      38.578  29.737  29.546  1.00  0.00     0.029 A 
ATOM     19  N   UNL A   1      39.243  30.613  31.492  1.00  0.00    -0.354 N 
ATOM     20  C   UNL A   1      42.422  28.778  33.786  1.00  0.00     0.074 A 
ATOM     21  C   UNL A   1      42.948  27.609  33.112  1.00  0.00     0.031 C 
ATOM     22  C   UNL A   1      37.853  30.844  29.754  1.00  0.00     0.029 A 
ATOM     23  C   UNL A   1      38.233  31.425  31.035  1.00  0.00     0.049 A 
ATOM     24  H   UNL A   1      39.717  30.767  32.341  1.00  0.00     0.167 HD
ATOM     25  C   UNL A   1      42.873  29.249  34.974  1.00  0.00     0.037 A 
ATOM     26  C   UNL A   1      37.658  32.507  31.593  1.00  0.00     0.037 A 
ATOM     27  C   UNL A   1      42.345  30.419  35.632  1.00  0.00     0.049 A 
ATOM     28  C   UNL A   1      38.152  32.985  32.927  1.00  0.00     0.074 A 
ATOM     29  C   UNL A   1      42.748  30.990  36.827  1.00  0.00     0.029 A 
ATOM     30  N   UNL A   1      41.297  31.195  35.155  1.00  0.00    -0.354 N 
ATOM     31  N   UNL A   1      39.122  32.503  33.666  1.00  0.00    -0.248 NA
ATOM     32  C   UNL A   1      37.471  34.150  33.506  1.00  0.00     0.031 C 
ATOM     33  C   UNL A   1      41.916  32.082  37.094  1.00  0.00     0.029 A 
ATOM     34  C   UNL A   1      41.027  32.225  36.041  1.00  0.00     0.049 A 
ATOM     35  H   UNL A   1      40.817  31.036  34.311  1.00  0.00     0.167 HD
ATOM     36  C   UNL A   1      39.180  33.316  34.791  1.00  0.00     0.074 A 
ATOM     37  C   UNL A   1      38.159  34.330  34.626  1.00  0.00     0.031 C 
ATOM     38  C   UNL A   1      40.005  33.227  35.864  1.00  0.00     0.037 A 
BRANCH  25  39
ATOM     39  C   UNL A   1      43.984  28.493  35.654  1.00  0.00     0.058 A 
ATOM     40  C   UNL A   1      43.723  27.455  36.562  1.00  0.00     0.135 A 
ATOM     41  C   UNL A   1      45.327  28.778  35.357  1.00  0.00     0.135 A 
ATOM     42  F   UNL A   1      42.459  27.149  36.894  1.00  0.00    -0.206 F 
ATOM     43  C   UNL A   1      44.753  26.743  37.171  1.00  0.00     0.059 A 
ATOM     44  C   UNL A   1      46.373  28.062  35.933  1.00  0.00     0.059 A 
ATOM     45  F   UNL A   1      45.634  29.758  34.494  1.00  0.00    -0.206 F 
ATOM     46  C   UNL A   1      46.076  27.054  36.850  1.00  0.00     0.060 A 
BRANCH  46  47
ATOM     47  S   UNL A   1      47.400  26.121  37.648  1.00  0.00     0.124 S 
ATOM     48  O   UNL A   1      47.180  24.784  37.107  1.00  0.00    -0.237 OA
ATOM     49  O   UNL A   1      48.596  26.809  37.172  1.00  0.00    -0.237 OA
ATOM     50  O   UNL A   1      47.116  26.277  39.071  1.00  0.00    -0.744 OA
ENDBRANCH  46  47
ENDBRANCH  25  39
BRANCH  26  51
ATOM     51  C   UNL A   1      36.549  33.199  30.885  1.00  0.00     0.058 A 
ATOM     52  C   UNL A   1      35.223  33.079  31.327  1.00  0.00     0.135 A 
ATOM     53  C   UNL A   1      36.798  34.021  29.775  1.00  0.00     0.135 A 
ATOM     54  F   UNL A   1      34.935  32.302  32.382  1.00  0.00    -0.206 F 
ATOM     55  C   UNL A   1      34.181  33.742  30.688  1.00  0.00     0.059 A 
ATOM     56  C   UNL A   1      35.777  34.717  29.136  1.00  0.00     0.059 A 
ATOM     57  F   UNL A   1      38.052  34.183  29.326  1.00  0.00    -0.206 F 
ATOM     58  C   UNL A   1      34.469  34.563  29.595  1.00  0.00     0.060 A 
BRANCH  58  59
ATOM     59  S   UNL A   1      33.118  35.463  28.806  1.00  0.00     0.124 S 
ATOM     60  O   UNL A   1      32.381  35.956  29.962  1.00  0.00    -0.237 OA
ATOM     61  O   UNL A   1      33.833  36.469  28.027  1.00  0.00    -0.237 OA
ATOM     62  O   UNL A   1      32.445  34.435  28.018  1.00  0.00    -0.744 OA
ENDBRANCH  58  59
ENDBRANCH  26  51
BRANCH  38  63
ATOM     63  C   UNL A   1      39.855  34.275  36.932  1.00  0.00     0.058 A 
ATOM     64  C   UNL A   1      40.463  35.534  36.820  1.00  0.00     0.135 A 
ATOM     65  C   UNL A   1      39.057  34.029  38.061  1.00  0.00     0.135 A 
ATOM     66  F   UNL A   1      41.244  35.816  35.763  1.00  0.00    -0.206 F 
ATOM     67  C   UNL A   1      40.306  36.506  37.801  1.00  0.00     0.059 A 
ATOM     68  C   UNL A   1      38.863  34.996  39.042  1.00  0.00     0.059 A 
ATOM     69  F   UNL A   1      38.447  32.843  38.213  1.00  0.00    -0.206 F 
ATOM     70  C   UNL A   1      39.501  36.229  38.908  1.00  0.00     0.060 A 
BRANCH  70  71
ATOM     71  S   UNL A   1      39.277  37.511  40.158  1.00  0.00     0.124 S 
ATOM     72  O   UNL A   1      38.919  36.720  41.331  1.00  0.00    -0.237 OA
ATOM     73  O   UNL A   1      40.592  38.144  40.196  1.00  0.00    -0.237 OA
ATOM     74  O   UNL A   1      38.207  38.339  39.607  1.00  0.00    -0.744 OA
ENDBRANCH  70  71
ENDBRANCH  38  63
ENDBRANCH  12  13
ENDBRANCH   5   7
ENDBRANCH   2   3
ENDBRANCH   1   2
BRANCH   1  75
ATOM     75  C   UNL A   1      35.929  23.825  25.843  1.00  0.00     0.118 C 
BRANCH  75  76
ATOM     76  N   UNL A   1      35.092  24.193  24.712  1.00  0.00    -0.352 N 
ATOM     77  C   UNL A   1      34.275  23.411  23.935  1.00  0.00     0.255 C 
ATOM     78  H   UNL A   1      35.113  25.147  24.468  1.00  0.00     0.163 HD
ATOM     79  O   UNL A   1      33.876  23.854  22.860  1.00  0.00    -0.269 OA
BRANCH  77  80
ATOM     80  C   UNL A   1      33.867  22.062  24.384  1.00  0.00     0.082 A 
ATOM     81  C   UNL A   1      34.837  21.064  24.525  1.00  0.00     0.021 A 
ATOM     82  C   UNL A   1      32.541  21.798  24.777  1.00  0.00     0.140 A 
ATOM     83  C   UNL A   1      34.454  19.802  24.950  1.00  0.00     0.042 A 
ATOM     84  N   UNL A   1      32.170  20.563  25.183  1.00  0.00    -0.219 NA
ATOM     85  C   UNL A   1      33.120  19.608  25.250  1.00  0.00     0.131 A 
ATOM     86  Cl  UNL A   1      32.552  18.073  25.759  1.00  0.00    -0.062 Cl
BRANCH  82  87
ATOM     87  N   UNL A   1      31.567  22.783  24.677  1.00  0.00    -0.367 N 
ATOM     88  H   UNL A   1      31.319  23.127  23.787  1.00  0.00     0.162 HD
BRANCH  87  89
ATOM     89  C   UNL A   1      30.902  23.318  25.859  1.00  0.00     0.152 C 
BRANCH  89  90
ATOM     90  C   UNL A   1      30.622  24.858  25.771  1.00  0.00     0.192 C 
ATOM     91  C   UNL A   1      30.692  25.375  24.299  1.00  0.00     0.296 C 
ATOM     92  O   UNL A   1      31.390  25.619  26.719  1.00  0.00    -0.364 OA
ATOM     93  N   UNL A   1      31.345  26.661  24.024  1.00  0.00    -0.328 N 
ATOM     94  C   UNL A   1      32.597  26.137  26.171  1.00  0.00     0.225 C 
ATOM     95  C   UNL A   1      32.006  26.691  22.714  1.00  0.00     0.262 C 
ATOM     96  C   UNL A   1      32.311  27.116  25.040  1.00  0.00     0.210 C 
ATOM     97  H   UNL A   1      30.559  27.312  24.042  1.00  0.00     0.348 HD
ATOM     98  C   UNL A   1      33.110  27.721  22.870  1.00  0.00     0.068 C 
ATOM     99  C   UNL A   1      33.590  27.473  24.283  1.00  0.00     0.073 C 
ENDBRANCH  89  90
ENDBRANCH  87  89
ENDBRANCH  82  87
ENDBRANCH  77  80
ENDBRANCH  75  76
ENDBRANCH   1  75
TORSDOF 16
ENDMDL
MODEL 2
REMARK VINA RESULT:     -12.2      6.787     12.077
REMARK SMILES O=C(NCCCNC(=O)c1ccc(Cl)nc1NC[C@@H]1C[N@@H+]2CCC[C@@H]2CO1)c1ccc(-c2c3nc(c(-c4c(F)cc(S(=O)(=O)[O-])cc4F)c4ccc([nH]4)c(-c4c(F)cc(S(=O)(=O)[O-])cc4F)c4nc(c(-c5c(F)cc(S(=O)(=O)[O-])cc5F)c5ccc2[nH]5)C=C4)C=C3)cc1
REMARK SMILES IDX 5 1 4 2 3 3 1 4 2 5 28 7 29 8 93 9 30 10 92 11 31 12 32 13
REMARK SMILES IDX 33 14 86 15 34 16 91 17 85 18 87 19 35 20 90 21 84 22 83 23
REMARK SMILES IDX 36 25 70 26 49 27 69 28 50 29 53 30 68 31 88 32 51 33 52 34
REMARK SMILES IDX 67 36 89 37 54 38 37 39 38 40 47 41 39 42 40 43 46 44 48 45
REMARK SMILES IDX 41 46 42 47 43 48 44 49 45 50 71 51 72 52 81 53 73 54 74 55
REMARK SMILES IDX 80 56 82 57 75 58 76 59 77 60 78 61 79 62 55 63 56 64 65 65
REMARK SMILES IDX 57 66 58 67 64 68 66 69 59 70 60 71 61 72 62 73 63 74 6 75
REMARK SMILES IDX 7 76 8 77 9 79 10 80 11 81 16 82 12 83 15 84 13 85 14 86
REMARK SMILES IDX 17 87 18 89 19 90 20 91 27 92 21 93 26 94 22 95 25 96 23 98
REMARK SMILES IDX 24 99
REMARK H PARENT 3 6 87 24 53 35 7 78 17 88 21 97
REMARK Flexibility Score: inf
ROOT
ATOM      1  C   UNL A   1      33.810  28.764  26.977  1.00  0.00     0.042 C 
ENDROOT
BRANCH   1   2
ATOM      2  C   UNL A   1      35.181  29.313  27.350  1.00  0.00     0.118 C 
BRANCH   2   3
ATOM      3  N   UNL A   1      35.195  29.952  28.660  1.00  0.00    -0.352 N 
ATOM      4  O   UNL A   1      35.938  30.470  30.717  1.00  0.00    -0.269 OA
ATOM      5  C   UNL A   1      36.204  30.071  29.584  1.00  0.00     0.251 C 
ATOM      6  H   UNL A   1      34.342  30.364  28.927  1.00  0.00     0.163 HD
BRANCH   5   7
ATOM      7  C   UNL A   1      37.595  29.710  29.234  1.00  0.00     0.039 A 
ATOM      8  C   UNL A   1      38.491  29.284  30.214  1.00  0.00     0.014 A 
ATOM      9  C   UNL A   1      37.999  29.760  27.895  1.00  0.00     0.014 A 
ATOM     10  C   UNL A   1      39.824  29.062  29.887  1.00  0.00     0.010 A 
ATOM     11  C   UNL A   1      39.316  29.439  27.552  1.00  0.00     0.010 A 
ATOM     12  C   UNL A   1      40.248  29.115  28.549  1.00  0.00    -0.014 A 
BRANCH  12  13
ATOM     13  C   UNL A   1      41.651  28.753  28.218  1.00  0.00     0.031 A 
ATOM     14  C   UNL A   1      42.753  29.775  28.261  1.00  0.00     0.074 A 
ATOM     15  C   UNL A   1      41.926  27.470  27.905  1.00  0.00     0.049 A 
ATOM     16  N   UNL A   1      44.027  29.619  28.011  1.00  0.00    -0.248 NA
ATOM     17  C   UNL A   1      42.377  31.150  28.624  1.00  0.00     0.031 C 
ATOM     18  C   UNL A   1      40.935  26.392  27.825  1.00  0.00     0.029 A 
ATOM     19  N   UNL A   1      43.113  26.848  27.615  1.00  0.00    -0.354 N 
ATOM     20  C   UNL A   1      44.607  30.872  28.173  1.00  0.00     0.074 A 
ATOM     21  C   UNL A   1      43.537  31.786  28.515  1.00  0.00     0.031 C 
ATOM     22  C   UNL A   1      41.561  25.238  27.556  1.00  0.00     0.029 A 
ATOM     23  C   UNL A   1      42.982  25.502  27.375  1.00  0.00     0.049 A 
ATOM     24  H   UNL A   1      43.976  27.321  27.582  1.00  0.00     0.167 HD
ATOM     25  C   UNL A   1      45.910  31.223  28.056  1.00  0.00     0.037 A 
ATOM     26  C   UNL A   1      43.900  24.580  27.026  1.00  0.00     0.037 A 
ATOM     27  C   UNL A   1      46.968  30.302  27.723  1.00  0.00     0.049 A 
ATOM     28  C   UNL A   1      45.331  25.003  26.867  1.00  0.00     0.074 A 
ATOM     29  C   UNL A   1      48.324  30.555  27.601  1.00  0.00     0.029 A 
ATOM     30  N   UNL A   1      46.791  28.952  27.451  1.00  0.00    -0.354 N 
ATOM     31  N   UNL A   1      45.862  26.189  27.045  1.00  0.00    -0.248 NA
ATOM     32  C   UNL A   1      46.286  23.967  26.456  1.00  0.00     0.031 C 
ATOM     33  C   UNL A   1      48.959  29.371  27.214  1.00  0.00     0.029 A 
ATOM     34  C   UNL A   1      48.007  28.365  27.143  1.00  0.00     0.049 A 
ATOM     35  H   UNL A   1      45.927  28.481  27.475  1.00  0.00     0.167 HD
ATOM     36  C   UNL A   1      47.218  26.039  26.784  1.00  0.00     0.074 A 
ATOM     37  C   UNL A   1      47.427  24.644  26.453  1.00  0.00     0.031 C 
ATOM     38  C   UNL A   1      48.200  26.974  26.814  1.00  0.00     0.037 A 
BRANCH  25  39
ATOM     39  C   UNL A   1      46.271  32.669  28.275  1.00  0.00     0.058 A 
ATOM     40  C   UNL A   1      46.236  33.606  27.230  1.00  0.00     0.135 A 
ATOM     41  C   UNL A   1      46.609  33.134  29.557  1.00  0.00     0.135 A 
ATOM     42  F   UNL A   1      45.934  33.215  25.982  1.00  0.00    -0.206 F 
ATOM     43  C   UNL A   1      46.548  34.946  27.441  1.00  0.00     0.059 A 
ATOM     44  C   UNL A   1      46.899  34.475  29.797  1.00  0.00     0.059 A 
ATOM     45  F   UNL A   1      46.655  32.284  30.594  1.00  0.00    -0.206 F 
ATOM     46  C   UNL A   1      46.879  35.371  28.729  1.00  0.00     0.060 A 
BRANCH  46  47
ATOM     47  S   UNL A   1      47.281  37.113  28.986  1.00  0.00     0.124 S 
ATOM     48  O   UNL A   1      46.014  37.755  28.653  1.00  0.00    -0.237 OA
ATOM     49  O   UNL A   1      47.654  37.142  30.397  1.00  0.00    -0.237 OA
ATOM     50  O   UNL A   1      48.371  37.353  28.047  1.00  0.00    -0.744 OA
ENDBRANCH  46  47
ENDBRANCH  25  39
BRANCH  26  51
ATOM     51  C   UNL A   1      43.480  23.172  26.800  1.00  0.00     0.058 A 
ATOM     52  C   UNL A   1      43.428  22.631  25.508  1.00  0.00     0.135 A 
ATOM     53  C   UNL A   1      43.158  22.329  27.876  1.00  0.00     0.135 A 
ATOM     54  F   UNL A   1      43.724  23.398  24.448  1.00  0.00    -0.206 F 
ATOM     55  C   UNL A   1      43.061  21.308  25.287  1.00  0.00     0.059 A 
ATOM     56  C   UNL A   1      42.816  20.995  27.684  1.00  0.00     0.059 A 
ATOM     57  F   UNL A   1      43.211  22.794  29.134  1.00  0.00    -0.206 F 
ATOM     58  C   UNL A   1      42.761  20.497  26.383  1.00  0.00     0.060 A 
BRANCH  58  59
ATOM     59  S   UNL A   1      42.340  18.766  26.092  1.00  0.00     0.124 S 
ATOM     60  O   UNL A   1      43.279  18.410  25.035  1.00  0.00    -0.237 OA
ATOM     61  O   UNL A   1      42.590  18.165  27.398  1.00  0.00    -0.237 OA
ATOM     62  O   UNL A   1      40.935  18.823  25.696  1.00  0.00    -0.744 OA
ENDBRANCH  58  59
ENDBRANCH  26  51
BRANCH  38  63
ATOM     63  C   UNL A   1      49.597  26.511  26.507  1.00  0.00     0.058 A 
ATOM     64  C   UNL A   1      50.120  26.560  25.206  1.00  0.00     0.135 A 
ATOM     65  C   UNL A   1      50.435  26.051  27.536  1.00  0.00     0.135 A 
ATOM     66  F   UNL A   1      49.356  26.983  24.185  1.00  0.00    -0.206 F 
ATOM     67  C   UNL A   1      51.419  26.149  24.930  1.00  0.00     0.059 A 
ATOM     68  C   UNL A   1      51.746  25.660  27.288  1.00  0.00     0.059 A 
ATOM     69  F   UNL A   1      49.985  25.991  28.799  1.00  0.00    -0.206 F 
ATOM     70  C   UNL A   1      52.227  25.702  25.979  1.00  0.00     0.060 A 
BRANCH  70  71
ATOM     71  S   UNL A   1      53.922  25.202  25.613  1.00  0.00     0.124 S 
ATOM     72  O   UNL A   1      53.708  24.027  24.776  1.00  0.00    -0.237 OA
ATOM     73  O   UNL A   1      54.454  26.378  24.933  1.00  0.00    -0.237 OA
ATOM     74  O   UNL A   1      54.490  24.940  26.934  1.00  0.00    -0.744 OA
ENDBRANCH  70  71
ENDBRANCH  38  63
ENDBRANCH  12  13
ENDBRANCH   5   7
ENDBRANCH   2   3
ENDBRANCH   1   2
BRANCH   1  75
ATOM     75  C   UNL A   1      33.142  29.499  25.823  1.00  0.00     0.118 C 
BRANCH  75  76
ATOM     76  N   UNL A   1      33.654  29.066  24.532  1.00  0.00    -0.352 N 
ATOM     77  C   UNL A   1      33.000  28.465  23.487  1.00  0.00     0.255 C 
ATOM     78  H   UNL A   1      34.614  29.230  24.387  1.00  0.00     0.163 HD
ATOM     79  O   UNL A   1      33.662  27.925  22.604  1.00  0.00    -0.269 OA
BRANCH  77  80
ATOM     80  C   UNL A   1      31.522  28.477  23.410  1.00  0.00     0.082 A 
ATOM     81  C   UNL A   1      30.868  29.640  22.991  1.00  0.00     0.021 A 
ATOM     82  C   UNL A   1      30.774  27.307  23.642  1.00  0.00     0.140 A 
ATOM     83  C   UNL A   1      29.484  29.648  22.914  1.00  0.00     0.042 A 
ATOM     84  N   UNL A   1      29.423  27.322  23.574  1.00  0.00    -0.219 NA
ATOM     85  C   UNL A   1      28.821  28.478  23.226  1.00  0.00     0.131 A 
ATOM     86  Cl  UNL A   1      27.109  28.403  23.182  1.00  0.00    -0.062 Cl
BRANCH  82  87
ATOM     87  N   UNL A   1      31.405  26.132  24.027  1.00  0.00    -0.367 N 
ATOM     88  H   UNL A   1      32.231  25.854  23.567  1.00  0.00     0.162 HD
BRANCH  87  89
ATOM     89  C   UNL A   1      30.872  25.300  25.100  1.00  0.00     0.152 C 
BRANCH  89  90
ATOM     90  C   UNL A   1      31.877  25.096  26.286  1.00  0.00     0.192 C 
ATOM     91  C   UNL A   1      33.323  24.805  25.775  1.00  0.00     0.296 C 
ATOM     92  O   UNL A   1      31.388  24.180  27.280  1.00  0.00    -0.364 OA
ATOM     93  N   UNL A   1      34.128  23.781  26.454  1.00  0.00    -0.328 N 
ATOM     94  C   UNL A   1      31.853  22.849  27.088  1.00  0.00     0.225 C 
ATOM     95  C   UNL A   1      35.040  23.081  25.542  1.00  0.00     0.262 C 
ATOM     96  C   UNL A   1      33.369  22.773  27.213  1.00  0.00     0.210 C 
ATOM     97  H   UNL A   1      34.656  24.334  27.131  1.00  0.00     0.348 HD
ATOM     98  C   UNL A   1      35.259  21.726  26.190  1.00  0.00     0.068 C 
ATOM     99  C   UNL A   1      33.891  21.411  26.755  1.00  0.00     0.073 C 
ENDBRANCH  89  90
ENDBRANCH  87  89
ENDBRANCH  82  87
ENDBRANCH  77  80
ENDBRANCH  75  76
ENDBRANCH   1  75
TORSDOF 16
ENDMDL
MODEL 3
REMARK VINA RESULT:     -12.2      4.798     10.301
REMARK SMILES O=C(NCCCNC(=O)c1ccc(Cl)nc1NC[C@@H]1C[N@@H+]2CCC[C@@H]2CO1)c1ccc(-c2c3nc(c(-c4c(F)cc(S(=O)(=O)[O-])cc4F)c4ccc([nH]4)c(-c4c(F)cc(S(=O)(=O)[O-])cc4F)c4nc(c(-c5c(F)cc(S(=O)(=O)[O-])cc5F)c5ccc2[nH]5)C=C4)C=C3)cc1
REMARK SMILES IDX 5 1 4 2 3 3 1 4 2 5 28 7 29 8 93 9 30 10 92 11 31 12 32 13
REMARK SMILES IDX 33 14 86 15 34 16 91 17 85 18 87 19 35 20 90 21 84 22 83 23
REMARK SMILES IDX 36 25 70 26 49 27 69 28 50 29 53 30 68 31 88 32 51 33 52 34
REMARK SMILES IDX 67 36 89 37 54 38 37 39 38 40 47 41 39 42 40 43 46 44 48 45
REMARK SMILES IDX 41 46 42 47 43 48 44 49 45 50 71 51 72 52 81 53 73 54 74 55
REMARK SMILES IDX 80 56 82 57 75 58 76 59 77 60 78 61 79 62 55 63 56 64 65 65
REMARK SMILES IDX 57 66 58 67 64 68 66 69 59 70 60 71 61 72 62 73 63 74 6 75
REMARK SMILES IDX 7 76 8 77 9 79 10 80 11 81 16 82 12 83 15 84 13 85 14 86
REMARK SMILES IDX 17 87 18 89 19 90 20 91 27 92 21 93 26 94 22 95 25 96 23 98
REMARK SMILES IDX 24 99
REMARK H PARENT 3 6 87 24 53 35 7 78 17 88 21 97
REMARK Flexibility Score: inf
ROOT
ATOM      1  C   UNL A   1      34.216  27.666  25.763  1.00  0.00     0.042 C 
ENDROOT
BRANCH   1   2
ATOM      2  C   UNL A   1      33.660  27.981  27.146  1.00  0.00     0.118 C 
BRANCH   2   3
ATOM      3  N   UNL A   1      33.453  29.408  27.359  1.00  0.00    -0.352 N 
ATOM      4  O   UNL A   1      33.819  31.466  28.185  1.00  0.00    -0.269 OA
ATOM      5  C   UNL A   1      34.277  30.356  27.914  1.00  0.00     0.251 C 
ATOM      6  H   UNL A   1      32.579  29.747  27.055  1.00  0.00     0.163 HD
BRANCH   5   7
ATOM      7  C   UNL A   1      35.695  30.049  28.200  1.00  0.00     0.039 A 
ATOM      8  C   UNL A   1      36.671  30.199  27.214  1.00  0.00     0.014 A 
ATOM      9  C   UNL A   1      36.062  29.644  29.487  1.00  0.00     0.014 A 
ATOM     10  C   UNL A   1      37.978  29.796  27.465  1.00  0.00     0.010 A 
ATOM     11  C   UNL A   1      37.397  29.334  29.766  1.00  0.00     0.010 A 
ATOM     12  C   UNL A   1      38.362  29.380  28.749  1.00  0.00    -0.014 A 
BRANCH  12  13
ATOM     13  C   UNL A   1      39.791  29.074  29.015  1.00  0.00     0.031 A 
ATOM     14  C   UNL A   1      40.699  30.082  29.664  1.00  0.00     0.074 A 
ATOM     15  C   UNL A   1      40.258  27.851  28.689  1.00  0.00     0.049 A 
ATOM     16  N   UNL A   1      41.964  29.968  29.974  1.00  0.00    -0.248 NA
ATOM     17  C   UNL A   1      40.114  31.388  30.004  1.00  0.00     0.031 C 
ATOM     18  C   UNL A   1      39.470  26.794  28.047  1.00  0.00     0.029 A 
ATOM     19  N   UNL A   1      41.492  27.282  28.864  1.00  0.00    -0.354 N 
ATOM     20  C   UNL A   1      42.335  31.186  30.533  1.00  0.00     0.074 A 
ATOM     21  C   UNL A   1      41.164  32.037  30.492  1.00  0.00     0.031 C 
ATOM     22  C   UNL A   1      40.225  25.693  27.928  1.00  0.00     0.029 A 
ATOM     23  C   UNL A   1      41.566  25.984  28.417  1.00  0.00     0.049 A 
ATOM     24  H   UNL A   1      42.254  27.757  29.270  1.00  0.00     0.167 HD
ATOM     25  C   UNL A   1      43.537  31.553  31.040  1.00  0.00     0.037 A 
ATOM     26  C   UNL A   1      42.603  25.125  28.385  1.00  0.00     0.037 A 
ATOM     27  C   UNL A   1      44.693  30.693  31.081  1.00  0.00     0.049 A 
ATOM     28  C   UNL A   1      43.933  25.571  28.918  1.00  0.00     0.074 A 
ATOM     29  C   UNL A   1      45.950  30.965  31.593  1.00  0.00     0.029 A 
ATOM     30  N   UNL A   1      44.739  29.397  30.586  1.00  0.00    -0.354 N 
ATOM     31  N   UNL A   1      44.257  26.720  29.462  1.00  0.00    -0.248 NA
ATOM     32  C   UNL A   1      45.038  24.609  28.831  1.00  0.00     0.031 C 
ATOM     33  C   UNL A   1      46.766  29.852  31.369  1.00  0.00     0.029 A 
ATOM     34  C   UNL A   1      46.005  28.865  30.763  1.00  0.00     0.049 A 
ATOM     35  H   UNL A   1      43.981  28.925  30.171  1.00  0.00     0.167 HD
ATOM     36  C   UNL A   1      45.601  26.614  29.797  1.00  0.00     0.074 A 
ATOM     37  C   UNL A   1      46.023  25.282  29.411  1.00  0.00     0.031 C 
ATOM     38  C   UNL A   1      46.411  27.537  30.372  1.00  0.00     0.037 A 
BRANCH  25  39
ATOM     39  C   UNL A   1      43.673  32.953  31.579  1.00  0.00     0.058 A 
ATOM     40  C   UNL A   1      43.408  33.256  32.924  1.00  0.00     0.135 A 
ATOM     41  C   UNL A   1      44.121  33.996  30.752  1.00  0.00     0.135 A 
ATOM     42  F   UNL A   1      42.964  32.302  33.757  1.00  0.00    -0.206 F 
ATOM     43  C   UNL A   1      43.557  34.546  33.424  1.00  0.00     0.059 A 
ATOM     44  C   UNL A   1      44.303  35.289  31.235  1.00  0.00     0.059 A 
ATOM     45  F   UNL A   1      44.391  33.763  29.458  1.00  0.00    -0.206 F 
ATOM     46  C   UNL A   1      44.005  35.558  32.571  1.00  0.00     0.060 A 
BRANCH  46  47
ATOM     47  S   UNL A   1      44.193  37.226  33.235  1.00  0.00     0.124 S 
ATOM     48  O   UNL A   1      43.980  38.039  32.042  1.00  0.00    -0.237 OA
ATOM     49  O   UNL A   1      43.134  37.283  34.238  1.00  0.00    -0.237 OA
ATOM     50  O   UNL A   1      45.554  37.231  33.762  1.00  0.00    -0.744 OA
ENDBRANCH  46  47
ENDBRANCH  25  39
BRANCH  26  51
ATOM     51  C   UNL A   1      42.414  23.764  27.818  1.00  0.00     0.058 A 
ATOM     52  C   UNL A   1      42.382  23.556  26.432  1.00  0.00     0.135 A 
ATOM     53  C   UNL A   1      42.298  22.641  28.652  1.00  0.00     0.135 A 
ATOM     54  F   UNL A   1      42.486  24.598  25.594  1.00  0.00    -0.206 F 
ATOM     55  C   UNL A   1      42.231  22.284  25.891  1.00  0.00     0.059 A 
ATOM     56  C   UNL A   1      42.175  21.355  28.136  1.00  0.00     0.059 A 
ATOM     57  F   UNL A   1      42.342  22.786  29.985  1.00  0.00    -0.206 F 
ATOM     58  C   UNL A   1      42.133  21.189  26.752  1.00  0.00     0.060 A 
BRANCH  58  59
ATOM     59  S   UNL A   1      41.994  19.535  26.041  1.00  0.00     0.124 S 
ATOM     60  O   UNL A   1      42.523  18.708  27.117  1.00  0.00    -0.237 OA
ATOM     61  O   UNL A   1      40.559  19.426  25.796  1.00  0.00    -0.237 OA
ATOM     62  O   UNL A   1      42.820  19.616  24.840  1.00  0.00    -0.744 OA
ENDBRANCH  58  59
ENDBRANCH  26  51
BRANCH  38  63
ATOM     63  C   UNL A   1      47.832  27.127  30.644  1.00  0.00     0.058 A 
ATOM     64  C   UNL A   1      48.863  27.395  29.731  1.00  0.00     0.135 A 
ATOM     65  C   UNL A   1      48.171  26.496  31.851  1.00  0.00     0.135 A 
ATOM     66  F   UNL A   1      48.591  27.988  28.557  1.00  0.00    -0.206 F 
ATOM     67  C   UNL A   1      50.179  27.032  29.995  1.00  0.00     0.059 A 
ATOM     68  C   UNL A   1      49.484  26.148  32.149  1.00  0.00     0.059 A 
ATOM     69  F   UNL A   1      47.223  26.224  32.761  1.00  0.00    -0.206 F 
ATOM     70  C   UNL A   1      50.480  26.410  31.209  1.00  0.00     0.060 A 
BRANCH  70  71
ATOM     71  S   UNL A   1      52.197  25.973  31.555  1.00  0.00     0.124 S 
ATOM     72  O   UNL A   1      52.061  24.602  32.033  1.00  0.00    -0.237 OA
ATOM     73  O   UNL A   1      52.828  26.131  30.248  1.00  0.00    -0.237 OA
ATOM     74  O   UNL A   1      52.600  26.953  32.561  1.00  0.00    -0.744 OA
ENDBRANCH  70  71
ENDBRANCH  38  63
ENDBRANCH  12  13
ENDBRANCH   5   7
ENDBRANCH   2   3
ENDBRANCH   1   2
BRANCH   1  75
ATOM     75  C   UNL A   1      33.526  28.417  24.633  1.00  0.00     0.118 C 
BRANCH  75  76
ATOM     76  N   UNL A   1      33.561  27.673  23.384  1.00  0.00    -0.352 N 
ATOM     77  C   UNL A   1      32.531  27.284  22.566  1.00  0.00     0.255 C 
ATOM     78  H   UNL A   1      34.460  27.410  23.079  1.00  0.00     0.163 HD
ATOM     79  O   UNL A   1      32.742  26.425  21.713  1.00  0.00    -0.269 OA
BRANCH  77  80
ATOM     80  C   UNL A   1      31.189  27.894  22.694  1.00  0.00     0.082 A 
ATOM     81  C   UNL A   1      30.925  29.107  22.049  1.00  0.00     0.021 A 
ATOM     82  C   UNL A   1      30.146  27.222  23.358  1.00  0.00     0.140 A 
ATOM     83  C   UNL A   1      29.665  29.676  22.167  1.00  0.00     0.042 A 
ATOM     84  N   UNL A   1      28.922  27.784  23.476  1.00  0.00    -0.219 NA
ATOM     85  C   UNL A   1      28.718  28.983  22.894  1.00  0.00     0.131 A 
ATOM     86  Cl  UNL A   1      27.142  29.622  23.111  1.00  0.00    -0.062 Cl
BRANCH  82  87
ATOM     87  N   UNL A   1      30.377  26.000  23.978  1.00  0.00    -0.367 N 
ATOM     88  H   UNL A   1      30.662  25.230  23.435  1.00  0.00     0.162 HD
BRANCH  87  89
ATOM     89  C   UNL A   1      30.207  25.835  25.417  1.00  0.00     0.152 C 
BRANCH  89  90
ATOM     90  C   UNL A   1      31.385  25.054  26.095  1.00  0.00     0.192 C 
ATOM     91  C   UNL A   1      32.418  24.537  25.044  1.00  0.00     0.296 C 
ATOM     92  O   UNL A   1      30.930  24.066  27.036  1.00  0.00    -0.364 OA
ATOM     93  N   UNL A   1      32.983  23.191  25.200  1.00  0.00    -0.328 N 
ATOM     94  C   UNL A   1      30.826  22.764  26.470  1.00  0.00     0.225 C 
ATOM     95  C   UNL A   1      33.279  22.550  23.913  1.00  0.00     0.262 C 
ATOM     96  C   UNL A   1      32.185  22.254  26.010  1.00  0.00     0.210 C 
ATOM     97  H   UNL A   1      33.845  23.375  25.713  1.00  0.00     0.348 HD
ATOM     98  C   UNL A   1      33.199  21.062  24.202  1.00  0.00     0.068 C 
ATOM     99  C   UNL A   1      32.042  20.982  25.174  1.00  0.00     0.073 C 
ENDBRANCH  89  90
ENDBRANCH  87  89
ENDBRANCH  82  87
ENDBRANCH  77  80
ENDBRANCH  75  76
ENDBRANCH   1  75
TORSDOF 16
ENDMDL
