MODEL 1
REMARK VINA RESULT:     -10.8      0.000      0.000
REMARK SMILES CCC1C[NH+]([C@H]2COC[C@@]2(C)C(=O)NCCCNC(=O)c2ccc(-c3c4nc(c(-c5c(F)cc(S(=O)(=O)[O-])cc5F)c5ccc([nH]5)c(-c5c(F)cc(S(=O)(=O)[O-])cc5F)c5nc(c(-c6c(F)cc(S(=O)(=O)[O-])cc6F)c6ccc3[nH]6)C=C5)C=C4)cc2)C1
REMARK SMILES IDX 16 1 15 2 14 3 12 4 13 5 10 7 6 8 7 9 8 10 9 11 11 12 5 13
REMARK SMILES IDX 3 14 4 15 87 16 2 18 1 19 17 20 18 21 19 22 20 24 21 25
REMARK SMILES IDX 22 26 86 27 23 28 85 29 24 30 25 31 26 32 79 33 27 34 84 35
REMARK SMILES IDX 78 36 80 37 28 38 83 39 77 40 76 41 29 43 63 44 42 45 62 46
REMARK SMILES IDX 43 47 46 48 61 49 81 50 44 51 45 52 60 54 82 55 47 56 30 57
REMARK SMILES IDX 31 58 40 59 32 60 33 61 39 62 41 63 34 64 35 65 36 66 37 67
REMARK SMILES IDX 38 68 64 69 65 70 74 71 66 72 67 73 73 74 75 75 68 76 69 77
REMARK SMILES IDX 70 78 71 79 72 80 48 81 49 82 58 83 50 84 51 85 57 86 59 87
REMARK SMILES IDX 52 88 53 89 54 90 55 91 56 92
REMARK H PARENT 14 6 5 17 18 23 80 42 46 53
REMARK Flexibility Score: inf
ROOT
ATOM      1  C   UNL A   1      32.614  28.158  25.951  1.00  0.00     0.042 C 
ENDROOT
BRANCH   1   2
ATOM      2  C   UNL A   1      32.624  26.692  25.557  1.00  0.00     0.117 C 
BRANCH   2   3
ATOM      3  N   UNL A   1      31.848  25.825  26.425  1.00  0.00    -0.355 N 
ATOM      4  C   UNL A   1      31.754  24.465  26.418  1.00  0.00     0.234 C 
ATOM      5  O   UNL A   1      31.329  23.955  27.463  1.00  0.00    -0.274 OA
ATOM      6  H   UNL A   1      31.315  26.283  27.115  1.00  0.00     0.163 HD
BRANCH   4   7
ATOM      7  C   UNL A   1      31.944  23.607  25.161  1.00  0.00     0.123 C 
ATOM      8  C   UNL A   1      33.338  23.348  24.570  1.00  0.00     0.228 C 
ATOM      9  C   UNL A   1      33.133  22.017  23.834  1.00  0.00     0.226 C 
ATOM     10  O   UNL A   1      32.134  21.281  24.546  1.00  0.00    -0.374 OA
ATOM     11  C   UNL A   1      31.505  22.172  25.486  1.00  0.00     0.183 C 
ATOM     12  C   UNL A   1      31.006  24.208  24.089  1.00  0.00     0.031 C 
BRANCH   8  13
ATOM     13  N   UNL A   1      34.413  23.423  25.561  1.00  0.00    -0.329 N 
ATOM     14  C   UNL A   1      36.451  23.490  25.963  1.00  0.00     0.099 C 
ATOM     15  C   UNL A   1      35.463  24.388  25.177  1.00  0.00     0.271 C 
ATOM     16  C   UNL A   1      35.432  22.356  25.621  1.00  0.00     0.271 C 
ATOM     17  H   UNL A   1      33.809  23.532  26.376  1.00  0.00     0.348 HD
BRANCH  14  18
ATOM     18  C   UNL A   1      37.864  23.390  25.416  1.00  0.00     0.012 C 
ATOM     19  C   UNL A   1      38.760  22.655  26.403  1.00  0.00     0.004 C 
ENDBRANCH  14  18
ENDBRANCH   8  13
ENDBRANCH   4   7
ENDBRANCH   2   3
ENDBRANCH   1   2
BRANCH   1  20
ATOM     20  C   UNL A   1      33.227  28.442  27.316  1.00  0.00     0.118 C 
BRANCH  20  21
ATOM     21  N   UNL A   1      33.342  29.860  27.639  1.00  0.00    -0.352 N 
ATOM     22  C   UNL A   1      34.392  30.627  28.095  1.00  0.00     0.251 C 
ATOM     23  H   UNL A   1      32.508  30.366  27.507  1.00  0.00     0.163 HD
ATOM     24  O   UNL A   1      34.189  31.802  28.381  1.00  0.00    -0.269 OA
BRANCH  22  25
ATOM     25  C   UNL A   1      35.741  30.047  28.298  1.00  0.00     0.039 A 
ATOM     26  C   UNL A   1      36.656  30.072  27.238  1.00  0.00     0.014 A 
ATOM     27  C   UNL A   1      36.122  29.475  29.508  1.00  0.00     0.014 A 
ATOM     28  C   UNL A   1      37.971  29.633  27.435  1.00  0.00     0.010 A 
ATOM     29  C   UNL A   1      37.457  29.167  29.744  1.00  0.00     0.010 A 
ATOM     30  C   UNL A   1      38.402  29.239  28.712  1.00  0.00    -0.014 A 
BRANCH  30  31
ATOM     31  C   UNL A   1      39.820  28.890  29.002  1.00  0.00     0.031 A 
ATOM     32  C   UNL A   1      40.753  29.932  29.570  1.00  0.00     0.074 A 
ATOM     33  C   UNL A   1      40.302  27.678  28.656  1.00  0.00     0.049 A 
ATOM     34  N   UNL A   1      42.051  29.884  29.727  1.00  0.00    -0.248 NA
ATOM     35  C   UNL A   1      40.150  31.216  29.969  1.00  0.00     0.031 C 
ATOM     36  C   UNL A   1      39.526  26.598  28.039  1.00  0.00     0.029 A 
ATOM     37  N   UNL A   1      41.566  27.153  28.759  1.00  0.00    -0.354 N 
ATOM     38  C   UNL A   1      42.421  31.140  30.198  1.00  0.00     0.074 A 
ATOM     39  C   UNL A   1      41.220  31.944  30.249  1.00  0.00     0.031 C 
ATOM     40  C   UNL A   1      40.320  25.533  27.850  1.00  0.00     0.029 A 
ATOM     41  C   UNL A   1      41.672  25.866  28.284  1.00  0.00     0.049 A 
ATOM     42  H   UNL A   1      42.326  27.651  29.136  1.00  0.00     0.167 HD
ATOM     43  C   UNL A   1      43.644  31.577  30.582  1.00  0.00     0.037 A 
ATOM     44  C   UNL A   1      42.739  25.047  28.200  1.00  0.00     0.037 A 
ATOM     45  C   UNL A   1      44.824  30.753  30.597  1.00  0.00     0.049 A 
ATOM     46  C   UNL A   1      44.078  25.536  28.679  1.00  0.00     0.074 A 
ATOM     47  C   UNL A   1      46.095  31.076  31.042  1.00  0.00     0.029 A 
ATOM     48  N   UNL A   1      44.875  29.436  30.163  1.00  0.00    -0.354 N 
ATOM     49  N   UNL A   1      44.400  26.713  29.163  1.00  0.00    -0.248 NA
ATOM     50  C   UNL A   1      45.198  24.588  28.606  1.00  0.00     0.031 C 
ATOM     51  C   UNL A   1      46.919  29.961  30.853  1.00  0.00     0.029 A 
ATOM     52  C   UNL A   1      46.154  28.934  30.325  1.00  0.00     0.049 A 
ATOM     53  H   UNL A   1      44.113  28.934  29.794  1.00  0.00     0.167 HD
ATOM     54  C   UNL A   1      45.752  26.638  29.474  1.00  0.00     0.074 A 
ATOM     55  C   UNL A   1      46.187  25.298  29.134  1.00  0.00     0.031 C 
ATOM     56  C   UNL A   1      46.563  27.592  29.993  1.00  0.00     0.037 A 
BRANCH  43  57
ATOM     57  C   UNL A   1      43.761  33.005  31.039  1.00  0.00     0.058 A 
ATOM     58  C   UNL A   1      43.999  34.051  30.131  1.00  0.00     0.135 A 
ATOM     59  C   UNL A   1      43.612  33.338  32.395  1.00  0.00     0.135 A 
ATOM     60  F   UNL A   1      44.164  33.787  28.825  1.00  0.00    -0.206 F 
ATOM     61  C   UNL A   1      44.127  35.368  30.556  1.00  0.00     0.059 A 
ATOM     62  C   UNL A   1      43.707  34.655  32.839  1.00  0.00     0.059 A 
ATOM     63  F   UNL A   1      43.380  32.380  33.306  1.00  0.00    -0.206 F 
ATOM     64  C   UNL A   1      43.983  35.661  31.913  1.00  0.00     0.060 A 
BRANCH  64  65
ATOM     65  S   UNL A   1      44.155  37.375  32.450  1.00  0.00     0.124 S 
ATOM     66  O   UNL A   1      45.556  37.411  32.858  1.00  0.00    -0.237 OA
ATOM     67  O   UNL A   1      43.830  38.119  31.237  1.00  0.00    -0.237 OA
ATOM     68  O   UNL A   1      43.182  37.492  33.531  1.00  0.00    -0.744 OA
ENDBRANCH  64  65
ENDBRANCH  43  57
BRANCH  44  69
ATOM     69  C   UNL A   1      42.578  23.668  27.669  1.00  0.00     0.058 A 
ATOM     70  C   UNL A   1      42.650  23.420  26.291  1.00  0.00     0.135 A 
ATOM     71  C   UNL A   1      42.370  22.572  28.521  1.00  0.00     0.135 A 
ATOM     72  F   UNL A   1      42.842  24.437  25.436  1.00  0.00    -0.206 F 
ATOM     73  C   UNL A   1      42.507  22.138  25.771  1.00  0.00     0.059 A 
ATOM     74  C   UNL A   1      42.246  21.277  28.027  1.00  0.00     0.059 A 
ATOM     75  F   UNL A   1      42.313  22.753  29.849  1.00  0.00    -0.206 F 
ATOM     76  C   UNL A   1      42.305  21.071  26.648  1.00  0.00     0.060 A 
BRANCH  76  77
ATOM     77  S   UNL A   1      42.173  19.402  25.969  1.00  0.00     0.124 S 
ATOM     78  O   UNL A   1      40.745  19.312  25.692  1.00  0.00    -0.237 OA
ATOM     79  O   UNL A   1      43.049  19.474  24.804  1.00  0.00    -0.237 OA
ATOM     80  O   UNL A   1      42.662  18.560  27.057  1.00  0.00    -0.744 OA
ENDBRANCH  76  77
ENDBRANCH  44  69
BRANCH  56  81
ATOM     81  C   UNL A   1      47.992  27.216  30.258  1.00  0.00     0.058 A 
ATOM     82  C   UNL A   1      48.986  27.366  29.279  1.00  0.00     0.135 A 
ATOM     83  C   UNL A   1      48.379  26.752  31.525  1.00  0.00     0.135 A 
ATOM     84  F   UNL A   1      48.664  27.798  28.050  1.00  0.00    -0.206 F 
ATOM     85  C   UNL A   1      50.314  27.051  29.542  1.00  0.00     0.059 A 
ATOM     86  C   UNL A   1      49.707  26.454  31.817  1.00  0.00     0.059 A 
ATOM     87  F   UNL A   1      47.467  26.601  32.498  1.00  0.00    -0.206 F 
ATOM     88  C   UNL A   1      50.665  26.597  30.816  1.00  0.00     0.060 A 
BRANCH  88  89
ATOM     89  S   UNL A   1      52.400  26.230  31.157  1.00  0.00     0.124 S 
ATOM     90  O   UNL A   1      52.307  24.900  31.749  1.00  0.00    -0.237 OA
ATOM     91  O   UNL A   1      53.001  26.293  29.829  1.00  0.00    -0.237 OA
ATOM     92  O   UNL A   1      52.798  27.298  32.069  1.00  0.00    -0.744 OA
ENDBRANCH  88  89
ENDBRANCH  56  81
ENDBRANCH  30  31
ENDBRANCH  22  25
ENDBRANCH  20  21
ENDBRANCH   1  20
TORSDOF 15
ENDMDL
MODEL 2
REMARK VINA RESULT:     -10.6      0.966      2.185
REMARK SMILES CCC1C[NH+]([C@H]2COC[C@@]2(C)C(=O)NCCCNC(=O)c2ccc(-c3c4nc(c(-c5c(F)cc(S(=O)(=O)[O-])cc5F)c5ccc([nH]5)c(-c5c(F)cc(S(=O)(=O)[O-])cc5F)c5nc(c(-c6c(F)cc(S(=O)(=O)[O-])cc6F)c6ccc3[nH]6)C=C5)C=C4)cc2)C1
REMARK SMILES IDX 16 1 15 2 14 3 12 4 13 5 10 7 6 8 7 9 8 10 9 11 11 12 5 13
REMARK SMILES IDX 3 14 4 15 87 16 2 18 1 19 17 20 18 21 19 22 20 24 21 25
REMARK SMILES IDX 22 26 86 27 23 28 85 29 24 30 25 31 26 32 79 33 27 34 84 35
REMARK SMILES IDX 78 36 80 37 28 38 83 39 77 40 76 41 29 43 63 44 42 45 62 46
REMARK SMILES IDX 43 47 46 48 61 49 81 50 44 51 45 52 60 54 82 55 47 56 30 57
REMARK SMILES IDX 31 58 40 59 32 60 33 61 39 62 41 63 34 64 35 65 36 66 37 67
REMARK SMILES IDX 38 68 64 69 65 70 74 71 66 72 67 73 73 74 75 75 68 76 69 77
REMARK SMILES IDX 70 78 71 79 72 80 48 81 49 82 58 83 50 84 51 85 57 86 59 87
REMARK SMILES IDX 52 88 53 89 54 90 55 91 56 92
REMARK H PARENT 14 6 5 17 18 23 80 42 46 53
REMARK Flexibility Score: inf
ROOT
ATOM      1  C   UNL A   1      31.898  27.993  27.401  1.00  0.00     0.042 C 
ENDROOT
BRANCH   1   2
ATOM      2  C   UNL A   1      31.518  27.067  26.261  1.00  0.00     0.117 C 
BRANCH   2   3
ATOM      3  N   UNL A   1      31.364  25.673  26.636  1.00  0.00    -0.355 N 
ATOM      4  C   UNL A   1      32.187  24.619  26.379  1.00  0.00     0.234 C 
ATOM      5  O   UNL A   1      32.023  23.626  27.101  1.00  0.00    -0.274 OA
ATOM      6  H   UNL A   1      30.549  25.461  27.147  1.00  0.00     0.163 HD
BRANCH   4   7
ATOM      7  C   UNL A   1      33.113  24.541  25.159  1.00  0.00     0.123 C 
ATOM      8  C   UNL A   1      33.708  23.205  24.686  1.00  0.00     0.228 C 
ATOM      9  C   UNL A   1      33.956  23.474  23.196  1.00  0.00     0.226 C 
ATOM     10  O   UNL A   1      32.962  24.403  22.754  1.00  0.00    -0.374 OA
ATOM     11  C   UNL A   1      32.309  24.947  23.916  1.00  0.00     0.183 C 
ATOM     12  C   UNL A   1      34.237  25.573  25.411  1.00  0.00     0.031 C 
BRANCH   8  13
ATOM     13  N   UNL A   1      32.888  22.046  25.045  1.00  0.00    -0.329 N 
ATOM     14  C   UNL A   1      32.612  19.987  24.989  1.00  0.00     0.099 C 
ATOM     15  C   UNL A   1      33.700  20.927  25.566  1.00  0.00     0.271 C 
ATOM     16  C   UNL A   1      32.368  21.160  23.985  1.00  0.00     0.271 C 
ATOM     17  H   UNL A   1      32.202  22.558  25.598  1.00  0.00     0.348 HD
BRANCH  14  18
ATOM     18  C   UNL A   1      33.086  18.650  24.447  1.00  0.00     0.012 C 
ATOM     19  C   UNL A   1      32.594  17.517  25.338  1.00  0.00     0.004 C 
ENDBRANCH  14  18
ENDBRANCH   8  13
ENDBRANCH   4   7
ENDBRANCH   2   3
ENDBRANCH   1   2
BRANCH   1  20
ATOM     20  C   UNL A   1      33.297  28.584  27.286  1.00  0.00     0.118 C 
BRANCH  20  21
ATOM     21  N   UNL A   1      33.397  29.979  27.702  1.00  0.00    -0.352 N 
ATOM     22  C   UNL A   1      34.435  30.722  28.222  1.00  0.00     0.251 C 
ATOM     23  H   UNL A   1      32.561  30.487  27.590  1.00  0.00     0.163 HD
ATOM     24  O   UNL A   1      34.219  31.875  28.579  1.00  0.00    -0.269 OA
BRANCH  22  25
ATOM     25  C   UNL A   1      35.785  30.139  28.407  1.00  0.00     0.039 A 
ATOM     26  C   UNL A   1      36.678  30.141  27.329  1.00  0.00     0.014 A 
ATOM     27  C   UNL A   1      36.188  29.586  29.619  1.00  0.00     0.014 A 
ATOM     28  C   UNL A   1      37.994  29.699  27.507  1.00  0.00     0.010 A 
ATOM     29  C   UNL A   1      37.525  29.276  29.834  1.00  0.00     0.010 A 
ATOM     30  C   UNL A   1      38.450  29.325  28.782  1.00  0.00    -0.014 A 
BRANCH  30  31
ATOM     31  C   UNL A   1      39.872  28.974  29.048  1.00  0.00     0.031 A 
ATOM     32  C   UNL A   1      40.814  30.013  29.605  1.00  0.00     0.074 A 
ATOM     33  C   UNL A   1      40.346  27.762  28.693  1.00  0.00     0.049 A 
ATOM     34  N   UNL A   1      42.114  29.964  29.741  1.00  0.00    -0.248 NA
ATOM     35  C   UNL A   1      40.219  31.297  30.015  1.00  0.00     0.031 C 
ATOM     36  C   UNL A   1      39.560  26.684  28.086  1.00  0.00     0.029 A 
ATOM     37  N   UNL A   1      41.612  27.235  28.775  1.00  0.00    -0.354 N 
ATOM     38  C   UNL A   1      42.494  31.218  30.209  1.00  0.00     0.074 A 
ATOM     39  C   UNL A   1      41.295  32.024  30.280  1.00  0.00     0.031 C 
ATOM     40  C   UNL A   1      40.350  25.619  27.882  1.00  0.00     0.029 A 
ATOM     41  C   UNL A   1      41.709  25.949  28.296  1.00  0.00     0.049 A 
ATOM     42  H   UNL A   1      42.378  27.732  29.141  1.00  0.00     0.167 HD
ATOM     43  C   UNL A   1      43.723  31.654  30.575  1.00  0.00     0.037 A 
ATOM     44  C   UNL A   1      42.774  25.129  28.194  1.00  0.00     0.037 A 
ATOM     45  C   UNL A   1      44.902  30.828  30.569  1.00  0.00     0.049 A 
ATOM     46  C   UNL A   1      44.120  25.616  28.653  1.00  0.00     0.074 A 
ATOM     47  C   UNL A   1      46.180  31.149  30.995  1.00  0.00     0.029 A 
ATOM     48  N   UNL A   1      44.944  29.512  30.132  1.00  0.00    -0.354 N 
ATOM     49  N   UNL A   1      44.451  26.791  29.134  1.00  0.00    -0.248 NA
ATOM     50  C   UNL A   1      45.238  24.667  28.560  1.00  0.00     0.031 C 
ATOM     51  C   UNL A   1      46.999  30.034  30.792  1.00  0.00     0.029 A 
ATOM     52  C   UNL A   1      46.225  29.009  30.273  1.00  0.00     0.049 A 
ATOM     53  H   UNL A   1      44.176  29.011  29.775  1.00  0.00     0.167 HD
ATOM     54  C   UNL A   1      45.808  26.714  29.424  1.00  0.00     0.074 A 
ATOM     55  C   UNL A   1      46.236  25.375  29.074  1.00  0.00     0.031 C 
ATOM     56  C   UNL A   1      46.627  27.667  29.932  1.00  0.00     0.037 A 
BRANCH  43  57
ATOM     57  C   UNL A   1      43.848  33.081  31.032  1.00  0.00     0.058 A 
ATOM     58  C   UNL A   1      43.618  33.448  32.368  1.00  0.00     0.135 A 
ATOM     59  C   UNL A   1      44.222  34.091  30.132  1.00  0.00     0.135 A 
ATOM     60  F   UNL A   1      43.243  32.524  33.268  1.00  0.00    -0.206 F 
ATOM     61  C   UNL A   1      43.713  34.770  32.787  1.00  0.00     0.059 A 
ATOM     62  C   UNL A   1      44.353  35.418  30.535  1.00  0.00     0.059 A 
ATOM     63  F   UNL A   1      44.457  33.797  28.843  1.00  0.00    -0.206 F 
ATOM     64  C   UNL A   1      44.078  35.750  31.862  1.00  0.00     0.060 A 
BRANCH  64  65
ATOM     65  S   UNL A   1      44.195  37.463  32.419  1.00  0.00     0.124 S 
ATOM     66  O   UNL A   1      43.813  38.186  31.209  1.00  0.00    -0.237 OA
ATOM     67  O   UNL A   1      43.229  37.504  33.512  1.00  0.00    -0.237 OA
ATOM     68  O   UNL A   1      45.592  37.596  32.816  1.00  0.00    -0.744 OA
ENDBRANCH  64  65
ENDBRANCH  43  57
BRANCH  44  69
ATOM     69  C   UNL A   1      42.603  23.751  27.663  1.00  0.00     0.058 A 
ATOM     70  C   UNL A   1      42.419  22.667  28.534  1.00  0.00     0.135 A 
ATOM     71  C   UNL A   1      42.601  23.490  26.285  1.00  0.00     0.135 A 
ATOM     72  F   UNL A   1      42.420  22.867  29.861  1.00  0.00    -0.206 F 
ATOM     73  C   UNL A   1      42.254  21.370  28.061  1.00  0.00     0.059 A 
ATOM     74  C   UNL A   1      42.415  22.204  25.786  1.00  0.00     0.059 A 
ATOM     75  F   UNL A   1      42.753  24.495  25.409  1.00  0.00    -0.206 F 
ATOM     76  C   UNL A   1      42.253  21.148  26.683  1.00  0.00     0.060 A 
BRANCH  76  77
ATOM     77  S   UNL A   1      41.984  19.468  26.075  1.00  0.00     0.124 S 
ATOM     78  O   UNL A   1      42.836  19.446  24.892  1.00  0.00    -0.237 OA
ATOM     79  O   UNL A   1      42.432  18.657  27.203  1.00  0.00    -0.237 OA
ATOM     80  O   UNL A   1      40.546  19.431  25.821  1.00  0.00    -0.744 OA
ENDBRANCH  76  77
ENDBRANCH  44  69
BRANCH  56  81
ATOM     81  C   UNL A   1      48.060  27.288  30.174  1.00  0.00     0.058 A 
ATOM     82  C   UNL A   1      49.046  27.474  29.194  1.00  0.00     0.135 A 
ATOM     83  C   UNL A   1      48.459  26.786  31.423  1.00  0.00     0.135 A 
ATOM     84  F   UNL A   1      48.712  27.944  27.981  1.00  0.00    -0.206 F 
ATOM     85  C   UNL A   1      50.378  27.157  29.436  1.00  0.00     0.059 A 
ATOM     86  C   UNL A   1      49.790  26.484  31.695  1.00  0.00     0.059 A 
ATOM     87  F   UNL A   1      47.554  26.599  32.398  1.00  0.00    -0.206 F 
ATOM     88  C   UNL A   1      50.740  26.664  30.692  1.00  0.00     0.060 A 
BRANCH  88  89
ATOM     89  S   UNL A   1      52.479  26.294  31.008  1.00  0.00     0.124 S 
ATOM     90  O   UNL A   1      53.021  26.254  29.655  1.00  0.00    -0.237 OA
ATOM     91  O   UNL A   1      52.897  27.427  31.826  1.00  0.00    -0.237 OA
ATOM     92  O   UNL A   1      52.430  25.011  31.704  1.00  0.00    -0.744 OA
ENDBRANCH  88  89
ENDBRANCH  56  81
ENDBRANCH  30  31
ENDBRANCH  22  25
ENDBRANCH  20  21
ENDBRANCH   1  20
TORSDOF 15
ENDMDL
MODEL 3
REMARK VINA RESULT:     -10.6      4.327     10.554
REMARK SMILES CCC1C[NH+]([C@H]2COC[C@@]2(C)C(=O)NCCCNC(=O)c2ccc(-c3c4nc(c(-c5c(F)cc(S(=O)(=O)[O-])cc5F)c5ccc([nH]5)c(-c5c(F)cc(S(=O)(=O)[O-])cc5F)c5nc(c(-c6c(F)cc(S(=O)(=O)[O-])cc6F)c6ccc3[nH]6)C=C5)C=C4)cc2)C1
REMARK SMILES IDX 16 1 15 2 14 3 12 4 13 5 10 7 6 8 7 9 8 10 9 11 11 12 5 13
REMARK SMILES IDX 3 14 4 15 87 16 2 18 1 19 17 20 18 21 19 22 20 24 21 25
REMARK SMILES IDX 22 26 86 27 23 28 85 29 24 30 25 31 26 32 79 33 27 34 84 35
REMARK SMILES IDX 78 36 80 37 28 38 83 39 77 40 76 41 29 43 63 44 42 45 62 46
REMARK SMILES IDX 43 47 46 48 61 49 81 50 44 51 45 52 60 54 82 55 47 56 30 57
REMARK SMILES IDX 31 58 40 59 32 60 33 61 39 62 41 63 34 64 35 65 36 66 37 67
REMARK SMILES IDX 38 68 64 69 65 70 74 71 66 72 67 73 73 74 75 75 68 76 69 77
REMARK SMILES IDX 70 78 71 79 72 80 48 81 49 82 58 83 50 84 51 85 57 86 59 87
REMARK SMILES IDX 52 88 53 89 54 90 55 91 56 92
REMARK H PARENT 14 6 5 17 18 23 80 42 46 53
REMARK Flexibility Score: inf
ROOT
ATOM      1  C   UNL A   1      37.237  33.341  32.994  1.00  0.00     0.042 C 
ENDROOT
BRANCH   1   2
ATOM      2  C   UNL A   1      36.348  34.183  33.890  1.00  0.00     0.117 C 
BRANCH   2   3
ATOM      3  N   UNL A   1      34.985  33.702  34.018  1.00  0.00    -0.355 N 
ATOM      4  C   UNL A   1      33.920  33.909  33.194  1.00  0.00     0.234 C 
ATOM      5  O   UNL A   1      32.982  33.111  33.322  1.00  0.00    -0.274 OA
ATOM      6  H   UNL A   1      34.804  33.149  34.813  1.00  0.00     0.163 HD
BRANCH   4   7
ATOM      7  C   UNL A   1      33.760  35.152  32.308  1.00  0.00     0.123 C 
ATOM      8  C   UNL A   1      34.053  35.106  30.801  1.00  0.00     0.228 C 
ATOM      9  C   UNL A   1      33.174  36.246  30.268  1.00  0.00     0.226 C 
ATOM     10  O   UNL A   1      32.028  36.340  31.120  1.00  0.00    -0.374 OA
ATOM     11  C   UNL A   1      32.277  35.547  32.296  1.00  0.00     0.183 C 
ATOM     12  C   UNL A   1      34.590  36.266  32.986  1.00  0.00     0.031 C 
BRANCH   8  13
ATOM     13  N   UNL A   1      33.877  33.776  30.215  1.00  0.00    -0.329 N 
ATOM     14  C   UNL A   1      34.597  32.282  28.962  1.00  0.00     0.099 C 
ATOM     15  C   UNL A   1      35.124  32.984  30.239  1.00  0.00     0.271 C 
ATOM     16  C   UNL A   1      33.821  33.622  28.748  1.00  0.00     0.271 C 
ATOM     17  H   UNL A   1      33.036  33.530  30.739  1.00  0.00     0.348 HD
BRANCH  14  18
ATOM     18  C   UNL A   1      35.636  31.870  27.934  1.00  0.00     0.012 C 
ATOM     19  C   UNL A   1      35.561  30.370  27.682  1.00  0.00     0.004 C 
ENDBRANCH  14  18
ENDBRANCH   8  13
ENDBRANCH   4   7
ENDBRANCH   2   3
ENDBRANCH   1   2
BRANCH   1  20
ATOM     20  C   UNL A   1      37.413  31.903  33.462  1.00  0.00     0.118 C 
BRANCH  20  21
ATOM     21  N   UNL A   1      36.616  30.929  32.723  1.00  0.00    -0.352 N 
ATOM     22  C   UNL A   1      36.918  30.082  31.679  1.00  0.00     0.251 C 
ATOM     23  H   UNL A   1      35.683  30.865  33.030  1.00  0.00     0.163 HD
ATOM     24  O   UNL A   1      36.019  29.419  31.173  1.00  0.00    -0.269 OA
BRANCH  22  25
ATOM     25  C   UNL A   1      38.290  29.999  31.123  1.00  0.00     0.039 A 
ATOM     26  C   UNL A   1      39.267  29.291  31.832  1.00  0.00     0.014 A 
ATOM     27  C   UNL A   1      38.634  30.609  29.920  1.00  0.00     0.014 A 
ATOM     28  C   UNL A   1      40.539  29.104  31.278  1.00  0.00     0.010 A 
ATOM     29  C   UNL A   1      39.846  30.310  29.309  1.00  0.00     0.010 A 
ATOM     30  C   UNL A   1      40.819  29.554  29.978  1.00  0.00    -0.014 A 
BRANCH  30  31
ATOM     31  C   UNL A   1      42.110  29.265  29.295  1.00  0.00     0.031 A 
ATOM     32  C   UNL A   1      42.357  27.902  28.697  1.00  0.00     0.074 A 
ATOM     33  C   UNL A   1      43.099  30.182  29.304  1.00  0.00     0.049 A 
ATOM     34  N   UNL A   1      43.466  27.396  28.221  1.00  0.00    -0.248 NA
ATOM     35  C   UNL A   1      41.219  26.968  28.679  1.00  0.00     0.031 C 
ATOM     36  C   UNL A   1      43.017  31.517  29.904  1.00  0.00     0.029 A 
ATOM     37  N   UNL A   1      44.378  30.126  28.807  1.00  0.00    -0.354 N 
ATOM     38  C   UNL A   1      43.168  26.077  27.889  1.00  0.00     0.074 A 
ATOM     39  C   UNL A   1      41.793  25.846  28.270  1.00  0.00     0.031 C 
ATOM     40  C   UNL A   1      44.178  32.162  29.711  1.00  0.00     0.029 A 
ATOM     41  C   UNL A   1      45.106  31.275  29.019  1.00  0.00     0.049 A 
ATOM     42  H   UNL A   1      44.741  29.337  28.343  1.00  0.00     0.167 HD
ATOM     43  C   UNL A   1      43.958  25.151  27.295  1.00  0.00     0.037 A 
ATOM     44  C   UNL A   1      46.379  31.577  28.700  1.00  0.00     0.037 A 
ATOM     45  C   UNL A   1      45.303  25.406  26.853  1.00  0.00     0.049 A 
ATOM     46  C   UNL A   1      47.222  30.550  27.996  1.00  0.00     0.074 A 
ATOM     47  C   UNL A   1      46.161  24.560  26.170  1.00  0.00     0.029 A 
ATOM     48  N   UNL A   1      45.982  26.602  27.035  1.00  0.00    -0.354 N 
ATOM     49  N   UNL A   1      46.909  29.323  27.651  1.00  0.00    -0.248 NA
ATOM     50  C   UNL A   1      48.589  30.947  27.633  1.00  0.00     0.031 C 
ATOM     51  C   UNL A   1      47.366  25.238  25.961  1.00  0.00     0.029 A 
ATOM     52  C   UNL A   1      47.248  26.516  26.482  1.00  0.00     0.049 A 
ATOM     53  H   UNL A   1      45.617  27.395  27.490  1.00  0.00     0.167 HD
ATOM     54  C   UNL A   1      48.030  28.811  27.010  1.00  0.00     0.074 A 
ATOM     55  C   UNL A   1      49.026  29.863  27.004  1.00  0.00     0.031 C 
ATOM     56  C   UNL A   1      48.220  27.581  26.474  1.00  0.00     0.037 A 
BRANCH  43  57
ATOM     57  C   UNL A   1      43.375  23.783  27.069  1.00  0.00     0.058 A 
ATOM     58  C   UNL A   1      42.844  23.405  25.825  1.00  0.00     0.135 A 
ATOM     59  C   UNL A   1      43.366  22.829  28.100  1.00  0.00     0.135 A 
ATOM     60  F   UNL A   1      42.815  24.282  24.809  1.00  0.00    -0.206 F 
ATOM     61  C   UNL A   1      42.287  22.148  25.622  1.00  0.00     0.059 A 
ATOM     62  C   UNL A   1      42.840  21.554  27.911  1.00  0.00     0.059 A 
ATOM     63  F   UNL A   1      43.863  23.135  29.309  1.00  0.00    -0.206 F 
ATOM     64  C   UNL A   1      42.286  21.229  26.673  1.00  0.00     0.060 A 
BRANCH  64  65
ATOM     65  S   UNL A   1      41.557  19.601  26.396  1.00  0.00     0.124 S 
ATOM     66  O   UNL A   1      41.817  18.947  27.675  1.00  0.00    -0.237 OA
ATOM     67  O   UNL A   1      40.161  19.925  26.123  1.00  0.00    -0.237 OA
ATOM     68  O   UNL A   1      42.310  19.081  25.259  1.00  0.00    -0.744 OA
ENDBRANCH  64  65
ENDBRANCH  43  57
BRANCH  44  69
ATOM     69  C   UNL A   1      46.926  32.923  29.016  1.00  0.00     0.058 A 
ATOM     70  C   UNL A   1      46.734  33.997  28.135  1.00  0.00     0.135 A 
ATOM     71  C   UNL A   1      47.629  33.170  30.204  1.00  0.00     0.135 A 
ATOM     72  F   UNL A   1      46.072  33.809  26.983  1.00  0.00    -0.206 F 
ATOM     73  C   UNL A   1      47.232  35.266  28.410  1.00  0.00     0.059 A 
ATOM     74  C   UNL A   1      48.119  34.436  30.513  1.00  0.00     0.059 A 
ATOM     75  F   UNL A   1      47.823  32.181  31.090  1.00  0.00    -0.206 F 
ATOM     76  C   UNL A   1      47.924  35.476  29.604  1.00  0.00     0.060 A 
BRANCH  76  77
ATOM     77  S   UNL A   1      48.521  37.139  29.980  1.00  0.00     0.124 S 
ATOM     78  O   UNL A   1      49.604  36.857  30.914  1.00  0.00    -0.237 OA
ATOM     79  O   UNL A   1      48.922  37.627  28.664  1.00  0.00    -0.237 OA
ATOM     80  O   UNL A   1      47.347  37.795  30.550  1.00  0.00    -0.744 OA
ENDBRANCH  76  77
ENDBRANCH  44  69
BRANCH  56  81
ATOM     81  C   UNL A   1      49.538  27.313  25.807  1.00  0.00     0.058 A 
ATOM     82  C   UNL A   1      50.658  26.885  26.536  1.00  0.00     0.135 A 
ATOM     83  C   UNL A   1      49.664  27.433  24.414  1.00  0.00     0.135 A 
ATOM     84  F   UNL A   1      50.589  26.762  27.871  1.00  0.00    -0.206 F 
ATOM     85  C   UNL A   1      51.866  26.602  25.908  1.00  0.00     0.059 A 
ATOM     86  C   UNL A   1      50.857  27.133  23.763  1.00  0.00     0.059 A 
ATOM     87  F   UNL A   1      48.619  27.830  23.671  1.00  0.00    -0.206 F 
ATOM     88  C   UNL A   1      51.955  26.727  24.519  1.00  0.00     0.060 A 
BRANCH  88  89
ATOM     89  S   UNL A   1      53.516  26.318  23.711  1.00  0.00     0.124 S 
ATOM     90  O   UNL A   1      54.275  27.550  23.899  1.00  0.00    -0.237 OA
ATOM     91  O   UNL A   1      53.976  25.166  24.480  1.00  0.00    -0.237 OA
ATOM     92  O   UNL A   1      53.119  26.028  22.336  1.00  0.00    -0.744 OA
ENDBRANCH  88  89
ENDBRANCH  56  81
ENDBRANCH  30  31
ENDBRANCH  22  25
ENDBRANCH  20  21
ENDBRANCH   1  20
TORSDOF 15
ENDMDL
