MODEL 1
REMARK VINA RESULT:     -11.2      0.000      0.000
REMARK SMILES N#CCC1(C[N@@H+]2CCO[C@H](CC(=O)NCCCNC(=O)c3ccc(-c4c5nc(c(-c6c(F)cc(S(=O)(=O)[O-])cc6F)c6ccc([nH]6)c(-c6c(F)cc(S(=O)(=O)[O-])cc6F)c6nc(c(-c7c(F)cc(S(=O)(=O)[O-])cc7F)c7ccc4[nH]7)C=C6)C=C5)cc3)C2)CC1
REMARK SMILES IDX 15 1 14 2 12 3 13 4 11 6 10 7 6 8 7 9 87 10 8 12 9 13 5 14
REMARK SMILES IDX 4 15 88 16 89 17 3 18 2 19 1 20 16 21 17 22 18 23 19 24
REMARK SMILES IDX 20 26 21 27 22 28 86 29 23 30 85 31 24 32 25 33 26 34 79 35
REMARK SMILES IDX 27 36 84 37 78 38 80 39 28 40 83 41 77 42 76 43 29 45 63 46
REMARK SMILES IDX 42 47 62 48 43 49 46 50 61 51 81 52 44 53 45 54 60 56 82 57
REMARK SMILES IDX 47 58 30 59 31 60 40 61 32 62 33 63 39 64 41 65 34 66 35 67
REMARK SMILES IDX 36 68 37 69 38 70 64 71 65 72 74 73 66 74 67 75 73 76 75 77
REMARK SMILES IDX 68 78 69 79 70 80 71 81 72 82 48 83 49 84 58 85 50 86 51 87
REMARK SMILES IDX 57 88 59 89 52 90 53 91 54 92 55 93 56 94
REMARK H PARENT 14 5 6 11 18 25 80 44 46 55
REMARK Flexibility Score: inf
ROOT
ATOM      1  C   UNL A   1      39.718  21.375  26.436  1.00  0.00     0.117 C 
ENDROOT
BRANCH   1   2
ATOM      2  N   UNL A   1      38.980  22.363  25.660  1.00  0.00    -0.356 N 
ATOM      3  C   UNL A   1      37.623  22.497  25.587  1.00  0.00     0.222 C 
ATOM      4  O   UNL A   1      37.160  23.579  25.963  1.00  0.00    -0.275 OA
ATOM      5  H   UNL A   1      39.516  23.000  25.134  1.00  0.00     0.163 HD
BRANCH   3   6
ATOM      6  C   UNL A   1      36.688  21.389  25.094  1.00  0.00     0.138 C 
BRANCH   6   7
ATOM      7  C   UNL A   1      35.160  21.541  25.268  1.00  0.00     0.182 C 
ATOM      8  N   UNL A   1      32.961  23.999  24.426  1.00  0.00    -0.330 N 
ATOM      9  C   UNL A   1      32.188  23.868  26.193  1.00  0.00     0.291 C 
ATOM     10  C   UNL A   1      34.241  22.687  23.921  1.00  0.00     0.295 C 
ATOM     11  H   UNL A   1      32.120  23.965  23.851  1.00  0.00     0.348 HD
ATOM     12  C   UNL A   1      33.019  22.651  27.613  1.00  0.00     0.222 C 
ATOM     13  O   UNL A   1      34.586  21.658  27.089  1.00  0.00    -0.366 OA
BRANCH   8  14
ATOM     14  C   UNL A   1      33.878  25.192  24.360  1.00  0.00     0.270 C 
BRANCH  14  15
ATOM     15  C   UNL A   1      33.161  26.092  23.434  1.00  0.00     0.032 C 
ATOM     16  C   UNL A   1      32.209  25.352  22.466  1.00  0.00     0.015 C 
ATOM     17  C   UNL A   1      33.169  26.317  21.904  1.00  0.00     0.015 C 
BRANCH  15  18
ATOM     18  C   UNL A   1      32.628  27.223  24.226  1.00  0.00     0.133 C 
BRANCH  18  19
ATOM     19  C   UNL A   1      32.897  27.557  25.685  1.00  0.00     0.063 C 
ATOM     20  N   UNL A   1      33.121  27.834  26.894  1.00  0.00    -0.198 NA
ENDBRANCH  18  19
ENDBRANCH  15  18
ENDBRANCH  14  15
ENDBRANCH   8  14
ENDBRANCH   6   7
ENDBRANCH   3   6
ENDBRANCH   1   2
BRANCH   1  21
ATOM     21  C   UNL A   1      41.210  21.661  26.617  1.00  0.00     0.042 C 
BRANCH  21  22
ATOM     22  C   UNL A   1      41.585  23.065  27.097  1.00  0.00     0.118 C 
BRANCH  22  23
ATOM     23  N   UNL A   1      41.897  23.992  26.015  1.00  0.00    -0.352 N 
ATOM     24  C   UNL A   1      41.867  25.363  25.972  1.00  0.00     0.251 C 
ATOM     25  H   UNL A   1      42.177  23.561  25.175  1.00  0.00     0.163 HD
ATOM     26  O   UNL A   1      41.976  25.930  24.879  1.00  0.00    -0.269 OA
BRANCH  24  27
ATOM     27  C   UNL A   1      41.683  26.169  27.196  1.00  0.00     0.039 A 
ATOM     28  C   UNL A   1      42.619  27.159  27.505  1.00  0.00     0.014 A 
ATOM     29  C   UNL A   1      40.621  25.925  28.068  1.00  0.00     0.014 A 
ATOM     30  C   UNL A   1      42.447  27.950  28.645  1.00  0.00     0.010 A 
ATOM     31  C   UNL A   1      40.401  26.770  29.155  1.00  0.00     0.010 A 
ATOM     32  C   UNL A   1      41.314  27.790  29.460  1.00  0.00    -0.014 A 
BRANCH  32  33
ATOM     33  C   UNL A   1      41.072  28.694  30.616  1.00  0.00     0.031 A 
ATOM     34  C   UNL A   1      41.887  28.574  31.876  1.00  0.00     0.074 A 
ATOM     35  C   UNL A   1      40.068  29.591  30.549  1.00  0.00     0.049 A 
ATOM     36  N   UNL A   1      41.818  29.282  32.976  1.00  0.00    -0.248 NA
ATOM     37  C   UNL A   1      42.888  27.498  31.922  1.00  0.00     0.031 C 
ATOM     38  C   UNL A   1      39.148  29.742  29.419  1.00  0.00     0.029 A 
ATOM     39  N   UNL A   1      39.645  30.537  31.448  1.00  0.00    -0.354 N 
ATOM     40  C   UNL A   1      42.749  28.726  33.846  1.00  0.00     0.074 A 
ATOM     41  C   UNL A   1      43.327  27.586  33.168  1.00  0.00     0.031 C 
ATOM     42  C   UNL A   1      38.289  30.738  29.680  1.00  0.00     0.029 A 
ATOM     43  C   UNL A   1      38.573  31.277  31.007  1.00  0.00     0.049 A 
ATOM     44  H   UNL A   1      40.070  30.675  32.325  1.00  0.00     0.167 HD
ATOM     45  C   UNL A   1      43.107  29.139  35.087  1.00  0.00     0.037 A 
ATOM     46  C   UNL A   1      37.891  32.274  31.602  1.00  0.00     0.037 A 
ATOM     47  C   UNL A   1      42.532  30.286  35.746  1.00  0.00     0.049 A 
ATOM     48  C   UNL A   1      38.331  32.752  32.956  1.00  0.00     0.074 A 
ATOM     49  C   UNL A   1      42.884  30.848  36.960  1.00  0.00     0.029 A 
ATOM     50  N   UNL A   1      41.472  31.036  35.252  1.00  0.00    -0.354 N 
ATOM     51  N   UNL A   1      39.292  32.287  33.721  1.00  0.00    -0.248 NA
ATOM     52  C   UNL A   1      37.610  33.897  33.523  1.00  0.00     0.031 C 
ATOM     53  C   UNL A   1      41.999  31.899  37.229  1.00  0.00     0.029 A 
ATOM     54  C   UNL A   1      41.134  32.032  36.154  1.00  0.00     0.049 A 
ATOM     55  H   UNL A   1      41.026  30.881  34.388  1.00  0.00     0.167 HD
ATOM     56  C   UNL A   1      39.294  33.086  34.858  1.00  0.00     0.074 A 
ATOM     57  C   UNL A   1      38.260  34.083  34.664  1.00  0.00     0.031 C 
ATOM     58  C   UNL A   1      40.080  33.002  35.962  1.00  0.00     0.037 A 
BRANCH  45  59
ATOM     59  C   UNL A   1      44.156  28.336  35.812  1.00  0.00     0.058 A 
ATOM     60  C   UNL A   1      43.820  27.281  36.679  1.00  0.00     0.135 A 
ATOM     61  C   UNL A   1      45.520  28.628  35.644  1.00  0.00     0.135 A 
ATOM     62  F   UNL A   1      42.534  26.960  36.888  1.00  0.00    -0.206 F 
ATOM     63  C   UNL A   1      44.792  26.585  37.391  1.00  0.00     0.059 A 
ATOM     64  C   UNL A   1      46.511  27.921  36.321  1.00  0.00     0.059 A 
ATOM     65  F   UNL A   1      45.903  29.620  34.825  1.00  0.00    -0.206 F 
ATOM     66  C   UNL A   1      46.135  26.916  37.212  1.00  0.00     0.060 A 
BRANCH  66  67
ATOM     67  S   UNL A   1      47.385  26.029  38.165  1.00  0.00     0.124 S 
ATOM     68  O   UNL A   1      48.612  26.436  37.481  1.00  0.00    -0.237 OA
ATOM     69  O   UNL A   1      47.203  26.583  39.508  1.00  0.00    -0.237 OA
ATOM     70  O   UNL A   1      47.012  24.635  38.010  1.00  0.00    -0.744 OA
ENDBRANCH  66  67
ENDBRANCH  45  59
BRANCH  46  71
ATOM     71  C   UNL A   1      36.741  32.895  30.891  1.00  0.00     0.058 A 
ATOM     72  C   UNL A   1      35.419  32.635  31.277  1.00  0.00     0.135 A 
ATOM     73  C   UNL A   1      36.949  33.821  29.856  1.00  0.00     0.135 A 
ATOM     74  F   UNL A   1      35.167  31.752  32.257  1.00  0.00    -0.206 F 
ATOM     75  C   UNL A   1      34.342  33.275  30.671  1.00  0.00     0.059 A 
ATOM     76  C   UNL A   1      35.891  34.494  29.251  1.00  0.00     0.059 A 
ATOM     77  F   UNL A   1      38.197  34.118  29.460  1.00  0.00    -0.206 F 
ATOM     78  C   UNL A   1      34.589  34.213  29.667  1.00  0.00     0.060 A 
BRANCH  78  79
ATOM     79  S   UNL A   1      33.195  35.118  28.960  1.00  0.00     0.124 S 
ATOM     80  O   UNL A   1      32.690  34.160  27.979  1.00  0.00    -0.237 OA
ATOM     81  O   UNL A   1      32.348  35.335  30.132  1.00  0.00    -0.237 OA
ATOM     82  O   UNL A   1      33.812  36.317  28.413  1.00  0.00    -0.744 OA
ENDBRANCH  78  79
ENDBRANCH  46  71
BRANCH  58  83
ATOM     83  C   UNL A   1      39.845  34.018  37.047  1.00  0.00     0.058 A 
ATOM     84  C   UNL A   1      40.447  35.287  37.012  1.00  0.00     0.135 A 
ATOM     85  C   UNL A   1      38.998  33.726  38.129  1.00  0.00     0.135 A 
ATOM     86  F   UNL A   1      41.269  35.618  36.003  1.00  0.00    -0.206 F 
ATOM     87  C   UNL A   1      40.254  36.211  38.033  1.00  0.00     0.059 A 
ATOM     88  C   UNL A   1      38.764  34.648  39.144  1.00  0.00     0.059 A 
ATOM     89  F   UNL A   1      38.384  32.535  38.206  1.00  0.00    -0.206 F 
ATOM     90  C   UNL A   1      39.415  35.880  39.099  1.00  0.00     0.060 A 
BRANCH  90  91
ATOM     91  S   UNL A   1      39.179  37.085  40.421  1.00  0.00     0.124 S 
ATOM     92  O   UNL A   1      38.562  36.264  41.458  1.00  0.00    -0.237 OA
ATOM     93  O   UNL A   1      40.544  37.526  40.691  1.00  0.00    -0.237 OA
ATOM     94  O   UNL A   1      38.310  38.090  39.816  1.00  0.00    -0.744 OA
ENDBRANCH  90  91
ENDBRANCH  58  83
ENDBRANCH  32  33
ENDBRANCH  24  27
ENDBRANCH  22  23
ENDBRANCH  21  22
ENDBRANCH   1  21
TORSDOF 18
ENDMDL
MODEL 2
REMARK VINA RESULT:     -11.0      6.534     12.291
REMARK SMILES N#CCC1(C[N@@H+]2CCO[C@H](CC(=O)NCCCNC(=O)c3ccc(-c4c5nc(c(-c6c(F)cc(S(=O)(=O)[O-])cc6F)c6ccc([nH]6)c(-c6c(F)cc(S(=O)(=O)[O-])cc6F)c6nc(c(-c7c(F)cc(S(=O)(=O)[O-])cc7F)c7ccc4[nH]7)C=C6)C=C5)cc3)C2)CC1
REMARK SMILES IDX 15 1 14 2 12 3 13 4 11 6 10 7 6 8 7 9 87 10 8 12 9 13 5 14
REMARK SMILES IDX 4 15 88 16 89 17 3 18 2 19 1 20 16 21 17 22 18 23 19 24
REMARK SMILES IDX 20 26 21 27 22 28 86 29 23 30 85 31 24 32 25 33 26 34 79 35
REMARK SMILES IDX 27 36 84 37 78 38 80 39 28 40 83 41 77 42 76 43 29 45 63 46
REMARK SMILES IDX 42 47 62 48 43 49 46 50 61 51 81 52 44 53 45 54 60 56 82 57
REMARK SMILES IDX 47 58 30 59 31 60 40 61 32 62 33 63 39 64 41 65 34 66 35 67
REMARK SMILES IDX 36 68 37 69 38 70 64 71 65 72 74 73 66 74 67 75 73 76 75 77
REMARK SMILES IDX 68 78 69 79 70 80 71 81 72 82 48 83 49 84 58 85 50 86 51 87
REMARK SMILES IDX 57 88 59 89 52 90 53 91 54 92 55 93 56 94
REMARK H PARENT 14 5 6 11 18 25 80 44 46 55
REMARK Flexibility Score: inf
ROOT
ATOM      1  C   UNL A   1      34.415  31.510  28.202  1.00  0.00     0.117 C 
ENDROOT
BRANCH   1   2
ATOM      2  N   UNL A   1      34.506  30.071  27.995  1.00  0.00    -0.356 N 
ATOM      3  C   UNL A   1      33.738  29.317  27.153  1.00  0.00     0.222 C 
ATOM      4  O   UNL A   1      34.341  28.705  26.265  1.00  0.00    -0.275 OA
ATOM      5  H   UNL A   1      35.190  29.592  28.516  1.00  0.00     0.163 HD
BRANCH   3   6
ATOM      6  C   UNL A   1      32.214  29.223  27.254  1.00  0.00     0.138 C 
BRANCH   6   7
ATOM      7  C   UNL A   1      31.407  28.582  26.101  1.00  0.00     0.182 C 
ATOM      8  N   UNL A   1      31.460  25.497  24.665  1.00  0.00    -0.330 N 
ATOM      9  C   UNL A   1      31.454  26.341  22.926  1.00  0.00     0.291 C 
ATOM     10  C   UNL A   1      31.189  26.603  26.187  1.00  0.00     0.295 C 
ATOM     11  H   UNL A   1      30.716  24.811  24.543  1.00  0.00     0.348 HD
ATOM     12  C   UNL A   1      31.591  28.376  22.749  1.00  0.00     0.222 C 
ATOM     13  O   UNL A   1      31.718  29.379  24.389  1.00  0.00    -0.366 OA
BRANCH   8  14
ATOM     14  C   UNL A   1      32.857  25.048  25.006  1.00  0.00     0.270 C 
BRANCH  14  15
ATOM     15  C   UNL A   1      32.760  23.580  24.871  1.00  0.00     0.032 C 
ATOM     16  C   UNL A   1      33.952  22.950  24.114  1.00  0.00     0.015 C 
ATOM     17  C   UNL A   1      32.586  22.601  23.686  1.00  0.00     0.015 C 
BRANCH  15  18
ATOM     18  C   UNL A   1      32.388  23.028  26.193  1.00  0.00     0.133 C 
BRANCH  18  19
ATOM     19  C   UNL A   1      31.023  23.033  26.862  1.00  0.00     0.063 C 
ATOM     20  N   UNL A   1      29.891  23.036  27.417  1.00  0.00    -0.198 NA
ENDBRANCH  18  19
ENDBRANCH  15  18
ENDBRANCH  14  15
ENDBRANCH   8  14
ENDBRANCH   6   7
ENDBRANCH   3   6
ENDBRANCH   1   2
BRANCH   1  21
ATOM     21  C   UNL A   1      35.724  32.283  28.027  1.00  0.00     0.042 C 
BRANCH  21  22
ATOM     22  C   UNL A   1      36.454  32.695  29.308  1.00  0.00     0.118 C 
BRANCH  22  23
ATOM     23  N   UNL A   1      36.089  31.897  30.473  1.00  0.00    -0.352 N 
ATOM     24  C   UNL A   1      36.653  30.758  30.992  1.00  0.00     0.251 C 
ATOM     25  H   UNL A   1      35.309  32.233  30.971  1.00  0.00     0.163 HD
ATOM     26  O   UNL A   1      36.047  30.139  31.875  1.00  0.00    -0.269 OA
BRANCH  24  27
ATOM     27  C   UNL A   1      37.950  30.248  30.504  1.00  0.00     0.039 A 
ATOM     28  C   UNL A   1      38.139  30.075  29.130  1.00  0.00     0.014 A 
ATOM     29  C   UNL A   1      38.968  29.895  31.392  1.00  0.00     0.014 A 
ATOM     30  C   UNL A   1      39.370  29.620  28.648  1.00  0.00     0.010 A 
ATOM     31  C   UNL A   1      40.221  29.527  30.906  1.00  0.00     0.010 A 
ATOM     32  C   UNL A   1      40.437  29.379  29.529  1.00  0.00    -0.014 A 
BRANCH  32  33
ATOM     33  C   UNL A   1      41.778  28.993  29.015  1.00  0.00     0.031 A 
ATOM     34  C   UNL A   1      42.885  30.008  28.904  1.00  0.00     0.074 A 
ATOM     35  C   UNL A   1      41.981  27.731  28.589  1.00  0.00     0.049 A 
ATOM     36  N   UNL A   1      44.116  29.847  28.486  1.00  0.00    -0.248 NA
ATOM     37  C   UNL A   1      42.559  31.393  29.278  1.00  0.00     0.031 C 
ATOM     38  C   UNL A   1      40.962  26.679  28.560  1.00  0.00     0.029 A 
ATOM     39  N   UNL A   1      43.103  27.117  28.094  1.00  0.00    -0.354 N 
ATOM     40  C   UNL A   1      44.701  31.107  28.530  1.00  0.00     0.074 A 
ATOM     41  C   UNL A   1      43.674  32.031  28.957  1.00  0.00     0.031 C 
ATOM     42  C   UNL A   1      41.511  25.545  28.098  1.00  0.00     0.029 A 
ATOM     43  C   UNL A   1      42.911  25.795  27.768  1.00  0.00     0.049 A 
ATOM     44  H   UNL A   1      43.965  27.579  27.982  1.00  0.00     0.167 HD
ATOM     45  C   UNL A   1      45.983  31.459  28.261  1.00  0.00     0.037 A 
ATOM     46  C   UNL A   1      43.762  24.883  27.259  1.00  0.00     0.037 A 
ATOM     47  C   UNL A   1      47.001  30.525  27.849  1.00  0.00     0.049 A 
ATOM     48  C   UNL A   1      45.189  25.278  27.012  1.00  0.00     0.074 A 
ATOM     49  C   UNL A   1      48.349  30.756  27.641  1.00  0.00     0.029 A 
ATOM     50  N   UNL A   1      46.778  29.184  27.566  1.00  0.00    -0.354 N 
ATOM     51  N   UNL A   1      45.758  26.451  27.168  1.00  0.00    -0.248 NA
ATOM     52  C   UNL A   1      46.097  24.226  26.539  1.00  0.00     0.031 C 
ATOM     53  C   UNL A   1      48.929  29.570  27.174  1.00  0.00     0.029 A 
ATOM     54  C   UNL A   1      47.956  28.583  27.150  1.00  0.00     0.049 A 
ATOM     55  H   UNL A   1      45.910  28.727  27.648  1.00  0.00     0.167 HD
ATOM     56  C   UNL A   1      47.092  26.278  26.816  1.00  0.00     0.074 A 
ATOM     57  C   UNL A   1      47.249  24.879  26.471  1.00  0.00     0.031 C 
ATOM     58  C   UNL A   1      48.093  27.193  26.780  1.00  0.00     0.037 A 
BRANCH  45  59
ATOM     59  C   UNL A   1      46.346  32.916  28.391  1.00  0.00     0.058 A 
ATOM     60  C   UNL A   1      46.260  33.806  27.305  1.00  0.00     0.135 A 
ATOM     61  C   UNL A   1      46.791  33.434  29.619  1.00  0.00     0.135 A 
ATOM     62  F   UNL A   1      45.851  33.369  26.103  1.00  0.00    -0.206 F 
ATOM     63  C   UNL A   1      46.656  35.136  27.418  1.00  0.00     0.059 A 
ATOM     64  C   UNL A   1      47.158  34.770  29.763  1.00  0.00     0.059 A 
ATOM     65  F   UNL A   1      46.887  32.636  30.693  1.00  0.00    -0.206 F 
ATOM     66  C   UNL A   1      47.110  35.607  28.649  1.00  0.00     0.060 A 
BRANCH  66  67
ATOM     67  S   UNL A   1      47.650  37.325  28.776  1.00  0.00     0.124 S 
ATOM     68  O   UNL A   1      46.764  37.978  27.812  1.00  0.00    -0.237 OA
ATOM     69  O   UNL A   1      47.380  37.632  30.182  1.00  0.00    -0.237 OA
ATOM     70  O   UNL A   1      49.053  37.275  28.406  1.00  0.00    -0.744 OA
ENDBRANCH  66  67
ENDBRANCH  45  59
BRANCH  46  71
ATOM     71  C   UNL A   1      43.273  23.506  26.983  1.00  0.00     0.058 A 
ATOM     72  C   UNL A   1      43.076  23.052  25.671  1.00  0.00     0.135 A 
ATOM     73  C   UNL A   1      43.067  22.592  28.029  1.00  0.00     0.135 A 
ATOM     74  F   UNL A   1      43.253  23.890  24.638  1.00  0.00    -0.206 F 
ATOM     75  C   UNL A   1      42.698  21.740  25.403  1.00  0.00     0.059 A 
ATOM     76  C   UNL A   1      42.715  21.267  27.786  1.00  0.00     0.059 A 
ATOM     77  F   UNL A   1      43.260  22.971  29.302  1.00  0.00    -0.206 F 
ATOM     78  C   UNL A   1      42.533  20.850  26.466  1.00  0.00     0.060 A 
BRANCH  78  79
ATOM     79  S   UNL A   1      42.149  19.123  26.104  1.00  0.00     0.124 S 
ATOM     80  O   UNL A   1      40.729  19.202  25.771  1.00  0.00    -0.237 OA
ATOM     81  O   UNL A   1      43.050  18.840  24.988  1.00  0.00    -0.237 OA
ATOM     82  O   UNL A   1      42.470  18.438  27.347  1.00  0.00    -0.744 OA
ENDBRANCH  78  79
ENDBRANCH  46  71
BRANCH  58  83
ATOM     83  C   UNL A   1      49.450  26.705  26.349  1.00  0.00     0.058 A 
ATOM     84  C   UNL A   1      49.896  26.842  25.024  1.00  0.00     0.135 A 
ATOM     85  C   UNL A   1      50.321  26.103  27.272  1.00  0.00     0.135 A 
ATOM     86  F   UNL A   1      49.103  27.407  24.098  1.00  0.00    -0.206 F 
ATOM     87  C   UNL A   1      51.137  26.360  24.620  1.00  0.00     0.059 A 
ATOM     88  C   UNL A   1      51.579  25.644  26.898  1.00  0.00     0.059 A 
ATOM     89  F   UNL A   1      49.953  25.959  28.554  1.00  0.00    -0.206 F 
ATOM     90  C   UNL A   1      51.969  25.756  25.564  1.00  0.00     0.060 A 
BRANCH  90  91
ATOM     91  S   UNL A   1      53.573  25.127  25.027  1.00  0.00     0.124 S 
ATOM     92  O   UNL A   1      53.343  23.686  25.046  1.00  0.00    -0.237 OA
ATOM     93  O   UNL A   1      53.720  25.728  23.706  1.00  0.00    -0.237 OA
ATOM     94  O   UNL A   1      54.494  25.629  26.044  1.00  0.00    -0.744 OA
ENDBRANCH  90  91
ENDBRANCH  58  83
ENDBRANCH  32  33
ENDBRANCH  24  27
ENDBRANCH  22  23
ENDBRANCH  21  22
ENDBRANCH   1  21
TORSDOF 18
ENDMDL
MODEL 3
REMARK VINA RESULT:     -11.0      6.602     12.237
REMARK SMILES N#CCC1(C[N@@H+]2CCO[C@H](CC(=O)NCCCNC(=O)c3ccc(-c4c5nc(c(-c6c(F)cc(S(=O)(=O)[O-])cc6F)c6ccc([nH]6)c(-c6c(F)cc(S(=O)(=O)[O-])cc6F)c6nc(c(-c7c(F)cc(S(=O)(=O)[O-])cc7F)c7ccc4[nH]7)C=C6)C=C5)cc3)C2)CC1
REMARK SMILES IDX 15 1 14 2 12 3 13 4 11 6 10 7 6 8 7 9 87 10 8 12 9 13 5 14
REMARK SMILES IDX 4 15 88 16 89 17 3 18 2 19 1 20 16 21 17 22 18 23 19 24
REMARK SMILES IDX 20 26 21 27 22 28 86 29 23 30 85 31 24 32 25 33 26 34 79 35
REMARK SMILES IDX 27 36 84 37 78 38 80 39 28 40 83 41 77 42 76 43 29 45 63 46
REMARK SMILES IDX 42 47 62 48 43 49 46 50 61 51 81 52 44 53 45 54 60 56 82 57
REMARK SMILES IDX 47 58 30 59 31 60 40 61 32 62 33 63 39 64 41 65 34 66 35 67
REMARK SMILES IDX 36 68 37 69 38 70 64 71 65 72 74 73 66 74 67 75 73 76 75 77
REMARK SMILES IDX 68 78 69 79 70 80 71 81 72 82 48 83 49 84 58 85 50 86 51 87
REMARK SMILES IDX 57 88 59 89 52 90 53 91 54 92 55 93 56 94
REMARK H PARENT 14 5 6 11 18 25 80 44 46 55
REMARK Flexibility Score: inf
ROOT
ATOM      1  C   UNL A   1      34.645  29.797  26.958  1.00  0.00     0.117 C 
ENDROOT
BRANCH   1   2
ATOM      2  N   UNL A   1      33.979  29.719  25.665  1.00  0.00    -0.356 N 
ATOM      3  C   UNL A   1      33.118  28.744  25.248  1.00  0.00     0.222 C 
ATOM      4  O   UNL A   1      31.979  29.115  24.947  1.00  0.00    -0.275 OA
ATOM      5  H   UNL A   1      34.171  30.442  25.025  1.00  0.00     0.163 HD
BRANCH   3   6
ATOM      6  C   UNL A   1      33.493  27.262  25.164  1.00  0.00     0.138 C 
BRANCH   6   7
ATOM      7  C   UNL A   1      32.823  26.246  26.116  1.00  0.00     0.182 C 
ATOM      8  N   UNL A   1      32.635  22.848  26.128  1.00  0.00    -0.330 N 
ATOM      9  C   UNL A   1      30.740  22.985  26.483  1.00  0.00     0.291 C 
ATOM     10  C   UNL A   1      33.667  24.442  26.199  1.00  0.00     0.295 C 
ATOM     11  H   UNL A   1      32.910  22.172  26.840  1.00  0.00     0.348 HD
ATOM     12  C   UNL A   1      29.806  24.807  26.499  1.00  0.00     0.222 C 
ATOM     13  O   UNL A   1      30.912  26.346  26.152  1.00  0.00    -0.366 OA
BRANCH   8  14
ATOM     14  C   UNL A   1      32.858  22.545  24.669  1.00  0.00     0.270 C 
BRANCH  14  15
ATOM     15  C   UNL A   1      33.256  21.123  24.698  1.00  0.00     0.032 C 
ATOM     16  C   UNL A   1      32.578  20.270  23.601  1.00  0.00     0.015 C 
ATOM     17  C   UNL A   1      32.529  19.790  24.993  1.00  0.00     0.015 C 
BRANCH  15  18
ATOM     18  C   UNL A   1      34.730  21.069  24.827  1.00  0.00     0.133 C 
BRANCH  18  19
ATOM     19  C   UNL A   1      35.759  22.023  24.244  1.00  0.00     0.063 C 
ATOM     20  N   UNL A   1      36.613  22.815  23.760  1.00  0.00    -0.198 NA
ENDBRANCH  18  19
ENDBRANCH  15  18
ENDBRANCH  14  15
ENDBRANCH   8  14
ENDBRANCH   6   7
ENDBRANCH   3   6
ENDBRANCH   1   2
BRANCH   1  21
ATOM     21  C   UNL A   1      34.434  31.103  27.728  1.00  0.00     0.042 C 
BRANCH  21  22
ATOM     22  C   UNL A   1      35.604  31.589  28.588  1.00  0.00     0.118 C 
BRANCH  22  23
ATOM     23  N   UNL A   1      35.543  31.135  29.973  1.00  0.00    -0.352 N 
ATOM     24  C   UNL A   1      36.438  30.408  30.718  1.00  0.00     0.251 C 
ATOM     25  H   UNL A   1      34.724  31.394  30.453  1.00  0.00     0.163 HD
ATOM     26  O   UNL A   1      36.081  29.964  31.816  1.00  0.00    -0.269 OA
BRANCH  24  27
ATOM     27  C   UNL A   1      37.802  30.128  30.227  1.00  0.00     0.039 A 
ATOM     28  C   UNL A   1      38.833  29.940  31.152  1.00  0.00     0.014 A 
ATOM     29  C   UNL A   1      38.085  30.094  28.860  1.00  0.00     0.014 A 
ATOM     30  C   UNL A   1      40.125  29.646  30.706  1.00  0.00     0.010 A 
ATOM     31  C   UNL A   1      39.351  29.714  28.418  1.00  0.00     0.010 A 
ATOM     32  C   UNL A   1      40.389  29.491  29.335  1.00  0.00    -0.014 A 
BRANCH  32  33
ATOM     33  C   UNL A   1      41.736  29.079  28.859  1.00  0.00     0.031 A 
ATOM     34  C   UNL A   1      42.860  30.076  28.759  1.00  0.00     0.074 A 
ATOM     35  C   UNL A   1      41.930  27.807  28.457  1.00  0.00     0.049 A 
ATOM     36  N   UNL A   1      44.097  29.891  28.373  1.00  0.00    -0.248 NA
ATOM     37  C   UNL A   1      42.545  31.471  29.105  1.00  0.00     0.031 C 
ATOM     38  C   UNL A   1      40.897  26.770  28.418  1.00  0.00     0.029 A 
ATOM     39  N   UNL A   1      43.055  27.170  27.997  1.00  0.00    -0.354 N 
ATOM     40  C   UNL A   1      44.700  31.143  28.412  1.00  0.00     0.074 A 
ATOM     41  C   UNL A   1      43.676  32.089  28.802  1.00  0.00     0.031 C 
ATOM     42  C   UNL A   1      41.440  25.622  27.986  1.00  0.00     0.029 A 
ATOM     43  C   UNL A   1      42.851  25.846  27.686  1.00  0.00     0.049 A 
ATOM     44  H   UNL A   1      43.926  27.618  27.899  1.00  0.00     0.167 HD
ATOM     45  C   UNL A   1      45.992  31.474  28.169  1.00  0.00     0.037 A 
ATOM     46  C   UNL A   1      43.701  24.915  27.210  1.00  0.00     0.037 A 
ATOM     47  C   UNL A   1      47.007  30.519  27.795  1.00  0.00     0.049 A 
ATOM     48  C   UNL A   1      45.139  25.286  26.992  1.00  0.00     0.074 A 
ATOM     49  C   UNL A   1      48.362  30.728  27.616  1.00  0.00     0.029 A 
ATOM     50  N   UNL A   1      46.771  29.177  27.526  1.00  0.00    -0.354 N 
ATOM     51  N   UNL A   1      45.721  26.453  27.144  1.00  0.00    -0.248 NA
ATOM     52  C   UNL A   1      46.042  24.214  26.556  1.00  0.00     0.031 C 
ATOM     53  C   UNL A   1      48.936  29.527  27.180  1.00  0.00     0.029 A 
ATOM     54  C   UNL A   1      47.950  28.553  27.147  1.00  0.00     0.049 A 
ATOM     55  H   UNL A   1      45.895  28.733  27.594  1.00  0.00     0.167 HD
ATOM     56  C   UNL A   1      47.060  26.256  26.827  1.00  0.00     0.074 A 
ATOM     57  C   UNL A   1      47.205  24.850  26.506  1.00  0.00     0.031 C 
ATOM     58  C   UNL A   1      48.075  27.157  26.801  1.00  0.00     0.037 A 
BRANCH  45  59
ATOM     59  C   UNL A   1      46.373  32.927  28.286  1.00  0.00     0.058 A 
ATOM     60  C   UNL A   1      46.306  33.806  27.191  1.00  0.00     0.135 A 
ATOM     61  C   UNL A   1      46.818  33.451  29.512  1.00  0.00     0.135 A 
ATOM     62  F   UNL A   1      45.898  33.362  25.991  1.00  0.00    -0.206 F 
ATOM     63  C   UNL A   1      46.718  35.132  27.293  1.00  0.00     0.059 A 
ATOM     64  C   UNL A   1      47.201  34.784  29.644  1.00  0.00     0.059 A 
ATOM     65  F   UNL A   1      46.898  32.663  30.595  1.00  0.00    -0.206 F 
ATOM     66  C   UNL A   1      47.171  35.610  28.521  1.00  0.00     0.060 A 
BRANCH  66  67
ATOM     67  S   UNL A   1      47.732  37.322  28.634  1.00  0.00     0.124 S 
ATOM     68  O   UNL A   1      49.023  37.159  29.303  1.00  0.00    -0.237 OA
ATOM     69  O   UNL A   1      47.801  37.720  27.227  1.00  0.00    -0.237 OA
ATOM     70  O   UNL A   1      46.697  37.974  29.417  1.00  0.00    -0.744 OA
ENDBRANCH  66  67
ENDBRANCH  45  59
BRANCH  46  71
ATOM     71  C   UNL A   1      43.198  23.541  26.943  1.00  0.00     0.058 A 
ATOM     72  C   UNL A   1      43.035  23.067  25.634  1.00  0.00     0.135 A 
ATOM     73  C   UNL A   1      42.944  22.649  27.997  1.00  0.00     0.135 A 
ATOM     74  F   UNL A   1      43.259  23.883  24.592  1.00  0.00    -0.206 F 
ATOM     75  C   UNL A   1      42.645  21.756  25.376  1.00  0.00     0.059 A 
ATOM     76  C   UNL A   1      42.579  21.326  27.766  1.00  0.00     0.059 A 
ATOM     77  F   UNL A   1      43.103  23.048  29.269  1.00  0.00    -0.206 F 
ATOM     78  C   UNL A   1      42.432  20.889  26.449  1.00  0.00     0.060 A 
BRANCH  78  79
ATOM     79  S   UNL A   1      42.032  19.162  26.105  1.00  0.00     0.124 S 
ATOM     80  O   UNL A   1      42.331  18.529  27.388  1.00  0.00    -0.237 OA
ATOM     81  O   UNL A   1      40.615  19.243  25.751  1.00  0.00    -0.237 OA
ATOM     82  O   UNL A   1      42.924  18.820  25.008  1.00  0.00    -0.744 OA
ENDBRANCH  78  79
ENDBRANCH  46  71
BRANCH  58  83
ATOM     83  C   UNL A   1      49.434  26.643  26.409  1.00  0.00     0.058 A 
ATOM     84  C   UNL A   1      50.267  25.982  27.328  1.00  0.00     0.135 A 
ATOM     85  C   UNL A   1      49.908  26.801  25.096  1.00  0.00     0.135 A 
ATOM     86  F   UNL A   1      49.866  25.806  28.598  1.00  0.00    -0.206 F 
ATOM     87  C   UNL A   1      51.536  25.538  26.972  1.00  0.00     0.059 A 
ATOM     88  C   UNL A   1      51.160  26.335  24.709  1.00  0.00     0.059 A 
ATOM     89  F   UNL A   1      49.150  27.411  24.172  1.00  0.00    -0.206 F 
ATOM     90  C   UNL A   1      51.976  25.724  25.661  1.00  0.00     0.060 A 
BRANCH  90  91
ATOM     91  S   UNL A   1      53.627  25.151  25.213  1.00  0.00     0.124 S 
ATOM     92  O   UNL A   1      54.453  25.834  26.203  1.00  0.00    -0.237 OA
ATOM     93  O   UNL A   1      53.512  23.705  25.372  1.00  0.00    -0.237 OA
ATOM     94  O   UNL A   1      53.787  25.613  23.836  1.00  0.00    -0.744 OA
ENDBRANCH  90  91
ENDBRANCH  58  83
ENDBRANCH  32  33
ENDBRANCH  24  27
ENDBRANCH  22  23
ENDBRANCH  21  22
ENDBRANCH   1  21
TORSDOF 18
ENDMDL
