MODEL 1
REMARK VINA RESULT:     -14.3      0.000      0.000
REMARK SMILES Cc1cnn(C2(C(=O)NCCCNC(=O)c3ccc(-c4c5nc(c(-c6c(F)cc(S(=O)(=O)[O-])cc6F)c6ccc([nH]6)c(-c6c(F)cc(S(=O)(=O)[O-])cc6F)c6nc(c(-c7c(F)cc(S(=O)(=O)[O-])cc7F)c7ccc4[nH]7)C=C6)C=C5)cc3)CCN(C(=O)c3cc4ccccc4[nH]3)CC2)c1
REMARK SMILES IDX 12 1 11 2 10 3 9 4 7 5 8 6 6 8 82 9 97 10 83 11 96 12 84 13
REMARK SMILES IDX 85 14 86 15 5 16 1 17 2 18 3 19 98 20 4 21 87 22 88 23 95 24
REMARK SMILES IDX 89 25 94 26 90 28 93 29 91 30 92 31 13 32 14 33 15 35 16 36
REMARK SMILES IDX 17 37 81 38 18 39 80 40 19 41 20 42 21 43 74 44 22 45 79 46
REMARK SMILES IDX 73 47 75 48 23 49 78 50 72 51 71 52 24 54 58 55 37 56 57 57
REMARK SMILES IDX 38 58 41 59 56 60 76 61 39 62 40 63 55 65 77 66 42 67 25 68
REMARK SMILES IDX 26 69 35 70 27 71 28 72 34 73 36 74 29 75 30 76 31 77 32 78
REMARK SMILES IDX 33 79 59 80 60 81 69 82 61 83 62 84 68 85 70 86 63 87 64 88
REMARK SMILES IDX 65 89 66 90 67 91 43 92 44 93 53 94 45 95 46 96 52 97 54 98
REMARK SMILES IDX 47 99 48 100 49 101 50 102 51 103
REMARK H PARENT 9 7 95 27 13 34 75 53 41 64
REMARK Flexibility Score: inf
ROOT
ATOM      1  C   UNL A   1      38.162  22.512  25.588  1.00  0.00     0.118 C 
ENDROOT
BRANCH   1   2
ATOM      2  C   UNL A   1      37.040  21.790  24.855  1.00  0.00     0.042 C 
BRANCH   2   3
ATOM      3  C   UNL A   1      35.724  22.562  24.880  1.00  0.00     0.117 C 
BRANCH   3   4
ATOM      4  N   UNL A   1      35.140  22.707  26.211  1.00  0.00    -0.354 N 
ATOM      5  C   UNL A   1      33.921  23.219  26.608  1.00  0.00     0.248 C 
ATOM      6  O   UNL A   1      33.509  22.784  27.686  1.00  0.00    -0.272 OA
ATOM      7  H   UNL A   1      35.711  22.388  26.947  1.00  0.00     0.163 HD
BRANCH   5   8
ATOM      8  C   UNL A   1      33.089  24.156  25.680  1.00  0.00     0.144 C 
ATOM      9  C   UNL A   1      31.773  24.575  26.396  1.00  0.00     0.062 C 
ATOM     10  C   UNL A   1      34.060  25.324  25.314  1.00  0.00     0.062 C 
ATOM     11  C   UNL A   1      31.255  25.908  25.888  1.00  0.00     0.123 C 
ATOM     12  C   UNL A   1      33.454  26.725  25.201  1.00  0.00     0.123 C 
ATOM     13  N   UNL A   1      32.292  26.913  26.058  1.00  0.00    -0.337 N 
ATOM     14  C   UNL A   1      32.156  27.811  27.118  1.00  0.00     0.270 C 
ATOM     15  O   UNL A   1      31.232  27.691  27.924  1.00  0.00    -0.267 OA
BRANCH   8  16
ATOM     16  N   UNL A   1      32.634  23.455  24.437  1.00  0.00    -0.257 N 
ATOM     17  C   UNL A   1      32.112  20.367  22.531  1.00  0.00     0.048 C 
ATOM     18  C   UNL A   1      32.334  21.724  23.075  1.00  0.00    -0.013 A 
ATOM     19  C   UNL A   1      32.858  22.847  22.409  1.00  0.00     0.138 A 
ATOM     20  C   UNL A   1      32.135  22.170  24.365  1.00  0.00     0.113 A 
ATOM     21  N   UNL A   1      33.090  23.866  23.233  1.00  0.00    -0.180 NA
ENDBRANCH   8  16
BRANCH  14  22
ATOM     22  C   UNL A   1      33.145  28.840  27.342  1.00  0.00     0.105 A 
ATOM     23  C   UNL A   1      34.527  28.844  27.410  1.00  0.00     0.042 A 
ATOM     24  N   UNL A   1      32.753  30.159  27.424  1.00  0.00    -0.351 N 
ATOM     25  C   UNL A   1      34.963  30.184  27.626  1.00  0.00     0.000 A 
ATOM     26  C   UNL A   1      33.824  30.984  27.649  1.00  0.00     0.046 A 
ATOM     27  H   UNL A   1      31.823  30.469  27.333  1.00  0.00     0.167 HD
ATOM     28  C   UNL A   1      36.219  30.796  27.795  1.00  0.00     0.010 A 
ATOM     29  C   UNL A   1      33.867  32.368  27.849  1.00  0.00     0.026 A 
ATOM     30  C   UNL A   1      36.284  32.181  27.995  1.00  0.00     0.001 A 
ATOM     31  C   UNL A   1      35.123  32.952  28.026  1.00  0.00     0.002 A 
ENDBRANCH  14  22
ENDBRANCH   5   8
ENDBRANCH   3   4
ENDBRANCH   2   3
ENDBRANCH   1   2
BRANCH   1  32
ATOM     32  N   UNL A   1      38.909  21.643  26.498  1.00  0.00    -0.352 N 
ATOM     33  C   UNL A   1      40.022  21.984  27.252  1.00  0.00     0.251 C 
ATOM     34  H   UNL A   1      38.587  20.717  26.586  1.00  0.00     0.163 HD
ATOM     35  O   UNL A   1      40.744  21.129  27.734  1.00  0.00    -0.269 OA
BRANCH  33  36
ATOM     36  C   UNL A   1      40.317  23.420  27.414  1.00  0.00     0.039 A 
ATOM     37  C   UNL A   1      39.287  24.359  27.407  1.00  0.00     0.014 A 
ATOM     38  C   UNL A   1      41.621  23.787  27.734  1.00  0.00     0.014 A 
ATOM     39  C   UNL A   1      39.557  25.656  27.846  1.00  0.00     0.010 A 
ATOM     40  C   UNL A   1      41.852  25.031  28.285  1.00  0.00     0.010 A 
ATOM     41  C   UNL A   1      40.833  25.985  28.334  1.00  0.00    -0.014 A 
BRANCH  41  42
ATOM     42  C   UNL A   1      41.056  27.289  28.975  1.00  0.00     0.031 A 
ATOM     43  C   UNL A   1      42.223  28.098  28.494  1.00  0.00     0.074 A 
ATOM     44  C   UNL A   1      40.196  27.885  29.830  1.00  0.00     0.049 A 
ATOM     45  N   UNL A   1      43.292  28.420  29.148  1.00  0.00    -0.248 NA
ATOM     46  C   UNL A   1      42.224  28.561  27.098  1.00  0.00     0.031 C 
ATOM     47  C   UNL A   1      38.853  27.459  30.238  1.00  0.00     0.029 A 
ATOM     48  N   UNL A   1      40.332  29.090  30.454  1.00  0.00    -0.354 N 
ATOM     49  C   UNL A   1      44.029  29.266  28.321  1.00  0.00     0.074 A 
ATOM     50  C   UNL A   1      43.381  29.227  27.032  1.00  0.00     0.031 C 
ATOM     51  C   UNL A   1      38.216  28.486  30.838  1.00  0.00     0.029 A 
ATOM     52  C   UNL A   1      39.167  29.564  31.033  1.00  0.00     0.049 A 
ATOM     53  H   UNL A   1      41.184  29.580  30.489  1.00  0.00     0.167 HD
ATOM     54  C   UNL A   1      45.032  30.063  28.793  1.00  0.00     0.037 A 
ATOM     55  C   UNL A   1      38.979  30.758  31.638  1.00  0.00     0.037 A 
ATOM     56  C   UNL A   1      45.409  29.707  30.136  1.00  0.00     0.049 A 
ATOM     57  C   UNL A   1      40.309  31.239  32.083  1.00  0.00     0.074 A 
ATOM     58  C   UNL A   1      45.925  28.578  30.740  1.00  0.00     0.029 A 
ATOM     59  N   UNL A   1      44.949  30.496  31.160  1.00  0.00    -0.354 N 
ATOM     60  N   UNL A   1      41.022  30.660  33.009  1.00  0.00    -0.248 NA
ATOM     61  C   UNL A   1      41.035  32.163  31.228  1.00  0.00     0.031 C 
ATOM     62  C   UNL A   1      45.307  28.530  32.025  1.00  0.00     0.029 A 
ATOM     63  C   UNL A   1      44.484  29.653  32.137  1.00  0.00     0.049 A 
ATOM     64  H   UNL A   1      44.951  31.481  31.189  1.00  0.00     0.167 HD
ATOM     65  C   UNL A   1      42.337  30.814  32.597  1.00  0.00     0.074 A 
ATOM     66  C   UNL A   1      42.287  31.851  31.571  1.00  0.00     0.031 C 
ATOM     67  C   UNL A   1      43.299  29.903  32.930  1.00  0.00     0.037 A 
BRANCH  54  68
ATOM     68  C   UNL A   1      45.499  31.356  28.168  1.00  0.00     0.058 A 
ATOM     69  C   UNL A   1      44.596  32.432  28.015  1.00  0.00     0.135 A 
ATOM     70  C   UNL A   1      46.718  31.480  27.470  1.00  0.00     0.135 A 
ATOM     71  F   UNL A   1      43.401  32.413  28.625  1.00  0.00    -0.206 F 
ATOM     72  C   UNL A   1      44.861  33.520  27.181  1.00  0.00     0.059 A 
ATOM     73  C   UNL A   1      47.025  32.581  26.672  1.00  0.00     0.059 A 
ATOM     74  F   UNL A   1      47.622  30.493  27.456  1.00  0.00    -0.206 F 
ATOM     75  C   UNL A   1      46.073  33.576  26.499  1.00  0.00     0.060 A 
BRANCH  75  76
ATOM     76  S   UNL A   1      46.370  34.917  25.331  1.00  0.00     0.124 S 
ATOM     77  O   UNL A   1      45.963  36.079  26.113  1.00  0.00    -0.237 OA
ATOM     78  O   UNL A   1      47.800  34.791  25.072  1.00  0.00    -0.237 OA
ATOM     79  O   UNL A   1      45.505  34.578  24.206  1.00  0.00    -0.744 OA
ENDBRANCH  75  76
ENDBRANCH  54  68
BRANCH  55  80
ATOM     80  C   UNL A   1      37.761  31.601  31.620  1.00  0.00     0.058 A 
ATOM     81  C   UNL A   1      36.678  31.334  32.471  1.00  0.00     0.135 A 
ATOM     82  C   UNL A   1      37.749  32.847  30.960  1.00  0.00     0.135 A 
ATOM     83  F   UNL A   1      36.622  30.178  33.151  1.00  0.00    -0.206 F 
ATOM     84  C   UNL A   1      35.667  32.270  32.699  1.00  0.00     0.059 A 
ATOM     85  C   UNL A   1      36.747  33.792  31.162  1.00  0.00     0.059 A 
ATOM     86  F   UNL A   1      38.767  33.222  30.170  1.00  0.00    -0.206 F 
ATOM     87  C   UNL A   1      35.722  33.508  32.057  1.00  0.00     0.060 A 
BRANCH  87  88
ATOM     88  S   UNL A   1      34.531  34.790  32.507  1.00  0.00     0.124 S 
ATOM     89  O   UNL A   1      33.500  34.017  33.191  1.00  0.00    -0.237 OA
ATOM     90  O   UNL A   1      35.333  35.673  33.349  1.00  0.00    -0.237 OA
ATOM     91  O   UNL A   1      34.137  35.355  31.218  1.00  0.00    -0.744 OA
ENDBRANCH  87  88
ENDBRANCH  55  80
BRANCH  67  92
ATOM     92  C   UNL A   1      42.999  28.914  34.029  1.00  0.00     0.058 A 
ATOM     93  C   UNL A   1      43.203  29.165  35.397  1.00  0.00     0.135 A 
ATOM     94  C   UNL A   1      42.334  27.725  33.690  1.00  0.00     0.135 A 
ATOM     95  F   UNL A   1      43.733  30.322  35.815  1.00  0.00    -0.206 F 
ATOM     96  C   UNL A   1      42.801  28.258  36.380  1.00  0.00     0.059 A 
ATOM     97  C   UNL A   1      41.898  26.820  34.655  1.00  0.00     0.059 A 
ATOM     98  F   UNL A   1      42.053  27.455  32.405  1.00  0.00    -0.206 F 
ATOM     99  C   UNL A   1      42.146  27.087  36.000  1.00  0.00     0.060 A 
BRANCH  99 100
ATOM    100  S   UNL A   1      41.546  25.960  37.278  1.00  0.00     0.124 S 
ATOM    101  O   UNL A   1      42.631  25.995  38.252  1.00  0.00    -0.237 OA
ATOM    102  O   UNL A   1      40.297  26.588  37.699  1.00  0.00    -0.237 OA
ATOM    103  O   UNL A   1      41.386  24.693  36.567  1.00  0.00    -0.744 OA
ENDBRANCH  99 100
ENDBRANCH  67  92
ENDBRANCH  41  42
ENDBRANCH  33  36
ENDBRANCH   1  32
TORSDOF 15
ENDMDL
MODEL 2
REMARK VINA RESULT:     -14.3      1.924      2.968
REMARK SMILES Cc1cnn(C2(C(=O)NCCCNC(=O)c3ccc(-c4c5nc(c(-c6c(F)cc(S(=O)(=O)[O-])cc6F)c6ccc([nH]6)c(-c6c(F)cc(S(=O)(=O)[O-])cc6F)c6nc(c(-c7c(F)cc(S(=O)(=O)[O-])cc7F)c7ccc4[nH]7)C=C6)C=C5)cc3)CCN(C(=O)c3cc4ccccc4[nH]3)CC2)c1
REMARK SMILES IDX 12 1 11 2 10 3 9 4 7 5 8 6 6 8 82 9 97 10 83 11 96 12 84 13
REMARK SMILES IDX 85 14 86 15 5 16 1 17 2 18 3 19 98 20 4 21 87 22 88 23 95 24
REMARK SMILES IDX 89 25 94 26 90 28 93 29 91 30 92 31 13 32 14 33 15 35 16 36
REMARK SMILES IDX 17 37 81 38 18 39 80 40 19 41 20 42 21 43 74 44 22 45 79 46
REMARK SMILES IDX 73 47 75 48 23 49 78 50 72 51 71 52 24 54 58 55 37 56 57 57
REMARK SMILES IDX 38 58 41 59 56 60 76 61 39 62 40 63 55 65 77 66 42 67 25 68
REMARK SMILES IDX 26 69 35 70 27 71 28 72 34 73 36 74 29 75 30 76 31 77 32 78
REMARK SMILES IDX 33 79 59 80 60 81 69 82 61 83 62 84 68 85 70 86 63 87 64 88
REMARK SMILES IDX 65 89 66 90 67 91 43 92 44 93 53 94 45 95 46 96 52 97 54 98
REMARK SMILES IDX 47 99 48 100 49 101 50 102 51 103
REMARK H PARENT 9 7 95 27 13 34 75 53 41 64
REMARK Flexibility Score: inf
ROOT
ATOM      1  C   UNL A   1      37.720  23.221  25.796  1.00  0.00     0.118 C 
ENDROOT
BRANCH   1   2
ATOM      2  C   UNL A   1      36.334  23.265  26.422  1.00  0.00     0.042 C 
BRANCH   2   3
ATOM      3  C   UNL A   1      35.349  22.312  25.749  1.00  0.00     0.117 C 
BRANCH   3   4
ATOM      4  N   UNL A   1      35.280  22.451  24.298  1.00  0.00    -0.354 N 
ATOM      5  C   UNL A   1      34.209  22.723  23.470  1.00  0.00     0.248 C 
ATOM      6  O   UNL A   1      34.512  23.246  22.395  1.00  0.00    -0.272 OA
ATOM      7  H   UNL A   1      36.139  22.329  23.832  1.00  0.00     0.163 HD
BRANCH   5   8
ATOM      8  C   UNL A   1      32.738  22.507  23.942  1.00  0.00     0.144 C 
ATOM      9  C   UNL A   1      32.585  22.968  25.420  1.00  0.00     0.062 C 
ATOM     10  C   UNL A   1      31.865  23.278  22.900  1.00  0.00     0.062 C 
ATOM     11  C   UNL A   1      31.162  23.388  25.734  1.00  0.00     0.123 C 
ATOM     12  C   UNL A   1      30.622  23.997  23.430  1.00  0.00     0.123 C 
ATOM     13  N   UNL A   1      30.764  24.437  24.810  1.00  0.00    -0.337 N 
ATOM     14  C   UNL A   1      30.745  25.749  25.289  1.00  0.00     0.270 C 
ATOM     15  O   UNL A   1      31.136  26.003  26.428  1.00  0.00    -0.267 OA
BRANCH   8  16
ATOM     16  N   UNL A   1      32.361  21.057  23.959  1.00  0.00    -0.257 N 
ATOM     17  C   UNL A   1      32.919  17.636  25.151  1.00  0.00     0.048 C 
ATOM     18  C   UNL A   1      32.586  18.906  24.472  1.00  0.00    -0.013 A 
ATOM     19  C   UNL A   1      32.282  19.105  23.113  1.00  0.00     0.138 A 
ATOM     20  C   UNL A   1      32.561  20.178  25.005  1.00  0.00     0.113 A 
ATOM     21  N   UNL A   1      32.202  20.394  22.792  1.00  0.00    -0.180 NA
ENDBRANCH   8  16
BRANCH  14  22
ATOM     22  C   UNL A   1      30.353  26.840  24.427  1.00  0.00     0.105 A 
ATOM     23  C   UNL A   1      31.051  27.756  23.660  1.00  0.00     0.042 A 
ATOM     24  N   UNL A   1      29.018  27.052  24.157  1.00  0.00    -0.351 N 
ATOM     25  C   UNL A   1      30.111  28.589  22.987  1.00  0.00     0.000 A 
ATOM     26  C   UNL A   1      28.841  28.135  23.335  1.00  0.00     0.046 A 
ATOM     27  H   UNL A   1      28.284  26.498  24.510  1.00  0.00     0.167 HD
ATOM     28  C   UNL A   1      30.216  29.682  22.106  1.00  0.00     0.010 A 
ATOM     29  C   UNL A   1      27.664  28.724  22.863  1.00  0.00     0.026 A 
ATOM     30  C   UNL A   1      29.049  30.286  21.621  1.00  0.00     0.001 A 
ATOM     31  C   UNL A   1      27.793  29.814  21.999  1.00  0.00     0.002 A 
ENDBRANCH  14  22
ENDBRANCH   5   8
ENDBRANCH   3   4
ENDBRANCH   2   3
ENDBRANCH   1   2
BRANCH   1  32
ATOM     32  N   UNL A   1      38.579  22.182  26.368  1.00  0.00    -0.352 N 
ATOM     33  C   UNL A   1      39.863  22.342  26.865  1.00  0.00     0.251 C 
ATOM     34  H   UNL A   1      38.204  21.273  26.403  1.00  0.00     0.163 HD
ATOM     35  O   UNL A   1      40.598  21.384  27.034  1.00  0.00    -0.269 OA
BRANCH  33  36
ATOM     36  C   UNL A   1      40.315  23.717  27.147  1.00  0.00     0.039 A 
ATOM     37  C   UNL A   1      39.648  24.809  26.593  1.00  0.00     0.014 A 
ATOM     38  C   UNL A   1      41.313  23.894  28.100  1.00  0.00     0.014 A 
ATOM     39  C   UNL A   1      39.910  26.083  27.098  1.00  0.00     0.010 A 
ATOM     40  C   UNL A   1      41.475  25.136  28.681  1.00  0.00     0.010 A 
ATOM     41  C   UNL A   1      40.792  26.246  28.181  1.00  0.00    -0.014 A 
BRANCH  41  42
ATOM     42  C   UNL A   1      40.912  27.558  28.834  1.00  0.00     0.031 A 
ATOM     43  C   UNL A   1      41.969  28.486  28.315  1.00  0.00     0.074 A 
ATOM     44  C   UNL A   1      40.036  28.053  29.735  1.00  0.00     0.049 A 
ATOM     45  N   UNL A   1      43.029  28.906  28.927  1.00  0.00    -0.248 NA
ATOM     46  C   UNL A   1      41.860  28.964  26.928  1.00  0.00     0.031 C 
ATOM     47  C   UNL A   1      38.763  27.490  30.195  1.00  0.00     0.029 A 
ATOM     48  N   UNL A   1      40.079  29.258  30.372  1.00  0.00    -0.354 N 
ATOM     49  C   UNL A   1      43.639  29.833  28.082  1.00  0.00     0.074 A 
ATOM     50  C   UNL A   1      42.941  29.744  26.823  1.00  0.00     0.031 C 
ATOM     51  C   UNL A   1      38.054  28.440  30.840  1.00  0.00     0.029 A 
ATOM     52  C   UNL A   1      38.900  29.606  31.010  1.00  0.00     0.049 A 
ATOM     53  H   UNL A   1      40.879  29.832  30.378  1.00  0.00     0.167 HD
ATOM     54  C   UNL A   1      44.578  30.720  28.523  1.00  0.00     0.037 A 
ATOM     55  C   UNL A   1      38.621  30.767  31.643  1.00  0.00     0.037 A 
ATOM     56  C   UNL A   1      45.049  30.388  29.841  1.00  0.00     0.049 A 
ATOM     57  C   UNL A   1      39.916  31.375  32.037  1.00  0.00     0.074 A 
ATOM     58  C   UNL A   1      45.703  29.309  30.403  1.00  0.00     0.029 A 
ATOM     59  N   UNL A   1      44.559  31.114  30.898  1.00  0.00    -0.354 N 
ATOM     60  N   UNL A   1      40.725  30.859  32.921  1.00  0.00    -0.248 NA
ATOM     61  C   UNL A   1      40.506  32.377  31.166  1.00  0.00     0.031 C 
ATOM     62  C   UNL A   1      45.152  29.184  31.713  1.00  0.00     0.029 A 
ATOM     63  C   UNL A   1      44.226  30.216  31.881  1.00  0.00     0.049 A 
ATOM     64  H   UNL A   1      44.464  32.093  30.944  1.00  0.00     0.167 HD
ATOM     65  C   UNL A   1      41.997  31.149  32.454  1.00  0.00     0.074 A 
ATOM     66  C   UNL A   1      41.797  32.189  31.449  1.00  0.00     0.031 C 
ATOM     67  C   UNL A   1      43.059  30.336  32.729  1.00  0.00     0.037 A 
BRANCH  54  68
ATOM     68  C   UNL A   1      44.884  32.061  27.899  1.00  0.00     0.058 A 
ATOM     69  C   UNL A   1      46.144  32.293  27.304  1.00  0.00     0.135 A 
ATOM     70  C   UNL A   1      44.088  33.208  28.106  1.00  0.00     0.135 A 
ATOM     71  F   UNL A   1      46.988  31.275  27.072  1.00  0.00    -0.206 F 
ATOM     72  C   UNL A   1      46.603  33.575  26.995  1.00  0.00     0.059 A 
ATOM     73  C   UNL A   1      44.506  34.491  27.758  1.00  0.00     0.059 A 
ATOM     74  F   UNL A   1      42.912  33.140  28.742  1.00  0.00    -0.206 F 
ATOM     75  C   UNL A   1      45.782  34.670  27.244  1.00  0.00     0.060 A 
BRANCH  75  76
ATOM     76  S   UNL A   1      46.416  36.334  26.958  1.00  0.00     0.124 S 
ATOM     77  O   UNL A   1      45.180  37.104  26.866  1.00  0.00    -0.237 OA
ATOM     78  O   UNL A   1      47.224  36.566  28.151  1.00  0.00    -0.237 OA
ATOM     79  O   UNL A   1      47.169  36.196  25.716  1.00  0.00    -0.744 OA
ENDBRANCH  75  76
ENDBRANCH  54  68
BRANCH  55  80
ATOM     80  C   UNL A   1      37.326  31.484  31.694  1.00  0.00     0.058 A 
ATOM     81  C   UNL A   1      36.686  31.746  32.914  1.00  0.00     0.135 A 
ATOM     82  C   UNL A   1      36.826  32.164  30.563  1.00  0.00     0.135 A 
ATOM     83  F   UNL A   1      37.111  31.154  34.041  1.00  0.00    -0.206 F 
ATOM     84  C   UNL A   1      35.645  32.671  33.021  1.00  0.00     0.059 A 
ATOM     85  C   UNL A   1      35.782  33.081  30.642  1.00  0.00     0.059 A 
ATOM     86  F   UNL A   1      37.405  32.025  29.360  1.00  0.00    -0.206 F 
ATOM     87  C   UNL A   1      35.215  33.353  31.881  1.00  0.00     0.060 A 
BRANCH  87  88
ATOM     88  S   UNL A   1      34.014  34.692  32.054  1.00  0.00     0.124 S 
ATOM     89  O   UNL A   1      33.074  34.132  33.018  1.00  0.00    -0.237 OA
ATOM     90  O   UNL A   1      34.846  35.790  32.537  1.00  0.00    -0.237 OA
ATOM     91  O   UNL A   1      33.495  34.860  30.698  1.00  0.00    -0.744 OA
ENDBRANCH  87  88
ENDBRANCH  55  80
BRANCH  67  92
ATOM     92  C   UNL A   1      42.911  29.309  33.823  1.00  0.00     0.058 A 
ATOM     93  C   UNL A   1      43.162  29.558  35.183  1.00  0.00     0.135 A 
ATOM     94  C   UNL A   1      42.341  28.068  33.497  1.00  0.00     0.135 A 
ATOM     95  F   UNL A   1      43.604  30.754  35.596  1.00  0.00    -0.206 F 
ATOM     96  C   UNL A   1      42.898  28.605  36.169  1.00  0.00     0.059 A 
ATOM     97  C   UNL A   1      42.042  27.113  34.466  1.00  0.00     0.059 A 
ATOM     98  F   UNL A   1      42.018  27.790  32.223  1.00  0.00    -0.206 F 
ATOM     99  C   UNL A   1      42.334  27.383  35.801  1.00  0.00     0.060 A 
BRANCH  99 100
ATOM    100  S   UNL A   1      41.910  26.188  37.087  1.00  0.00     0.124 S 
ATOM    101  O   UNL A   1      40.589  26.644  37.506  1.00  0.00    -0.237 OA
ATOM    102  O   UNL A   1      41.943  24.918  36.368  1.00  0.00    -0.237 OA
ATOM    103  O   UNL A   1      42.972  26.360  38.076  1.00  0.00    -0.744 OA
ENDBRANCH  99 100
ENDBRANCH  67  92
ENDBRANCH  41  42
ENDBRANCH  33  36
ENDBRANCH   1  32
TORSDOF 15
ENDMDL
MODEL 3
REMARK VINA RESULT:     -13.8      1.698      2.814
REMARK SMILES Cc1cnn(C2(C(=O)NCCCNC(=O)c3ccc(-c4c5nc(c(-c6c(F)cc(S(=O)(=O)[O-])cc6F)c6ccc([nH]6)c(-c6c(F)cc(S(=O)(=O)[O-])cc6F)c6nc(c(-c7c(F)cc(S(=O)(=O)[O-])cc7F)c7ccc4[nH]7)C=C6)C=C5)cc3)CCN(C(=O)c3cc4ccccc4[nH]3)CC2)c1
REMARK SMILES IDX 12 1 11 2 10 3 9 4 7 5 8 6 6 8 82 9 97 10 83 11 96 12 84 13
REMARK SMILES IDX 85 14 86 15 5 16 1 17 2 18 3 19 98 20 4 21 87 22 88 23 95 24
REMARK SMILES IDX 89 25 94 26 90 28 93 29 91 30 92 31 13 32 14 33 15 35 16 36
REMARK SMILES IDX 17 37 81 38 18 39 80 40 19 41 20 42 21 43 74 44 22 45 79 46
REMARK SMILES IDX 73 47 75 48 23 49 78 50 72 51 71 52 24 54 58 55 37 56 57 57
REMARK SMILES IDX 38 58 41 59 56 60 76 61 39 62 40 63 55 65 77 66 42 67 25 68
REMARK SMILES IDX 26 69 35 70 27 71 28 72 34 73 36 74 29 75 30 76 31 77 32 78
REMARK SMILES IDX 33 79 59 80 60 81 69 82 61 83 62 84 68 85 70 86 63 87 64 88
REMARK SMILES IDX 65 89 66 90 67 91 43 92 44 93 53 94 45 95 46 96 52 97 54 98
REMARK SMILES IDX 47 99 48 100 49 101 50 102 51 103
REMARK H PARENT 9 7 95 27 13 34 75 53 41 64
REMARK Flexibility Score: inf
ROOT
ATOM      1  C   UNL A   1      38.733  23.051  26.432  1.00  0.00     0.118 C 
ENDROOT
BRANCH   1   2
ATOM      2  C   UNL A   1      37.801  23.156  25.233  1.00  0.00     0.042 C 
BRANCH   2   3
ATOM      3  C   UNL A   1      36.655  22.149  25.283  1.00  0.00     0.117 C 
BRANCH   3   4
ATOM      4  N   UNL A   1      35.924  22.136  26.547  1.00  0.00    -0.354 N 
ATOM      5  C   UNL A   1      34.605  21.836  26.822  1.00  0.00     0.248 C 
ATOM      6  O   UNL A   1      34.397  21.444  27.973  1.00  0.00    -0.272 OA
ATOM      7  H   UNL A   1      36.461  22.384  27.335  1.00  0.00     0.163 HD
BRANCH   5   8
ATOM      8  C   UNL A   1      33.515  21.860  25.707  1.00  0.00     0.144 C 
ATOM      9  C   UNL A   1      32.106  21.674  26.341  1.00  0.00     0.062 C 
ATOM     10  C   UNL A   1      33.743  23.208  24.951  1.00  0.00     0.062 C 
ATOM     11  C   UNL A   1      31.018  22.300  25.489  1.00  0.00     0.123 C 
ATOM     12  C   UNL A   1      32.497  23.950  24.460  1.00  0.00     0.123 C 
ATOM     13  N   UNL A   1      31.326  23.707  25.288  1.00  0.00    -0.337 N 
ATOM     14  C   UNL A   1      30.606  24.640  26.037  1.00  0.00     0.270 C 
ATOM     15  O   UNL A   1      29.805  24.269  26.895  1.00  0.00    -0.267 OA
BRANCH   8  16
ATOM     16  N   UNL A   1      33.655  20.707  24.760  1.00  0.00    -0.257 N 
ATOM     17  C   UNL A   1      32.158  18.254  22.485  1.00  0.00     0.048 C 
ATOM     18  C   UNL A   1      32.947  19.076  23.427  1.00  0.00    -0.013 A 
ATOM     19  C   UNL A   1      33.962  18.650  24.303  1.00  0.00     0.138 A 
ATOM     20  C   UNL A   1      32.821  20.422  23.697  1.00  0.00     0.113 A 
ATOM     21  N   UNL A   1      34.348  19.611  25.139  1.00  0.00    -0.180 NA
ENDBRANCH   8  16
BRANCH  14  22
ATOM     22  C   UNL A   1      30.856  26.055  25.883  1.00  0.00     0.105 A 
ATOM     23  C   UNL A   1      30.614  26.968  24.872  1.00  0.00     0.042 A 
ATOM     24  N   UNL A   1      31.351  26.781  26.946  1.00  0.00    -0.351 N 
ATOM     25  C   UNL A   1      31.057  28.250  25.309  1.00  0.00     0.000 A 
ATOM     26  C   UNL A   1      31.533  28.097  26.608  1.00  0.00     0.046 A 
ATOM     27  H   UNL A   1      31.550  26.403  27.833  1.00  0.00     0.167 HD
ATOM     28  C   UNL A   1      31.090  29.531  24.727  1.00  0.00     0.010 A 
ATOM     29  C   UNL A   1      32.059  29.154  27.358  1.00  0.00     0.026 A 
ATOM     30  C   UNL A   1      31.613  30.604  25.462  1.00  0.00     0.001 A 
ATOM     31  C   UNL A   1      32.093  30.414  26.756  1.00  0.00     0.002 A 
ENDBRANCH  14  22
ENDBRANCH   5   8
ENDBRANCH   3   4
ENDBRANCH   2   3
ENDBRANCH   1   2
BRANCH   1  32
ATOM     32  N   UNL A   1      39.895  22.196  26.186  1.00  0.00    -0.352 N 
ATOM     33  C   UNL A   1      41.217  22.598  26.070  1.00  0.00     0.251 C 
ATOM     34  H   UNL A   1      39.720  21.232  26.093  1.00  0.00     0.163 HD
ATOM     35  O   UNL A   1      42.057  21.871  25.571  1.00  0.00    -0.269 OA
BRANCH  33  36
ATOM     36  C   UNL A   1      41.557  23.954  26.541  1.00  0.00     0.039 A 
ATOM     37  C   UNL A   1      41.275  25.069  25.752  1.00  0.00     0.014 A 
ATOM     38  C   UNL A   1      42.012  24.097  27.849  1.00  0.00     0.014 A 
ATOM     39  C   UNL A   1      41.338  26.336  26.333  1.00  0.00     0.010 A 
ATOM     40  C   UNL A   1      41.950  25.338  28.450  1.00  0.00     0.010 A 
ATOM     41  C   UNL A   1      41.630  26.473  27.701  1.00  0.00    -0.014 A 
BRANCH  41  42
ATOM     42  C   UNL A   1      41.502  27.787  28.348  1.00  0.00     0.031 A 
ATOM     43  C   UNL A   1      42.588  28.787  28.086  1.00  0.00     0.074 A 
ATOM     44  C   UNL A   1      40.404  28.218  29.007  1.00  0.00     0.049 A 
ATOM     45  N   UNL A   1      43.439  29.275  28.930  1.00  0.00    -0.248 NA
ATOM     46  C   UNL A   1      42.784  29.262  26.709  1.00  0.00     0.031 C 
ATOM     47  C   UNL A   1      39.099  27.567  29.154  1.00  0.00     0.029 A 
ATOM     48  N   UNL A   1      40.212  29.420  29.621  1.00  0.00    -0.354 N 
ATOM     49  C   UNL A   1      44.172  30.245  28.245  1.00  0.00     0.074 A 
ATOM     50  C   UNL A   1      43.803  30.114  26.857  1.00  0.00     0.031 C 
ATOM     51  C   UNL A   1      38.194  28.465  29.599  1.00  0.00     0.029 A 
ATOM     52  C   UNL A   1      38.894  29.684  29.953  1.00  0.00     0.049 A 
ATOM     53  H   UNL A   1      40.947  30.046  29.812  1.00  0.00     0.167 HD
ATOM     54  C   UNL A   1      44.916  31.192  28.888  1.00  0.00     0.037 A 
ATOM     55  C   UNL A   1      38.394  30.820  30.487  1.00  0.00     0.037 A 
ATOM     56  C   UNL A   1      45.077  30.886  30.285  1.00  0.00     0.049 A 
ATOM     57  C   UNL A   1      39.512  31.513  31.172  1.00  0.00     0.074 A 
ATOM     58  C   UNL A   1      45.647  29.852  31.000  1.00  0.00     0.029 A 
ATOM     59  N   UNL A   1      44.300  31.573  31.185  1.00  0.00    -0.354 N 
ATOM     60  N   UNL A   1      40.118  31.049  32.231  1.00  0.00    -0.248 NA
ATOM     61  C   UNL A   1      40.226  32.557  30.457  1.00  0.00     0.031 C 
ATOM     62  C   UNL A   1      44.807  29.684  32.141  1.00  0.00     0.029 A 
ATOM     63  C   UNL A   1      43.802  30.650  32.069  1.00  0.00     0.049 A 
ATOM     64  H   UNL A   1      44.132  32.543  31.194  1.00  0.00     0.167 HD
ATOM     65  C   UNL A   1      41.443  31.428  32.079  1.00  0.00     0.074 A 
ATOM     66  C   UNL A   1      41.421  32.455  31.043  1.00  0.00     0.031 C 
ATOM     67  C   UNL A   1      42.460  30.687  32.611  1.00  0.00     0.037 A 
BRANCH  54  68
ATOM     68  C   UNL A   1      45.272  32.553  28.340  1.00  0.00     0.058 A 
ATOM     69  C   UNL A   1      46.627  32.905  28.150  1.00  0.00     0.135 A 
ATOM     70  C   UNL A   1      44.348  33.616  28.252  1.00  0.00     0.135 A 
ATOM     71  F   UNL A   1      47.591  31.975  28.223  1.00  0.00    -0.206 F 
ATOM     72  C   UNL A   1      47.037  34.225  27.950  1.00  0.00     0.059 A 
ATOM     73  C   UNL A   1      44.731  34.932  28.004  1.00  0.00     0.059 A 
ATOM     74  F   UNL A   1      43.045  33.435  28.501  1.00  0.00    -0.206 F 
ATOM     75  C   UNL A   1      46.080  35.235  27.897  1.00  0.00     0.060 A 
BRANCH  75  76
ATOM     76  S   UNL A   1      46.614  36.952  27.759  1.00  0.00     0.124 S 
ATOM     77  O   UNL A   1      45.396  37.597  27.280  1.00  0.00    -0.237 OA
ATOM     78  O   UNL A   1      47.005  37.265  29.130  1.00  0.00    -0.237 OA
ATOM     79  O   UNL A   1      47.713  36.885  26.802  1.00  0.00    -0.744 OA
ENDBRANCH  75  76
ENDBRANCH  54  68
BRANCH  55  80
ATOM     80  C   UNL A   1      37.080  31.448  30.216  1.00  0.00     0.058 A 
ATOM     81  C   UNL A   1      36.384  32.143  31.217  1.00  0.00     0.135 A 
ATOM     82  C   UNL A   1      36.608  31.609  28.896  1.00  0.00     0.135 A 
ATOM     83  F   UNL A   1      36.779  32.057  32.497  1.00  0.00    -0.206 F 
ATOM     84  C   UNL A   1      35.316  32.993  30.923  1.00  0.00     0.059 A 
ATOM     85  C   UNL A   1      35.539  32.442  28.579  1.00  0.00     0.059 A 
ATOM     86  F   UNL A   1      37.238  31.032  27.861  1.00  0.00    -0.206 F 
ATOM     87  C   UNL A   1      34.915  33.155  29.596  1.00  0.00     0.060 A 
BRANCH  87  88
ATOM     88  S   UNL A   1      33.674  34.406  29.195  1.00  0.00     0.124 S 
ATOM     89  O   UNL A   1      34.488  35.457  28.595  1.00  0.00    -0.237 OA
ATOM     90  O   UNL A   1      32.791  33.683  28.285  1.00  0.00    -0.237 OA
ATOM     91  O   UNL A   1      33.090  34.733  30.495  1.00  0.00    -0.744 OA
ENDBRANCH  87  88
ENDBRANCH  55  80
BRANCH  67  92
ATOM     92  C   UNL A   1      42.122  29.647  33.650  1.00  0.00     0.058 A 
ATOM     93  C   UNL A   1      41.708  28.337  33.353  1.00  0.00     0.135 A 
ATOM     94  C   UNL A   1      42.378  29.945  34.997  1.00  0.00     0.135 A 
ATOM     95  F   UNL A   1      41.544  27.935  32.085  1.00  0.00    -0.206 F 
ATOM     96  C   UNL A   1      41.519  27.379  34.352  1.00  0.00     0.059 A 
ATOM     97  C   UNL A   1      42.225  28.998  36.008  1.00  0.00     0.059 A 
ATOM     98  F   UNL A   1      42.836  31.160  35.342  1.00  0.00    -0.206 F 
ATOM     99  C   UNL A   1      41.782  27.718  35.679  1.00  0.00     0.060 A 
BRANCH  99 100
ATOM    100  S   UNL A   1      41.625  26.453  36.958  1.00  0.00     0.124 S 
ATOM    101  O   UNL A   1      41.597  25.223  36.173  1.00  0.00    -0.237 OA
ATOM    102  O   UNL A   1      42.824  26.661  37.765  1.00  0.00    -0.237 OA
ATOM    103  O   UNL A   1      40.370  26.796  37.624  1.00  0.00    -0.744 OA
ENDBRANCH  99 100
ENDBRANCH  67  92
ENDBRANCH  41  42
ENDBRANCH  33  36
ENDBRANCH   1  32
TORSDOF 15
ENDMDL
