MODEL 1
REMARK VINA RESULT:     -11.6      0.000      0.000
REMARK SMILES CC1(NC(=O)c2csc(/C=C/C(=O)NCCCNC(=O)c3ccc(-c4c5nc(c(-c6c(F)cc(S(=O)(=O)[O-])cc6F)c6ccc([nH]6)c(-c6c(F)cc(S(=O)(=O)[O-])cc6F)c6nc(c(-c7c(F)cc(S(=O)(=O)[O-])cc7F)c7ccc4[nH]7)C=C6)C=C5)cc3)c2)CCCCC1
REMARK SMILES IDX 16 1 15 2 14 3 12 4 13 5 11 7 10 8 9 9 6 10 7 11 87 12 8 13
REMARK SMILES IDX 4 14 3 15 5 17 2 18 1 19 88 20 92 21 89 22 91 23 90 24 17 25
REMARK SMILES IDX 18 26 19 27 20 29 21 30 22 31 86 32 23 33 85 34 24 35 25 36
REMARK SMILES IDX 26 37 79 38 27 39 84 40 78 41 80 42 28 43 83 44 77 45 76 46
REMARK SMILES IDX 29 48 63 49 42 50 62 51 43 52 46 53 61 54 81 55 44 56 45 57
REMARK SMILES IDX 60 59 82 60 47 61 30 62 31 63 40 64 32 65 33 66 39 67 41 68
REMARK SMILES IDX 34 69 35 70 36 71 37 72 38 73 64 74 65 75 74 76 66 77 67 78
REMARK SMILES IDX 73 79 75 80 68 81 69 82 70 83 71 84 72 85 48 86 49 87 58 88
REMARK SMILES IDX 50 89 51 90 57 91 59 92 52 93 53 94 54 95 55 96 56 97
REMARK H PARENT 14 6 3 16 18 28 80 47 46 58
REMARK Flexibility Score: inf
ROOT
ATOM      1  C   UNL A   1      44.678  23.087  26.755  1.00  0.00     0.042 C 
ENDROOT
BRANCH   1   2
ATOM      2  C   UNL A   1      44.116  22.046  25.788  1.00  0.00     0.118 C 
BRANCH   2   3
ATOM      3  N   UNL A   1      43.514  20.928  26.502  1.00  0.00    -0.352 N 
ATOM      4  C   UNL A   1      42.210  20.590  26.687  1.00  0.00     0.244 C 
ATOM      5  O   UNL A   1      41.927  19.520  27.221  1.00  0.00    -0.270 OA
ATOM      6  H   UNL A   1      44.161  20.314  26.919  1.00  0.00     0.163 HD
BRANCH   4   7
ATOM      7  C   UNL A   1      41.127  21.450  26.166  1.00  0.00     0.072 C 
ATOM      8  C   UNL A   1      39.836  21.236  26.451  1.00  0.00     0.024 C 
BRANCH   8   9
ATOM      9  C   UNL A   1      38.769  22.066  25.998  1.00  0.00     0.028 A 
ATOM     10  C   UNL A   1      36.967  22.799  24.662  1.00  0.00     0.051 A 
ATOM     11  C   UNL A   1      37.180  23.903  25.458  1.00  0.00     0.079 A 
ATOM     12  C   UNL A   1      37.819  21.718  25.056  1.00  0.00     0.033 A 
ATOM     13  S   UNL A   1      38.493  23.679  26.534  1.00  0.00    -0.144 S 
BRANCH  10  14
ATOM     14  C   UNL A   1      35.964  22.691  23.625  1.00  0.00     0.252 C 
ATOM     15  N   UNL A   1      34.690  22.299  23.942  1.00  0.00    -0.347 N 
ATOM     16  H   UNL A   1      34.033  22.620  23.283  1.00  0.00     0.164 HD
ATOM     17  O   UNL A   1      36.198  23.053  22.476  1.00  0.00    -0.269 OA
BRANCH  15  18
ATOM     18  C   UNL A   1      34.051  21.516  25.027  1.00  0.00     0.038 C 
ATOM     19  C   UNL A   1      34.501  20.053  24.843  1.00  0.00     0.034 C 
ATOM     20  C   UNL A   1      34.340  21.941  26.483  1.00  0.00     0.028 C 
ATOM     21  C   UNL A   1      32.514  21.591  24.819  1.00  0.00     0.028 C 
ATOM     22  C   UNL A   1      33.773  23.310  26.850  1.00  0.00     0.002 C 
ATOM     23  C   UNL A   1      31.941  22.971  25.164  1.00  0.00     0.002 C 
ATOM     24  C   UNL A   1      32.276  23.379  26.594  1.00  0.00     0.000 C 
ENDBRANCH  15  18
ENDBRANCH  10  14
ENDBRANCH   8   9
ENDBRANCH   4   7
ENDBRANCH   2   3
ENDBRANCH   1   2
BRANCH   1  25
ATOM     25  C   UNL A   1      43.663  24.161  27.146  1.00  0.00     0.118 C 
BRANCH  25  26
ATOM     26  N   UNL A   1      42.865  24.597  26.009  1.00  0.00    -0.352 N 
ATOM     27  C   UNL A   1      41.861  25.530  25.937  1.00  0.00     0.251 C 
ATOM     28  H   UNL A   1      43.080  24.154  25.156  1.00  0.00     0.163 HD
ATOM     29  O   UNL A   1      41.165  25.584  24.925  1.00  0.00    -0.269 OA
BRANCH  27  30
ATOM     30  C   UNL A   1      41.602  26.456  27.063  1.00  0.00     0.039 A 
ATOM     31  C   UNL A   1      40.699  26.069  28.058  1.00  0.00     0.014 A 
ATOM     32  C   UNL A   1      42.205  27.716  27.117  1.00  0.00     0.014 A 
ATOM     33  C   UNL A   1      40.444  26.922  29.134  1.00  0.00     0.010 A 
ATOM     34  C   UNL A   1      41.999  28.538  28.224  1.00  0.00     0.010 A 
ATOM     35  C   UNL A   1      41.116  28.151  29.242  1.00  0.00    -0.014 A 
BRANCH  35  36
ATOM     36  C   UNL A   1      40.916  29.035  30.419  1.00  0.00     0.031 A 
ATOM     37  C   UNL A   1      41.755  28.858  31.656  1.00  0.00     0.074 A 
ATOM     38  C   UNL A   1      39.931  29.954  30.396  1.00  0.00     0.049 A 
ATOM     39  N   UNL A   1      41.673  29.480  32.804  1.00  0.00    -0.248 NA
ATOM     40  C   UNL A   1      42.806  27.830  31.605  1.00  0.00     0.031 C 
ATOM     41  C   UNL A   1      39.021  30.189  29.271  1.00  0.00     0.029 A 
ATOM     42  N   UNL A   1      39.518  30.854  31.347  1.00  0.00    -0.354 N 
ATOM     43  C   UNL A   1      42.649  28.911  33.615  1.00  0.00     0.074 A 
ATOM     44  C   UNL A   1      43.280  27.863  32.842  1.00  0.00     0.031 C 
ATOM     45  C   UNL A   1      38.171  31.177  29.592  1.00  0.00     0.029 A 
ATOM     46  C   UNL A   1      38.448  31.621  30.954  1.00  0.00     0.049 A 
ATOM     47  H   UNL A   1      39.949  30.940  32.228  1.00  0.00     0.167 HD
ATOM     48  C   UNL A   1      43.001  29.247  34.880  1.00  0.00     0.037 A 
ATOM     49  C   UNL A   1      37.760  32.570  31.618  1.00  0.00     0.037 A 
ATOM     50  C   UNL A   1      42.385  30.308  35.634  1.00  0.00     0.049 A 
ATOM     51  C   UNL A   1      38.170  32.926  33.020  1.00  0.00     0.074 A 
ATOM     52  C   UNL A   1      42.710  30.766  36.900  1.00  0.00     0.029 A 
ATOM     53  N   UNL A   1      41.319  31.079  35.193  1.00  0.00    -0.354 N 
ATOM     54  N   UNL A   1      39.135  32.418  33.750  1.00  0.00    -0.248 NA
ATOM     55  C   UNL A   1      37.404  33.986  33.688  1.00  0.00     0.031 C 
ATOM     56  C   UNL A   1      41.814  31.785  37.240  1.00  0.00     0.029 A 
ATOM     57  C   UNL A   1      40.960  31.994  36.168  1.00  0.00     0.049 A 
ATOM     58  H   UNL A   1      40.881  30.988  34.315  1.00  0.00     0.167 HD
ATOM     59  C   UNL A   1      39.106  33.111  34.955  1.00  0.00     0.074 A 
ATOM     60  C   UNL A   1      38.037  34.084  34.850  1.00  0.00     0.031 C 
ATOM     61  C   UNL A   1      39.893  32.958  36.047  1.00  0.00     0.037 A 
BRANCH  48  62
ATOM     62  C   UNL A   1      44.107  28.459  35.529  1.00  0.00     0.058 A 
ATOM     63  C   UNL A   1      45.452  28.842  35.409  1.00  0.00     0.135 A 
ATOM     64  C   UNL A   1      43.816  27.329  36.310  1.00  0.00     0.135 A 
ATOM     65  F   UNL A   1      45.788  29.906  34.663  1.00  0.00    -0.206 F 
ATOM     66  C   UNL A   1      46.473  28.115  36.014  1.00  0.00     0.059 A 
ATOM     67  C   UNL A   1      44.819  26.602  36.947  1.00  0.00     0.059 A 
ATOM     68  F   UNL A   1      42.547  26.919  36.460  1.00  0.00    -0.206 F 
ATOM     69  C   UNL A   1      46.146  26.995  36.780  1.00  0.00     0.060 A 
BRANCH  69  70
ATOM     70  S   UNL A   1      47.482  26.064  37.560  1.00  0.00     0.124 S 
ATOM     71  O   UNL A   1      47.823  26.931  38.683  1.00  0.00    -0.237 OA
ATOM     72  O   UNL A   1      46.825  24.807  37.908  1.00  0.00    -0.237 OA
ATOM     73  O   UNL A   1      48.490  25.970  36.509  1.00  0.00    -0.744 OA
ENDBRANCH  69  70
ENDBRANCH  48  62
BRANCH  49  74
ATOM     74  C   UNL A   1      36.623  33.262  30.955  1.00  0.00     0.058 A 
ATOM     75  C   UNL A   1      35.298  32.958  31.293  1.00  0.00     0.135 A 
ATOM     76  C   UNL A   1      36.840  34.255  29.987  1.00  0.00     0.135 A 
ATOM     77  F   UNL A   1      35.041  32.012  32.209  1.00  0.00    -0.206 F 
ATOM     78  C   UNL A   1      34.223  33.602  30.687  1.00  0.00     0.059 A 
ATOM     79  C   UNL A   1      35.783  34.931  29.384  1.00  0.00     0.059 A 
ATOM     80  F   UNL A   1      38.091  34.597  29.640  1.00  0.00    -0.206 F 
ATOM     81  C   UNL A   1      34.478  34.590  29.735  1.00  0.00     0.060 A 
BRANCH  81  82
ATOM     82  S   UNL A   1      33.079  35.460  28.992  1.00  0.00     0.124 S 
ATOM     83  O   UNL A   1      32.479  34.408  28.180  1.00  0.00    -0.237 OA
ATOM     84  O   UNL A   1      32.317  35.873  30.166  1.00  0.00    -0.237 OA
ATOM     85  O   UNL A   1      33.715  36.546  28.254  1.00  0.00    -0.744 OA
ENDBRANCH  81  82
ENDBRANCH  49  74
BRANCH  61  86
ATOM     86  C   UNL A   1      39.646  33.878  37.210  1.00  0.00     0.058 A 
ATOM     87  C   UNL A   1      38.831  33.499  38.288  1.00  0.00     0.135 A 
ATOM     88  C   UNL A   1      40.271  35.134  37.269  1.00  0.00     0.135 A 
ATOM     89  F   UNL A   1      38.205  32.312  38.278  1.00  0.00    -0.206 F 
ATOM     90  C   UNL A   1      38.626  34.343  39.375  1.00  0.00     0.059 A 
ATOM     91  C   UNL A   1      40.100  35.983  38.357  1.00  0.00     0.059 A 
ATOM     92  F   UNL A   1      41.067  35.540  36.268  1.00  0.00    -0.206 F 
ATOM     93  C   UNL A   1      39.266  35.584  39.401  1.00  0.00     0.060 A 
BRANCH  93  94
ATOM     94  S   UNL A   1      39.019  36.657  40.831  1.00  0.00     0.124 S 
ATOM     95  O   UNL A   1      38.007  35.919  41.579  1.00  0.00    -0.237 OA
ATOM     96  O   UNL A   1      40.350  36.692  41.431  1.00  0.00    -0.237 OA
ATOM     97  O   UNL A   1      38.573  37.914  40.239  1.00  0.00    -0.744 OA
ENDBRANCH  93  94
ENDBRANCH  61  86
ENDBRANCH  35  36
ENDBRANCH  27  30
ENDBRANCH  25  26
ENDBRANCH   1  25
TORSDOF 16
ENDMDL
MODEL 2
REMARK VINA RESULT:     -11.6      6.630     12.451
REMARK SMILES CC1(NC(=O)c2csc(/C=C/C(=O)NCCCNC(=O)c3ccc(-c4c5nc(c(-c6c(F)cc(S(=O)(=O)[O-])cc6F)c6ccc([nH]6)c(-c6c(F)cc(S(=O)(=O)[O-])cc6F)c6nc(c(-c7c(F)cc(S(=O)(=O)[O-])cc7F)c7ccc4[nH]7)C=C6)C=C5)cc3)c2)CCCCC1
REMARK SMILES IDX 16 1 15 2 14 3 12 4 13 5 11 7 10 8 9 9 6 10 7 11 87 12 8 13
REMARK SMILES IDX 4 14 3 15 5 17 2 18 1 19 88 20 92 21 89 22 91 23 90 24 17 25
REMARK SMILES IDX 18 26 19 27 20 29 21 30 22 31 86 32 23 33 85 34 24 35 25 36
REMARK SMILES IDX 26 37 79 38 27 39 84 40 78 41 80 42 28 43 83 44 77 45 76 46
REMARK SMILES IDX 29 48 63 49 42 50 62 51 43 52 46 53 61 54 81 55 44 56 45 57
REMARK SMILES IDX 60 59 82 60 47 61 30 62 31 63 40 64 32 65 33 66 39 67 41 68
REMARK SMILES IDX 34 69 35 70 36 71 37 72 38 73 64 74 65 75 74 76 66 77 67 78
REMARK SMILES IDX 73 79 75 80 68 81 69 82 70 83 71 84 72 85 48 86 49 87 58 88
REMARK SMILES IDX 50 89 51 90 57 91 59 92 52 93 53 94 54 95 55 96 56 97
REMARK H PARENT 14 6 3 16 18 28 80 47 46 58
REMARK Flexibility Score: inf
ROOT
ATOM      1  C   UNL A   1      34.261  29.444  26.466  1.00  0.00     0.042 C 
ENDROOT
BRANCH   1   2
ATOM      2  C   UNL A   1      32.802  29.787  26.758  1.00  0.00     0.118 C 
BRANCH   2   3
ATOM      3  N   UNL A   1      32.062  30.052  25.532  1.00  0.00    -0.352 N 
ATOM      4  C   UNL A   1      31.261  29.246  24.785  1.00  0.00     0.244 C 
ATOM      5  O   UNL A   1      30.625  29.718  23.846  1.00  0.00    -0.270 OA
ATOM      6  H   UNL A   1      32.157  30.969  25.188  1.00  0.00     0.163 HD
BRANCH   4   7
ATOM      7  C   UNL A   1      31.071  27.826  25.149  1.00  0.00     0.072 C 
ATOM      8  C   UNL A   1      31.967  26.878  24.847  1.00  0.00     0.024 C 
BRANCH   8   9
ATOM      9  C   UNL A   1      31.835  25.506  25.215  1.00  0.00     0.028 A 
ATOM     10  C   UNL A   1      32.391  23.422  26.171  1.00  0.00     0.051 A 
ATOM     11  C   UNL A   1      31.276  23.092  25.433  1.00  0.00     0.079 A 
ATOM     12  C   UNL A   1      32.636  24.832  26.117  1.00  0.00     0.033 A 
ATOM     13  S   UNL A   1      30.655  24.433  24.569  1.00  0.00    -0.144 S 
BRANCH  10  14
ATOM     14  C   UNL A   1      33.171  22.504  26.973  1.00  0.00     0.252 C 
ATOM     15  N   UNL A   1      34.172  21.770  26.397  1.00  0.00    -0.347 N 
ATOM     16  H   UNL A   1      34.852  21.497  27.054  1.00  0.00     0.164 HD
ATOM     17  O   UNL A   1      33.029  22.451  28.191  1.00  0.00    -0.269 OA
BRANCH  15  18
ATOM     18  C   UNL A   1      34.492  21.282  25.033  1.00  0.00     0.038 C 
ATOM     19  C   UNL A   1      33.522  20.121  24.738  1.00  0.00     0.034 C 
ATOM     20  C   UNL A   1      34.413  22.298  23.873  1.00  0.00     0.028 C 
ATOM     21  C   UNL A   1      35.941  20.723  25.062  1.00  0.00     0.028 C 
ATOM     22  C   UNL A   1      35.460  23.406  23.951  1.00  0.00     0.002 C 
ATOM     23  C   UNL A   1      36.996  21.830  25.163  1.00  0.00     0.002 C 
ATOM     24  C   UNL A   1      36.868  22.838  24.026  1.00  0.00     0.000 C 
ENDBRANCH  15  18
ENDBRANCH  10  14
ENDBRANCH   8   9
ENDBRANCH   4   7
ENDBRANCH   2   3
ENDBRANCH   1   2
BRANCH   1  25
ATOM     25  C   UNL A   1      35.045  29.019  27.708  1.00  0.00     0.118 C 
BRANCH  25  26
ATOM     26  N   UNL A   1      35.116  30.085  28.697  1.00  0.00    -0.352 N 
ATOM     27  C   UNL A   1      36.166  30.500  29.478  1.00  0.00     0.251 C 
ATOM     28  H   UNL A   1      34.280  30.589  28.827  1.00  0.00     0.163 HD
ATOM     29  O   UNL A   1      35.951  31.272  30.410  1.00  0.00    -0.269 OA
BRANCH  27  30
ATOM     30  C   UNL A   1      37.542  30.022  29.216  1.00  0.00     0.039 A 
ATOM     31  C   UNL A   1      37.991  29.955  27.893  1.00  0.00     0.014 A 
ATOM     32  C   UNL A   1      38.371  29.595  30.257  1.00  0.00     0.014 A 
ATOM     33  C   UNL A   1      39.288  29.514  27.620  1.00  0.00     0.010 A 
ATOM     34  C   UNL A   1      39.686  29.218  29.989  1.00  0.00     0.010 A 
ATOM     35  C   UNL A   1      40.157  29.172  28.669  1.00  0.00    -0.014 A 
BRANCH  35  36
ATOM     36  C   UNL A   1      41.564  28.776  28.402  1.00  0.00     0.031 A 
ATOM     37  C   UNL A   1      42.658  29.809  28.400  1.00  0.00     0.074 A 
ATOM     38  C   UNL A   1      41.844  27.494  28.095  1.00  0.00     0.049 A 
ATOM     39  N   UNL A   1      43.927  29.667  28.113  1.00  0.00    -0.248 NA
ATOM     40  C   UNL A   1      42.272  31.187  28.740  1.00  0.00     0.031 C 
ATOM     41  C   UNL A   1      40.861  26.410  28.019  1.00  0.00     0.029 A 
ATOM     42  N   UNL A   1      43.031  26.885  27.775  1.00  0.00    -0.354 N 
ATOM     43  C   UNL A   1      44.486  30.935  28.224  1.00  0.00     0.074 A 
ATOM     44  C   UNL A   1      43.410  31.842  28.559  1.00  0.00     0.031 C 
ATOM     45  C   UNL A   1      41.488  25.269  27.692  1.00  0.00     0.029 A 
ATOM     46  C   UNL A   1      42.908  25.544  27.498  1.00  0.00     0.049 A 
ATOM     47  H   UNL A   1      43.891  27.365  27.747  1.00  0.00     0.167 HD
ATOM     48  C   UNL A   1      45.782  31.305  28.080  1.00  0.00     0.037 A 
ATOM     49  C   UNL A   1      43.832  24.640  27.122  1.00  0.00     0.037 A 
ATOM     50  C   UNL A   1      46.852  30.392  27.771  1.00  0.00     0.049 A 
ATOM     51  C   UNL A   1      45.264  25.073  26.970  1.00  0.00     0.074 A 
ATOM     52  C   UNL A   1      48.206  30.658  27.662  1.00  0.00     0.029 A 
ATOM     53  N   UNL A   1      46.691  29.037  27.520  1.00  0.00    -0.354 N 
ATOM     54  N   UNL A   1      45.784  26.266  27.136  1.00  0.00    -0.248 NA
ATOM     55  C   UNL A   1      46.234  24.041  26.584  1.00  0.00     0.031 C 
ATOM     56  C   UNL A   1      48.858  29.472  27.306  1.00  0.00     0.029 A 
ATOM     57  C   UNL A   1      47.917  28.458  27.237  1.00  0.00     0.049 A 
ATOM     58  H   UNL A   1      45.830  28.558  27.539  1.00  0.00     0.167 HD
ATOM     59  C   UNL A   1      47.146  26.123  26.898  1.00  0.00     0.074 A 
ATOM     60  C   UNL A   1      47.371  24.726  26.588  1.00  0.00     0.031 C 
ATOM     61  C   UNL A   1      48.123  27.063  26.933  1.00  0.00     0.037 A 
BRANCH  48  62
ATOM     62  C   UNL A   1      46.116  32.762  28.259  1.00  0.00     0.058 A 
ATOM     63  C   UNL A   1      46.534  33.274  29.497  1.00  0.00     0.135 A 
ATOM     64  C   UNL A   1      46.053  33.649  27.172  1.00  0.00     0.135 A 
ATOM     65  F   UNL A   1      46.599  32.474  30.573  1.00  0.00    -0.206 F 
ATOM     66  C   UNL A   1      46.847  34.620  29.660  1.00  0.00     0.059 A 
ATOM     67  C   UNL A   1      46.388  34.994  27.305  1.00  0.00     0.059 A 
ATOM     68  F   UNL A   1      45.661  33.212  25.965  1.00  0.00    -0.206 F 
ATOM     69  C   UNL A   1      46.769  35.473  28.557  1.00  0.00     0.060 A 
BRANCH  69  70
ATOM     70  S   UNL A   1      47.181  37.216  28.784  1.00  0.00     0.124 S 
ATOM     71  O   UNL A   1      48.624  37.150  28.986  1.00  0.00    -0.237 OA
ATOM     72  O   UNL A   1      46.745  37.807  27.523  1.00  0.00    -0.237 OA
ATOM     73  O   UNL A   1      46.399  37.600  29.955  1.00  0.00    -0.744 OA
ENDBRANCH  69  70
ENDBRANCH  48  62
BRANCH  49  74
ATOM     74  C   UNL A   1      43.431  23.228  26.881  1.00  0.00     0.058 A 
ATOM     75  C   UNL A   1      43.374  22.707  25.580  1.00  0.00     0.135 A 
ATOM     76  C   UNL A   1      43.119  22.368  27.945  1.00  0.00     0.135 A 
ATOM     77  F   UNL A   1      43.659  23.494  24.531  1.00  0.00    -0.206 F 
ATOM     78  C   UNL A   1      43.008  21.386  25.339  1.00  0.00     0.059 A 
ATOM     79  C   UNL A   1      42.774  21.036  27.731  1.00  0.00     0.059 A 
ATOM     80  F   UNL A   1      43.176  22.812  29.210  1.00  0.00    -0.206 F 
ATOM     81  C   UNL A   1      42.713  20.558  26.423  1.00  0.00     0.060 A 
BRANCH  81  82
ATOM     82  S   UNL A   1      42.292  18.831  26.104  1.00  0.00     0.124 S 
ATOM     83  O   UNL A   1      40.881  18.933  25.752  1.00  0.00    -0.237 OA
ATOM     84  O   UNL A   1      43.199  18.489  25.014  1.00  0.00    -0.237 OA
ATOM     85  O   UNL A   1      42.581  18.176  27.376  1.00  0.00    -0.744 OA
ENDBRANCH  81  82
ENDBRANCH  49  74
BRANCH  61  86
ATOM     86  C   UNL A   1      49.528  26.608  26.653  1.00  0.00     0.058 A 
ATOM     87  C   UNL A   1      50.342  26.070  27.662  1.00  0.00     0.135 A 
ATOM     88  C   UNL A   1      50.049  26.666  25.350  1.00  0.00     0.135 A 
ATOM     89  F   UNL A   1      49.894  25.998  28.925  1.00  0.00    -0.206 F 
ATOM     90  C   UNL A   1      51.632  25.625  27.394  1.00  0.00     0.059 A 
ATOM     91  C   UNL A   1      51.327  26.204  25.054  1.00  0.00     0.059 A 
ATOM     92  F   UNL A   1      49.307  27.163  24.348  1.00  0.00    -0.206 F 
ATOM     93  C   UNL A   1      52.116  25.696  26.085  1.00  0.00     0.060 A 
BRANCH  93  94
ATOM     94  S   UNL A   1      53.781  25.086  25.742  1.00  0.00     0.124 S 
ATOM     95  O   UNL A   1      53.514  23.700  25.371  1.00  0.00    -0.237 OA
ATOM     96  O   UNL A   1      54.218  25.960  24.657  1.00  0.00    -0.237 OA
ATOM     97  O   UNL A   1      54.479  25.275  27.010  1.00  0.00    -0.744 OA
ENDBRANCH  93  94
ENDBRANCH  61  86
ENDBRANCH  35  36
ENDBRANCH  27  30
ENDBRANCH  25  26
ENDBRANCH   1  25
TORSDOF 16
ENDMDL
MODEL 3
REMARK VINA RESULT:     -11.5      2.384      3.504
REMARK SMILES CC1(NC(=O)c2csc(/C=C/C(=O)NCCCNC(=O)c3ccc(-c4c5nc(c(-c6c(F)cc(S(=O)(=O)[O-])cc6F)c6ccc([nH]6)c(-c6c(F)cc(S(=O)(=O)[O-])cc6F)c6nc(c(-c7c(F)cc(S(=O)(=O)[O-])cc7F)c7ccc4[nH]7)C=C6)C=C5)cc3)c2)CCCCC1
REMARK SMILES IDX 16 1 15 2 14 3 12 4 13 5 11 7 10 8 9 9 6 10 7 11 87 12 8 13
REMARK SMILES IDX 4 14 3 15 5 17 2 18 1 19 88 20 92 21 89 22 91 23 90 24 17 25
REMARK SMILES IDX 18 26 19 27 20 29 21 30 22 31 86 32 23 33 85 34 24 35 25 36
REMARK SMILES IDX 26 37 79 38 27 39 84 40 78 41 80 42 28 43 83 44 77 45 76 46
REMARK SMILES IDX 29 48 63 49 42 50 62 51 43 52 46 53 61 54 81 55 44 56 45 57
REMARK SMILES IDX 60 59 82 60 47 61 30 62 31 63 40 64 32 65 33 66 39 67 41 68
REMARK SMILES IDX 34 69 35 70 36 71 37 72 38 73 64 74 65 75 74 76 66 77 67 78
REMARK SMILES IDX 73 79 75 80 68 81 69 82 70 83 71 84 72 85 48 86 49 87 58 88
REMARK SMILES IDX 50 89 51 90 57 91 59 92 52 93 53 94 54 95 55 96 56 97
REMARK H PARENT 14 6 3 16 18 28 80 47 46 58
REMARK Flexibility Score: inf
ROOT
ATOM      1  C   UNL A   1      39.252  22.039  26.349  1.00  0.00     0.042 C 
ENDROOT
BRANCH   1   2
ATOM      2  C   UNL A   1      37.989  22.353  25.550  1.00  0.00     0.118 C 
BRANCH   2   3
ATOM      3  N   UNL A   1      36.794  21.885  26.238  1.00  0.00    -0.352 N 
ATOM      4  C   UNL A   1      35.498  22.287  26.145  1.00  0.00     0.244 C 
ATOM      5  O   UNL A   1      34.620  21.659  26.731  1.00  0.00    -0.270 OA
ATOM      6  H   UNL A   1      36.951  21.153  26.878  1.00  0.00     0.163 HD
BRANCH   4   7
ATOM      7  C   UNL A   1      35.121  23.414  25.267  1.00  0.00     0.072 C 
ATOM      8  C   UNL A   1      33.970  23.443  24.584  1.00  0.00     0.024 C 
BRANCH   8   9
ATOM      9  C   UNL A   1      33.556  24.529  23.758  1.00  0.00     0.028 A 
ATOM     10  C   UNL A   1      33.284  26.756  23.025  1.00  0.00     0.051 A 
ATOM     11  C   UNL A   1      32.453  26.082  22.157  1.00  0.00     0.079 A 
ATOM     12  C   UNL A   1      33.988  25.838  23.869  1.00  0.00     0.033 A 
ATOM     13  S   UNL A   1      32.409  24.401  22.481  1.00  0.00    -0.144 S 
BRANCH  10  14
ATOM     14  C   UNL A   1      33.503  28.186  23.040  1.00  0.00     0.252 C 
ATOM     15  N   UNL A   1      32.768  28.984  23.874  1.00  0.00    -0.347 N 
ATOM     16  H   UNL A   1      33.234  29.824  24.085  1.00  0.00     0.164 HD
ATOM     17  O   UNL A   1      34.419  28.692  22.399  1.00  0.00    -0.269 OA
BRANCH  15  18
ATOM     18  C   UNL A   1      31.446  28.901  24.543  1.00  0.00     0.038 C 
ATOM     19  C   UNL A   1      30.380  29.012  23.435  1.00  0.00     0.034 C 
ATOM     20  C   UNL A   1      31.149  27.644  25.389  1.00  0.00     0.028 C 
ATOM     21  C   UNL A   1      31.316  30.132  25.481  1.00  0.00     0.028 C 
ATOM     22  C   UNL A   1      32.023  27.518  26.634  1.00  0.00     0.002 C 
ATOM     23  C   UNL A   1      32.209  30.022  26.722  1.00  0.00     0.002 C 
ATOM     24  C   UNL A   1      31.919  28.752  27.515  1.00  0.00     0.000 C 
ENDBRANCH  15  18
ENDBRANCH  10  14
ENDBRANCH   8   9
ENDBRANCH   4   7
ENDBRANCH   2   3
ENDBRANCH   1   2
BRANCH   1  25
ATOM     25  C   UNL A   1      39.904  23.277  26.964  1.00  0.00     0.118 C 
BRANCH  25  26
ATOM     26  N   UNL A   1      40.922  23.847  26.092  1.00  0.00    -0.352 N 
ATOM     27  C   UNL A   1      41.529  25.077  26.126  1.00  0.00     0.251 C 
ATOM     28  H   UNL A   1      41.222  23.257  25.364  1.00  0.00     0.163 HD
ATOM     29  O   UNL A   1      42.199  25.441  25.162  1.00  0.00    -0.269 OA
BRANCH  27  30
ATOM     30  C   UNL A   1      41.377  25.967  27.299  1.00  0.00     0.039 A 
ATOM     31  C   UNL A   1      42.361  26.930  27.544  1.00  0.00     0.014 A 
ATOM     32  C   UNL A   1      40.302  25.827  28.181  1.00  0.00     0.014 A 
ATOM     33  C   UNL A   1      42.237  27.787  28.640  1.00  0.00     0.010 A 
ATOM     34  C   UNL A   1      40.146  26.724  29.236  1.00  0.00     0.010 A 
ATOM     35  C   UNL A   1      41.112  27.712  29.477  1.00  0.00    -0.014 A 
BRANCH  35  36
ATOM     36  C   UNL A   1      40.925  28.666  30.601  1.00  0.00     0.031 A 
ATOM     37  C   UNL A   1      41.755  28.543  31.850  1.00  0.00     0.074 A 
ATOM     38  C   UNL A   1      39.959  29.602  30.520  1.00  0.00     0.049 A 
ATOM     39  N   UNL A   1      41.681  29.231  32.961  1.00  0.00    -0.248 NA
ATOM     40  C   UNL A   1      42.785  27.493  31.863  1.00  0.00     0.031 C 
ATOM     41  C   UNL A   1      39.059  29.791  29.378  1.00  0.00     0.029 A 
ATOM     42  N   UNL A   1      39.561  30.563  31.415  1.00  0.00    -0.354 N 
ATOM     43  C   UNL A   1      42.642  28.690  33.807  1.00  0.00     0.074 A 
ATOM     44  C   UNL A   1      43.254  27.587  33.099  1.00  0.00     0.031 C 
ATOM     45  C   UNL A   1      38.228  30.813  29.637  1.00  0.00     0.029 A 
ATOM     46  C   UNL A   1      38.508  31.328  30.973  1.00  0.00     0.049 A 
ATOM     47  H   UNL A   1      39.990  30.691  32.293  1.00  0.00     0.167 HD
ATOM     48  C   UNL A   1      42.995  29.090  35.053  1.00  0.00     0.037 A 
ATOM     49  C   UNL A   1      37.838  32.327  31.579  1.00  0.00     0.037 A 
ATOM     50  C   UNL A   1      42.398  30.205  35.742  1.00  0.00     0.049 A 
ATOM     51  C   UNL A   1      38.249  32.755  32.961  1.00  0.00     0.074 A 
ATOM     52  C   UNL A   1      42.726  30.727  36.982  1.00  0.00     0.029 A 
ATOM     53  N   UNL A   1      41.350  30.970  35.252  1.00  0.00    -0.354 N 
ATOM     54  N   UNL A   1      39.200  32.269  33.723  1.00  0.00    -0.248 NA
ATOM     55  C   UNL A   1      37.502  33.866  33.563  1.00  0.00     0.031 C 
ATOM     56  C   UNL A   1      41.850  31.782  37.258  1.00  0.00     0.029 A 
ATOM     57  C   UNL A   1      41.005  31.947  36.172  1.00  0.00     0.049 A 
ATOM     58  H   UNL A   1      40.914  30.838  34.378  1.00  0.00     0.167 HD
ATOM     59  C   UNL A   1      39.180  33.031  34.886  1.00  0.00     0.074 A 
ATOM     60  C   UNL A   1      38.132  34.017  34.721  1.00  0.00     0.031 C 
ATOM     61  C   UNL A   1      39.959  32.924  35.990  1.00  0.00     0.037 A 
BRANCH  48  62
ATOM     62  C   UNL A   1      44.081  28.318  35.752  1.00  0.00     0.058 A 
ATOM     63  C   UNL A   1      43.796  27.175  36.515  1.00  0.00     0.135 A 
ATOM     64  C   UNL A   1      45.427  28.702  35.627  1.00  0.00     0.135 A 
ATOM     65  F   UNL A   1      42.527  26.770  36.679  1.00  0.00    -0.206 F 
ATOM     66  C   UNL A   1      44.802  26.458  37.157  1.00  0.00     0.059 A 
ATOM     67  C   UNL A   1      46.452  27.984  36.237  1.00  0.00     0.059 A 
ATOM     68  F   UNL A   1      45.756  29.786  34.907  1.00  0.00    -0.206 F 
ATOM     69  C   UNL A   1      46.128  26.872  37.013  1.00  0.00     0.060 A 
BRANCH  69  70
ATOM     70  S   UNL A   1      47.421  25.931  37.850  1.00  0.00     0.124 S 
ATOM     71  O   UNL A   1      48.589  26.775  37.620  1.00  0.00    -0.237 OA
ATOM     72  O   UNL A   1      46.934  25.885  39.225  1.00  0.00    -0.237 OA
ATOM     73  O   UNL A   1      47.421  24.653  37.146  1.00  0.00    -0.744 OA
ENDBRANCH  69  70
ENDBRANCH  48  62
BRANCH  49  74
ATOM     74  C   UNL A   1      36.718  33.003  30.871  1.00  0.00     0.058 A 
ATOM     75  C   UNL A   1      35.386  32.768  31.239  1.00  0.00     0.135 A 
ATOM     76  C   UNL A   1      36.958  33.913  29.829  1.00  0.00     0.135 A 
ATOM     77  F   UNL A   1      35.107  31.902  32.225  1.00  0.00    -0.206 F 
ATOM     78  C   UNL A   1      34.328  33.399  30.591  1.00  0.00     0.059 A 
ATOM     79  C   UNL A   1      35.919  34.575  29.183  1.00  0.00     0.059 A 
ATOM     80  F   UNL A   1      38.217  34.187  29.451  1.00  0.00    -0.206 F 
ATOM     81  C   UNL A   1      34.606  34.303  29.565  1.00  0.00     0.060 A 
BRANCH  81  82
ATOM     82  S   UNL A   1      33.230  35.158  28.766  1.00  0.00     0.124 S 
ATOM     83  O   UNL A   1      32.646  34.089  27.966  1.00  0.00    -0.237 OA
ATOM     84  O   UNL A   1      32.440  35.604  29.909  1.00  0.00    -0.237 OA
ATOM     85  O   UNL A   1      33.889  36.224  28.017  1.00  0.00    -0.744 OA
ENDBRANCH  81  82
ENDBRANCH  49  74
BRANCH  61  86
ATOM     86  C   UNL A   1      39.726  33.913  37.098  1.00  0.00     0.058 A 
ATOM     87  C   UNL A   1      38.911  33.608  38.198  1.00  0.00     0.135 A 
ATOM     88  C   UNL A   1      40.365  35.164  37.080  1.00  0.00     0.135 A 
ATOM     89  F   UNL A   1      38.272  32.429  38.260  1.00  0.00    -0.206 F 
ATOM     90  C   UNL A   1      38.719  34.516  39.234  1.00  0.00     0.059 A 
ATOM     91  C   UNL A   1      40.207  36.078  38.117  1.00  0.00     0.059 A 
ATOM     92  F   UNL A   1      41.162  35.501  36.054  1.00  0.00    -0.206 F 
ATOM     93  C   UNL A   1      39.373  35.750  39.184  1.00  0.00     0.060 A 
BRANCH  93  94
ATOM     94  S   UNL A   1      39.142  36.908  40.550  1.00  0.00     0.124 S 
ATOM     95  O   UNL A   1      38.467  36.070  41.535  1.00  0.00    -0.237 OA
ATOM     96  O   UNL A   1      40.514  37.288  40.874  1.00  0.00    -0.237 OA
ATOM     97  O   UNL A   1      38.328  37.968  39.962  1.00  0.00    -0.744 OA
ENDBRANCH  93  94
ENDBRANCH  61  86
ENDBRANCH  35  36
ENDBRANCH  27  30
ENDBRANCH  25  26
ENDBRANCH   1  25
TORSDOF 16
ENDMDL
