MODEL 1
REMARK VINA RESULT:     -12.5      0.000      0.000
REMARK SMILES Cc1ccn2c([C@H]3C[C@@H]3C(=O)NCCCNC(=O)c3ccc(-c4c5nc(c(-c6c(F)cc(S(=O)(=O)[O-])cc6F)c6ccc([nH]6)c(-c6c(F)cc(S(=O)(=O)[O-])cc6F)c6nc(c(-c7c(F)cc(S(=O)(=O)[O-])cc7F)c7ccc4[nH]7)C=C6)C=C5)cc3)nnc2c1
REMARK SMILES IDX 15 1 14 2 13 3 12 4 10 5 11 6 9 8 7 9 8 10 6 11 1 12 2 13
REMARK SMILES IDX 3 14 88 15 4 16 87 17 5 18 86 19 85 20 16 21 17 22 18 24
REMARK SMILES IDX 19 25 20 26 84 27 21 28 83 29 22 30 23 31 24 32 77 33 25 34
REMARK SMILES IDX 82 35 76 36 78 37 26 38 81 39 75 40 74 41 27 43 61 44 40 45
REMARK SMILES IDX 60 46 41 47 44 48 59 49 79 50 42 51 43 52 58 54 80 55 45 56
REMARK SMILES IDX 28 57 29 58 38 59 30 60 31 61 37 62 39 63 32 64 33 65 34 66
REMARK SMILES IDX 35 67 36 68 62 69 63 70 72 71 64 72 65 73 71 74 73 75 66 76
REMARK SMILES IDX 67 77 68 78 69 79 70 80 46 81 47 82 56 83 48 84 49 85 55 86
REMARK SMILES IDX 57 87 50 88 51 89 52 90 53 91 54 92
REMARK H PARENT 12 7 16 23 78 42 44 53
REMARK Flexibility Score: inf
ROOT
ATOM      1  C   UNL A   1      41.604  20.915  27.699  1.00  0.00     0.118 C 
ENDROOT
BRANCH   1   2
ATOM      2  C   UNL A   1      42.154  19.543  27.296  1.00  0.00     0.042 C 
BRANCH   2   3
ATOM      3  C   UNL A   1      42.415  19.400  25.799  1.00  0.00     0.117 C 
BRANCH   3   4
ATOM      4  N   UNL A   1      43.535  18.511  25.529  1.00  0.00    -0.356 N 
ATOM      5  C   UNL A   1      44.834  18.848  25.297  1.00  0.00     0.223 C 
ATOM      6  O   UNL A   1      45.678  17.983  25.047  1.00  0.00    -0.275 OA
ATOM      7  H   UNL A   1      43.328  17.548  25.512  1.00  0.00     0.163 HD
BRANCH   5   8
ATOM      8  C   UNL A   1      45.212  20.266  25.397  1.00  0.00     0.090 C 
ATOM      9  C   UNL A   1      44.975  21.213  24.233  1.00  0.00     0.071 C 
ATOM     10  C   UNL A   1      46.375  20.837  24.632  1.00  0.00     0.026 C 
BRANCH   9  11
ATOM     11  C   UNL A   1      44.442  22.592  24.576  1.00  0.00     0.141 A 
ATOM     12  C   UNL A   1      46.594  27.656  25.498  1.00  0.00     0.044 C 
ATOM     13  C   UNL A   1      46.034  26.294  25.209  1.00  0.00    -0.046 A 
ATOM     14  C   UNL A   1      46.995  25.206  25.008  1.00  0.00     0.022 A 
ATOM     15  C   UNL A   1      44.702  26.061  25.156  1.00  0.00     0.053 A 
ATOM     16  C   UNL A   1      46.542  23.969  24.749  1.00  0.00     0.095 A 
ATOM     17  C   UNL A   1      44.224  24.737  24.946  1.00  0.00     0.161 A 
ATOM     18  N   UNL A   1      45.168  23.750  24.713  1.00  0.00    -0.286 N 
ATOM     19  N   UNL A   1      43.027  24.192  24.991  1.00  0.00    -0.130 NA
ATOM     20  N   UNL A   1      43.169  22.837  24.805  1.00  0.00    -0.134 NA
ENDBRANCH   9  11
ENDBRANCH   5   8
ENDBRANCH   3   4
ENDBRANCH   2   3
ENDBRANCH   1   2
BRANCH   1  21
ATOM     21  N   UNL A   1      40.318  21.243  27.113  1.00  0.00    -0.352 N 
ATOM     22  C   UNL A   1      39.657  22.403  26.814  1.00  0.00     0.251 C 
ATOM     23  H   UNL A   1      39.799  20.441  26.874  1.00  0.00     0.163 HD
ATOM     24  O   UNL A   1      38.619  22.272  26.158  1.00  0.00    -0.269 OA
BRANCH  22  25
ATOM     25  C   UNL A   1      40.062  23.770  27.251  1.00  0.00     0.039 A 
ATOM     26  C   UNL A   1      41.207  24.075  27.981  1.00  0.00     0.014 A 
ATOM     27  C   UNL A   1      39.173  24.820  26.939  1.00  0.00     0.014 A 
ATOM     28  C   UNL A   1      41.414  25.365  28.457  1.00  0.00     0.010 A 
ATOM     29  C   UNL A   1      39.389  26.121  27.393  1.00  0.00     0.010 A 
ATOM     30  C   UNL A   1      40.495  26.388  28.187  1.00  0.00    -0.014 A 
BRANCH  30  31
ATOM     31  C   UNL A   1      40.825  27.721  28.695  1.00  0.00     0.031 A 
ATOM     32  C   UNL A   1      42.058  28.312  28.115  1.00  0.00     0.074 A 
ATOM     33  C   UNL A   1      40.105  28.430  29.590  1.00  0.00     0.049 A 
ATOM     34  N   UNL A   1      43.206  28.460  28.692  1.00  0.00    -0.248 NA
ATOM     35  C   UNL A   1      42.054  28.666  26.688  1.00  0.00     0.031 C 
ATOM     36  C   UNL A   1      38.739  28.168  30.046  1.00  0.00     0.029 A 
ATOM     37  N   UNL A   1      40.432  29.595  30.236  1.00  0.00    -0.354 N 
ATOM     38  C   UNL A   1      44.000  29.150  27.779  1.00  0.00     0.074 A 
ATOM     39  C   UNL A   1      43.306  29.098  26.518  1.00  0.00     0.031 C 
ATOM     40  C   UNL A   1      38.278  29.248  30.719  1.00  0.00     0.029 A 
ATOM     41  C   UNL A   1      39.365  30.200  30.887  1.00  0.00     0.049 A 
ATOM     42  H   UNL A   1      41.342  29.968  30.238  1.00  0.00     0.167 HD
ATOM     43  C   UNL A   1      45.028  29.935  28.203  1.00  0.00     0.037 A 
ATOM     44  C   UNL A   1      39.359  31.402  31.511  1.00  0.00     0.037 A 
ATOM     45  C   UNL A   1      45.354  29.684  29.582  1.00  0.00     0.049 A 
ATOM     46  C   UNL A   1      40.740  31.702  31.959  1.00  0.00     0.074 A 
ATOM     47  C   UNL A   1      46.096  28.778  30.306  1.00  0.00     0.029 A 
ATOM     48  N   UNL A   1      44.563  30.361  30.467  1.00  0.00    -0.354 N 
ATOM     49  N   UNL A   1      41.377  31.009  32.862  1.00  0.00    -0.248 NA
ATOM     50  C   UNL A   1      41.558  32.652  31.207  1.00  0.00     0.031 C 
ATOM     51  C   UNL A   1      45.625  28.852  31.652  1.00  0.00     0.029 A 
ATOM     52  C   UNL A   1      44.619  29.810  31.718  1.00  0.00     0.049 A 
ATOM     53  H   UNL A   1      44.019  31.148  30.233  1.00  0.00     0.167 HD
ATOM     54  C   UNL A   1      42.705  31.133  32.513  1.00  0.00     0.074 A 
ATOM     55  C   UNL A   1      42.771  32.279  31.618  1.00  0.00     0.031 C 
ATOM     56  C   UNL A   1      43.575  30.100  32.678  1.00  0.00     0.037 A 
BRANCH  43  57
ATOM     57  C   UNL A   1      45.429  31.247  27.557  1.00  0.00     0.058 A 
ATOM     58  C   UNL A   1      46.752  31.410  27.092  1.00  0.00     0.135 A 
ATOM     59  C   UNL A   1      44.674  32.435  27.672  1.00  0.00     0.135 A 
ATOM     60  F   UNL A   1      47.565  30.351  26.956  1.00  0.00    -0.206 F 
ATOM     61  C   UNL A   1      47.301  32.666  26.823  1.00  0.00     0.059 A 
ATOM     62  C   UNL A   1      45.186  33.690  27.358  1.00  0.00     0.059 A 
ATOM     63  F   UNL A   1      43.440  32.447  28.190  1.00  0.00    -0.206 F 
ATOM     64  C   UNL A   1      46.511  33.802  26.972  1.00  0.00     0.060 A 
BRANCH  64  65
ATOM     65  S   UNL A   1      47.242  35.430  26.716  1.00  0.00     0.124 S 
ATOM     66  O   UNL A   1      47.930  35.245  25.444  1.00  0.00    -0.237 OA
ATOM     67  O   UNL A   1      46.062  36.289  26.685  1.00  0.00    -0.237 OA
ATOM     68  O   UNL A   1      48.100  35.599  27.884  1.00  0.00    -0.744 OA
ENDBRANCH  64  65
ENDBRANCH  43  57
BRANCH  44  69
ATOM     69  C   UNL A   1      38.292  32.438  31.510  1.00  0.00     0.058 A 
ATOM     70  C   UNL A   1      37.537  32.690  30.350  1.00  0.00     0.135 A 
ATOM     71  C   UNL A   1      37.780  32.961  32.714  1.00  0.00     0.135 A 
ATOM     72  F   UNL A   1      37.952  32.230  29.159  1.00  0.00    -0.206 F 
ATOM     73  C   UNL A   1      36.299  33.336  30.393  1.00  0.00     0.059 A 
ATOM     74  C   UNL A   1      36.554  33.621  32.779  1.00  0.00     0.059 A 
ATOM     75  F   UNL A   1      38.408  32.755  33.881  1.00  0.00    -0.206 F 
ATOM     76  C   UNL A   1      35.801  33.769  31.620  1.00  0.00     0.060 A 
BRANCH  76  77
ATOM     77  S   UNL A   1      34.107  34.393  31.712  1.00  0.00     0.124 S 
ATOM     78  O   UNL A   1      33.483  33.439  32.623  1.00  0.00    -0.237 OA
ATOM     79  O   UNL A   1      34.306  35.740  32.237  1.00  0.00    -0.237 OA
ATOM     80  O   UNL A   1      33.647  34.328  30.328  1.00  0.00    -0.744 OA
ENDBRANCH  76  77
ENDBRANCH  44  69
BRANCH  56  81
ATOM     81  C   UNL A   1      43.335  29.145  33.802  1.00  0.00     0.058 A 
ATOM     82  C   UNL A   1      43.794  29.310  35.118  1.00  0.00     0.135 A 
ATOM     83  C   UNL A   1      42.525  28.031  33.532  1.00  0.00     0.135 A 
ATOM     84  F   UNL A   1      44.522  30.382  35.465  1.00  0.00    -0.206 F 
ATOM     85  C   UNL A   1      43.466  28.393  36.121  1.00  0.00     0.059 A 
ATOM     86  C   UNL A   1      42.167  27.121  34.519  1.00  0.00     0.059 A 
ATOM     87  F   UNL A   1      42.032  27.840  32.297  1.00  0.00    -0.206 F 
ATOM     88  C   UNL A   1      42.642  27.308  35.813  1.00  0.00     0.060 A 
BRANCH  88  89
ATOM     89  S   UNL A   1      42.134  26.177  37.126  1.00  0.00     0.124 S 
ATOM     90  O   UNL A   1      43.167  26.384  38.134  1.00  0.00    -0.237 OA
ATOM     91  O   UNL A   1      40.801  26.670  37.462  1.00  0.00    -0.237 OA
ATOM     92  O   UNL A   1      42.149  24.868  36.477  1.00  0.00    -0.744 OA
ENDBRANCH  88  89
ENDBRANCH  56  81
ENDBRANCH  30  31
ENDBRANCH  22  25
ENDBRANCH   1  21
TORSDOF 14
ENDMDL
MODEL 2
REMARK VINA RESULT:     -12.4      3.769      6.059
REMARK SMILES Cc1ccn2c([C@H]3C[C@@H]3C(=O)NCCCNC(=O)c3ccc(-c4c5nc(c(-c6c(F)cc(S(=O)(=O)[O-])cc6F)c6ccc([nH]6)c(-c6c(F)cc(S(=O)(=O)[O-])cc6F)c6nc(c(-c7c(F)cc(S(=O)(=O)[O-])cc7F)c7ccc4[nH]7)C=C6)C=C5)cc3)nnc2c1
REMARK SMILES IDX 15 1 14 2 13 3 12 4 10 5 11 6 9 8 7 9 8 10 6 11 1 12 2 13
REMARK SMILES IDX 3 14 88 15 4 16 87 17 5 18 86 19 85 20 16 21 17 22 18 24
REMARK SMILES IDX 19 25 20 26 84 27 21 28 83 29 22 30 23 31 24 32 77 33 25 34
REMARK SMILES IDX 82 35 76 36 78 37 26 38 81 39 75 40 74 41 27 43 61 44 40 45
REMARK SMILES IDX 60 46 41 47 44 48 59 49 79 50 42 51 43 52 58 54 80 55 45 56
REMARK SMILES IDX 28 57 29 58 38 59 30 60 31 61 37 62 39 63 32 64 33 65 34 66
REMARK SMILES IDX 35 67 36 68 62 69 63 70 72 71 64 72 65 73 71 74 73 75 66 76
REMARK SMILES IDX 67 77 68 78 69 79 70 80 46 81 47 82 56 83 48 84 49 85 55 86
REMARK SMILES IDX 57 87 50 88 51 89 52 90 53 91 54 92
REMARK H PARENT 12 7 16 23 78 42 44 53
REMARK Flexibility Score: inf
ROOT
ATOM      1  C   UNL A   1      38.620  22.305  26.082  1.00  0.00     0.118 C 
ENDROOT
BRANCH   1   2
ATOM      2  C   UNL A   1      37.771  21.492  25.101  1.00  0.00     0.042 C 
BRANCH   2   3
ATOM      3  C   UNL A   1      36.291  21.432  25.469  1.00  0.00     0.117 C 
BRANCH   3   4
ATOM      4  N   UNL A   1      35.708  20.137  25.152  1.00  0.00    -0.356 N 
ATOM      5  C   UNL A   1      34.437  19.869  24.742  1.00  0.00     0.223 C 
ATOM      6  O   UNL A   1      34.068  18.709  24.540  1.00  0.00    -0.275 OA
ATOM      7  H   UNL A   1      36.305  19.359  25.245  1.00  0.00     0.163 HD
BRANCH   5   8
ATOM      8  C   UNL A   1      33.530  21.003  24.503  1.00  0.00     0.090 C 
ATOM      9  C   UNL A   1      32.151  21.037  25.140  1.00  0.00     0.071 C 
ATOM     10  C   UNL A   1      32.297  20.873  23.653  1.00  0.00     0.026 C 
BRANCH   9  11
ATOM     11  C   UNL A   1      31.697  22.370  25.706  1.00  0.00     0.141 A 
ATOM     12  C   UNL A   1      29.410  27.052  23.713  1.00  0.00     0.044 C 
ATOM     13  C   UNL A   1      29.990  25.770  24.233  1.00  0.00    -0.046 A 
ATOM     14  C   UNL A   1      30.361  24.755  23.243  1.00  0.00     0.022 A 
ATOM     15  C   UNL A   1      30.189  25.555  25.554  1.00  0.00     0.053 A 
ATOM     16  C   UNL A   1      30.886  23.591  23.660  1.00  0.00     0.095 A 
ATOM     17  C   UNL A   1      30.805  24.348  25.989  1.00  0.00     0.161 A 
ATOM     18  N   UNL A   1      31.094  23.398  25.022  1.00  0.00    -0.286 N 
ATOM     19  N   UNL A   1      31.249  23.930  27.155  1.00  0.00    -0.130 NA
ATOM     20  N   UNL A   1      31.852  22.708  26.969  1.00  0.00    -0.134 NA
ENDBRANCH   9  11
ENDBRANCH   5   8
ENDBRANCH   3   4
ENDBRANCH   2   3
ENDBRANCH   1   2
BRANCH   1  21
ATOM     21  N   UNL A   1      40.045  22.040  26.008  1.00  0.00    -0.352 N 
ATOM     22  C   UNL A   1      41.173  22.668  26.462  1.00  0.00     0.251 C 
ATOM     23  H   UNL A   1      40.248  21.213  25.513  1.00  0.00     0.163 HD
ATOM     24  O   UNL A   1      42.225  22.035  26.333  1.00  0.00    -0.269 OA
BRANCH  22  25
ATOM     25  C   UNL A   1      41.228  24.041  27.041  1.00  0.00     0.039 A 
ATOM     26  C   UNL A   1      42.031  24.433  28.107  1.00  0.00     0.014 A 
ATOM     27  C   UNL A   1      40.345  24.992  26.487  1.00  0.00     0.014 A 
ATOM     28  C   UNL A   1      41.897  25.704  28.657  1.00  0.00     0.010 A 
ATOM     29  C   UNL A   1      40.225  26.276  27.019  1.00  0.00     0.010 A 
ATOM     30  C   UNL A   1      40.978  26.622  28.133  1.00  0.00    -0.014 A 
BRANCH  30  31
ATOM     31  C   UNL A   1      40.943  27.948  28.753  1.00  0.00     0.031 A 
ATOM     32  C   UNL A   1      42.039  28.855  28.325  1.00  0.00     0.074 A 
ATOM     33  C   UNL A   1      40.013  28.392  29.625  1.00  0.00     0.049 A 
ATOM     34  N   UNL A   1      43.074  29.217  29.010  1.00  0.00    -0.248 NA
ATOM     35  C   UNL A   1      42.051  29.317  26.930  1.00  0.00     0.031 C 
ATOM     36  C   UNL A   1      38.720  27.783  29.940  1.00  0.00     0.029 A 
ATOM     37  N   UNL A   1      40.007  29.542  30.372  1.00  0.00    -0.354 N 
ATOM     38  C   UNL A   1      43.744  30.146  28.218  1.00  0.00     0.074 A 
ATOM     39  C   UNL A   1      43.173  30.040  26.900  1.00  0.00     0.031 C 
ATOM     40  C   UNL A   1      37.969  28.665  30.638  1.00  0.00     0.029 A 
ATOM     41  C   UNL A   1      38.783  29.826  30.963  1.00  0.00     0.049 A 
ATOM     42  H   UNL A   1      40.800  30.115  30.479  1.00  0.00     0.167 HD
ATOM     43  C   UNL A   1      44.522  31.110  28.782  1.00  0.00     0.037 A 
ATOM     44  C   UNL A   1      38.446  30.938  31.661  1.00  0.00     0.037 A 
ATOM     45  C   UNL A   1      44.800  30.826  30.165  1.00  0.00     0.049 A 
ATOM     46  C   UNL A   1      39.681  31.512  32.248  1.00  0.00     0.074 A 
ATOM     47  C   UNL A   1      45.683  30.060  30.892  1.00  0.00     0.029 A 
ATOM     48  N   UNL A   1      43.809  31.224  31.018  1.00  0.00    -0.354 N 
ATOM     49  N   UNL A   1      40.399  30.912  33.158  1.00  0.00    -0.248 NA
ATOM     50  C   UNL A   1      40.300  32.685  31.635  1.00  0.00     0.031 C 
ATOM     51  C   UNL A   1      45.113  29.910  32.193  1.00  0.00     0.029 A 
ATOM     52  C   UNL A   1      43.906  30.598  32.231  1.00  0.00     0.049 A 
ATOM     53  H   UNL A   1      43.112  31.881  30.789  1.00  0.00     0.167 HD
ATOM     54  C   UNL A   1      41.680  31.370  32.937  1.00  0.00     0.074 A 
ATOM     55  C   UNL A   1      41.535  32.571  32.128  1.00  0.00     0.031 C 
ATOM     56  C   UNL A   1      42.758  30.557  33.112  1.00  0.00     0.037 A 
BRANCH  43  57
ATOM     57  C   UNL A   1      44.644  32.529  28.261  1.00  0.00     0.058 A 
ATOM     58  C   UNL A   1      45.893  32.985  27.787  1.00  0.00     0.135 A 
ATOM     59  C   UNL A   1      43.684  33.535  28.507  1.00  0.00     0.135 A 
ATOM     60  F   UNL A   1      46.885  32.117  27.530  1.00  0.00    -0.206 F 
ATOM     61  C   UNL A   1      46.185  34.342  27.632  1.00  0.00     0.059 A 
ATOM     62  C   UNL A   1      43.938  34.889  28.309  1.00  0.00     0.059 A 
ATOM     63  F   UNL A   1      42.491  33.263  29.050  1.00  0.00    -0.206 F 
ATOM     64  C   UNL A   1      45.202  35.287  27.909  1.00  0.00     0.060 A 
BRANCH  64  65
ATOM     65  S   UNL A   1      45.604  37.041  27.800  1.00  0.00     0.124 S 
ATOM     66  O   UNL A   1      44.279  37.648  27.842  1.00  0.00    -0.237 OA
ATOM     67  O   UNL A   1      46.433  37.234  28.985  1.00  0.00    -0.237 OA
ATOM     68  O   UNL A   1      46.309  37.144  26.527  1.00  0.00    -0.744 OA
ENDBRANCH  64  65
ENDBRANCH  43  57
BRANCH  44  69
ATOM     69  C   UNL A   1      37.167  31.694  31.633  1.00  0.00     0.058 A 
ATOM     70  C   UNL A   1      36.458  31.952  32.821  1.00  0.00     0.135 A 
ATOM     71  C   UNL A   1      36.788  32.448  30.504  1.00  0.00     0.135 A 
ATOM     72  F   UNL A   1      36.752  31.279  33.945  1.00  0.00    -0.206 F 
ATOM     73  C   UNL A   1      35.499  32.964  32.912  1.00  0.00     0.059 A 
ATOM     74  C   UNL A   1      35.825  33.454  30.568  1.00  0.00     0.059 A 
ATOM     75  F   UNL A   1      37.416  32.298  29.329  1.00  0.00    -0.206 F 
ATOM     76  C   UNL A   1      35.214  33.733  31.785  1.00  0.00     0.060 A 
BRANCH  76  77
ATOM     77  S   UNL A   1      34.151  35.184  31.956  1.00  0.00     0.124 S 
ATOM     78  O   UNL A   1      34.971  36.062  32.785  1.00  0.00    -0.237 OA
ATOM     79  O   UNL A   1      33.976  35.600  30.568  1.00  0.00    -0.237 OA
ATOM     80  O   UNL A   1      32.954  34.653  32.601  1.00  0.00    -0.744 OA
ENDBRANCH  76  77
ENDBRANCH  44  69
BRANCH  56  81
ATOM     81  C   UNL A   1      42.673  29.481  34.145  1.00  0.00     0.058 A 
ATOM     82  C   UNL A   1      42.912  29.654  35.517  1.00  0.00     0.135 A 
ATOM     83  C   UNL A   1      42.249  28.214  33.716  1.00  0.00     0.135 A 
ATOM     84  F   UNL A   1      43.261  30.852  36.010  1.00  0.00    -0.206 F 
ATOM     85  C   UNL A   1      42.747  28.602  36.422  1.00  0.00     0.059 A 
ATOM     86  C   UNL A   1      42.054  27.161  34.600  1.00  0.00     0.059 A 
ATOM     87  F   UNL A   1      41.975  28.000  32.418  1.00  0.00    -0.206 F 
ATOM     88  C   UNL A   1      42.306  27.361  35.954  1.00  0.00     0.060 A 
BRANCH  88  89
ATOM     89  S   UNL A   1      41.995  26.027  37.131  1.00  0.00     0.124 S 
ATOM     90  O   UNL A   1      42.967  26.304  38.181  1.00  0.00    -0.237 OA
ATOM     91  O   UNL A   1      40.593  26.242  37.479  1.00  0.00    -0.237 OA
ATOM     92  O   UNL A   1      42.246  24.817  36.352  1.00  0.00    -0.744 OA
ENDBRANCH  88  89
ENDBRANCH  56  81
ENDBRANCH  30  31
ENDBRANCH  22  25
ENDBRANCH   1  21
TORSDOF 14
ENDMDL
MODEL 3
REMARK VINA RESULT:     -12.3      3.339      5.489
REMARK SMILES Cc1ccn2c([C@H]3C[C@@H]3C(=O)NCCCNC(=O)c3ccc(-c4c5nc(c(-c6c(F)cc(S(=O)(=O)[O-])cc6F)c6ccc([nH]6)c(-c6c(F)cc(S(=O)(=O)[O-])cc6F)c6nc(c(-c7c(F)cc(S(=O)(=O)[O-])cc7F)c7ccc4[nH]7)C=C6)C=C5)cc3)nnc2c1
REMARK SMILES IDX 15 1 14 2 13 3 12 4 10 5 11 6 9 8 7 9 8 10 6 11 1 12 2 13
REMARK SMILES IDX 3 14 88 15 4 16 87 17 5 18 86 19 85 20 16 21 17 22 18 24
REMARK SMILES IDX 19 25 20 26 84 27 21 28 83 29 22 30 23 31 24 32 77 33 25 34
REMARK SMILES IDX 82 35 76 36 78 37 26 38 81 39 75 40 74 41 27 43 61 44 40 45
REMARK SMILES IDX 60 46 41 47 44 48 59 49 79 50 42 51 43 52 58 54 80 55 45 56
REMARK SMILES IDX 28 57 29 58 38 59 30 60 31 61 37 62 39 63 32 64 33 65 34 66
REMARK SMILES IDX 35 67 36 68 62 69 63 70 72 71 64 72 65 73 71 74 73 75 66 76
REMARK SMILES IDX 67 77 68 78 69 79 70 80 46 81 47 82 56 83 48 84 49 85 55 86
REMARK SMILES IDX 57 87 50 88 51 89 52 90 53 91 54 92
REMARK H PARENT 12 7 16 23 78 42 44 53
REMARK Flexibility Score: inf
ROOT
ATOM      1  C   UNL A   1      37.829  22.255  25.383  1.00  0.00     0.118 C 
ENDROOT
BRANCH   1   2
ATOM      2  C   UNL A   1      36.793  21.130  25.469  1.00  0.00     0.042 C 
BRANCH   2   3
ATOM      3  C   UNL A   1      35.402  21.605  25.881  1.00  0.00     0.117 C 
BRANCH   3   4
ATOM      4  N   UNL A   1      34.411  20.547  25.752  1.00  0.00    -0.356 N 
ATOM      5  C   UNL A   1      33.432  20.427  24.813  1.00  0.00     0.223 C 
ATOM      6  O   UNL A   1      32.634  19.486  24.846  1.00  0.00    -0.275 OA
ATOM      7  H   UNL A   1      34.453  19.830  26.427  1.00  0.00     0.163 HD
BRANCH   5   8
ATOM      8  C   UNL A   1      33.380  21.424  23.732  1.00  0.00     0.090 C 
ATOM      9  C   UNL A   1      32.361  22.550  23.769  1.00  0.00     0.071 C 
ATOM     10  C   UNL A   1      32.253  21.463  22.737  1.00  0.00     0.026 C 
BRANCH   9  11
ATOM     11  C   UNL A   1      32.853  23.926  23.360  1.00  0.00     0.141 A 
ATOM     12  C   UNL A   1      33.812  28.806  25.889  1.00  0.00     0.044 C 
ATOM     13  C   UNL A   1      33.583  27.474  25.237  1.00  0.00    -0.046 A 
ATOM     14  C   UNL A   1      32.986  26.421  26.062  1.00  0.00     0.022 A 
ATOM     15  C   UNL A   1      33.889  27.248  23.937  1.00  0.00     0.053 A 
ATOM     16  C   UNL A   1      32.760  25.211  25.522  1.00  0.00     0.095 A 
ATOM     17  C   UNL A   1      33.589  25.987  23.351  1.00  0.00     0.161 A 
ATOM     18  N   UNL A   1      33.070  25.006  24.181  1.00  0.00    -0.286 N 
ATOM     19  N   UNL A   1      33.631  25.533  22.116  1.00  0.00    -0.130 NA
ATOM     20  N   UNL A   1      33.124  24.254  22.114  1.00  0.00    -0.134 NA
ENDBRANCH   9  11
ENDBRANCH   5   8
ENDBRANCH   3   4
ENDBRANCH   2   3
ENDBRANCH   1   2
BRANCH   1  21
ATOM     21  N   UNL A   1      39.183  21.852  25.714  1.00  0.00    -0.352 N 
ATOM     22  C   UNL A   1      40.173  22.346  26.520  1.00  0.00     0.251 C 
ATOM     23  H   UNL A   1      39.454  21.028  25.248  1.00  0.00     0.163 HD
ATOM     24  O   UNL A   1      41.157  21.616  26.665  1.00  0.00    -0.269 OA
BRANCH  22  25
ATOM     25  C   UNL A   1      40.167  23.684  27.178  1.00  0.00     0.039 A 
ATOM     26  C   UNL A   1      39.124  24.604  27.123  1.00  0.00     0.014 A 
ATOM     27  C   UNL A   1      41.346  24.054  27.860  1.00  0.00     0.014 A 
ATOM     28  C   UNL A   1      39.284  25.879  27.655  1.00  0.00     0.010 A 
ATOM     29  C   UNL A   1      41.500  25.324  28.417  1.00  0.00     0.010 A 
ATOM     30  C   UNL A   1      40.479  26.254  28.282  1.00  0.00    -0.014 A 
BRANCH  30  31
ATOM     31  C   UNL A   1      40.532  27.603  28.848  1.00  0.00     0.031 A 
ATOM     32  C   UNL A   1      41.626  28.452  28.309  1.00  0.00     0.074 A 
ATOM     33  C   UNL A   1      39.681  28.114  29.763  1.00  0.00     0.049 A 
ATOM     34  N   UNL A   1      42.717  28.802  28.906  1.00  0.00    -0.248 NA
ATOM     35  C   UNL A   1      41.557  28.859  26.899  1.00  0.00     0.031 C 
ATOM     36  C   UNL A   1      38.393  27.565  30.189  1.00  0.00     0.029 A 
ATOM     37  N   UNL A   1      39.766  29.292  30.460  1.00  0.00    -0.354 N 
ATOM     38  C   UNL A   1      43.361  29.675  28.034  1.00  0.00     0.074 A 
ATOM     39  C   UNL A   1      42.697  29.539  26.763  1.00  0.00     0.031 C 
ATOM     40  C   UNL A   1      37.723  28.501  30.900  1.00  0.00     0.029 A 
ATOM     41  C   UNL A   1      38.596  29.643  31.121  1.00  0.00     0.049 A 
ATOM     42  H   UNL A   1      40.583  29.839  30.489  1.00  0.00     0.167 HD
ATOM     43  C   UNL A   1      44.209  30.631  28.502  1.00  0.00     0.037 A 
ATOM     44  C   UNL A   1      38.346  30.792  31.794  1.00  0.00     0.037 A 
ATOM     45  C   UNL A   1      44.573  30.391  29.874  1.00  0.00     0.049 A 
ATOM     46  C   UNL A   1      39.638  31.343  32.272  1.00  0.00     0.074 A 
ATOM     47  C   UNL A   1      45.478  29.622  30.569  1.00  0.00     0.029 A 
ATOM     48  N   UNL A   1      43.658  30.858  30.776  1.00  0.00    -0.354 N 
ATOM     49  N   UNL A   1      40.396  30.753  33.154  1.00  0.00    -0.248 NA
ATOM     50  C   UNL A   1      40.252  32.468  31.570  1.00  0.00     0.031 C 
ATOM     51  C   UNL A   1      44.996  29.543  31.912  1.00  0.00     0.029 A 
ATOM     52  C   UNL A   1      43.818  30.276  32.004  1.00  0.00     0.049 A 
ATOM     53  H   UNL A   1      42.969  31.530  30.567  1.00  0.00     0.167 HD
ATOM     54  C   UNL A   1      41.674  31.155  32.827  1.00  0.00     0.074 A 
ATOM     55  C   UNL A   1      41.514  32.328  31.982  1.00  0.00     0.031 C 
ATOM     56  C   UNL A   1      42.733  30.311  32.962  1.00  0.00     0.037 A 
BRANCH  43  57
ATOM     57  C   UNL A   1      44.342  32.023  27.917  1.00  0.00     0.058 A 
ATOM     58  C   UNL A   1      45.479  32.339  27.141  1.00  0.00     0.135 A 
ATOM     59  C   UNL A   1      43.576  33.128  28.349  1.00  0.00     0.135 A 
ATOM     60  F   UNL A   1      46.288  31.369  26.686  1.00  0.00    -0.206 F 
ATOM     61  C   UNL A   1      45.859  33.656  26.872  1.00  0.00     0.059 A 
ATOM     62  C   UNL A   1      43.907  34.445  28.046  1.00  0.00     0.059 A 
ATOM     63  F   UNL A   1      42.528  32.989  29.170  1.00  0.00    -0.206 F 
ATOM     64  C   UNL A   1      45.071  34.703  27.342  1.00  0.00     0.060 A 
BRANCH  64  65
ATOM     65  S   UNL A   1      45.607  36.403  27.076  1.00  0.00     0.124 S 
ATOM     66  O   UNL A   1      46.418  36.270  25.872  1.00  0.00    -0.237 OA
ATOM     67  O   UNL A   1      44.333  37.099  26.916  1.00  0.00    -0.237 OA
ATOM     68  O   UNL A   1      46.334  36.720  28.300  1.00  0.00    -0.744 OA
ENDBRANCH  64  65
ENDBRANCH  43  57
BRANCH  44  69
ATOM     69  C   UNL A   1      37.094  31.593  31.822  1.00  0.00     0.058 A 
ATOM     70  C   UNL A   1      36.537  32.013  33.045  1.00  0.00     0.135 A 
ATOM     71  C   UNL A   1      36.608  32.230  30.664  1.00  0.00     0.135 A 
ATOM     72  F   UNL A   1      36.941  31.458  34.199  1.00  0.00    -0.206 F 
ATOM     73  C   UNL A   1      35.624  33.068  33.124  1.00  0.00     0.059 A 
ATOM     74  C   UNL A   1      35.688  33.276  30.717  1.00  0.00     0.059 A 
ATOM     75  F   UNL A   1      37.091  31.923  29.451  1.00  0.00    -0.206 F 
ATOM     76  C   UNL A   1      35.231  33.715  31.955  1.00  0.00     0.060 A 
BRANCH  76  77
ATOM     77  S   UNL A   1      34.237  35.220  32.073  1.00  0.00     0.124 S 
ATOM     78  O   UNL A   1      33.042  34.738  32.758  1.00  0.00    -0.237 OA
ATOM     79  O   UNL A   1      35.105  36.100  32.850  1.00  0.00    -0.237 OA
ATOM     80  O   UNL A   1      34.045  35.609  30.679  1.00  0.00    -0.744 OA
ENDBRANCH  76  77
ENDBRANCH  44  69
BRANCH  56  81
ATOM     81  C   UNL A   1      42.684  29.279  34.042  1.00  0.00     0.058 A 
ATOM     82  C   UNL A   1      43.109  29.472  35.365  1.00  0.00     0.135 A 
ATOM     83  C   UNL A   1      42.099  28.045  33.721  1.00  0.00     0.135 A 
ATOM     84  F   UNL A   1      43.621  30.646  35.762  1.00  0.00    -0.206 F 
ATOM     85  C   UNL A   1      42.966  28.467  36.327  1.00  0.00     0.059 A 
ATOM     86  C   UNL A   1      41.925  27.042  34.666  1.00  0.00     0.059 A 
ATOM     87  F   UNL A   1      41.646  27.817  32.477  1.00  0.00    -0.206 F 
ATOM     88  C   UNL A   1      42.362  27.259  35.969  1.00  0.00     0.060 A 
BRANCH  88  89
ATOM     89  S   UNL A   1      42.084  25.996  37.230  1.00  0.00     0.124 S 
ATOM     90  O   UNL A   1      42.474  24.774  36.538  1.00  0.00    -0.237 OA
ATOM     91  O   UNL A   1      42.967  26.435  38.307  1.00  0.00    -0.237 OA
ATOM     92  O   UNL A   1      40.659  26.117  37.528  1.00  0.00    -0.744 OA
ENDBRANCH  88  89
ENDBRANCH  56  81
ENDBRANCH  30  31
ENDBRANCH  22  25
ENDBRANCH   1  21
TORSDOF 14
ENDMDL
