MODEL 1
REMARK VINA RESULT:     -12.6      0.000      0.000
REMARK SMILES C[C@@H]1CN(C(=O)N2CCC(CC(=O)NCCCNC(=O)c3ccc(-c4c5nc(c(-c6c(F)cc(S(=O)(=O)[O-])cc6F)c6ccc([nH]6)c(-c6c(F)cc(S(=O)(=O)[O-])cc6F)c6nc(c(-c7c(F)cc(S(=O)(=O)[O-])cc7F)c7ccc4[nH]7)C=C6)C=C5)cc3)CC2)C[C@@H](C)S1
REMARK SMILES IDX 17 1 16 2 15 3 14 4 12 5 13 6 11 8 10 9 1 10 2 11 3 12 92 13
REMARK SMILES IDX 4 14 90 15 5 16 89 17 91 18 6 19 7 20 8 21 88 22 9 23 87 24
REMARK SMILES IDX 18 25 19 26 20 28 21 29 22 30 86 31 23 32 85 33 24 34 25 35
REMARK SMILES IDX 26 36 79 37 27 38 84 39 78 40 80 41 28 42 83 43 77 44 76 45
REMARK SMILES IDX 29 47 63 48 42 49 62 50 43 51 46 52 61 53 81 54 44 55 45 56
REMARK SMILES IDX 60 58 82 59 47 60 30 61 31 62 40 63 32 64 33 65 39 66 41 67
REMARK SMILES IDX 34 68 35 69 36 70 37 71 38 72 64 73 65 74 74 75 66 76 67 77
REMARK SMILES IDX 73 78 75 79 68 80 69 81 70 82 71 83 72 84 48 85 49 86 58 87
REMARK SMILES IDX 50 88 51 89 57 90 59 91 52 92 53 93 54 94 55 95 56 96
REMARK H PARENT 14 7 18 27 80 46 46 57
REMARK Flexibility Score: inf
ROOT
ATOM      1  C   UNL A   1      35.489  31.589  28.414  1.00  0.00     0.118 C 
ENDROOT
BRANCH   1   2
ATOM      2  C   UNL A   1      34.294  30.942  27.725  1.00  0.00     0.042 C 
BRANCH   2   3
ATOM      3  C   UNL A   1      34.529  29.497  27.278  1.00  0.00     0.117 C 
BRANCH   3   4
ATOM      4  N   UNL A   1      33.445  28.605  27.672  1.00  0.00    -0.356 N 
ATOM      5  C   UNL A   1      32.211  28.385  27.134  1.00  0.00     0.220 C 
ATOM      6  O   UNL A   1      31.478  27.559  27.681  1.00  0.00    -0.275 OA
ATOM      7  H   UNL A   1      33.639  28.061  28.470  1.00  0.00     0.163 HD
BRANCH   5   8
ATOM      8  C   UNL A   1      31.745  29.133  25.899  1.00  0.00     0.103 C 
BRANCH   8   9
ATOM      9  C   UNL A   1      31.890  28.331  24.586  1.00  0.00     0.002 C 
ATOM     10  C   UNL A   1      31.864  23.700  27.000  1.00  0.00     0.021 C 
ATOM     11  C   UNL A   1      33.358  23.426  26.819  1.00  0.00     0.063 C 
ATOM     12  C   UNL A   1      33.957  24.161  25.603  1.00  0.00     0.135 C 
ATOM     13  S   UNL A   1      33.668  21.622  26.755  1.00  0.00    -0.152 SA
ATOM     14  N   UNL A   1      33.457  23.664  24.319  1.00  0.00    -0.322 N 
ATOM     15  C   UNL A   1      33.136  21.289  25.020  1.00  0.00     0.063 C 
ATOM     16  C   UNL A   1      32.385  24.229  23.646  1.00  0.00     0.320 C 
ATOM     17  C   UNL A   1      33.796  22.268  24.035  1.00  0.00     0.135 C 
ATOM     18  C   UNL A   1      33.494  19.847  24.679  1.00  0.00     0.021 C 
ATOM     19  O   UNL A   1      31.538  23.526  23.094  1.00  0.00    -0.248 OA
ATOM     20  N   UNL A   1      32.275  25.605  23.665  1.00  0.00    -0.325 N 
ATOM     21  C   UNL A   1      30.985  26.230  23.427  1.00  0.00     0.121 C 
ATOM     22  C   UNL A   1      33.399  26.516  23.525  1.00  0.00     0.121 C 
ATOM     23  C   UNL A   1      30.743  27.301  24.489  1.00  0.00     0.026 C 
ATOM     24  C   UNL A   1      33.270  27.662  24.517  1.00  0.00     0.026 C 
ENDBRANCH   8   9
ENDBRANCH   5   8
ENDBRANCH   3   4
ENDBRANCH   2   3
ENDBRANCH   1   2
BRANCH   1  25
ATOM     25  N   UNL A   1      35.450  31.389  29.851  1.00  0.00    -0.352 N 
ATOM     26  C   UNL A   1      36.301  30.680  30.665  1.00  0.00     0.251 C 
ATOM     27  H   UNL A   1      34.699  31.827  30.314  1.00  0.00     0.163 HD
ATOM     28  O   UNL A   1      35.935  30.409  31.807  1.00  0.00    -0.269 OA
BRANCH  26  29
ATOM     29  C   UNL A   1      37.636  30.230  30.193  1.00  0.00     0.039 A 
ATOM     30  C   UNL A   1      38.590  29.844  31.142  1.00  0.00     0.014 A 
ATOM     31  C   UNL A   1      37.991  30.256  28.841  1.00  0.00     0.014 A 
ATOM     32  C   UNL A   1      39.874  29.458  30.736  1.00  0.00     0.010 A 
ATOM     33  C   UNL A   1      39.243  29.795  28.431  1.00  0.00     0.010 A 
ATOM     34  C   UNL A   1      40.208  29.412  29.374  1.00  0.00    -0.014 A 
BRANCH  34  35
ATOM     35  C   UNL A   1      41.569  29.007  28.924  1.00  0.00     0.031 A 
ATOM     36  C   UNL A   1      42.688  30.018  28.892  1.00  0.00     0.074 A 
ATOM     37  C   UNL A   1      41.794  27.749  28.497  1.00  0.00     0.049 A 
ATOM     38  N   UNL A   1      43.924  29.874  28.484  1.00  0.00    -0.248 NA
ATOM     39  C   UNL A   1      42.369  31.378  29.357  1.00  0.00     0.031 C 
ATOM     40  C   UNL A   1      40.792  26.682  28.442  1.00  0.00     0.029 A 
ATOM     41  N   UNL A   1      42.938  27.154  28.025  1.00  0.00    -0.354 N 
ATOM     42  C   UNL A   1      44.518  31.124  28.615  1.00  0.00     0.074 A 
ATOM     43  C   UNL A   1      43.496  32.026  29.100  1.00  0.00     0.031 C 
ATOM     44  C   UNL A   1      41.372  25.557  27.994  1.00  0.00     0.029 A 
ATOM     45  C   UNL A   1      42.775  25.828  27.696  1.00  0.00     0.049 A 
ATOM     46  H   UNL A   1      43.794  27.630  27.933  1.00  0.00     0.167 HD
ATOM     47  C   UNL A   1      45.801  31.487  28.373  1.00  0.00     0.037 A 
ATOM     48  C   UNL A   1      43.657  24.933  27.208  1.00  0.00     0.037 A 
ATOM     49  C   UNL A   1      46.829  30.579  27.935  1.00  0.00     0.049 A 
ATOM     50  C   UNL A   1      45.079  25.354  26.957  1.00  0.00     0.074 A 
ATOM     51  C   UNL A   1      48.177  30.832  27.745  1.00  0.00     0.029 A 
ATOM     52  N   UNL A   1      46.625  29.244  27.619  1.00  0.00    -0.354 N 
ATOM     53  N   UNL A   1      45.637  26.526  27.149  1.00  0.00    -0.248 NA
ATOM     54  C   UNL A   1      45.990  24.332  26.424  1.00  0.00     0.031 C 
ATOM     55  C   UNL A   1      48.781  29.659  27.275  1.00  0.00     0.029 A 
ATOM     56  C   UNL A   1      47.816  28.666  27.211  1.00  0.00     0.049 A 
ATOM     57  H   UNL A   1      45.761  28.777  27.676  1.00  0.00     0.167 HD
ATOM     58  C   UNL A   1      46.972  26.373  26.789  1.00  0.00     0.074 A 
ATOM     59  C   UNL A   1      47.138  24.996  26.371  1.00  0.00     0.031 C 
ATOM     60  C   UNL A   1      47.970  27.292  26.806  1.00  0.00     0.037 A 
BRANCH  47  61
ATOM     61  C   UNL A   1      46.165  32.933  28.574  1.00  0.00     0.058 A 
ATOM     62  C   UNL A   1      46.087  33.869  27.529  1.00  0.00     0.135 A 
ATOM     63  C   UNL A   1      46.584  33.394  29.833  1.00  0.00     0.135 A 
ATOM     64  F   UNL A   1      45.704  33.481  26.301  1.00  0.00    -0.206 F 
ATOM     65  C   UNL A   1      46.453  35.198  27.714  1.00  0.00     0.059 A 
ATOM     66  C   UNL A   1      46.929  34.725  30.047  1.00  0.00     0.059 A 
ATOM     67  F   UNL A   1      46.673  32.544  30.868  1.00  0.00    -0.206 F 
ATOM     68  C   UNL A   1      46.881  35.615  28.975  1.00  0.00     0.060 A 
BRANCH  68  69
ATOM     69  S   UNL A   1      47.376  37.337  29.198  1.00  0.00     0.124 S 
ATOM     70  O   UNL A   1      46.387  37.798  30.170  1.00  0.00    -0.237 OA
ATOM     71  O   UNL A   1      48.742  37.209  29.701  1.00  0.00    -0.237 OA
ATOM     72  O   UNL A   1      47.254  37.902  27.861  1.00  0.00    -0.744 OA
ENDBRANCH  68  69
ENDBRANCH  47  61
BRANCH  48  73
ATOM     73  C   UNL A   1      43.227  23.529  26.966  1.00  0.00     0.058 A 
ATOM     74  C   UNL A   1      42.965  23.077  25.664  1.00  0.00     0.135 A 
ATOM     75  C   UNL A   1      43.094  22.611  28.018  1.00  0.00     0.135 A 
ATOM     76  F   UNL A   1      43.072  23.922  24.627  1.00  0.00    -0.206 F 
ATOM     77  C   UNL A   1      42.576  21.767  25.412  1.00  0.00     0.059 A 
ATOM     78  C   UNL A   1      42.727  21.288  27.788  1.00  0.00     0.059 A 
ATOM     79  F   UNL A   1      43.349  22.990  29.279  1.00  0.00    -0.206 F 
ATOM     80  C   UNL A   1      42.465  20.877  26.482  1.00  0.00     0.060 A 
BRANCH  80  81
ATOM     81  S   UNL A   1      42.024  19.160  26.136  1.00  0.00     0.124 S 
ATOM     82  O   UNL A   1      42.885  18.859  24.998  1.00  0.00    -0.237 OA
ATOM     83  O   UNL A   1      42.368  18.497  27.390  1.00  0.00    -0.237 OA
ATOM     84  O   UNL A   1      40.595  19.233  25.847  1.00  0.00    -0.744 OA
ENDBRANCH  80  81
ENDBRANCH  48  73
BRANCH  60  85
ATOM     85  C   UNL A   1      49.339  26.832  26.392  1.00  0.00     0.058 A 
ATOM     86  C   UNL A   1      50.201  26.183  27.289  1.00  0.00     0.135 A 
ATOM     87  C   UNL A   1      49.775  26.998  25.067  1.00  0.00     0.135 A 
ATOM     88  F   UNL A   1      49.836  26.006  28.568  1.00  0.00    -0.206 F 
ATOM     89  C   UNL A   1      51.456  25.731  26.892  1.00  0.00     0.059 A 
ATOM     90  C   UNL A   1      51.015  26.532  24.642  1.00  0.00     0.059 A 
ATOM     91  F   UNL A   1      48.984  27.603  24.167  1.00  0.00    -0.206 F 
ATOM     92  C   UNL A   1      51.853  25.910  25.566  1.00  0.00     0.060 A 
BRANCH  92  93
ATOM     93  S   UNL A   1      53.469  25.288  25.052  1.00  0.00     0.124 S 
ATOM     94  O   UNL A   1      53.497  25.672  23.645  1.00  0.00    -0.237 OA
ATOM     95  O   UNL A   1      54.380  26.020  25.927  1.00  0.00    -0.237 OA
ATOM     96  O   UNL A   1      53.379  23.854  25.311  1.00  0.00    -0.744 OA
ENDBRANCH  92  93
ENDBRANCH  60  85
ENDBRANCH  34  35
ENDBRANCH  26  29
ENDBRANCH   1  25
TORSDOF 14
ENDMDL
MODEL 2
REMARK VINA RESULT:     -12.6      0.955      1.519
REMARK SMILES C[C@@H]1CN(C(=O)N2CCC(CC(=O)NCCCNC(=O)c3ccc(-c4c5nc(c(-c6c(F)cc(S(=O)(=O)[O-])cc6F)c6ccc([nH]6)c(-c6c(F)cc(S(=O)(=O)[O-])cc6F)c6nc(c(-c7c(F)cc(S(=O)(=O)[O-])cc7F)c7ccc4[nH]7)C=C6)C=C5)cc3)CC2)C[C@@H](C)S1
REMARK SMILES IDX 17 1 16 2 15 3 14 4 12 5 13 6 11 8 10 9 1 10 2 11 3 12 92 13
REMARK SMILES IDX 4 14 90 15 5 16 89 17 91 18 6 19 7 20 8 21 88 22 9 23 87 24
REMARK SMILES IDX 18 25 19 26 20 28 21 29 22 30 86 31 23 32 85 33 24 34 25 35
REMARK SMILES IDX 26 36 79 37 27 38 84 39 78 40 80 41 28 42 83 43 77 44 76 45
REMARK SMILES IDX 29 47 63 48 42 49 62 50 43 51 46 52 61 53 81 54 44 55 45 56
REMARK SMILES IDX 60 58 82 59 47 60 30 61 31 62 40 63 32 64 33 65 39 66 41 67
REMARK SMILES IDX 34 68 35 69 36 70 37 71 38 72 64 73 65 74 74 75 66 76 67 77
REMARK SMILES IDX 73 78 75 79 68 80 69 81 70 82 71 83 72 84 48 85 49 86 58 87
REMARK SMILES IDX 50 88 51 89 57 90 59 91 52 92 53 93 54 94 55 95 56 96
REMARK H PARENT 14 7 18 27 80 46 46 57
REMARK Flexibility Score: inf
ROOT
ATOM      1  C   UNL A   1      35.279  30.658  27.734  1.00  0.00     0.118 C 
ENDROOT
BRANCH   1   2
ATOM      2  C   UNL A   1      34.854  29.267  27.281  1.00  0.00     0.042 C 
BRANCH   2   3
ATOM      3  C   UNL A   1      33.398  28.917  27.596  1.00  0.00     0.117 C 
BRANCH   3   4
ATOM      4  N   UNL A   1      32.450  29.735  26.848  1.00  0.00    -0.356 N 
ATOM      5  C   UNL A   1      31.914  29.591  25.602  1.00  0.00     0.220 C 
ATOM      6  O   UNL A   1      31.123  30.449  25.208  1.00  0.00    -0.275 OA
ATOM      7  H   UNL A   1      32.139  30.535  27.331  1.00  0.00     0.163 HD
BRANCH   5   8
ATOM      8  C   UNL A   1      32.278  28.413  24.718  1.00  0.00     0.103 C 
BRANCH   8   9
ATOM      9  C   UNL A   1      31.169  27.342  24.609  1.00  0.00     0.002 C 
ATOM     10  C   UNL A   1      34.241  23.480  26.319  1.00  0.00     0.021 C 
ATOM     11  C   UNL A   1      34.415  22.810  24.956  1.00  0.00     0.063 C 
ATOM     12  C   UNL A   1      33.245  23.098  23.994  1.00  0.00     0.135 C 
ATOM     13  S   UNL A   1      34.708  21.014  25.166  1.00  0.00    -0.152 SA
ATOM     14  N   UNL A   1      31.983  22.484  24.413  1.00  0.00    -0.322 N 
ATOM     15  C   UNL A   1      32.977  20.467  25.499  1.00  0.00     0.063 C 
ATOM     16  C   UNL A   1      31.023  23.144  25.164  1.00  0.00     0.320 C 
ATOM     17  C   UNL A   1      32.003  21.020  24.446  1.00  0.00     0.135 C 
ATOM     18  C   UNL A   1      32.953  18.943  25.519  1.00  0.00     0.021 C 
ATOM     19  O   UNL A   1      30.431  22.576  26.081  1.00  0.00    -0.248 OA
ATOM     20  N   UNL A   1      30.798  24.476  24.879  1.00  0.00    -0.325 N 
ATOM     21  C   UNL A   1      30.204  25.339  25.886  1.00  0.00     0.121 C 
ATOM     22  C   UNL A   1      30.746  25.026  23.535  1.00  0.00     0.121 C 
ATOM     23  C   UNL A   1      31.007  26.636  25.973  1.00  0.00     0.026 C 
ATOM     24  C   UNL A   1      31.493  26.351  23.482  1.00  0.00     0.026 C 
ENDBRANCH   8   9
ENDBRANCH   5   8
ENDBRANCH   3   4
ENDBRANCH   2   3
ENDBRANCH   1   2
BRANCH   1  25
ATOM     25  N   UNL A   1      35.283  30.770  29.182  1.00  0.00    -0.352 N 
ATOM     26  C   UNL A   1      36.205  30.323  30.097  1.00  0.00     0.251 C 
ATOM     27  H   UNL A   1      34.505  31.237  29.566  1.00  0.00     0.163 HD
ATOM     28  O   UNL A   1      35.884  30.276  31.283  1.00  0.00    -0.269 OA
BRANCH  26  29
ATOM     29  C   UNL A   1      37.565  29.888  29.684  1.00  0.00     0.039 A 
ATOM     30  C   UNL A   1      38.435  29.386  30.659  1.00  0.00     0.014 A 
ATOM     31  C   UNL A   1      38.025  30.041  28.373  1.00  0.00     0.014 A 
ATOM     32  C   UNL A   1      39.739  29.011  30.315  1.00  0.00     0.010 A 
ATOM     33  C   UNL A   1      39.297  29.591  28.015  1.00  0.00     0.010 A 
ATOM     34  C   UNL A   1      40.178  29.092  28.984  1.00  0.00    -0.014 A 
BRANCH  34  35
ATOM     35  C   UNL A   1      41.563  28.700  28.600  1.00  0.00     0.031 A 
ATOM     36  C   UNL A   1      42.666  29.729  28.590  1.00  0.00     0.074 A 
ATOM     37  C   UNL A   1      41.826  27.436  28.214  1.00  0.00     0.049 A 
ATOM     38  N   UNL A   1      43.920  29.596  28.237  1.00  0.00    -0.248 NA
ATOM     39  C   UNL A   1      42.306  31.094  29.009  1.00  0.00     0.031 C 
ATOM     40  C   UNL A   1      40.844  26.352  28.144  1.00  0.00     0.029 A 
ATOM     41  N   UNL A   1      42.997  26.849  27.804  1.00  0.00    -0.354 N 
ATOM     42  C   UNL A   1      44.488  30.859  28.361  1.00  0.00     0.074 A 
ATOM     43  C   UNL A   1      43.432  31.755  28.781  1.00  0.00     0.031 C 
ATOM     44  C   UNL A   1      41.460  25.226  27.747  1.00  0.00     0.029 A 
ATOM     45  C   UNL A   1      42.870  25.514  27.500  1.00  0.00     0.049 A 
ATOM     46  H   UNL A   1      43.849  27.338  27.735  1.00  0.00     0.167 HD
ATOM     47  C   UNL A   1      45.774  31.238  28.163  1.00  0.00     0.037 A 
ATOM     48  C   UNL A   1      43.785  24.622  27.071  1.00  0.00     0.037 A 
ATOM     49  C   UNL A   1      46.833  30.338  27.790  1.00  0.00     0.049 A 
ATOM     50  C   UNL A   1      45.210  25.062  26.868  1.00  0.00     0.074 A 
ATOM     51  C   UNL A   1      48.184  30.609  27.649  1.00  0.00     0.029 A 
ATOM     52  N   UNL A   1      46.664  28.993  27.498  1.00  0.00    -0.354 N 
ATOM     53  N   UNL A   1      45.741  26.247  27.054  1.00  0.00    -0.248 NA
ATOM     54  C   UNL A   1      46.158  24.044  26.398  1.00  0.00     0.031 C 
ATOM     55  C   UNL A   1      48.825  29.436  27.233  1.00  0.00     0.029 A 
ATOM     56  C   UNL A   1      47.880  28.425  27.154  1.00  0.00     0.049 A 
ATOM     57  H   UNL A   1      45.806  28.512  27.531  1.00  0.00     0.167 HD
ATOM     58  C   UNL A   1      47.091  26.109  26.753  1.00  0.00     0.074 A 
ATOM     59  C   UNL A   1      47.296  24.725  26.376  1.00  0.00     0.031 C 
ATOM     60  C   UNL A   1      48.073  27.044  26.788  1.00  0.00     0.037 A 
BRANCH  47  61
ATOM     61  C   UNL A   1      46.105  32.695  28.344  1.00  0.00     0.058 A 
ATOM     62  C   UNL A   1      46.516  33.213  29.582  1.00  0.00     0.135 A 
ATOM     63  C   UNL A   1      46.023  33.583  27.259  1.00  0.00     0.135 A 
ATOM     64  F   UNL A   1      46.600  32.411  30.657  1.00  0.00    -0.206 F 
ATOM     65  C   UNL A   1      46.792  34.566  29.750  1.00  0.00     0.059 A 
ATOM     66  C   UNL A   1      46.321  34.936  27.397  1.00  0.00     0.059 A 
ATOM     67  F   UNL A   1      45.641  33.141  26.051  1.00  0.00    -0.206 F 
ATOM     68  C   UNL A   1      46.684  35.422  28.652  1.00  0.00     0.060 A 
BRANCH  68  69
ATOM     69  S   UNL A   1      47.021  37.180  28.886  1.00  0.00     0.124 S 
ATOM     70  O   UNL A   1      45.671  37.738  28.866  1.00  0.00    -0.237 OA
ATOM     71  O   UNL A   1      47.693  37.201  30.184  1.00  0.00    -0.237 OA
ATOM     72  O   UNL A   1      47.859  37.521  27.745  1.00  0.00    -0.744 OA
ENDBRANCH  68  69
ENDBRANCH  47  61
BRANCH  48  73
ATOM     73  C   UNL A   1      43.389  23.206  26.846  1.00  0.00     0.058 A 
ATOM     74  C   UNL A   1      43.357  22.672  25.549  1.00  0.00     0.135 A 
ATOM     75  C   UNL A   1      43.059  22.358  27.913  1.00  0.00     0.135 A 
ATOM     76  F   UNL A   1      43.657  23.448  24.497  1.00  0.00    -0.206 F 
ATOM     77  C   UNL A   1      43.004  21.348  25.315  1.00  0.00     0.059 A 
ATOM     78  C   UNL A   1      42.724  21.023  27.706  1.00  0.00     0.059 A 
ATOM     79  F   UNL A   1      43.090  22.818  29.173  1.00  0.00    -0.206 F 
ATOM     80  C   UNL A   1      42.693  20.529  26.402  1.00  0.00     0.060 A 
BRANCH  80  81
ATOM     81  S   UNL A   1      42.300  18.794  26.094  1.00  0.00     0.124 S 
ATOM     82  O   UNL A   1      42.616  18.188  27.382  1.00  0.00    -0.237 OA
ATOM     83  O   UNL A   1      40.883  18.856  25.747  1.00  0.00    -0.237 OA
ATOM     84  O   UNL A   1      43.191  18.439  24.993  1.00  0.00    -0.744 OA
ENDBRANCH  80  81
ENDBRANCH  48  73
BRANCH  60  85
ATOM     85  C   UNL A   1      49.465  26.598  26.443  1.00  0.00     0.058 A 
ATOM     86  C   UNL A   1      50.283  25.942  27.375  1.00  0.00     0.135 A 
ATOM     87  C   UNL A   1      49.970  26.785  25.145  1.00  0.00     0.135 A 
ATOM     88  F   UNL A   1      49.851  25.746  28.631  1.00  0.00    -0.206 F 
ATOM     89  C   UNL A   1      51.560  25.504  27.041  1.00  0.00     0.059 A 
ATOM     90  C   UNL A   1      51.234  26.332  24.781  1.00  0.00     0.059 A 
ATOM     91  F   UNL A   1      49.224  27.397  24.212  1.00  0.00    -0.206 F 
ATOM     92  C   UNL A   1      52.026  25.703  25.740  1.00  0.00     0.060 A 
BRANCH  92  93
ATOM     93  S   UNL A   1      53.671  25.098  25.305  1.00  0.00     0.124 S 
ATOM     94  O   UNL A   1      53.819  25.602  23.944  1.00  0.00    -0.237 OA
ATOM     95  O   UNL A   1      54.516  25.733  26.312  1.00  0.00    -0.237 OA
ATOM     96  O   UNL A   1      53.543  23.649  25.427  1.00  0.00    -0.744 OA
ENDBRANCH  92  93
ENDBRANCH  60  85
ENDBRANCH  34  35
ENDBRANCH  26  29
ENDBRANCH   1  25
TORSDOF 14
ENDMDL
MODEL 3
REMARK VINA RESULT:     -12.6      6.431     12.005
REMARK SMILES C[C@@H]1CN(C(=O)N2CCC(CC(=O)NCCCNC(=O)c3ccc(-c4c5nc(c(-c6c(F)cc(S(=O)(=O)[O-])cc6F)c6ccc([nH]6)c(-c6c(F)cc(S(=O)(=O)[O-])cc6F)c6nc(c(-c7c(F)cc(S(=O)(=O)[O-])cc7F)c7ccc4[nH]7)C=C6)C=C5)cc3)CC2)C[C@@H](C)S1
REMARK SMILES IDX 17 1 16 2 15 3 14 4 12 5 13 6 11 8 10 9 1 10 2 11 3 12 92 13
REMARK SMILES IDX 4 14 90 15 5 16 89 17 91 18 6 19 7 20 8 21 88 22 9 23 87 24
REMARK SMILES IDX 18 25 19 26 20 28 21 29 22 30 86 31 23 32 85 33 24 34 25 35
REMARK SMILES IDX 26 36 79 37 27 38 84 39 78 40 80 41 28 42 83 43 77 44 76 45
REMARK SMILES IDX 29 47 63 48 42 49 62 50 43 51 46 52 61 53 81 54 44 55 45 56
REMARK SMILES IDX 60 58 82 59 47 60 30 61 31 62 40 63 32 64 33 65 39 66 41 67
REMARK SMILES IDX 34 68 35 69 36 70 37 71 38 72 64 73 65 74 74 75 66 76 67 77
REMARK SMILES IDX 73 78 75 79 68 80 69 81 70 82 71 83 72 84 48 85 49 86 58 87
REMARK SMILES IDX 50 88 51 89 57 90 59 91 52 92 53 93 54 94 55 95 56 96
REMARK H PARENT 14 7 18 27 80 46 46 57
REMARK Flexibility Score: inf
ROOT
ATOM      1  C   UNL A   1      40.216  23.088  27.064  1.00  0.00     0.118 C 
ENDROOT
BRANCH   1   2
ATOM      2  C   UNL A   1      39.462  21.930  26.423  1.00  0.00     0.042 C 
BRANCH   2   3
ATOM      3  C   UNL A   1      38.156  22.332  25.733  1.00  0.00     0.117 C 
BRANCH   3   4
ATOM      4  N   UNL A   1      37.310  21.185  25.421  1.00  0.00    -0.356 N 
ATOM      5  C   UNL A   1      35.967  21.080  25.213  1.00  0.00     0.220 C 
ATOM      6  O   UNL A   1      35.504  19.965  24.963  1.00  0.00    -0.275 OA
ATOM      7  H   UNL A   1      37.797  20.333  25.346  1.00  0.00     0.163 HD
BRANCH   5   8
ATOM      8  C   UNL A   1      35.060  22.294  25.285  1.00  0.00     0.103 C 
BRANCH   8   9
ATOM      9  C   UNL A   1      33.988  22.346  24.172  1.00  0.00     0.002 C 
ATOM     10  C   UNL A   1      33.681  27.559  24.226  1.00  0.00     0.021 C 
ATOM     11  C   UNL A   1      32.324  27.624  24.929  1.00  0.00     0.063 C 
ATOM     12  C   UNL A   1      31.474  26.358  24.706  1.00  0.00     0.135 C 
ATOM     13  S   UNL A   1      31.432  29.148  24.445  1.00  0.00    -0.152 SA
ATOM     14  N   UNL A   1      31.028  26.194  23.321  1.00  0.00    -0.322 N 
ATOM     15  C   UNL A   1      30.831  28.624  22.781  1.00  0.00     0.063 C 
ATOM     16  C   UNL A   1      31.709  25.436  22.381  1.00  0.00     0.320 C 
ATOM     17  C   UNL A   1      30.137  27.254  22.842  1.00  0.00     0.135 C 
ATOM     18  C   UNL A   1      29.880  29.696  22.257  1.00  0.00     0.021 C 
ATOM     19  O   UNL A   1      31.843  25.829  21.222  1.00  0.00    -0.248 OA
ATOM     20  N   UNL A   1      32.276  24.252  22.810  1.00  0.00    -0.325 N 
ATOM     21  C   UNL A   1      33.375  23.666  22.061  1.00  0.00     0.121 C 
ATOM     22  C   UNL A   1      31.635  23.326  23.728  1.00  0.00     0.121 C 
ATOM     23  C   UNL A   1      34.483  23.262  23.032  1.00  0.00     0.026 C 
ATOM     24  C   UNL A   1      32.644  22.816  24.746  1.00  0.00     0.026 C 
ENDBRANCH   8   9
ENDBRANCH   5   8
ENDBRANCH   3   4
ENDBRANCH   2   3
ENDBRANCH   1   2
BRANCH   1  25
ATOM     25  N   UNL A   1      41.112  23.729  26.120  1.00  0.00    -0.352 N 
ATOM     26  C   UNL A   1      41.555  25.030  26.070  1.00  0.00     0.251 C 
ATOM     27  H   UNL A   1      41.456  23.143  25.406  1.00  0.00     0.163 HD
ATOM     28  O   UNL A   1      42.085  25.431  25.036  1.00  0.00    -0.269 OA
BRANCH  26  29
ATOM     29  C   UNL A   1      41.396  25.952  27.223  1.00  0.00     0.039 A 
ATOM     30  C   UNL A   1      40.302  25.776  28.080  1.00  0.00     0.014 A 
ATOM     31  C   UNL A   1      42.257  27.035  27.430  1.00  0.00     0.014 A 
ATOM     32  C   UNL A   1      40.095  26.655  29.150  1.00  0.00     0.010 A 
ATOM     33  C   UNL A   1      42.095  27.861  28.543  1.00  0.00     0.010 A 
ATOM     34  C   UNL A   1      41.001  27.697  29.404  1.00  0.00    -0.014 A 
BRANCH  34  35
ATOM     35  C   UNL A   1      40.794  28.644  30.535  1.00  0.00     0.031 A 
ATOM     36  C   UNL A   1      41.644  28.537  31.776  1.00  0.00     0.074 A 
ATOM     37  C   UNL A   1      39.816  29.568  30.473  1.00  0.00     0.049 A 
ATOM     38  N   UNL A   1      41.583  29.232  32.885  1.00  0.00    -0.248 NA
ATOM     39  C   UNL A   1      42.684  27.495  31.783  1.00  0.00     0.031 C 
ATOM     40  C   UNL A   1      38.899  29.756  29.346  1.00  0.00     0.029 A 
ATOM     41  N   UNL A   1      39.425  30.523  31.380  1.00  0.00    -0.354 N 
ATOM     42  C   UNL A   1      42.550  28.694  33.727  1.00  0.00     0.074 A 
ATOM     43  C   UNL A   1      43.155  27.588  33.019  1.00  0.00     0.031 C 
ATOM     44  C   UNL A   1      38.076  30.782  29.616  1.00  0.00     0.029 A 
ATOM     45  C   UNL A   1      38.379  31.303  30.946  1.00  0.00     0.049 A 
ATOM     46  H   UNL A   1      39.856  30.639  32.258  1.00  0.00     0.167 HD
ATOM     47  C   UNL A   1      42.916  29.095  34.969  1.00  0.00     0.037 A 
ATOM     48  C   UNL A   1      37.737  32.322  31.550  1.00  0.00     0.037 A 
ATOM     49  C   UNL A   1      42.345  30.225  35.654  1.00  0.00     0.049 A 
ATOM     50  C   UNL A   1      38.166  32.757  32.925  1.00  0.00     0.074 A 
ATOM     51  C   UNL A   1      42.708  30.762  36.878  1.00  0.00     0.029 A 
ATOM     52  N   UNL A   1      41.292  30.992  35.178  1.00  0.00    -0.354 N 
ATOM     53  N   UNL A   1      39.128  32.277  33.678  1.00  0.00    -0.248 NA
ATOM     54  C   UNL A   1      37.426  33.872  33.530  1.00  0.00     0.031 C 
ATOM     55  C   UNL A   1      41.847  31.830  37.160  1.00  0.00     0.029 A 
ATOM     56  C   UNL A   1      40.975  31.983  36.093  1.00  0.00     0.049 A 
ATOM     57  H   UNL A   1      40.837  30.853  34.316  1.00  0.00     0.167 HD
ATOM     58  C   UNL A   1      39.126  33.051  34.833  1.00  0.00     0.074 A 
ATOM     59  C   UNL A   1      38.072  34.032  34.678  1.00  0.00     0.031 C 
ATOM     60  C   UNL A   1      39.928  32.958  35.923  1.00  0.00     0.037 A 
BRANCH  47  61
ATOM     61  C   UNL A   1      43.985  28.301  35.669  1.00  0.00     0.058 A 
ATOM     62  C   UNL A   1      45.350  28.581  35.495  1.00  0.00     0.135 A 
ATOM     63  C   UNL A   1      43.639  27.251  36.536  1.00  0.00     0.135 A 
ATOM     64  F   UNL A   1      45.738  29.565  34.668  1.00  0.00    -0.206 F 
ATOM     65  C   UNL A   1      46.334  27.823  36.122  1.00  0.00     0.059 A 
ATOM     66  C   UNL A   1      44.607  26.498  37.195  1.00  0.00     0.059 A 
ATOM     67  F   UNL A   1      42.349  26.943  36.743  1.00  0.00    -0.206 F 
ATOM     68  C   UNL A   1      45.952  26.778  36.964  1.00  0.00     0.060 A 
BRANCH  68  69
ATOM     69  S   UNL A   1      47.238  25.786  37.754  1.00  0.00     0.124 S 
ATOM     70  O   UNL A   1      46.960  24.462  37.201  1.00  0.00    -0.237 OA
ATOM     71  O   UNL A   1      48.464  26.424  37.277  1.00  0.00    -0.237 OA
ATOM     72  O   UNL A   1      46.965  25.944  39.175  1.00  0.00    -0.744 OA
ENDBRANCH  68  69
ENDBRANCH  47  61
BRANCH  48  73
ATOM     73  C   UNL A   1      36.642  33.032  30.838  1.00  0.00     0.058 A 
ATOM     74  C   UNL A   1      35.303  32.839  31.212  1.00  0.00     0.135 A 
ATOM     75  C   UNL A   1      36.907  33.929  29.792  1.00  0.00     0.135 A 
ATOM     76  F   UNL A   1      35.001  31.984  32.201  1.00  0.00    -0.206 F 
ATOM     77  C   UNL A   1      34.264  33.503  30.569  1.00  0.00     0.059 A 
ATOM     78  C   UNL A   1      35.886  34.622  29.149  1.00  0.00     0.059 A 
ATOM     79  F   UNL A   1      38.172  34.160  29.408  1.00  0.00    -0.206 F 
ATOM     80  C   UNL A   1      34.567  34.397  29.541  1.00  0.00     0.060 A 
BRANCH  80  81
ATOM     81  S   UNL A   1      33.215  35.304  28.758  1.00  0.00     0.124 S 
ATOM     82  O   UNL A   1      33.943  36.294  27.972  1.00  0.00    -0.237 OA
ATOM     83  O   UNL A   1      32.541  34.256  27.999  1.00  0.00    -0.237 OA
ATOM     84  O   UNL A   1      32.462  35.828  29.894  1.00  0.00    -0.744 OA
ENDBRANCH  80  81
ENDBRANCH  48  73
BRANCH  60  85
ATOM     85  C   UNL A   1      39.722  33.963  37.021  1.00  0.00     0.058 A 
ATOM     86  C   UNL A   1      38.972  33.661  38.167  1.00  0.00     0.135 A 
ATOM     87  C   UNL A   1      40.326  35.230  36.947  1.00  0.00     0.135 A 
ATOM     88  F   UNL A   1      38.369  32.467  38.283  1.00  0.00    -0.206 F 
ATOM     89  C   UNL A   1      38.810  34.585  39.194  1.00  0.00     0.059 A 
ATOM     90  C   UNL A   1      40.197  36.160  37.973  1.00  0.00     0.059 A 
ATOM     91  F   UNL A   1      41.062  35.566  35.877  1.00  0.00    -0.206 F 
ATOM     92  C   UNL A   1      39.428  35.832  39.088  1.00  0.00     0.060 A 
BRANCH  92  93
ATOM     93  S   UNL A   1      39.242  37.011  40.444  1.00  0.00     0.124 S 
ATOM     94  O   UNL A   1      38.485  36.226  41.414  1.00  0.00    -0.237 OA
ATOM     95  O   UNL A   1      40.627  37.298  40.803  1.00  0.00    -0.237 OA
ATOM     96  O   UNL A   1      38.517  38.120  39.832  1.00  0.00    -0.744 OA
ENDBRANCH  92  93
ENDBRANCH  60  85
ENDBRANCH  34  35
ENDBRANCH  26  29
ENDBRANCH   1  25
TORSDOF 14
ENDMDL
