MODEL 1
REMARK VINA RESULT:     -14.3      0.000      0.000
REMARK SMILES Cc1ccc(NC(=O)C[C@@H]2C[NH2+]CCO2)c(C(=O)NCCCNC(=O)c2ccc(-c3c4nc(c(-c5c(F)cc(S(=O)(=O)[O-])cc5F)c5ccc([nH]5)c(-c5c(F)cc(S(=O)(=O)[O-])cc5F)c5nc(c(-c6c(F)cc(S(=O)(=O)[O-])cc6F)c6ccc3[nH]6)C=C5)C=C4)cc2)c1
REMARK SMILES IDX 21 1 20 2 19 3 17 4 18 5 16 7 1 8 2 9 3 10 92 11 4 12 5 13
REMARK SMILES IDX 6 14 7 15 8 17 9 18 10 19 11 20 15 21 12 22 14 23 13 24
REMARK SMILES IDX 22 27 23 28 24 29 25 31 26 32 27 33 91 34 28 35 90 36 29 37
REMARK SMILES IDX 30 38 31 39 84 40 32 41 89 42 83 43 85 44 33 45 88 46 82 47
REMARK SMILES IDX 81 48 34 50 68 51 47 52 67 53 48 54 51 55 66 56 86 57 49 58
REMARK SMILES IDX 50 59 65 61 87 62 52 63 35 64 36 65 45 66 37 67 38 68 44 69
REMARK SMILES IDX 46 70 39 71 40 72 41 73 42 74 43 75 69 76 70 77 79 78 71 79
REMARK SMILES IDX 72 80 78 81 80 82 73 83 74 84 75 85 76 86 77 87 53 88 54 89
REMARK SMILES IDX 63 90 55 91 56 92 62 93 64 94 57 95 58 96 59 97 60 98 61 99
REMARK H PARENT 19 6 6 16 12 25 12 26 23 30 85 49 51 60
REMARK Flexibility Score: inf
ROOT
ATOM      1  C   UNL A   1      33.181  29.931  27.116  1.00  0.00     0.042 C 
ENDROOT
BRANCH   1   2
ATOM      2  C   UNL A   1      32.356  28.685  27.439  1.00  0.00     0.118 C 
BRANCH   2   3
ATOM      3  N   UNL A   1      32.928  27.478  26.851  1.00  0.00    -0.352 N 
ATOM      4  C   UNL A   1      32.542  26.691  25.788  1.00  0.00     0.253 C 
ATOM      5  O   UNL A   1      33.335  25.822  25.420  1.00  0.00    -0.269 OA
ATOM      6  H   UNL A   1      33.745  27.166  27.301  1.00  0.00     0.163 HD
BRANCH   4   7
ATOM      7  C   UNL A   1      31.259  26.885  25.032  1.00  0.00     0.063 A 
ATOM      8  C   UNL A   1      29.756  29.402  22.586  1.00  0.00     0.044 C 
ATOM      9  C   UNL A   1      29.927  28.163  23.411  1.00  0.00    -0.050 A 
ATOM     10  C   UNL A   1      28.934  27.195  23.475  1.00  0.00     0.005 A 
ATOM     11  C   UNL A   1      31.077  27.989  24.188  1.00  0.00     0.019 A 
ATOM     12  C   UNL A   1      29.055  26.132  24.371  1.00  0.00     0.027 A 
ATOM     13  C   UNL A   1      30.156  26.022  25.232  1.00  0.00     0.054 A 
BRANCH  13  14
ATOM     14  N   UNL A   1      30.153  25.130  26.334  1.00  0.00    -0.325 N 
ATOM     15  C   UNL A   1      30.543  23.824  26.454  1.00  0.00     0.227 C 
ATOM     16  H   UNL A   1      29.806  25.523  27.167  1.00  0.00     0.169 HD
ATOM     17  O   UNL A   1      30.399  23.262  27.549  1.00  0.00    -0.275 OA
BRANCH  15  18
ATOM     18  C   UNL A   1      31.135  23.024  25.310  1.00  0.00     0.138 C 
BRANCH  18  19
ATOM     19  C   UNL A   1      32.081  21.872  25.690  1.00  0.00     0.182 C 
ATOM     20  C   UNL A   1      33.544  22.318  25.418  1.00  0.00     0.293 C 
ATOM     21  O   UNL A   1      31.780  20.679  24.961  1.00  0.00    -0.366 OA
ATOM     22  N   UNL A   1      34.544  21.253  25.628  1.00  0.00    -0.342 N 
ATOM     23  C   UNL A   1      32.717  19.629  25.193  1.00  0.00     0.222 C 
ATOM     24  C   UNL A   1      34.136  20.080  24.830  1.00  0.00     0.289 C 
ATOM     25  H   UNL A   1      34.582  21.004  26.617  1.00  0.00     0.346 HD
ATOM     26  H   UNL A   1      35.468  21.574  25.339  1.00  0.00     0.346 HD
ENDBRANCH  18  19
ENDBRANCH  15  18
ENDBRANCH  13  14
ENDBRANCH   4   7
ENDBRANCH   2   3
ENDBRANCH   1   2
BRANCH   1  27
ATOM     27  C   UNL A   1      34.679  29.722  27.271  1.00  0.00     0.118 C 
BRANCH  27  28
ATOM     28  N   UNL A   1      35.368  30.957  27.626  1.00  0.00    -0.352 N 
ATOM     29  C   UNL A   1      36.581  31.089  28.284  1.00  0.00     0.251 C 
ATOM     30  H   UNL A   1      34.920  31.795  27.368  1.00  0.00     0.163 HD
ATOM     31  O   UNL A   1      36.986  32.139  28.726  1.00  0.00    -0.269 OA
BRANCH  29  32
ATOM     32  C   UNL A   1      37.428  29.879  28.286  1.00  0.00     0.039 A 
ATOM     33  C   UNL A   1      37.493  29.168  29.490  1.00  0.00     0.014 A 
ATOM     34  C   UNL A   1      38.366  29.701  27.275  1.00  0.00     0.014 A 
ATOM     35  C   UNL A   1      38.611  28.385  29.756  1.00  0.00     0.010 A 
ATOM     36  C   UNL A   1      39.513  28.995  27.578  1.00  0.00     0.010 A 
ATOM     37  C   UNL A   1      39.653  28.375  28.832  1.00  0.00    -0.014 A 
BRANCH  37  38
ATOM     38  C   UNL A   1      40.953  27.769  29.090  1.00  0.00     0.031 A 
ATOM     39  C   UNL A   1      41.198  26.378  28.648  1.00  0.00     0.074 A 
ATOM     40  C   UNL A   1      41.951  28.513  29.613  1.00  0.00     0.049 A 
ATOM     41  N   UNL A   1      42.195  25.650  29.017  1.00  0.00    -0.248 NA
ATOM     42  C   UNL A   1      40.273  25.676  27.766  1.00  0.00     0.031 C 
ATOM     43  C   UNL A   1      43.379  28.212  29.584  1.00  0.00     0.029 A 
ATOM     44  N   UNL A   1      41.842  29.610  30.472  1.00  0.00    -0.354 N 
ATOM     45  C   UNL A   1      42.201  24.512  28.238  1.00  0.00     0.074 A 
ATOM     46  C   UNL A   1      40.955  24.556  27.511  1.00  0.00     0.031 C 
ATOM     47  C   UNL A   1      43.990  28.910  30.554  1.00  0.00     0.029 A 
ATOM     48  C   UNL A   1      42.951  29.549  31.342  1.00  0.00     0.049 A 
ATOM     49  H   UNL A   1      41.131  30.291  30.472  1.00  0.00     0.167 HD
ATOM     50  C   UNL A   1      43.320  23.732  28.205  1.00  0.00     0.037 A 
ATOM     51  C   UNL A   1      42.788  29.372  32.687  1.00  0.00     0.037 A 
ATOM     52  C   UNL A   1      44.301  24.190  29.189  1.00  0.00     0.049 A 
ATOM     53  C   UNL A   1      43.427  28.110  33.221  1.00  0.00     0.074 A 
ATOM     54  C   UNL A   1      45.405  25.022  29.096  1.00  0.00     0.029 A 
ATOM     55  N   UNL A   1      44.022  24.059  30.545  1.00  0.00    -0.354 N 
ATOM     56  N   UNL A   1      43.772  27.095  32.476  1.00  0.00    -0.248 NA
ATOM     57  C   UNL A   1      43.733  27.890  34.632  1.00  0.00     0.031 C 
ATOM     58  C   UNL A   1      45.738  25.459  30.402  1.00  0.00     0.029 A 
ATOM     59  C   UNL A   1      44.857  24.868  31.293  1.00  0.00     0.049 A 
ATOM     60  H   UNL A   1      43.327  23.471  30.920  1.00  0.00     0.167 HD
ATOM     61  C   UNL A   1      44.314  26.109  33.259  1.00  0.00     0.074 A 
ATOM     62  C   UNL A   1      44.285  26.664  34.600  1.00  0.00     0.031 C 
ATOM     63  C   UNL A   1      44.743  24.918  32.743  1.00  0.00     0.037 A 
BRANCH  50  64
ATOM     64  C   UNL A   1      43.635  22.765  27.076  1.00  0.00     0.058 A 
ATOM     65  C   UNL A   1      42.900  21.568  26.926  1.00  0.00     0.135 A 
ATOM     66  C   UNL A   1      44.694  22.915  26.159  1.00  0.00     0.135 A 
ATOM     67  F   UNL A   1      41.798  21.325  27.647  1.00  0.00    -0.206 F 
ATOM     68  C   UNL A   1      43.267  20.553  26.037  1.00  0.00     0.059 A 
ATOM     69  C   UNL A   1      45.119  21.892  25.304  1.00  0.00     0.059 A 
ATOM     70  F   UNL A   1      45.329  24.085  26.014  1.00  0.00    -0.206 F 
ATOM     71  C   UNL A   1      44.405  20.705  25.259  1.00  0.00     0.060 A 
BRANCH  71  72
ATOM     72  S   UNL A   1      44.922  19.348  24.190  1.00  0.00     0.124 S 
ATOM     73  O   UNL A   1      46.375  19.376  24.334  1.00  0.00    -0.237 OA
ATOM     74  O   UNL A   1      44.246  18.208  24.796  1.00  0.00    -0.237 OA
ATOM     75  O   UNL A   1      44.425  19.743  22.874  1.00  0.00    -0.744 OA
ENDBRANCH  71  72
ENDBRANCH  50  64
BRANCH  51  76
ATOM     76  C   UNL A   1      41.557  30.026  33.214  1.00  0.00     0.058 A 
ATOM     77  C   UNL A   1      41.602  31.421  33.409  1.00  0.00     0.135 A 
ATOM     78  C   UNL A   1      40.296  29.433  33.071  1.00  0.00     0.135 A 
ATOM     79  F   UNL A   1      42.785  32.038  33.573  1.00  0.00    -0.206 F 
ATOM     80  C   UNL A   1      40.467  32.215  33.281  1.00  0.00     0.059 A 
ATOM     81  C   UNL A   1      39.140  30.212  32.953  1.00  0.00     0.059 A 
ATOM     82  F   UNL A   1      40.187  28.108  32.894  1.00  0.00    -0.206 F 
ATOM     83  C   UNL A   1      39.253  31.604  32.980  1.00  0.00     0.060 A 
BRANCH  83  84
ATOM     84  S   UNL A   1      37.890  32.666  32.440  1.00  0.00     0.124 S 
ATOM     85  O   UNL A   1      36.896  31.690  32.008  1.00  0.00    -0.237 OA
ATOM     86  O   UNL A   1      37.567  33.388  33.671  1.00  0.00    -0.237 OA
ATOM     87  O   UNL A   1      38.487  33.470  31.382  1.00  0.00    -0.744 OA
ENDBRANCH  83  84
ENDBRANCH  51  76
BRANCH  63  88
ATOM     88  C   UNL A   1      45.176  23.713  33.542  1.00  0.00     0.058 A 
ATOM     89  C   UNL A   1      46.475  23.533  34.045  1.00  0.00     0.135 A 
ATOM     90  C   UNL A   1      44.220  22.755  33.962  1.00  0.00     0.135 A 
ATOM     91  F   UNL A   1      47.445  24.426  33.804  1.00  0.00    -0.206 F 
ATOM     92  C   UNL A   1      46.819  22.450  34.858  1.00  0.00     0.059 A 
ATOM     93  C   UNL A   1      44.529  21.699  34.816  1.00  0.00     0.059 A 
ATOM     94  F   UNL A   1      42.941  22.822  33.562  1.00  0.00    -0.206 F 
ATOM     95  C   UNL A   1      45.838  21.540  35.243  1.00  0.00     0.060 A 
BRANCH  95  96
ATOM     96  S   UNL A   1      46.250  20.185  36.358  1.00  0.00     0.124 S 
ATOM     97  O   UNL A   1      47.704  20.156  36.257  1.00  0.00    -0.237 OA
ATOM     98  O   UNL A   1      45.717  20.642  37.639  1.00  0.00    -0.237 OA
ATOM     99  O   UNL A   1      45.549  19.049  35.767  1.00  0.00    -0.744 OA
ENDBRANCH  95  96
ENDBRANCH  63  88
ENDBRANCH  37  38
ENDBRANCH  29  32
ENDBRANCH  27  28
ENDBRANCH   1  27
TORSDOF 16
ENDMDL
MODEL 2
REMARK VINA RESULT:     -14.2      0.987      1.715
REMARK SMILES Cc1ccc(NC(=O)C[C@@H]2C[NH2+]CCO2)c(C(=O)NCCCNC(=O)c2ccc(-c3c4nc(c(-c5c(F)cc(S(=O)(=O)[O-])cc5F)c5ccc([nH]5)c(-c5c(F)cc(S(=O)(=O)[O-])cc5F)c5nc(c(-c6c(F)cc(S(=O)(=O)[O-])cc6F)c6ccc3[nH]6)C=C5)C=C4)cc2)c1
REMARK SMILES IDX 21 1 20 2 19 3 17 4 18 5 16 7 1 8 2 9 3 10 92 11 4 12 5 13
REMARK SMILES IDX 6 14 7 15 8 17 9 18 10 19 11 20 15 21 12 22 14 23 13 24
REMARK SMILES IDX 22 27 23 28 24 29 25 31 26 32 27 33 91 34 28 35 90 36 29 37
REMARK SMILES IDX 30 38 31 39 84 40 32 41 89 42 83 43 85 44 33 45 88 46 82 47
REMARK SMILES IDX 81 48 34 50 68 51 47 52 67 53 48 54 51 55 66 56 86 57 49 58
REMARK SMILES IDX 50 59 65 61 87 62 52 63 35 64 36 65 45 66 37 67 38 68 44 69
REMARK SMILES IDX 46 70 39 71 40 72 41 73 42 74 43 75 69 76 70 77 79 78 71 79
REMARK SMILES IDX 72 80 78 81 80 82 73 83 74 84 75 85 76 86 77 87 53 88 54 89
REMARK SMILES IDX 63 90 55 91 56 92 62 93 64 94 57 95 58 96 59 97 60 98 61 99
REMARK H PARENT 19 6 6 16 12 25 12 26 23 30 85 49 51 60
REMARK Flexibility Score: inf
ROOT
ATOM      1  C   UNL A   1      32.848  29.889  27.239  1.00  0.00     0.042 C 
ENDROOT
BRANCH   1   2
ATOM      2  C   UNL A   1      32.208  28.526  27.508  1.00  0.00     0.118 C 
BRANCH   2   3
ATOM      3  N   UNL A   1      32.874  27.452  26.778  1.00  0.00    -0.352 N 
ATOM      4  C   UNL A   1      32.527  26.745  25.648  1.00  0.00     0.253 C 
ATOM      5  O   UNL A   1      33.387  26.004  25.167  1.00  0.00    -0.269 OA
ATOM      6  H   UNL A   1      33.734  27.180  27.169  1.00  0.00     0.163 HD
BRANCH   4   7
ATOM      7  C   UNL A   1      31.203  26.884  24.953  1.00  0.00     0.063 A 
ATOM      8  C   UNL A   1      29.486  29.329  22.576  1.00  0.00     0.044 C 
ATOM      9  C   UNL A   1      29.745  28.102  23.394  1.00  0.00    -0.050 A 
ATOM     10  C   UNL A   1      28.796  27.095  23.506  1.00  0.00     0.005 A 
ATOM     11  C   UNL A   1      30.937  27.977  24.116  1.00  0.00     0.019 A 
ATOM     12  C   UNL A   1      29.001  26.041  24.398  1.00  0.00     0.027 A 
ATOM     13  C   UNL A   1      30.145  25.979  25.207  1.00  0.00     0.054 A 
BRANCH  13  14
ATOM     14  N   UNL A   1      30.230  25.091  26.309  1.00  0.00    -0.325 N 
ATOM     15  C   UNL A   1      30.703  23.812  26.419  1.00  0.00     0.227 C 
ATOM     16  H   UNL A   1      29.884  25.465  27.152  1.00  0.00     0.169 HD
ATOM     17  O   UNL A   1      30.627  23.246  27.518  1.00  0.00    -0.275 OA
BRANCH  15  18
ATOM     18  C   UNL A   1      31.310  23.047  25.259  1.00  0.00     0.138 C 
BRANCH  18  19
ATOM     19  C   UNL A   1      32.022  21.726  25.599  1.00  0.00     0.182 C 
ATOM     20  C   UNL A   1      33.536  22.012  25.795  1.00  0.00     0.293 C 
ATOM     21  O   UNL A   1      31.827  20.744  24.579  1.00  0.00    -0.366 OA
ATOM     22  N   UNL A   1      34.352  20.801  26.007  1.00  0.00    -0.342 N 
ATOM     23  C   UNL A   1      32.579  19.551  24.800  1.00  0.00     0.222 C 
ATOM     24  C   UNL A   1      34.075  19.865  24.899  1.00  0.00     0.289 C 
ATOM     25  H   UNL A   1      34.105  20.368  26.896  1.00  0.00     0.346 HD
ATOM     26  H   UNL A   1      35.344  21.042  26.027  1.00  0.00     0.346 HD
ENDBRANCH  18  19
ENDBRANCH  15  18
ENDBRANCH  13  14
ENDBRANCH   4   7
ENDBRANCH   2   3
ENDBRANCH   1   2
BRANCH   1  27
ATOM     27  C   UNL A   1      34.346  29.816  26.991  1.00  0.00     0.118 C 
BRANCH  27  28
ATOM     28  N   UNL A   1      35.022  31.051  27.372  1.00  0.00    -0.352 N 
ATOM     29  C   UNL A   1      36.211  31.182  28.074  1.00  0.00     0.251 C 
ATOM     30  H   UNL A   1      34.584  31.889  27.097  1.00  0.00     0.163 HD
ATOM     31  O   UNL A   1      36.599  32.232  28.531  1.00  0.00    -0.269 OA
BRANCH  29  32
ATOM     32  C   UNL A   1      37.056  29.972  28.107  1.00  0.00     0.039 A 
ATOM     33  C   UNL A   1      37.122  29.293  29.330  1.00  0.00     0.014 A 
ATOM     34  C   UNL A   1      37.992  29.765  27.100  1.00  0.00     0.014 A 
ATOM     35  C   UNL A   1      38.239  28.516  29.615  1.00  0.00     0.010 A 
ATOM     36  C   UNL A   1      39.138  29.067  27.420  1.00  0.00     0.010 A 
ATOM     37  C   UNL A   1      39.279  28.480  28.690  1.00  0.00    -0.014 A 
BRANCH  37  38
ATOM     38  C   UNL A   1      40.579  27.880  28.962  1.00  0.00     0.031 A 
ATOM     39  C   UNL A   1      40.798  26.455  28.626  1.00  0.00     0.074 A 
ATOM     40  C   UNL A   1      41.599  28.649  29.400  1.00  0.00     0.049 A 
ATOM     41  N   UNL A   1      41.796  25.745  29.026  1.00  0.00    -0.248 NA
ATOM     42  C   UNL A   1      39.843  25.698  27.825  1.00  0.00     0.031 C 
ATOM     43  C   UNL A   1      43.022  28.329  29.360  1.00  0.00     0.029 A 
ATOM     44  N   UNL A   1      41.523  29.813  30.173  1.00  0.00    -0.354 N 
ATOM     45  C   UNL A   1      41.770  24.550  28.340  1.00  0.00     0.074 A 
ATOM     46  C   UNL A   1      40.505  24.553  27.643  1.00  0.00     0.031 C 
ATOM     47  C   UNL A   1      43.666  29.093  30.256  1.00  0.00     0.029 A 
ATOM     48  C   UNL A   1      42.654  29.805  31.016  1.00  0.00     0.049 A 
ATOM     49  H   UNL A   1      40.820  30.500  30.136  1.00  0.00     0.167 HD
ATOM     50  C   UNL A   1      42.879  23.755  28.341  1.00  0.00     0.037 A 
ATOM     51  C   UNL A   1      42.524  29.737  32.374  1.00  0.00     0.037 A 
ATOM     52  C   UNL A   1      43.890  24.277  29.260  1.00  0.00     0.049 A 
ATOM     53  C   UNL A   1      43.164  28.513  32.990  1.00  0.00     0.074 A 
ATOM     54  C   UNL A   1      45.000  25.084  29.074  1.00  0.00     0.029 A 
ATOM     55  N   UNL A   1      43.644  24.256  30.629  1.00  0.00    -0.354 N 
ATOM     56  N   UNL A   1      43.478  27.438  32.319  1.00  0.00    -0.248 NA
ATOM     57  C   UNL A   1      43.503  28.400  34.406  1.00  0.00     0.031 C 
ATOM     58  C   UNL A   1      45.372  25.618  30.333  1.00  0.00     0.029 A 
ATOM     59  C   UNL A   1      44.507  25.111  31.289  1.00  0.00     0.049 A 
ATOM     60  H   UNL A   1      42.953  23.708  31.066  1.00  0.00     0.167 HD
ATOM     61  C   UNL A   1      44.030  26.510  33.165  1.00  0.00     0.074 A 
ATOM     62  C   UNL A   1      44.041  27.169  34.458  1.00  0.00     0.031 C 
ATOM     63  C   UNL A   1      44.432  25.277  32.734  1.00  0.00     0.037 A 
BRANCH  50  64
ATOM     64  C   UNL A   1      43.154  22.699  27.284  1.00  0.00     0.058 A 
ATOM     65  C   UNL A   1      42.412  21.497  27.255  1.00  0.00     0.135 A 
ATOM     66  C   UNL A   1      44.182  22.768  26.324  1.00  0.00     0.135 A 
ATOM     67  F   UNL A   1      41.333  21.319  28.030  1.00  0.00    -0.206 F 
ATOM     68  C   UNL A   1      42.746  20.412  26.441  1.00  0.00     0.059 A 
ATOM     69  C   UNL A   1      44.576  21.677  25.541  1.00  0.00     0.059 A 
ATOM     70  F   UNL A   1      44.815  23.920  26.063  1.00  0.00    -0.206 F 
ATOM     71  C   UNL A   1      43.858  20.495  25.615  1.00  0.00     0.060 A 
BRANCH  71  72
ATOM     72  S   UNL A   1      44.337  19.053  24.643  1.00  0.00     0.124 S 
ATOM     73  O   UNL A   1      43.280  18.098  24.964  1.00  0.00    -0.237 OA
ATOM     74  O   UNL A   1      44.323  19.583  23.285  1.00  0.00    -0.237 OA
ATOM     75  O   UNL A   1      45.656  18.712  25.168  1.00  0.00    -0.744 OA
ENDBRANCH  71  72
ENDBRANCH  50  64
BRANCH  51  76
ATOM     76  C   UNL A   1      41.315  30.446  32.879  1.00  0.00     0.058 A 
ATOM     77  C   UNL A   1      40.182  29.661  33.173  1.00  0.00     0.135 A 
ATOM     78  C   UNL A   1      41.407  31.703  33.492  1.00  0.00     0.135 A 
ATOM     79  F   UNL A   1      40.033  28.456  32.595  1.00  0.00    -0.206 F 
ATOM     80  C   UNL A   1      39.280  30.020  34.168  1.00  0.00     0.059 A 
ATOM     81  C   UNL A   1      40.503  32.090  34.487  1.00  0.00     0.059 A 
ATOM     82  F   UNL A   1      42.456  32.501  33.244  1.00  0.00    -0.206 F 
ATOM     83  C   UNL A   1      39.494  31.204  34.869  1.00  0.00     0.060 A 
BRANCH  83  84
ATOM     84  S   UNL A   1      38.553  31.457  36.395  1.00  0.00     0.124 S 
ATOM     85  O   UNL A   1      38.180  30.094  36.754  1.00  0.00    -0.237 OA
ATOM     86  O   UNL A   1      39.550  32.085  37.263  1.00  0.00    -0.237 OA
ATOM     87  O   UNL A   1      37.456  32.322  35.975  1.00  0.00    -0.744 OA
ENDBRANCH  83  84
ENDBRANCH  51  76
BRANCH  63  88
ATOM     88  C   UNL A   1      44.872  24.133  33.614  1.00  0.00     0.058 A 
ATOM     89  C   UNL A   1      44.041  23.060  33.979  1.00  0.00     0.135 A 
ATOM     90  C   UNL A   1      46.231  24.010  33.996  1.00  0.00     0.135 A 
ATOM     91  F   UNL A   1      42.760  23.009  33.589  1.00  0.00    -0.206 F 
ATOM     92  C   UNL A   1      44.507  21.971  34.719  1.00  0.00     0.059 A 
ATOM     93  C   UNL A   1      46.728  22.907  34.687  1.00  0.00     0.059 A 
ATOM     94  F   UNL A   1      47.130  24.960  33.698  1.00  0.00    -0.206 F 
ATOM     95  C   UNL A   1      45.853  21.900  35.065  1.00  0.00     0.060 A 
BRANCH  95  96
ATOM     96  S   UNL A   1      46.485  20.462  35.950  1.00  0.00     0.124 S 
ATOM     97  O   UNL A   1      47.906  20.521  35.624  1.00  0.00    -0.237 OA
ATOM     98  O   UNL A   1      46.145  20.758  37.339  1.00  0.00    -0.237 OA
ATOM     99  O   UNL A   1      45.742  19.356  35.354  1.00  0.00    -0.744 OA
ENDBRANCH  95  96
ENDBRANCH  63  88
ENDBRANCH  37  38
ENDBRANCH  29  32
ENDBRANCH  27  28
ENDBRANCH   1  27
TORSDOF 16
ENDMDL
MODEL 3
REMARK VINA RESULT:     -13.9      1.753      3.679
REMARK SMILES Cc1ccc(NC(=O)C[C@@H]2C[NH2+]CCO2)c(C(=O)NCCCNC(=O)c2ccc(-c3c4nc(c(-c5c(F)cc(S(=O)(=O)[O-])cc5F)c5ccc([nH]5)c(-c5c(F)cc(S(=O)(=O)[O-])cc5F)c5nc(c(-c6c(F)cc(S(=O)(=O)[O-])cc6F)c6ccc3[nH]6)C=C5)C=C4)cc2)c1
REMARK SMILES IDX 21 1 20 2 19 3 17 4 18 5 16 7 1 8 2 9 3 10 92 11 4 12 5 13
REMARK SMILES IDX 6 14 7 15 8 17 9 18 10 19 11 20 15 21 12 22 14 23 13 24
REMARK SMILES IDX 22 27 23 28 24 29 25 31 26 32 27 33 91 34 28 35 90 36 29 37
REMARK SMILES IDX 30 38 31 39 84 40 32 41 89 42 83 43 85 44 33 45 88 46 82 47
REMARK SMILES IDX 81 48 34 50 68 51 47 52 67 53 48 54 51 55 66 56 86 57 49 58
REMARK SMILES IDX 50 59 65 61 87 62 52 63 35 64 36 65 45 66 37 67 38 68 44 69
REMARK SMILES IDX 46 70 39 71 40 72 41 73 42 74 43 75 69 76 70 77 79 78 71 79
REMARK SMILES IDX 72 80 78 81 80 82 73 83 74 84 75 85 76 86 77 87 53 88 54 89
REMARK SMILES IDX 63 90 55 91 56 92 62 93 64 94 57 95 58 96 59 97 60 98 61 99
REMARK H PARENT 19 6 6 16 12 25 12 26 23 30 85 49 51 60
REMARK Flexibility Score: inf
ROOT
ATOM      1  C   UNL A   1      34.277  29.266  25.763  1.00  0.00     0.042 C 
ENDROOT
BRANCH   1   2
ATOM      2  C   UNL A   1      32.871  29.192  25.166  1.00  0.00     0.118 C 
BRANCH   2   3
ATOM      3  N   UNL A   1      31.907  28.614  26.097  1.00  0.00    -0.352 N 
ATOM      4  C   UNL A   1      31.459  27.325  26.287  1.00  0.00     0.253 C 
ATOM      5  O   UNL A   1      30.758  27.118  27.280  1.00  0.00    -0.269 OA
ATOM      6  H   UNL A   1      31.499  29.271  26.704  1.00  0.00     0.163 HD
BRANCH   4   7
ATOM      7  C   UNL A   1      31.832  26.174  25.397  1.00  0.00     0.063 A 
ATOM      8  C   UNL A   1      34.978  24.243  24.420  1.00  0.00     0.044 C 
ATOM      9  C   UNL A   1      33.533  24.620  24.544  1.00  0.00    -0.050 A 
ATOM     10  C   UNL A   1      32.544  23.920  23.866  1.00  0.00     0.005 A 
ATOM     11  C   UNL A   1      33.160  25.734  25.303  1.00  0.00     0.019 A 
ATOM     12  C   UNL A   1      31.229  24.389  23.876  1.00  0.00     0.027 A 
ATOM     13  C   UNL A   1      30.879  25.572  24.543  1.00  0.00     0.054 A 
BRANCH  13  14
ATOM     14  N   UNL A   1      29.632  26.210  24.321  1.00  0.00    -0.325 N 
ATOM     15  C   UNL A   1      29.267  27.243  23.502  1.00  0.00     0.227 C 
ATOM     16  H   UNL A   1      28.893  25.842  24.856  1.00  0.00     0.169 HD
ATOM     17  O   UNL A   1      28.092  27.632  23.528  1.00  0.00    -0.275 OA
BRANCH  15  18
ATOM     18  C   UNL A   1      30.233  27.944  22.566  1.00  0.00     0.138 C 
BRANCH  18  19
ATOM     19  C   UNL A   1      29.977  29.438  22.300  1.00  0.00     0.182 C 
ATOM     20  C   UNL A   1      29.712  30.147  23.657  1.00  0.00     0.293 C 
ATOM     21  O   UNL A   1      28.875  29.635  21.412  1.00  0.00    -0.366 OA
ATOM     22  N   UNL A   1      29.332  31.567  23.527  1.00  0.00    -0.342 N 
ATOM     23  C   UNL A   1      28.529  31.009  21.245  1.00  0.00     0.222 C 
ATOM     24  C   UNL A   1      28.190  31.649  22.595  1.00  0.00     0.289 C 
ATOM     25  H   UNL A   1      30.117  32.104  23.160  1.00  0.00     0.346 HD
ATOM     26  H   UNL A   1      29.074  31.949  24.437  1.00  0.00     0.346 HD
ENDBRANCH  18  19
ENDBRANCH  15  18
ENDBRANCH  13  14
ENDBRANCH   4   7
ENDBRANCH   2   3
ENDBRANCH   1   2
BRANCH   1  27
ATOM     27  C   UNL A   1      34.291  29.666  27.229  1.00  0.00     0.118 C 
BRANCH  27  28
ATOM     28  N   UNL A   1      34.989  30.929  27.443  1.00  0.00    -0.352 N 
ATOM     29  C   UNL A   1      36.245  31.117  27.999  1.00  0.00     0.251 C 
ATOM     30  H   UNL A   1      34.512  31.743  27.159  1.00  0.00     0.163 HD
ATOM     31  O   UNL A   1      36.667  32.199  28.333  1.00  0.00    -0.269 OA
BRANCH  29  32
ATOM     32  C   UNL A   1      37.105  29.917  28.026  1.00  0.00     0.039 A 
ATOM     33  C   UNL A   1      37.164  29.222  29.240  1.00  0.00     0.014 A 
ATOM     34  C   UNL A   1      38.055  29.736  27.027  1.00  0.00     0.014 A 
ATOM     35  C   UNL A   1      38.288  28.455  29.527  1.00  0.00     0.010 A 
ATOM     36  C   UNL A   1      39.206  29.047  27.352  1.00  0.00     0.010 A 
ATOM     37  C   UNL A   1      39.340  28.445  28.615  1.00  0.00    -0.014 A 
BRANCH  37  38
ATOM     38  C   UNL A   1      40.643  27.857  28.895  1.00  0.00     0.031 A 
ATOM     39  C   UNL A   1      40.885  26.441  28.540  1.00  0.00     0.074 A 
ATOM     40  C   UNL A   1      41.647  28.632  29.357  1.00  0.00     0.049 A 
ATOM     41  N   UNL A   1      41.886  25.737  28.943  1.00  0.00    -0.248 NA
ATOM     42  C   UNL A   1      39.949  25.683  27.716  1.00  0.00     0.031 C 
ATOM     43  C   UNL A   1      43.075  28.330  29.330  1.00  0.00     0.029 A 
ATOM     44  N   UNL A   1      41.548  29.783  30.145  1.00  0.00    -0.354 N 
ATOM     45  C   UNL A   1      41.884  24.552  28.238  1.00  0.00     0.074 A 
ATOM     46  C   UNL A   1      40.628  24.549  27.525  1.00  0.00     0.031 C 
ATOM     47  C   UNL A   1      43.698  29.089  30.245  1.00  0.00     0.029 A 
ATOM     48  C   UNL A   1      42.668  29.777  31.003  1.00  0.00     0.049 A 
ATOM     49  H   UNL A   1      40.837  30.462  30.110  1.00  0.00     0.167 HD
ATOM     50  C   UNL A   1      43.003  23.771  28.241  1.00  0.00     0.037 A 
ATOM     51  C   UNL A   1      42.522  29.687  32.358  1.00  0.00     0.037 A 
ATOM     52  C   UNL A   1      43.996  24.292  29.181  1.00  0.00     0.049 A 
ATOM     53  C   UNL A   1      43.169  28.461  32.964  1.00  0.00     0.074 A 
ATOM     54  C   UNL A   1      45.098  25.116  29.021  1.00  0.00     0.029 A 
ATOM     55  N   UNL A   1      43.733  24.247  30.546  1.00  0.00    -0.354 N 
ATOM     56  N   UNL A   1      43.506  27.401  32.281  1.00  0.00    -0.248 NA
ATOM     57  C   UNL A   1      43.492  28.332  34.382  1.00  0.00     0.031 C 
ATOM     58  C   UNL A   1      45.447  25.635  30.293  1.00  0.00     0.029 A 
ATOM     59  C   UNL A   1      44.577  25.103  31.230  1.00  0.00     0.049 A 
ATOM     60  H   UNL A   1      43.044  23.684  30.966  1.00  0.00     0.167 HD
ATOM     61  C   UNL A   1      44.059  26.467  33.119  1.00  0.00     0.074 A 
ATOM     62  C   UNL A   1      44.046  27.107  34.423  1.00  0.00     0.031 C 
ATOM     63  C   UNL A   1      44.482  25.246  32.675  1.00  0.00     0.037 A 
BRANCH  50  64
ATOM     64  C   UNL A   1      43.304  22.734  27.172  1.00  0.00     0.058 A 
ATOM     65  C   UNL A   1      42.611  21.504  27.145  1.00  0.00     0.135 A 
ATOM     66  C   UNL A   1      44.315  22.852  26.198  1.00  0.00     0.135 A 
ATOM     67  F   UNL A   1      41.551  21.278  27.933  1.00  0.00    -0.206 F 
ATOM     68  C   UNL A   1      42.976  20.439  26.317  1.00  0.00     0.059 A 
ATOM     69  C   UNL A   1      44.741  21.783  25.401  1.00  0.00     0.059 A 
ATOM     70  F   UNL A   1      44.898  24.030  25.937  1.00  0.00    -0.206 F 
ATOM     71  C   UNL A   1      44.072  20.572  25.477  1.00  0.00     0.060 A 
BRANCH  71  72
ATOM     72  S   UNL A   1      44.593  19.158  24.487  1.00  0.00     0.124 S 
ATOM     73  O   UNL A   1      45.971  18.961  24.929  1.00  0.00    -0.237 OA
ATOM     74  O   UNL A   1      43.642  18.132  24.897  1.00  0.00    -0.237 OA
ATOM     75  O   UNL A   1      44.448  19.632  23.113  1.00  0.00    -0.744 OA
ENDBRANCH  71  72
ENDBRANCH  50  64
BRANCH  51  76
ATOM     76  C   UNL A   1      41.298  30.373  32.858  1.00  0.00     0.058 A 
ATOM     77  C   UNL A   1      40.192  29.563  33.184  1.00  0.00     0.135 A 
ATOM     78  C   UNL A   1      41.359  31.647  33.439  1.00  0.00     0.135 A 
ATOM     79  F   UNL A   1      40.072  28.341  32.637  1.00  0.00    -0.206 F 
ATOM     80  C   UNL A   1      39.289  29.921  34.179  1.00  0.00     0.059 A 
ATOM     81  C   UNL A   1      40.455  32.032  34.434  1.00  0.00     0.059 A 
ATOM     82  F   UNL A   1      42.382  32.469  33.160  1.00  0.00    -0.206 F 
ATOM     83  C   UNL A   1      39.475  31.127  34.848  1.00  0.00     0.060 A 
BRANCH  83  84
ATOM     84  S   UNL A   1      38.542  31.391  36.377  1.00  0.00     0.124 S 
ATOM     85  O   UNL A   1      38.180  30.029  36.753  1.00  0.00    -0.237 OA
ATOM     86  O   UNL A   1      39.541  32.033  37.232  1.00  0.00    -0.237 OA
ATOM     87  O   UNL A   1      37.438  32.245  35.956  1.00  0.00    -0.744 OA
ENDBRANCH  83  84
ENDBRANCH  51  76
BRANCH  63  88
ATOM     88  C   UNL A   1      44.926  24.094  33.544  1.00  0.00     0.058 A 
ATOM     89  C   UNL A   1      44.098  23.015  33.897  1.00  0.00     0.135 A 
ATOM     90  C   UNL A   1      46.285  23.972  33.926  1.00  0.00     0.135 A 
ATOM     91  F   UNL A   1      42.817  22.963  33.505  1.00  0.00    -0.206 F 
ATOM     92  C   UNL A   1      44.567  21.920  34.626  1.00  0.00     0.059 A 
ATOM     93  C   UNL A   1      46.785  22.864  34.606  1.00  0.00     0.059 A 
ATOM     94  F   UNL A   1      47.180  24.929  33.638  1.00  0.00    -0.206 F 
ATOM     95  C   UNL A   1      45.914  21.850  34.973  1.00  0.00     0.060 A 
BRANCH  95  96
ATOM     96  S   UNL A   1      46.550  20.406  35.843  1.00  0.00     0.124 S 
ATOM     97  O   UNL A   1      45.774  19.332  35.232  1.00  0.00    -0.237 OA
ATOM     98  O   UNL A   1      47.972  20.422  35.508  1.00  0.00    -0.237 OA
ATOM     99  O   UNL A   1      46.241  20.699  37.239  1.00  0.00    -0.744 OA
ENDBRANCH  95  96
ENDBRANCH  63  88
ENDBRANCH  37  38
ENDBRANCH  29  32
ENDBRANCH  27  28
ENDBRANCH   1  27
TORSDOF 16
ENDMDL
