MODEL 1
REMARK VINA RESULT:     -10.7      0.000      0.000
REMARK SMILES CC[C@H](Oc1ccc(C)nc1C[NH3+])C(=O)NCCCNC(=O)c1ccc(-c2c3nc(c(-c4c(F)cc(S(=O)(=O)[O-])cc4F)c4ccc([nH]4)c(-c4c(F)cc(S(=O)(=O)[O-])cc4F)c4nc(c(-c5c(F)cc(S(=O)(=O)[O-])cc5F)c5ccc2[nH]5)C=C4)C=C3)cc1
REMARK SMILES IDX 17 1 16 2 14 3 15 4 3 6 2 7 1 8 4 9 5 10 6 11 11 12 7 13
REMARK SMILES IDX 10 14 8 15 9 16 12 17 13 18 18 22 19 23 20 24 21 25 22 27
REMARK SMILES IDX 23 28 24 29 88 30 25 31 87 32 26 33 27 34 28 35 81 36 29 37
REMARK SMILES IDX 86 38 80 39 82 40 30 41 85 42 79 43 78 44 31 46 65 47 44 48
REMARK SMILES IDX 64 49 45 50 48 51 63 52 83 53 46 54 47 55 62 57 84 58 49 59
REMARK SMILES IDX 32 60 33 61 42 62 34 63 35 64 41 65 43 66 36 67 37 68 38 69
REMARK SMILES IDX 39 70 40 71 66 72 67 73 76 74 68 75 69 76 75 77 77 78 70 79
REMARK SMILES IDX 71 80 72 81 73 82 74 83 50 84 51 85 60 86 52 87 53 88 59 89
REMARK SMILES IDX 61 90 54 91 55 92 56 93 57 94 58 95
REMARK H PARENT 16 5 13 19 13 20 13 21 20 26 82 45 48 56
REMARK Flexibility Score: inf
ROOT
ATOM      1  C   UNL A   1      38.062  23.107  26.089  1.00  0.00     0.118 C 
ENDROOT
BRANCH   1   2
ATOM      2  N   UNL A   1      37.798  23.071  24.657  1.00  0.00    -0.353 N 
ATOM      3  C   UNL A   1      36.605  22.854  24.012  1.00  0.00     0.261 C 
ATOM      4  O   UNL A   1      36.582  22.924  22.781  1.00  0.00    -0.271 OA
ATOM      5  H   UNL A   1      38.578  23.223  24.076  1.00  0.00     0.163 HD
BRANCH   3   6
ATOM      6  C   UNL A   1      35.324  22.598  24.831  1.00  0.00     0.261 C 
BRANCH   6   7
ATOM      7  C   UNL A   1      35.264  21.066  25.102  1.00  0.00     0.052 C 
ATOM      8  C   UNL A   1      34.015  20.259  24.778  1.00  0.00     0.008 C 
ENDBRANCH   6   7
BRANCH   6   9
ATOM      9  O   UNL A   1      34.327  23.266  24.052  1.00  0.00    -0.478 OA
BRANCH   9  10
ATOM     10  C   UNL A   1      33.739  24.420  24.464  1.00  0.00     0.147 A 
ATOM     11  C   UNL A   1      34.374  25.418  25.191  1.00  0.00     0.050 A 
ATOM     12  C   UNL A   1      32.365  24.556  24.227  1.00  0.00     0.136 A 
ATOM     13  C   UNL A   1      33.610  26.359  25.873  1.00  0.00     0.027 A 
ATOM     14  N   UNL A   1      31.616  25.480  24.888  1.00  0.00    -0.248 NA
ATOM     15  C   UNL A   1      32.229  26.300  25.764  1.00  0.00     0.038 A 
ATOM     16  C   UNL A   1      31.348  27.153  26.623  1.00  0.00     0.067 C 
BRANCH  12  17
ATOM     17  C   UNL A   1      31.676  23.778  23.115  1.00  0.00     0.320 C 
BRANCH  17  18
ATOM     18  N   UNL A   1      30.215  23.848  23.134  1.00  0.00    -0.352 N 
ATOM     19  H   UNL A   1      29.901  24.176  24.047  1.00  0.00     0.344 HD
ATOM     20  H   UNL A   1      29.828  22.921  22.954  1.00  0.00     0.344 HD
ATOM     21  H   UNL A   1      29.896  24.495  22.412  1.00  0.00     0.344 HD
ENDBRANCH  17  18
ENDBRANCH  12  17
ENDBRANCH   9  10
ENDBRANCH   6   9
ENDBRANCH   3   6
ENDBRANCH   1   2
BRANCH   1  22
ATOM     22  C   UNL A   1      39.312  22.342  26.482  1.00  0.00     0.042 C 
BRANCH  22  23
ATOM     23  C   UNL A   1      40.412  23.226  27.047  1.00  0.00     0.118 C 
BRANCH  23  24
ATOM     24  N   UNL A   1      41.031  24.070  26.032  1.00  0.00    -0.352 N 
ATOM     25  C   UNL A   1      41.353  25.405  26.068  1.00  0.00     0.251 C 
ATOM     26  H   UNL A   1      41.254  23.613  25.190  1.00  0.00     0.163 HD
ATOM     27  O   UNL A   1      41.702  25.970  25.034  1.00  0.00    -0.269 OA
BRANCH  25  28
ATOM     28  C   UNL A   1      41.255  26.163  27.335  1.00  0.00     0.039 A 
ATOM     29  C   UNL A   1      42.256  27.086  27.653  1.00  0.00     0.014 A 
ATOM     30  C   UNL A   1      40.184  25.966  28.208  1.00  0.00     0.014 A 
ATOM     31  C   UNL A   1      42.139  27.861  28.808  1.00  0.00     0.010 A 
ATOM     32  C   UNL A   1      40.018  26.807  29.303  1.00  0.00     0.010 A 
ATOM     33  C   UNL A   1      40.997  27.759  29.620  1.00  0.00    -0.014 A 
BRANCH  33  34
ATOM     34  C   UNL A   1      40.807  28.634  30.807  1.00  0.00     0.031 A 
ATOM     35  C   UNL A   1      39.749  29.704  30.795  1.00  0.00     0.074 A 
ATOM     36  C   UNL A   1      41.634  28.510  31.864  1.00  0.00     0.049 A 
ATOM     37  N   UNL A   1      39.480  30.609  31.701  1.00  0.00    -0.248 NA
ATOM     38  C   UNL A   1      38.902  29.788  29.594  1.00  0.00     0.031 C 
ATOM     39  C   UNL A   1      42.731  27.545  31.974  1.00  0.00     0.029 A 
ATOM     40  N   UNL A   1      41.689  29.206  33.045  1.00  0.00    -0.354 N 
ATOM     41  C   UNL A   1      38.447  31.377  31.174  1.00  0.00     0.074 A 
ATOM     42  C   UNL A   1      38.181  30.871  29.845  1.00  0.00     0.031 C 
ATOM     43  C   UNL A   1      43.329  27.692  33.166  1.00  0.00     0.029 A 
ATOM     44  C   UNL A   1      42.691  28.787  33.889  1.00  0.00     0.049 A 
ATOM     45  H   UNL A   1      41.067  29.937  33.270  1.00  0.00     0.167 HD
ATOM     46  C   UNL A   1      37.767  32.394  31.754  1.00  0.00     0.037 A 
ATOM     47  C   UNL A   1      43.061  29.240  35.102  1.00  0.00     0.037 A 
ATOM     48  C   UNL A   1      38.025  32.878  33.085  1.00  0.00     0.049 A 
ATOM     49  C   UNL A   1      42.297  30.378  35.723  1.00  0.00     0.074 A 
ATOM     50  C   UNL A   1      37.353  33.862  33.788  1.00  0.00     0.029 A 
ATOM     51  N   UNL A   1      39.040  32.419  33.913  1.00  0.00    -0.354 N 
ATOM     52  N   UNL A   1      41.277  31.046  35.240  1.00  0.00    -0.248 NA
ATOM     53  C   UNL A   1      42.729  30.819  37.056  1.00  0.00     0.031 C 
ATOM     54  C   UNL A   1      37.995  34.036  35.019  1.00  0.00     0.029 A 
ATOM     55  C   UNL A   1      39.030  33.118  35.108  1.00  0.00     0.049 A 
ATOM     56  H   UNL A   1      39.675  31.701  33.683  1.00  0.00     0.167 HD
ATOM     57  C   UNL A   1      40.927  31.968  36.221  1.00  0.00     0.074 A 
ATOM     58  C   UNL A   1      41.837  31.761  37.329  1.00  0.00     0.031 C 
ATOM     59  C   UNL A   1      39.941  32.900  36.206  1.00  0.00     0.037 A 
BRANCH  46  60
ATOM     60  C   UNL A   1      36.677  33.051  30.948  1.00  0.00     0.058 A 
ATOM     61  C   UNL A   1      36.960  34.009  29.960  1.00  0.00     0.135 A 
ATOM     62  C   UNL A   1      35.331  32.704  31.152  1.00  0.00     0.135 A 
ATOM     63  F   UNL A   1      38.227  34.391  29.732  1.00  0.00    -0.206 F 
ATOM     64  C   UNL A   1      35.948  34.627  29.232  1.00  0.00     0.059 A 
ATOM     65  C   UNL A   1      34.305  33.285  30.411  1.00  0.00     0.059 A 
ATOM     66  F   UNL A   1      35.000  31.793  32.081  1.00  0.00    -0.206 F 
ATOM     67  C   UNL A   1      34.623  34.259  29.466  1.00  0.00     0.060 A 
BRANCH  67  68
ATOM     68  S   UNL A   1      33.322  35.077  28.519  1.00  0.00     0.124 S 
ATOM     69  O   UNL A   1      34.105  35.914  27.614  1.00  0.00    -0.237 OA
ATOM     70  O   UNL A   1      32.632  33.949  27.900  1.00  0.00    -0.237 OA
ATOM     71  O   UNL A   1      32.560  35.794  29.535  1.00  0.00    -0.744 OA
ENDBRANCH  67  68
ENDBRANCH  46  60
BRANCH  47  72
ATOM     72  C   UNL A   1      44.195  28.596  35.819  1.00  0.00     0.058 A 
ATOM     73  C   UNL A   1      45.513  29.035  35.625  1.00  0.00     0.135 A 
ATOM     74  C   UNL A   1      43.984  27.548  36.729  1.00  0.00     0.135 A 
ATOM     75  F   UNL A   1      45.768  30.030  34.761  1.00  0.00    -0.206 F 
ATOM     76  C   UNL A   1      46.583  28.452  36.295  1.00  0.00     0.059 A 
ATOM     77  C   UNL A   1      45.035  26.966  37.433  1.00  0.00     0.059 A 
ATOM     78  F   UNL A   1      42.741  27.100  36.963  1.00  0.00    -0.206 F 
ATOM     79  C   UNL A   1      46.333  27.421  37.202  1.00  0.00     0.060 A 
BRANCH  79  80
ATOM     80  S   UNL A   1      47.726  26.710  38.105  1.00  0.00     0.124 S 
ATOM     81  O   UNL A   1      48.764  27.708  37.879  1.00  0.00    -0.237 OA
ATOM     82  O   UNL A   1      47.200  26.631  39.464  1.00  0.00    -0.237 OA
ATOM     83  O   UNL A   1      47.933  25.424  37.445  1.00  0.00    -0.744 OA
ENDBRANCH  79  80
ENDBRANCH  47  72
BRANCH  59  84
ATOM     84  C   UNL A   1      39.767  33.747  37.437  1.00  0.00     0.058 A 
ATOM     85  C   UNL A   1      40.401  34.991  37.575  1.00  0.00     0.135 A 
ATOM     86  C   UNL A   1      38.910  33.330  38.469  1.00  0.00     0.135 A 
ATOM     87  F   UNL A   1      41.235  35.435  36.623  1.00  0.00    -0.206 F 
ATOM     88  C   UNL A   1      40.210  35.783  38.704  1.00  0.00     0.059 A 
ATOM     89  C   UNL A   1      38.679  34.119  39.592  1.00  0.00     0.059 A 
ATOM     90  F   UNL A   1      38.269  32.153  38.383  1.00  0.00    -0.206 F 
ATOM     91  C   UNL A   1      39.344  35.339  39.706  1.00  0.00     0.060 A 
BRANCH  91  92
ATOM     92  S   UNL A   1      39.076  36.392  41.147  1.00  0.00     0.124 S 
ATOM     93  O   UNL A   1      38.711  37.659  40.521  1.00  0.00    -0.237 OA
ATOM     94  O   UNL A   1      38.001  35.697  41.847  1.00  0.00    -0.237 OA
ATOM     95  O   UNL A   1      40.370  36.377  41.824  1.00  0.00    -0.744 OA
ENDBRANCH  91  92
ENDBRANCH  59  84
ENDBRANCH  33  34
ENDBRANCH  25  28
ENDBRANCH  23  24
ENDBRANCH  22  23
ENDBRANCH   1  22
TORSDOF 18
ENDMDL
MODEL 2
REMARK VINA RESULT:     -10.6      6.747     11.863
REMARK SMILES CC[C@H](Oc1ccc(C)nc1C[NH3+])C(=O)NCCCNC(=O)c1ccc(-c2c3nc(c(-c4c(F)cc(S(=O)(=O)[O-])cc4F)c4ccc([nH]4)c(-c4c(F)cc(S(=O)(=O)[O-])cc4F)c4nc(c(-c5c(F)cc(S(=O)(=O)[O-])cc5F)c5ccc2[nH]5)C=C4)C=C3)cc1
REMARK SMILES IDX 17 1 16 2 14 3 15 4 3 6 2 7 1 8 4 9 5 10 6 11 11 12 7 13
REMARK SMILES IDX 10 14 8 15 9 16 12 17 13 18 18 22 19 23 20 24 21 25 22 27
REMARK SMILES IDX 23 28 24 29 88 30 25 31 87 32 26 33 27 34 28 35 81 36 29 37
REMARK SMILES IDX 86 38 80 39 82 40 30 41 85 42 79 43 78 44 31 46 65 47 44 48
REMARK SMILES IDX 64 49 45 50 48 51 63 52 83 53 46 54 47 55 62 57 84 58 49 59
REMARK SMILES IDX 32 60 33 61 42 62 34 63 35 64 41 65 43 66 36 67 37 68 38 69
REMARK SMILES IDX 39 70 40 71 66 72 67 73 76 74 68 75 69 76 75 77 77 78 70 79
REMARK SMILES IDX 71 80 72 81 73 82 74 83 50 84 51 85 60 86 52 87 53 88 59 89
REMARK SMILES IDX 61 90 54 91 55 92 56 93 57 94 58 95
REMARK H PARENT 16 5 13 19 13 20 13 21 20 26 82 45 48 56
REMARK Flexibility Score: inf
ROOT
ATOM      1  C   UNL A   1      33.741  29.068  27.659  1.00  0.00     0.118 C 
ENDROOT
BRANCH   1   2
ATOM      2  N   UNL A   1      32.706  29.760  26.902  1.00  0.00    -0.353 N 
ATOM      3  C   UNL A   1      32.264  29.505  25.627  1.00  0.00     0.261 C 
ATOM      4  O   UNL A   1      31.328  30.174  25.184  1.00  0.00    -0.271 OA
ATOM      5  H   UNL A   1      32.265  30.507  27.367  1.00  0.00     0.163 HD
BRANCH   3   6
ATOM      6  C   UNL A   1      32.895  28.359  24.810  1.00  0.00     0.261 C 
BRANCH   6   7
ATOM      7  C   UNL A   1      32.897  28.817  23.322  1.00  0.00     0.052 C 
ATOM      8  C   UNL A   1      34.054  28.475  22.395  1.00  0.00     0.008 C 
ENDBRANCH   6   7
BRANCH   6   9
ATOM      9  O   UNL A   1      32.143  27.224  25.249  1.00  0.00    -0.478 OA
BRANCH   9  10
ATOM     10  C   UNL A   1      32.703  25.994  25.390  1.00  0.00     0.147 A 
ATOM     11  C   UNL A   1      34.060  25.756  25.563  1.00  0.00     0.050 A 
ATOM     12  C   UNL A   1      31.858  24.887  25.241  1.00  0.00     0.136 A 
ATOM     13  C   UNL A   1      34.567  24.483  25.322  1.00  0.00     0.027 A 
ATOM     14  N   UNL A   1      32.350  23.639  25.012  1.00  0.00    -0.248 NA
ATOM     15  C   UNL A   1      33.687  23.473  24.964  1.00  0.00     0.038 A 
ATOM     16  C   UNL A   1      34.187  22.139  24.503  1.00  0.00     0.067 C 
BRANCH  12  17
ATOM     17  C   UNL A   1      30.358  25.003  25.473  1.00  0.00     0.320 C 
BRANCH  17  18
ATOM     18  N   UNL A   1      29.865  24.296  26.655  1.00  0.00    -0.352 N 
ATOM     19  H   UNL A   1      30.557  23.608  26.954  1.00  0.00     0.344 HD
ATOM     20  H   UNL A   1      28.991  23.823  26.428  1.00  0.00     0.344 HD
ATOM     21  H   UNL A   1      29.704  24.964  27.409  1.00  0.00     0.344 HD
ENDBRANCH  17  18
ENDBRANCH  12  17
ENDBRANCH   9  10
ENDBRANCH   6   9
ENDBRANCH   3   6
ENDBRANCH   1   2
BRANCH   1  22
ATOM     22  C   UNL A   1      35.145  29.486  27.264  1.00  0.00     0.042 C 
BRANCH  22  23
ATOM     23  C   UNL A   1      35.617  30.755  27.955  1.00  0.00     0.118 C 
BRANCH  23  24
ATOM     24  N   UNL A   1      35.500  30.682  29.406  1.00  0.00    -0.352 N 
ATOM     25  C   UNL A   1      36.418  30.289  30.349  1.00  0.00     0.251 C 
ATOM     26  H   UNL A   1      34.627  30.958  29.767  1.00  0.00     0.163 HD
ATOM     27  O   UNL A   1      36.056  30.124  31.513  1.00  0.00    -0.269 OA
BRANCH  25  28
ATOM     28  C   UNL A   1      37.824  30.041  29.965  1.00  0.00     0.039 A 
ATOM     29  C   UNL A   1      38.751  29.705  30.956  1.00  0.00     0.014 A 
ATOM     30  C   UNL A   1      38.232  30.141  28.633  1.00  0.00     0.014 A 
ATOM     31  C   UNL A   1      40.065  29.397  30.597  1.00  0.00     0.010 A 
ATOM     32  C   UNL A   1      39.511  29.736  28.267  1.00  0.00     0.010 A 
ATOM     33  C   UNL A   1      40.445  29.367  29.245  1.00  0.00    -0.014 A 
BRANCH  33  34
ATOM     34  C   UNL A   1      41.812  28.958  28.831  1.00  0.00     0.031 A 
ATOM     35  C   UNL A   1      42.918  29.976  28.766  1.00  0.00     0.074 A 
ATOM     36  C   UNL A   1      42.038  27.686  28.446  1.00  0.00     0.049 A 
ATOM     37  N   UNL A   1      44.153  29.828  28.361  1.00  0.00    -0.248 NA
ATOM     38  C   UNL A   1      42.585  31.348  29.183  1.00  0.00     0.031 C 
ATOM     39  C   UNL A   1      41.035  26.619  28.414  1.00  0.00     0.029 A 
ATOM     40  N   UNL A   1      43.182  27.076  27.995  1.00  0.00    -0.354 N 
ATOM     41  C   UNL A   1      44.737  31.087  28.459  1.00  0.00     0.074 A 
ATOM     42  C   UNL A   1      43.705  31.997  28.902  1.00  0.00     0.031 C 
ATOM     43  C   UNL A   1      41.614  25.482  27.998  1.00  0.00     0.029 A 
ATOM     44  C   UNL A   1      43.016  25.745  27.689  1.00  0.00     0.049 A 
ATOM     45  H   UNL A   1      44.042  27.546  27.901  1.00  0.00     0.167 HD
ATOM     46  C   UNL A   1      46.022  31.446  28.225  1.00  0.00     0.037 A 
ATOM     47  C   UNL A   1      43.889  24.842  27.205  1.00  0.00     0.037 A 
ATOM     48  C   UNL A   1      47.048  30.529  27.803  1.00  0.00     0.049 A 
ATOM     49  C   UNL A   1      45.310  25.266  26.943  1.00  0.00     0.074 A 
ATOM     50  C   UNL A   1      48.394  30.779  27.597  1.00  0.00     0.029 A 
ATOM     51  N   UNL A   1      46.843  29.186  27.516  1.00  0.00    -0.354 N 
ATOM     52  N   UNL A   1      45.863  26.444  27.108  1.00  0.00    -0.248 NA
ATOM     53  C   UNL A   1      46.227  24.237  26.435  1.00  0.00     0.031 C 
ATOM     54  C   UNL A   1      48.991  29.601  27.134  1.00  0.00     0.029 A 
ATOM     55  C   UNL A   1      48.031  28.601  27.109  1.00  0.00     0.049 A 
ATOM     56  H   UNL A   1      45.980  28.718  27.591  1.00  0.00     0.167 HD
ATOM     57  C   UNL A   1      47.198  26.291  26.751  1.00  0.00     0.074 A 
ATOM     58  C   UNL A   1      47.371  24.903  26.374  1.00  0.00     0.031 C 
ATOM     59  C   UNL A   1      48.191  27.216  26.739  1.00  0.00     0.037 A 
BRANCH  46  60
ATOM     60  C   UNL A   1      46.387  32.894  28.419  1.00  0.00     0.058 A 
ATOM     61  C   UNL A   1      46.314  33.824  27.370  1.00  0.00     0.135 A 
ATOM     62  C   UNL A   1      46.796  33.363  29.679  1.00  0.00     0.135 A 
ATOM     63  F   UNL A   1      45.943  33.430  26.140  1.00  0.00    -0.206 F 
ATOM     64  C   UNL A   1      46.670  35.157  27.550  1.00  0.00     0.059 A 
ATOM     65  C   UNL A   1      47.125  34.700  29.890  1.00  0.00     0.059 A 
ATOM     66  F   UNL A   1      46.883  32.521  30.720  1.00  0.00    -0.206 F 
ATOM     67  C   UNL A   1      47.077  35.585  28.815  1.00  0.00     0.060 A 
BRANCH  67  68
ATOM     68  S   UNL A   1      47.543  37.316  29.029  1.00  0.00     0.124 S 
ATOM     69  O   UNL A   1      48.119  37.297  30.370  1.00  0.00    -0.237 OA
ATOM     70  O   UNL A   1      48.490  37.520  27.937  1.00  0.00    -0.237 OA
ATOM     71  O   UNL A   1      46.277  38.028  28.900  1.00  0.00    -0.744 OA
ENDBRANCH  67  68
ENDBRANCH  46  60
BRANCH  47  72
ATOM     72  C   UNL A   1      43.450  23.441  26.964  1.00  0.00     0.058 A 
ATOM     73  C   UNL A   1      43.303  22.539  28.029  1.00  0.00     0.135 A 
ATOM     74  C   UNL A   1      43.146  22.981  25.673  1.00  0.00     0.135 A 
ATOM     75  F   UNL A   1      43.587  22.928  29.281  1.00  0.00    -0.206 F 
ATOM     76  C   UNL A   1      42.882  21.230  27.822  1.00  0.00     0.059 A 
ATOM     77  C   UNL A   1      42.697  21.684  25.444  1.00  0.00     0.059 A 
ATOM     78  F   UNL A   1      43.256  23.808  24.621  1.00  0.00    -0.206 F 
ATOM     79  C   UNL A   1      42.576  20.813  26.526  1.00  0.00     0.060 A 
BRANCH  79  80
ATOM     80  S   UNL A   1      41.980  19.126  26.281  1.00  0.00     0.124 S 
ATOM     81  O   UNL A   1      42.133  18.562  27.617  1.00  0.00    -0.237 OA
ATOM     82  O   UNL A   1      40.608  19.349  25.835  1.00  0.00    -0.237 OA
ATOM     83  O   UNL A   1      42.884  18.594  25.265  1.00  0.00    -0.744 OA
ENDBRANCH  79  80
ENDBRANCH  47  72
BRANCH  59  84
ATOM     84  C   UNL A   1      49.565  26.754  26.337  1.00  0.00     0.058 A 
ATOM     85  C   UNL A   1      50.421  26.105  27.241  1.00  0.00     0.135 A 
ATOM     86  C   UNL A   1      50.009  26.915  25.014  1.00  0.00     0.135 A 
ATOM     87  F   UNL A   1      50.050  25.930  28.518  1.00  0.00    -0.206 F 
ATOM     88  C   UNL A   1      51.679  25.653  26.853  1.00  0.00     0.059 A 
ATOM     89  C   UNL A   1      51.249  26.443  24.596  1.00  0.00     0.059 A 
ATOM     90  F   UNL A   1      49.226  27.519  24.107  1.00  0.00    -0.206 F 
ATOM     91  C   UNL A   1      52.083  25.824  25.526  1.00  0.00     0.060 A 
BRANCH  91  92
ATOM     92  S   UNL A   1      53.701  25.199  25.028  1.00  0.00     0.124 S 
ATOM     93  O   UNL A   1      54.543  25.648  26.133  1.00  0.00    -0.237 OA
ATOM     94  O   UNL A   1      53.470  23.760  24.951  1.00  0.00    -0.237 OA
ATOM     95  O   UNL A   1      53.941  25.859  23.748  1.00  0.00    -0.744 OA
ENDBRANCH  91  92
ENDBRANCH  59  84
ENDBRANCH  33  34
ENDBRANCH  25  28
ENDBRANCH  23  24
ENDBRANCH  22  23
ENDBRANCH   1  22
TORSDOF 18
ENDMDL
MODEL 3
REMARK VINA RESULT:     -10.4      5.309      9.919
REMARK SMILES CC[C@H](Oc1ccc(C)nc1C[NH3+])C(=O)NCCCNC(=O)c1ccc(-c2c3nc(c(-c4c(F)cc(S(=O)(=O)[O-])cc4F)c4ccc([nH]4)c(-c4c(F)cc(S(=O)(=O)[O-])cc4F)c4nc(c(-c5c(F)cc(S(=O)(=O)[O-])cc5F)c5ccc2[nH]5)C=C4)C=C3)cc1
REMARK SMILES IDX 17 1 16 2 14 3 15 4 3 6 2 7 1 8 4 9 5 10 6 11 11 12 7 13
REMARK SMILES IDX 10 14 8 15 9 16 12 17 13 18 18 22 19 23 20 24 21 25 22 27
REMARK SMILES IDX 23 28 24 29 88 30 25 31 87 32 26 33 27 34 28 35 81 36 29 37
REMARK SMILES IDX 86 38 80 39 82 40 30 41 85 42 79 43 78 44 31 46 65 47 44 48
REMARK SMILES IDX 64 49 45 50 48 51 63 52 83 53 46 54 47 55 62 57 84 58 49 59
REMARK SMILES IDX 32 60 33 61 42 62 34 63 35 64 41 65 43 66 36 67 37 68 38 69
REMARK SMILES IDX 39 70 40 71 66 72 67 73 76 74 68 75 69 76 75 77 77 78 70 79
REMARK SMILES IDX 71 80 72 81 73 82 74 83 50 84 51 85 60 86 52 87 53 88 59 89
REMARK SMILES IDX 61 90 54 91 55 92 56 93 57 94 58 95
REMARK H PARENT 16 5 13 19 13 20 13 21 20 26 82 45 48 56
REMARK Flexibility Score: inf
ROOT
ATOM      1  C   UNL A   1      34.908  24.023  24.048  1.00  0.00     0.118 C 
ENDROOT
BRANCH   1   2
ATOM      2  N   UNL A   1      34.132  24.560  25.157  1.00  0.00    -0.353 N 
ATOM      3  C   UNL A   1      32.784  24.444  25.393  1.00  0.00     0.261 C 
ATOM      4  O   UNL A   1      32.325  24.926  26.432  1.00  0.00    -0.271 OA
ATOM      5  H   UNL A   1      34.641  25.072  25.826  1.00  0.00     0.163 HD
BRANCH   3   6
ATOM      6  C   UNL A   1      31.894  23.666  24.402  1.00  0.00     0.261 C 
BRANCH   6   7
ATOM      7  C   UNL A   1      30.696  24.596  24.050  1.00  0.00     0.052 C 
ATOM      8  C   UNL A   1      30.847  25.730  23.048  1.00  0.00     0.008 C 
ENDBRANCH   6   7
BRANCH   6   9
ATOM      9  O   UNL A   1      31.708  22.418  25.076  1.00  0.00    -0.478 OA
BRANCH   9  10
ATOM     10  C   UNL A   1      32.306  21.273  24.657  1.00  0.00     0.147 A 
ATOM     11  C   UNL A   1      32.131  20.700  23.404  1.00  0.00     0.050 A 
ATOM     12  C   UNL A   1      33.066  20.566  25.598  1.00  0.00     0.136 A 
ATOM     13  C   UNL A   1      32.474  19.366  23.207  1.00  0.00     0.027 A 
ATOM     14  N   UNL A   1      33.408  19.264  25.407  1.00  0.00    -0.248 NA
ATOM     15  C   UNL A   1      33.030  18.659  24.263  1.00  0.00     0.038 A 
ATOM     16  C   UNL A   1      33.238  17.179  24.178  1.00  0.00     0.067 C 
BRANCH  12  17
ATOM     17  C   UNL A   1      33.667  21.266  26.810  1.00  0.00     0.320 C 
BRANCH  17  18
ATOM     18  N   UNL A   1      32.687  21.811  27.749  1.00  0.00    -0.352 N 
ATOM     19  H   UNL A   1      32.976  21.599  28.704  1.00  0.00     0.344 HD
ATOM     20  H   UNL A   1      31.774  21.393  27.569  1.00  0.00     0.344 HD
ATOM     21  H   UNL A   1      32.627  22.823  27.629  1.00  0.00     0.344 HD
ENDBRANCH  17  18
ENDBRANCH  12  17
ENDBRANCH   9  10
ENDBRANCH   6   9
ENDBRANCH   3   6
ENDBRANCH   1   2
BRANCH   1  22
ATOM     22  C   UNL A   1      36.349  23.726  24.421  1.00  0.00     0.042 C 
BRANCH  22  23
ATOM     23  C   UNL A   1      36.525  23.309  25.872  1.00  0.00     0.118 C 
BRANCH  23  24
ATOM     24  N   UNL A   1      37.587  22.327  26.050  1.00  0.00    -0.352 N 
ATOM     25  C   UNL A   1      38.912  22.503  26.366  1.00  0.00     0.251 C 
ATOM     26  H   UNL A   1      37.312  21.390  25.925  1.00  0.00     0.163 HD
ATOM     27  O   UNL A   1      39.684  21.550  26.287  1.00  0.00    -0.269 OA
BRANCH  25  28
ATOM     28  C   UNL A   1      39.412  23.834  26.774  1.00  0.00     0.039 A 
ATOM     29  C   UNL A   1      39.410  24.175  28.130  1.00  0.00     0.014 A 
ATOM     30  C   UNL A   1      39.879  24.746  25.826  1.00  0.00     0.014 A 
ATOM     31  C   UNL A   1      39.947  25.398  28.536  1.00  0.00     0.010 A 
ATOM     32  C   UNL A   1      40.504  25.918  26.240  1.00  0.00     0.010 A 
ATOM     33  C   UNL A   1      40.538  26.261  27.598  1.00  0.00    -0.014 A 
BRANCH  33  34
ATOM     34  C   UNL A   1      41.194  27.529  28.015  1.00  0.00     0.031 A 
ATOM     35  C   UNL A   1      42.686  27.682  27.893  1.00  0.00     0.074 A 
ATOM     36  C   UNL A   1      40.454  28.510  28.568  1.00  0.00     0.049 A 
ATOM     37  N   UNL A   1      43.447  28.678  28.268  1.00  0.00    -0.248 NA
ATOM     38  C   UNL A   1      43.425  26.556  27.299  1.00  0.00     0.031 C 
ATOM     39  C   UNL A   1      39.007  28.459  28.787  1.00  0.00     0.029 A 
ATOM     40  N   UNL A   1      40.819  29.739  29.057  1.00  0.00    -0.354 N 
ATOM     41  C   UNL A   1      44.750  28.293  27.972  1.00  0.00     0.074 A 
ATOM     42  C   UNL A   1      44.682  26.949  27.443  1.00  0.00     0.031 C 
ATOM     43  C   UNL A   1      38.604  29.615  29.339  1.00  0.00     0.029 A 
ATOM     44  C   UNL A   1      39.766  30.471  29.555  1.00  0.00     0.049 A 
ATOM     45  H   UNL A   1      41.747  30.068  29.051  1.00  0.00     0.167 HD
ATOM     46  C   UNL A   1      45.895  29.004  28.104  1.00  0.00     0.037 A 
ATOM     47  C   UNL A   1      39.739  31.689  30.129  1.00  0.00     0.037 A 
ATOM     48  C   UNL A   1      45.951  30.349  28.613  1.00  0.00     0.049 A 
ATOM     49  C   UNL A   1      41.025  32.457  30.275  1.00  0.00     0.074 A 
ATOM     50  C   UNL A   1      47.052  31.179  28.731  1.00  0.00     0.029 A 
ATOM     51  N   UNL A   1      44.861  31.062  29.095  1.00  0.00    -0.354 N 
ATOM     52  N   UNL A   1      42.240  32.106  29.924  1.00  0.00    -0.248 NA
ATOM     53  C   UNL A   1      40.938  33.789  30.889  1.00  0.00     0.031 C 
ATOM     54  C   UNL A   1      46.637  32.372  29.333  1.00  0.00     0.029 A 
ATOM     55  C   UNL A   1      45.268  32.310  29.536  1.00  0.00     0.049 A 
ATOM     56  H   UNL A   1      43.934  30.728  29.119  1.00  0.00     0.167 HD
ATOM     57  C   UNL A   1      43.057  33.184  30.249  1.00  0.00     0.074 A 
ATOM     58  C   UNL A   1      42.195  34.203  30.812  1.00  0.00     0.031 C 
ATOM     59  C   UNL A   1      44.398  33.318  30.093  1.00  0.00     0.037 A 
BRANCH  46  60
ATOM     60  C   UNL A   1      47.180  28.336  27.693  1.00  0.00     0.058 A 
ATOM     61  C   UNL A   1      47.642  28.369  26.367  1.00  0.00     0.135 A 
ATOM     62  C   UNL A   1      47.975  27.671  28.643  1.00  0.00     0.135 A 
ATOM     63  F   UNL A   1      46.917  28.977  25.414  1.00  0.00    -0.206 F 
ATOM     64  C   UNL A   1      48.821  27.734  25.988  1.00  0.00     0.059 A 
ATOM     65  C   UNL A   1      49.175  27.058  28.293  1.00  0.00     0.059 A 
ATOM     66  F   UNL A   1      47.586  27.609  29.926  1.00  0.00    -0.206 F 
ATOM     67  C   UNL A   1      49.580  27.079  26.959  1.00  0.00     0.060 A 
BRANCH  67  68
ATOM     68  S   UNL A   1      51.102  26.255  26.450  1.00  0.00     0.124 S 
ATOM     69  O   UNL A   1      52.115  27.170  26.967  1.00  0.00    -0.237 OA
ATOM     70  O   UNL A   1      51.003  24.969  27.133  1.00  0.00    -0.237 OA
ATOM     71  O   UNL A   1      50.990  26.200  24.996  1.00  0.00    -0.744 OA
ENDBRANCH  67  68
ENDBRANCH  46  60
BRANCH  47  72
ATOM     72  C   UNL A   1      38.445  32.267  30.583  1.00  0.00     0.058 A 
ATOM     73  C   UNL A   1      37.672  33.062  29.724  1.00  0.00     0.135 A 
ATOM     74  C   UNL A   1      37.944  32.019  31.870  1.00  0.00     0.135 A 
ATOM     75  F   UNL A   1      38.110  33.334  28.485  1.00  0.00    -0.206 F 
ATOM     76  C   UNL A   1      36.455  33.601  30.128  1.00  0.00     0.059 A 
ATOM     77  C   UNL A   1      36.716  32.523  32.288  1.00  0.00     0.059 A 
ATOM     78  F   UNL A   1      38.638  31.252  32.725  1.00  0.00    -0.206 F 
ATOM     79  C   UNL A   1      35.983  33.321  31.411  1.00  0.00     0.060 A 
BRANCH  79  80
ATOM     80  S   UNL A   1      34.376  33.983  31.902  1.00  0.00     0.124 S 
ATOM     81  O   UNL A   1      34.764  35.163  32.664  1.00  0.00    -0.237 OA
ATOM     82  O   UNL A   1      33.743  34.236  30.611  1.00  0.00    -0.237 OA
ATOM     83  O   UNL A   1      33.787  32.896  32.678  1.00  0.00    -0.744 OA
ENDBRANCH  79  80
ENDBRANCH  47  72
BRANCH  59  84
ATOM     84  C   UNL A   1      45.017  34.626  30.503  1.00  0.00     0.058 A 
ATOM     85  C   UNL A   1      45.541  34.825  31.791  1.00  0.00     0.135 A 
ATOM     86  C   UNL A   1      45.137  35.676  29.578  1.00  0.00     0.135 A 
ATOM     87  F   UNL A   1      45.447  33.858  32.716  1.00  0.00    -0.206 F 
ATOM     88  C   UNL A   1      46.140  36.028  32.152  1.00  0.00     0.059 A 
ATOM     89  C   UNL A   1      45.761  36.875  29.908  1.00  0.00     0.059 A 
ATOM     90  F   UNL A   1      44.663  35.534  28.330  1.00  0.00    -0.206 F 
ATOM     91  C   UNL A   1      46.249  37.046  31.202  1.00  0.00     0.060 A 
BRANCH  91  92
ATOM     92  S   UNL A   1      47.062  38.586  31.674  1.00  0.00     0.124 S 
ATOM     93  O   UNL A   1      48.329  38.482  30.958  1.00  0.00    -0.237 OA
ATOM     94  O   UNL A   1      46.133  39.595  31.177  1.00  0.00    -0.237 OA
ATOM     95  O   UNL A   1      47.154  38.490  33.129  1.00  0.00    -0.744 OA
ENDBRANCH  91  92
ENDBRANCH  59  84
ENDBRANCH  33  34
ENDBRANCH  25  28
ENDBRANCH  23  24
ENDBRANCH  22  23
ENDBRANCH   1  22
TORSDOF 18
ENDMDL
