MODEL 1
REMARK VINA RESULT:     -11.0      0.000      0.000
REMARK SMILES Nc1nn(-c2ccc(Cl)cc2)nc1C(=O)NCCCNC(=O)c1ccc(-c2c3nc(c(-c4c(F)cc(S(=O)(=O)[O-])cc4F)c4ccc([nH]4)c(-c4c(F)cc(S(=O)(=O)[O-])cc4F)c4nc(c(-c5c(F)cc(S(=O)(=O)[O-])cc5F)c5ccc2[nH]5)C=C4)C=C3)cc1
REMARK SMILES IDX 19 1 18 2 17 3 16 4 14 5 15 6 13 8 2 9 3 10 4 11 12 12 1 13
REMARK SMILES IDX 5 16 6 17 11 18 7 19 10 20 8 21 9 22 20 23 21 24 22 26 23 27
REMARK SMILES IDX 24 28 88 29 25 30 87 31 26 32 27 33 28 34 81 35 29 36 86 37
REMARK SMILES IDX 80 38 82 39 30 40 85 41 79 42 78 43 31 45 65 46 44 47 64 48
REMARK SMILES IDX 45 49 48 50 63 51 83 52 46 53 47 54 62 56 84 57 49 58 32 59
REMARK SMILES IDX 33 60 42 61 34 62 35 63 41 64 43 65 36 66 37 67 38 68 39 69
REMARK SMILES IDX 40 70 66 71 67 72 76 73 68 74 69 75 75 76 77 77 70 78 71 79
REMARK SMILES IDX 72 80 73 81 74 82 50 83 51 84 60 85 52 86 53 87 59 88 61 89
REMARK SMILES IDX 54 90 55 91 56 92 57 93 58 94
REMARK H PARENT 16 7 1 14 1 15 20 25 82 44 48 55
REMARK Flexibility Score: inf
ROOT
ATOM      1  C   UNL A   1      42.527  21.964  26.279  1.00  0.00     0.118 C 
ENDROOT
BRANCH   1   2
ATOM      2  C   UNL A   1      43.264  22.311  25.011  1.00  0.00     0.042 C 
BRANCH   2   3
ATOM      3  C   UNL A   1      44.655  21.714  24.951  1.00  0.00     0.118 C 
BRANCH   3   4
ATOM      4  N   UNL A   1      45.663  22.522  24.305  1.00  0.00    -0.350 N 
ATOM      5  C   UNL A   1      46.143  23.774  24.621  1.00  0.00     0.275 C 
ATOM      6  O   UNL A   1      47.030  24.204  23.876  1.00  0.00    -0.267 OA
ATOM      7  H   UNL A   1      46.074  22.112  23.510  1.00  0.00     0.163 HD
BRANCH   5   8
ATOM      8  C   UNL A   1      45.649  24.570  25.757  1.00  0.00     0.194 A 
ATOM      9  C   UNL A   1      44.824  25.736  25.884  1.00  0.00     0.179 A 
ATOM     10  N   UNL A   1      44.585  25.987  27.164  1.00  0.00    -0.130 NA
ATOM     11  N   UNL A   1      45.179  24.948  27.776  1.00  0.00    -0.149 N 
ATOM     12  N   UNL A   1      45.961  24.167  27.013  1.00  0.00    -0.141 NA
BRANCH   9  13
ATOM     13  N   UNL A   1      44.260  26.535  24.970  1.00  0.00    -0.380 N 
ATOM     14  H   UNL A   1      44.821  27.135  24.427  1.00  0.00     0.158 HD
ATOM     15  H   UNL A   1      43.285  26.523  24.840  1.00  0.00     0.158 HD
ENDBRANCH   9  13
BRANCH  11  16
ATOM     16  C   UNL A   1      44.896  24.647  29.127  1.00  0.00     0.086 A 
ATOM     17  C   UNL A   1      44.462  23.369  29.495  1.00  0.00     0.032 A 
ATOM     18  C   UNL A   1      45.024  25.663  30.088  1.00  0.00     0.032 A 
ATOM     19  C   UNL A   1      44.195  23.102  30.840  1.00  0.00     0.023 A 
ATOM     20  C   UNL A   1      44.700  25.402  31.417  1.00  0.00     0.023 A 
ATOM     21  C   UNL A   1      44.304  24.119  31.791  1.00  0.00     0.041 A 
ATOM     22  Cl  UNL A   1      43.943  23.794  33.441  1.00  0.00    -0.084 Cl
ENDBRANCH  11  16
ENDBRANCH   5   8
ENDBRANCH   3   4
ENDBRANCH   2   3
ENDBRANCH   1   2
BRANCH   1  23
ATOM     23  N   UNL A   1      41.077  21.805  26.103  1.00  0.00    -0.352 N 
ATOM     24  C   UNL A   1      40.089  22.679  26.528  1.00  0.00     0.251 C 
ATOM     25  H   UNL A   1      40.775  20.993  25.635  1.00  0.00     0.163 HD
ATOM     26  O   UNL A   1      38.907  22.342  26.553  1.00  0.00    -0.269 OA
BRANCH  24  27
ATOM     27  C   UNL A   1      40.508  24.029  26.936  1.00  0.00     0.039 A 
ATOM     28  C   UNL A   1      40.028  25.191  26.325  1.00  0.00     0.014 A 
ATOM     29  C   UNL A   1      41.320  24.095  28.062  1.00  0.00     0.014 A 
ATOM     30  C   UNL A   1      40.315  26.418  26.920  1.00  0.00     0.010 A 
ATOM     31  C   UNL A   1      41.379  25.254  28.770  1.00  0.00     0.010 A 
ATOM     32  C   UNL A   1      40.978  26.432  28.157  1.00  0.00    -0.014 A 
BRANCH  32  33
ATOM     33  C   UNL A   1      41.206  27.649  28.920  1.00  0.00     0.031 A 
ATOM     34  C   UNL A   1      42.269  28.523  28.358  1.00  0.00     0.074 A 
ATOM     35  C   UNL A   1      40.310  28.055  29.851  1.00  0.00     0.049 A 
ATOM     36  N   UNL A   1      43.439  28.762  28.850  1.00  0.00    -0.248 NA
ATOM     37  C   UNL A   1      42.092  29.041  26.987  1.00  0.00     0.031 C 
ATOM     38  C   UNL A   1      39.036  27.423  30.228  1.00  0.00     0.029 A 
ATOM     39  N   UNL A   1      40.283  29.205  30.573  1.00  0.00    -0.354 N 
ATOM     40  C   UNL A   1      44.024  29.690  27.990  1.00  0.00     0.074 A 
ATOM     41  C   UNL A   1      43.279  29.612  26.764  1.00  0.00     0.031 C 
ATOM     42  C   UNL A   1      38.266  28.305  30.902  1.00  0.00     0.029 A 
ATOM     43  C   UNL A   1      39.051  29.494  31.164  1.00  0.00     0.049 A 
ATOM     44  H   UNL A   1      41.070  29.788  30.672  1.00  0.00     0.167 HD
ATOM     45  C   UNL A   1      44.870  30.649  28.465  1.00  0.00     0.037 A 
ATOM     46  C   UNL A   1      38.713  30.653  31.787  1.00  0.00     0.037 A 
ATOM     47  C   UNL A   1      45.288  30.332  29.812  1.00  0.00     0.049 A 
ATOM     48  C   UNL A   1      39.993  31.332  32.132  1.00  0.00     0.074 A 
ATOM     49  C   UNL A   1      45.931  29.262  30.404  1.00  0.00     0.029 A 
ATOM     50  N   UNL A   1      44.672  31.011  30.838  1.00  0.00    -0.354 N 
ATOM     51  N   UNL A   1      40.859  30.842  32.982  1.00  0.00    -0.248 NA
ATOM     52  C   UNL A   1      40.539  32.262  31.156  1.00  0.00     0.031 C 
ATOM     53  C   UNL A   1      45.259  29.074  31.648  1.00  0.00     0.029 A 
ATOM     54  C   UNL A   1      44.315  30.092  31.791  1.00  0.00     0.049 A 
ATOM     55  H   UNL A   1      44.515  31.982  30.880  1.00  0.00     0.167 HD
ATOM     56  C   UNL A   1      42.099  31.057  32.394  1.00  0.00     0.074 A 
ATOM     57  C   UNL A   1      41.840  31.989  31.296  1.00  0.00     0.031 C 
ATOM     58  C   UNL A   1      43.160  30.233  32.651  1.00  0.00     0.037 A 
BRANCH  45  59
ATOM     59  C   UNL A   1      45.000  32.053  27.906  1.00  0.00     0.058 A 
ATOM     60  C   UNL A   1      46.225  32.435  27.318  1.00  0.00     0.135 A 
ATOM     61  C   UNL A   1      44.104  33.114  28.171  1.00  0.00     0.135 A 
ATOM     62  F   UNL A   1      47.152  31.514  27.006  1.00  0.00    -0.206 F 
ATOM     63  C   UNL A   1      46.574  33.769  27.107  1.00  0.00     0.059 A 
ATOM     64  C   UNL A   1      44.411  34.446  27.919  1.00  0.00     0.059 A 
ATOM     65  F   UNL A   1      42.924  32.933  28.771  1.00  0.00    -0.206 F 
ATOM     66  C   UNL A   1      45.665  34.769  27.430  1.00  0.00     0.060 A 
BRANCH  66  67
ATOM     67  S   UNL A   1      46.148  36.495  27.257  1.00  0.00     0.124 S 
ATOM     68  O   UNL A   1      46.924  36.455  26.023  1.00  0.00    -0.237 OA
ATOM     69  O   UNL A   1      44.853  37.162  27.180  1.00  0.00    -0.237 OA
ATOM     70  O   UNL A   1      46.909  36.752  28.475  1.00  0.00    -0.744 OA
ENDBRANCH  66  67
ENDBRANCH  45  59
BRANCH  46  71
ATOM     71  C   UNL A   1      37.404  31.366  31.754  1.00  0.00     0.058 A 
ATOM     72  C   UNL A   1      36.692  31.649  32.935  1.00  0.00     0.135 A 
ATOM     73  C   UNL A   1      36.962  32.035  30.594  1.00  0.00     0.135 A 
ATOM     74  F   UNL A   1      37.052  31.074  34.092  1.00  0.00    -0.206 F 
ATOM     75  C   UNL A   1      35.639  32.576  32.973  1.00  0.00     0.059 A 
ATOM     76  C   UNL A   1      35.914  32.955  30.606  1.00  0.00     0.059 A 
ATOM     77  F   UNL A   1      37.601  31.882  29.424  1.00  0.00    -0.206 F 
ATOM     78  C   UNL A   1      35.272  33.242  31.804  1.00  0.00     0.060 A 
BRANCH  78  79
ATOM     79  S   UNL A   1      34.040  34.567  31.878  1.00  0.00     0.124 S 
ATOM     80  O   UNL A   1      33.520  34.574  30.515  1.00  0.00    -0.237 OA
ATOM     81  O   UNL A   1      33.125  34.083  32.906  1.00  0.00    -0.237 OA
ATOM     82  O   UNL A   1      34.827  35.740  32.251  1.00  0.00    -0.744 OA
ENDBRANCH  78  79
ENDBRANCH  46  71
BRANCH  58  83
ATOM     83  C   UNL A   1      43.050  29.248  33.789  1.00  0.00     0.058 A 
ATOM     84  C   UNL A   1      43.222  29.566  35.150  1.00  0.00     0.135 A 
ATOM     85  C   UNL A   1      42.578  27.962  33.493  1.00  0.00     0.135 A 
ATOM     86  F   UNL A   1      43.572  30.802  35.530  1.00  0.00    -0.206 F 
ATOM     87  C   UNL A   1      42.972  28.635  36.163  1.00  0.00     0.059 A 
ATOM     88  C   UNL A   1      42.292  27.029  34.486  1.00  0.00     0.059 A 
ATOM     89  F   UNL A   1      42.330  27.616  32.219  1.00  0.00    -0.206 F 
ATOM     90  C   UNL A   1      42.504  27.368  35.819  1.00  0.00     0.060 A 
BRANCH  90  91
ATOM     91  S   UNL A   1      42.118  26.182  37.126  1.00  0.00     0.124 S 
ATOM     92  O   UNL A   1      42.329  24.905  36.453  1.00  0.00    -0.237 OA
ATOM     93  O   UNL A   1      43.093  26.522  38.160  1.00  0.00    -0.237 OA
ATOM     94  O   UNL A   1      40.730  26.487  37.466  1.00  0.00    -0.744 OA
ENDBRANCH  90  91
ENDBRANCH  58  83
ENDBRANCH  32  33
ENDBRANCH  24  27
ENDBRANCH   1  23
TORSDOF 15
ENDMDL
MODEL 2
REMARK VINA RESULT:     -11.0      3.854      6.047
REMARK SMILES Nc1nn(-c2ccc(Cl)cc2)nc1C(=O)NCCCNC(=O)c1ccc(-c2c3nc(c(-c4c(F)cc(S(=O)(=O)[O-])cc4F)c4ccc([nH]4)c(-c4c(F)cc(S(=O)(=O)[O-])cc4F)c4nc(c(-c5c(F)cc(S(=O)(=O)[O-])cc5F)c5ccc2[nH]5)C=C4)C=C3)cc1
REMARK SMILES IDX 19 1 18 2 17 3 16 4 14 5 15 6 13 8 2 9 3 10 4 11 12 12 1 13
REMARK SMILES IDX 5 16 6 17 11 18 7 19 10 20 8 21 9 22 20 23 21 24 22 26 23 27
REMARK SMILES IDX 24 28 88 29 25 30 87 31 26 32 27 33 28 34 81 35 29 36 86 37
REMARK SMILES IDX 80 38 82 39 30 40 85 41 79 42 78 43 31 45 65 46 44 47 64 48
REMARK SMILES IDX 45 49 48 50 63 51 83 52 46 53 47 54 62 56 84 57 49 58 32 59
REMARK SMILES IDX 33 60 42 61 34 62 35 63 41 64 43 65 36 66 37 67 38 68 39 69
REMARK SMILES IDX 40 70 66 71 67 72 76 73 68 74 69 75 75 76 77 77 70 78 71 79
REMARK SMILES IDX 72 80 73 81 74 82 50 83 51 84 60 85 52 86 53 87 59 88 61 89
REMARK SMILES IDX 54 90 55 91 56 92 57 93 58 94
REMARK H PARENT 16 7 1 14 1 15 20 25 82 44 48 55
REMARK Flexibility Score: inf
ROOT
ATOM      1  C   UNL A   1      37.385  23.173  25.800  1.00  0.00     0.118 C 
ENDROOT
BRANCH   1   2
ATOM      2  C   UNL A   1      36.172  22.545  25.164  1.00  0.00     0.042 C 
BRANCH   2   3
ATOM      3  C   UNL A   1      35.000  22.420  26.117  1.00  0.00     0.118 C 
BRANCH   3   4
ATOM      4  N   UNL A   1      33.978  21.473  25.741  1.00  0.00    -0.350 N 
ATOM      5  C   UNL A   1      32.616  21.633  25.607  1.00  0.00     0.275 C 
ATOM      6  O   UNL A   1      31.997  20.625  25.252  1.00  0.00    -0.267 OA
ATOM      7  H   UNL A   1      34.307  20.565  25.550  1.00  0.00     0.163 HD
BRANCH   5   8
ATOM      8  C   UNL A   1      31.918  22.904  25.867  1.00  0.00     0.194 A 
ATOM      9  C   UNL A   1      30.649  23.256  26.433  1.00  0.00     0.179 A 
ATOM     10  N   UNL A   1      30.551  24.574  26.545  1.00  0.00    -0.130 NA
ATOM     11  N   UNL A   1      31.763  24.988  26.137  1.00  0.00    -0.149 N 
ATOM     12  N   UNL A   1      32.556  24.062  25.571  1.00  0.00    -0.141 NA
BRANCH   9  13
ATOM     13  N   UNL A   1      29.630  22.509  26.877  1.00  0.00    -0.380 N 
ATOM     14  H   UNL A   1      28.756  22.926  27.056  1.00  0.00     0.158 HD
ATOM     15  H   UNL A   1      29.755  21.544  27.023  1.00  0.00     0.158 HD
ENDBRANCH   9  13
BRANCH  11  16
ATOM     16  C   UNL A   1      32.203  26.304  26.398  1.00  0.00     0.086 A 
ATOM     17  C   UNL A   1      33.490  26.711  26.030  1.00  0.00     0.032 A 
ATOM     18  C   UNL A   1      31.337  27.187  27.064  1.00  0.00     0.032 A 
ATOM     19  C   UNL A   1      33.892  28.022  26.298  1.00  0.00     0.023 A 
ATOM     20  C   UNL A   1      31.769  28.474  27.378  1.00  0.00     0.023 A 
ATOM     21  C   UNL A   1      33.037  28.891  26.979  1.00  0.00     0.041 A 
ATOM     22  Cl  UNL A   1      33.550  30.495  27.336  1.00  0.00    -0.084 Cl
ENDBRANCH  11  16
ENDBRANCH   5   8
ENDBRANCH   3   4
ENDBRANCH   2   3
ENDBRANCH   1   2
BRANCH   1  23
ATOM     23  N   UNL A   1      38.373  22.203  26.290  1.00  0.00    -0.352 N 
ATOM     24  C   UNL A   1      39.635  22.484  26.790  1.00  0.00     0.251 C 
ATOM     25  H   UNL A   1      38.113  21.253  26.260  1.00  0.00     0.163 HD
ATOM     26  O   UNL A   1      40.472  21.597  26.942  1.00  0.00    -0.269 OA
BRANCH  24  27
ATOM     27  C   UNL A   1      39.928  23.882  27.143  1.00  0.00     0.039 A 
ATOM     28  C   UNL A   1      38.979  24.904  27.050  1.00  0.00     0.014 A 
ATOM     29  C   UNL A   1      41.179  24.114  27.703  1.00  0.00     0.014 A 
ATOM     30  C   UNL A   1      39.286  26.143  27.609  1.00  0.00     0.010 A 
ATOM     31  C   UNL A   1      41.369  25.227  28.461  1.00  0.00     0.010 A 
ATOM     32  C   UNL A   1      40.482  26.284  28.329  1.00  0.00    -0.014 A 
BRANCH  32  33
ATOM     33  C   UNL A   1      40.830  27.493  29.059  1.00  0.00     0.031 A 
ATOM     34  C   UNL A   1      41.909  28.293  28.420  1.00  0.00     0.074 A 
ATOM     35  C   UNL A   1      40.019  27.966  30.035  1.00  0.00     0.049 A 
ATOM     36  N   UNL A   1      43.118  28.464  28.837  1.00  0.00    -0.248 NA
ATOM     37  C   UNL A   1      41.681  28.805  27.055  1.00  0.00     0.031 C 
ATOM     38  C   UNL A   1      38.733  27.418  30.498  1.00  0.00     0.029 A 
ATOM     39  N   UNL A   1      40.107  29.123  30.739  1.00  0.00    -0.354 N 
ATOM     40  C   UNL A   1      43.706  29.344  27.930  1.00  0.00     0.074 A 
ATOM     41  C   UNL A   1      42.885  29.298  26.752  1.00  0.00     0.031 C 
ATOM     42  C   UNL A   1      38.062  28.355  31.203  1.00  0.00     0.029 A 
ATOM     43  C   UNL A   1      38.933  29.496  31.399  1.00  0.00     0.049 A 
ATOM     44  H   UNL A   1      40.932  29.657  30.782  1.00  0.00     0.167 HD
ATOM     45  C   UNL A   1      44.637  30.254  28.339  1.00  0.00     0.037 A 
ATOM     46  C   UNL A   1      38.705  30.681  32.023  1.00  0.00     0.037 A 
ATOM     47  C   UNL A   1      45.116  29.927  29.663  1.00  0.00     0.049 A 
ATOM     48  C   UNL A   1      40.044  31.282  32.281  1.00  0.00     0.074 A 
ATOM     49  C   UNL A   1      45.726  28.826  30.231  1.00  0.00     0.029 A 
ATOM     50  N   UNL A   1      44.606  30.655  30.713  1.00  0.00    -0.354 N 
ATOM     51  N   UNL A   1      40.928  30.749  33.084  1.00  0.00    -0.248 NA
ATOM     52  C   UNL A   1      40.585  32.165  31.259  1.00  0.00     0.031 C 
ATOM     53  C   UNL A   1      45.121  28.694  31.516  1.00  0.00     0.029 A 
ATOM     54  C   UNL A   1      44.252  29.772  31.700  1.00  0.00     0.049 A 
ATOM     55  H   UNL A   1      44.512  31.634  30.749  1.00  0.00     0.167 HD
ATOM     56  C   UNL A   1      42.141  30.879  32.420  1.00  0.00     0.074 A 
ATOM     57  C   UNL A   1      41.873  31.813  31.325  1.00  0.00     0.031 C 
ATOM     58  C   UNL A   1      43.162  29.994  32.626  1.00  0.00     0.037 A 
BRANCH  45  59
ATOM     59  C   UNL A   1      44.818  31.640  27.751  1.00  0.00     0.058 A 
ATOM     60  C   UNL A   1      46.009  31.924  27.047  1.00  0.00     0.135 A 
ATOM     61  C   UNL A   1      44.034  32.767  28.084  1.00  0.00     0.135 A 
ATOM     62  F   UNL A   1      46.831  30.933  26.662  1.00  0.00    -0.206 F 
ATOM     63  C   UNL A   1      46.435  33.227  26.786  1.00  0.00     0.059 A 
ATOM     64  C   UNL A   1      44.415  34.071  27.786  1.00  0.00     0.059 A 
ATOM     65  F   UNL A   1      42.905  32.681  28.793  1.00  0.00    -0.206 F 
ATOM     66  C   UNL A   1      45.638  34.295  27.179  1.00  0.00     0.060 A 
BRANCH  66  67
ATOM     67  S   UNL A   1      46.231  35.978  26.939  1.00  0.00     0.124 S 
ATOM     68  O   UNL A   1      46.953  35.852  25.678  1.00  0.00    -0.237 OA
ATOM     69  O   UNL A   1      44.983  36.731  26.891  1.00  0.00    -0.237 OA
ATOM     70  O   UNL A   1      47.055  36.213  28.120  1.00  0.00    -0.744 OA
ENDBRANCH  66  67
ENDBRANCH  45  59
BRANCH  46  71
ATOM     71  C   UNL A   1      37.443  31.473  32.058  1.00  0.00     0.058 A 
ATOM     72  C   UNL A   1      36.893  31.925  33.272  1.00  0.00     0.135 A 
ATOM     73  C   UNL A   1      36.904  32.046  30.887  1.00  0.00     0.135 A 
ATOM     74  F   UNL A   1      37.354  31.450  34.438  1.00  0.00    -0.206 F 
ATOM     75  C   UNL A   1      35.905  32.920  33.324  1.00  0.00     0.059 A 
ATOM     76  C   UNL A   1      35.918  33.032  30.914  1.00  0.00     0.059 A 
ATOM     77  F   UNL A   1      37.391  31.730  29.677  1.00  0.00    -0.206 F 
ATOM     78  C   UNL A   1      35.439  33.485  32.137  1.00  0.00     0.060 A 
BRANCH  78  79
ATOM     79  S   UNL A   1      34.300  34.890  32.200  1.00  0.00     0.124 S 
ATOM     80  O   UNL A   1      33.142  34.313  32.875  1.00  0.00    -0.237 OA
ATOM     81  O   UNL A   1      35.060  35.871  32.967  1.00  0.00    -0.237 OA
ATOM     82  O   UNL A   1      34.098  35.226  30.793  1.00  0.00    -0.744 OA
ENDBRANCH  78  79
ENDBRANCH  46  71
BRANCH  58  83
ATOM     83  C   UNL A   1      43.061  29.031  33.783  1.00  0.00     0.058 A 
ATOM     84  C   UNL A   1      43.357  29.347  35.123  1.00  0.00     0.135 A 
ATOM     85  C   UNL A   1      42.471  27.783  33.541  1.00  0.00     0.135 A 
ATOM     86  F   UNL A   1      43.826  30.556  35.459  1.00  0.00    -0.206 F 
ATOM     87  C   UNL A   1      43.111  28.449  36.165  1.00  0.00     0.059 A 
ATOM     88  C   UNL A   1      42.189  26.884  34.566  1.00  0.00     0.059 A 
ATOM     89  F   UNL A   1      42.106  27.445  32.294  1.00  0.00    -0.206 F 
ATOM     90  C   UNL A   1      42.523  27.218  35.876  1.00  0.00     0.060 A 
BRANCH  90  91
ATOM     91  S   UNL A   1      42.146  26.078  37.224  1.00  0.00     0.124 S 
ATOM     92  O   UNL A   1      40.736  26.356  37.476  1.00  0.00    -0.237 OA
ATOM     93  O   UNL A   1      42.439  24.776  36.630  1.00  0.00    -0.237 OA
ATOM     94  O   UNL A   1      43.062  26.488  38.286  1.00  0.00    -0.744 OA
ENDBRANCH  90  91
ENDBRANCH  58  83
ENDBRANCH  32  33
ENDBRANCH  24  27
ENDBRANCH   1  23
TORSDOF 15
ENDMDL
MODEL 3
REMARK VINA RESULT:     -10.9      2.055      2.920
REMARK SMILES Nc1nn(-c2ccc(Cl)cc2)nc1C(=O)NCCCNC(=O)c1ccc(-c2c3nc(c(-c4c(F)cc(S(=O)(=O)[O-])cc4F)c4ccc([nH]4)c(-c4c(F)cc(S(=O)(=O)[O-])cc4F)c4nc(c(-c5c(F)cc(S(=O)(=O)[O-])cc5F)c5ccc2[nH]5)C=C4)C=C3)cc1
REMARK SMILES IDX 19 1 18 2 17 3 16 4 14 5 15 6 13 8 2 9 3 10 4 11 12 12 1 13
REMARK SMILES IDX 5 16 6 17 11 18 7 19 10 20 8 21 9 22 20 23 21 24 22 26 23 27
REMARK SMILES IDX 24 28 88 29 25 30 87 31 26 32 27 33 28 34 81 35 29 36 86 37
REMARK SMILES IDX 80 38 82 39 30 40 85 41 79 42 78 43 31 45 65 46 44 47 64 48
REMARK SMILES IDX 45 49 48 50 63 51 83 52 46 53 47 54 62 56 84 57 49 58 32 59
REMARK SMILES IDX 33 60 42 61 34 62 35 63 41 64 43 65 36 66 37 67 38 68 39 69
REMARK SMILES IDX 40 70 66 71 67 72 76 73 68 74 69 75 75 76 77 77 70 78 71 79
REMARK SMILES IDX 72 80 73 81 74 82 50 83 51 84 60 85 52 86 53 87 59 88 61 89
REMARK SMILES IDX 54 90 55 91 56 92 57 93 58 94
REMARK H PARENT 16 7 1 14 1 15 20 25 82 44 48 55
REMARK Flexibility Score: inf
ROOT
ATOM      1  C   UNL A   1      40.751  21.924  26.310  1.00  0.00     0.118 C 
ENDROOT
BRANCH   1   2
ATOM      2  C   UNL A   1      40.806  20.580  26.989  1.00  0.00     0.042 C 
BRANCH   2   3
ATOM      3  C   UNL A   1      41.013  19.433  26.021  1.00  0.00     0.118 C 
BRANCH   3   4
ATOM      4  N   UNL A   1      42.040  18.483  26.375  1.00  0.00    -0.350 N 
ATOM      5  C   UNL A   1      43.391  18.480  26.101  1.00  0.00     0.275 C 
ATOM      6  O   UNL A   1      44.022  17.522  26.558  1.00  0.00    -0.267 OA
ATOM      7  H   UNL A   1      41.725  17.711  26.898  1.00  0.00     0.163 HD
BRANCH   5   8
ATOM      8  C   UNL A   1      44.061  19.529  25.314  1.00  0.00     0.194 A 
ATOM      9  C   UNL A   1      44.500  19.640  23.954  1.00  0.00     0.179 A 
ATOM     10  N   UNL A   1      44.953  20.864  23.720  1.00  0.00    -0.130 NA
ATOM     11  N   UNL A   1      44.708  21.488  24.885  1.00  0.00    -0.149 N 
ATOM     12  N   UNL A   1      44.333  20.713  25.916  1.00  0.00    -0.141 NA
BRANCH   9  13
ATOM     13  N   UNL A   1      44.487  18.768  22.937  1.00  0.00    -0.380 N 
ATOM     14  H   UNL A   1      43.894  18.921  22.165  1.00  0.00     0.158 HD
ATOM     15  H   UNL A   1      45.071  17.976  22.960  1.00  0.00     0.158 HD
ENDBRANCH   9  13
BRANCH  11  16
ATOM     16  C   UNL A   1      44.743  22.897  24.971  1.00  0.00     0.086 A 
ATOM     17  C   UNL A   1      45.954  23.570  25.162  1.00  0.00     0.032 A 
ATOM     18  C   UNL A   1      43.534  23.609  24.896  1.00  0.00     0.032 A 
ATOM     19  C   UNL A   1      45.954  24.965  25.238  1.00  0.00     0.023 A 
ATOM     20  C   UNL A   1      43.538  24.995  25.030  1.00  0.00     0.023 A 
ATOM     21  C   UNL A   1      44.749  25.669  25.183  1.00  0.00     0.041 A 
ATOM     22  Cl  UNL A   1      44.751  27.385  25.310  1.00  0.00    -0.084 Cl
ENDBRANCH  11  16
ENDBRANCH   5   8
ENDBRANCH   3   4
ENDBRANCH   2   3
ENDBRANCH   1   2
BRANCH   1  23
ATOM     23  N   UNL A   1      39.412  22.300  25.837  1.00  0.00    -0.352 N 
ATOM     24  C   UNL A   1      38.703  23.442  26.175  1.00  0.00     0.251 C 
ATOM     25  H   UNL A   1      38.972  21.676  25.215  1.00  0.00     0.163 HD
ATOM     26  O   UNL A   1      37.504  23.545  25.925  1.00  0.00    -0.269 OA
BRANCH  24  27
ATOM     27  C   UNL A   1      39.444  24.529  26.833  1.00  0.00     0.039 A 
ATOM     28  C   UNL A   1      40.191  25.476  26.127  1.00  0.00     0.014 A 
ATOM     29  C   UNL A   1      39.255  24.644  28.206  1.00  0.00     0.014 A 
ATOM     30  C   UNL A   1      40.674  26.586  26.817  1.00  0.00     0.010 A 
ATOM     31  C   UNL A   1      39.503  25.837  28.811  1.00  0.00     0.010 A 
ATOM     32  C   UNL A   1      40.305  26.762  28.159  1.00  0.00    -0.014 A 
BRANCH  32  33
ATOM     33  C   UNL A   1      40.647  27.949  28.926  1.00  0.00     0.031 A 
ATOM     34  C   UNL A   1      41.733  28.766  28.321  1.00  0.00     0.074 A 
ATOM     35  C   UNL A   1      39.828  28.395  29.908  1.00  0.00     0.049 A 
ATOM     36  N   UNL A   1      42.938  28.924  28.754  1.00  0.00    -0.248 NA
ATOM     37  C   UNL A   1      41.518  29.317  26.969  1.00  0.00     0.031 C 
ATOM     38  C   UNL A   1      38.537  27.836  30.343  1.00  0.00     0.029 A 
ATOM     39  N   UNL A   1      39.909  29.532  30.646  1.00  0.00    -0.354 N 
ATOM     40  C   UNL A   1      43.535  29.829  27.878  1.00  0.00     0.074 A 
ATOM     41  C   UNL A   1      42.725  29.817  26.692  1.00  0.00     0.031 C 
ATOM     42  C   UNL A   1      37.860  28.752  31.068  1.00  0.00     0.029 A 
ATOM     43  C   UNL A   1      38.730  29.886  31.305  1.00  0.00     0.049 A 
ATOM     44  H   UNL A   1      40.735  30.063  30.712  1.00  0.00     0.167 HD
ATOM     45  C   UNL A   1      44.463  30.726  28.321  1.00  0.00     0.037 A 
ATOM     46  C   UNL A   1      38.497  31.053  31.961  1.00  0.00     0.037 A 
ATOM     47  C   UNL A   1      44.929  30.362  29.640  1.00  0.00     0.049 A 
ATOM     48  C   UNL A   1      39.833  31.646  32.248  1.00  0.00     0.074 A 
ATOM     49  C   UNL A   1      45.533  29.244  30.182  1.00  0.00     0.029 A 
ATOM     50  N   UNL A   1      44.410  31.060  30.706  1.00  0.00    -0.354 N 
ATOM     51  N   UNL A   1      40.710  31.089  33.044  1.00  0.00    -0.248 NA
ATOM     52  C   UNL A   1      40.385  32.557  31.256  1.00  0.00     0.031 C 
ATOM     53  C   UNL A   1      44.916  29.076  31.457  1.00  0.00     0.029 A 
ATOM     54  C   UNL A   1      44.046  30.149  31.663  1.00  0.00     0.049 A 
ATOM     55  H   UNL A   1      44.316  32.037  30.769  1.00  0.00     0.167 HD
ATOM     56  C   UNL A   1      41.929  31.237  32.395  1.00  0.00     0.074 A 
ATOM     57  C   UNL A   1      41.671  32.202  31.324  1.00  0.00     0.031 C 
ATOM     58  C   UNL A   1      42.947  30.345  32.585  1.00  0.00     0.037 A 
BRANCH  45  59
ATOM     59  C   UNL A   1      44.651  32.129  27.775  1.00  0.00     0.058 A 
ATOM     60  C   UNL A   1      45.832  32.422  27.060  1.00  0.00     0.135 A 
ATOM     61  C   UNL A   1      43.885  33.253  28.157  1.00  0.00     0.135 A 
ATOM     62  F   UNL A   1      46.636  31.435  26.630  1.00  0.00    -0.206 F 
ATOM     63  C   UNL A   1      46.270  33.727  26.834  1.00  0.00     0.059 A 
ATOM     64  C   UNL A   1      44.276  34.562  27.895  1.00  0.00     0.059 A 
ATOM     65  F   UNL A   1      42.767  33.157  28.882  1.00  0.00    -0.206 F 
ATOM     66  C   UNL A   1      45.491  34.791  27.274  1.00  0.00     0.060 A 
BRANCH  66  67
ATOM     67  S   UNL A   1      46.100  36.474  27.078  1.00  0.00     0.124 S 
ATOM     68  O   UNL A   1      44.854  37.222  26.973  1.00  0.00    -0.237 OA
ATOM     69  O   UNL A   1      46.861  36.662  28.308  1.00  0.00    -0.237 OA
ATOM     70  O   UNL A   1      46.898  36.400  25.859  1.00  0.00    -0.744 OA
ENDBRANCH  66  67
ENDBRANCH  45  59
BRANCH  46  71
ATOM     71  C   UNL A   1      37.235  31.845  32.006  1.00  0.00     0.058 A 
ATOM     72  C   UNL A   1      36.639  32.208  33.229  1.00  0.00     0.135 A 
ATOM     73  C   UNL A   1      36.742  32.506  30.862  1.00  0.00     0.135 A 
ATOM     74  F   UNL A   1      37.055  31.646  34.373  1.00  0.00    -0.206 F 
ATOM     75  C   UNL A   1      35.651  33.200  33.317  1.00  0.00     0.059 A 
ATOM     76  C   UNL A   1      35.756  33.490  30.925  1.00  0.00     0.059 A 
ATOM     77  F   UNL A   1      37.274  32.279  29.651  1.00  0.00    -0.206 F 
ATOM     78  C   UNL A   1      35.231  33.852  32.159  1.00  0.00     0.060 A 
BRANCH  78  79
ATOM     79  S   UNL A   1      34.091  35.254  32.283  1.00  0.00     0.124 S 
ATOM     80  O   UNL A   1      34.832  36.172  33.142  1.00  0.00    -0.237 OA
ATOM     81  O   UNL A   1      33.947  35.661  30.890  1.00  0.00    -0.237 OA
ATOM     82  O   UNL A   1      32.896  34.666  32.884  1.00  0.00    -0.744 OA
ENDBRANCH  78  79
ENDBRANCH  46  71
BRANCH  58  83
ATOM     83  C   UNL A   1      42.835  29.350  33.713  1.00  0.00     0.058 A 
ATOM     84  C   UNL A   1      43.120  29.627  35.064  1.00  0.00     0.135 A 
ATOM     85  C   UNL A   1      42.246  28.110  33.430  1.00  0.00     0.135 A 
ATOM     86  F   UNL A   1      43.588  30.825  35.438  1.00  0.00    -0.206 F 
ATOM     87  C   UNL A   1      42.864  28.700  36.078  1.00  0.00     0.059 A 
ATOM     88  C   UNL A   1      41.953  27.183  34.427  1.00  0.00     0.059 A 
ATOM     89  F   UNL A   1      41.891  27.808  32.171  1.00  0.00    -0.206 F 
ATOM     90  C   UNL A   1      42.277  27.479  35.748  1.00  0.00     0.060 A 
BRANCH  90  91
ATOM     91  S   UNL A   1      41.886  26.301  37.060  1.00  0.00     0.124 S 
ATOM     92  O   UNL A   1      40.562  26.742  37.484  1.00  0.00    -0.237 OA
ATOM     93  O   UNL A   1      41.933  25.020  36.360  1.00  0.00    -0.237 OA
ATOM     94  O   UNL A   1      42.955  26.507  38.035  1.00  0.00    -0.744 OA
ENDBRANCH  90  91
ENDBRANCH  58  83
ENDBRANCH  32  33
ENDBRANCH  24  27
ENDBRANCH   1  23
TORSDOF 15
ENDMDL
