MODEL 1
REMARK VINA RESULT:     -12.6      0.000      0.000
REMARK SMILES CC1=C(C(=O)NCCCNC(=O)c2ccc(-c3c4nc(c(-c5c(F)cc(S(=O)(=O)[O-])cc5F)c5ccc([nH]5)c(-c5c(F)cc(S(=O)(=O)[O-])cc5F)c5nc(c(-c6c(F)cc(S(=O)(=O)[O-])cc6F)c6ccc3[nH]6)C=C5)C=C4)cc2)N2C(=O)[C@@H](NC(=O)c3ccn(C)n3)[C@H]2SC1
REMARK SMILES IDX 8 1 7 2 6 3 4 4 5 5 3 7 1 8 2 9 94 10 79 11 93 12 80 13
REMARK SMILES IDX 92 14 81 15 82 16 83 17 84 18 85 20 86 21 87 22 91 23 88 24
REMARK SMILES IDX 89 25 90 26 9 27 10 28 11 29 12 31 13 32 14 33 78 34 15 35
REMARK SMILES IDX 77 36 16 37 17 38 18 39 71 40 19 41 76 42 70 43 72 44 20 45
REMARK SMILES IDX 75 46 69 47 68 48 21 50 55 51 34 52 54 53 35 54 38 55 53 56
REMARK SMILES IDX 73 57 36 58 37 59 52 61 74 62 39 63 22 64 23 65 32 66 24 67
REMARK SMILES IDX 25 68 31 69 33 70 26 71 27 72 28 73 29 74 30 75 56 76 57 77
REMARK SMILES IDX 66 78 58 79 59 80 65 81 67 82 60 83 61 84 62 85 63 86 64 87
REMARK SMILES IDX 40 88 41 89 50 90 42 91 43 92 49 93 51 94 44 95 45 96 46 97
REMARK SMILES IDX 47 98 48 99
REMARK H PARENT 6 6 83 19 10 30 72 49 38 60
REMARK Flexibility Score: inf
ROOT
ATOM      1  C   UNL A   1      38.813  22.457  26.502  1.00  0.00     0.042 C 
ENDROOT
BRANCH   1   2
ATOM      2  C   UNL A   1      37.815  23.368  25.823  1.00  0.00     0.118 C 
BRANCH   2   3
ATOM      3  N   UNL A   1      37.616  23.171  24.403  1.00  0.00    -0.351 N 
ATOM      4  C   UNL A   1      36.475  22.817  23.737  1.00  0.00     0.268 C 
ATOM      5  O   UNL A   1      36.436  22.953  22.513  1.00  0.00    -0.268 OA
ATOM      6  H   UNL A   1      38.411  23.310  23.839  1.00  0.00     0.163 HD
BRANCH   4   7
ATOM      7  C   UNL A   1      35.297  22.214  24.467  1.00  0.00     0.110 C 
ATOM      8  C   UNL A   1      36.301  19.945  25.000  1.00  0.00     0.043 C 
ATOM      9  C   UNL A   1      35.168  20.935  24.905  1.00  0.00    -0.034 C 
ATOM     10  C   UNL A   1      33.848  20.340  25.404  1.00  0.00     0.104 C 
ATOM     11  N   UNL A   1      34.349  23.100  24.874  1.00  0.00    -0.290 N 
ATOM     12  S   UNL A   1      32.459  21.513  25.598  1.00  0.00    -0.129 SA
ATOM     13  C   UNL A   1      33.924  24.356  24.644  1.00  0.00     0.253 C 
ATOM     14  C   UNL A   1      33.569  22.852  26.064  1.00  0.00     0.181 C 
ATOM     15  O   UNL A   1      34.124  25.169  23.772  1.00  0.00    -0.272 OA
ATOM     16  C   UNL A   1      33.123  24.322  25.977  1.00  0.00     0.206 C 
BRANCH  16  17
ATOM     17  N   UNL A   1      31.674  24.614  25.974  1.00  0.00    -0.336 N 
ATOM     18  C   UNL A   1      31.090  25.866  26.044  1.00  0.00     0.272 C 
ATOM     19  H   UNL A   1      31.065  23.843  25.914  1.00  0.00     0.164 HD
ATOM     20  O   UNL A   1      29.878  25.954  26.232  1.00  0.00    -0.267 OA
BRANCH  18  21
ATOM     21  C   UNL A   1      31.968  27.042  25.907  1.00  0.00     0.150 A 
ATOM     22  C   UNL A   1      32.195  27.826  24.738  1.00  0.00     0.056 A 
ATOM     23  N   UNL A   1      32.726  27.491  26.927  1.00  0.00    -0.168 NA
ATOM     24  C   UNL A   1      33.163  28.737  25.086  1.00  0.00     0.109 A 
ATOM     25  N   UNL A   1      33.411  28.525  26.408  1.00  0.00    -0.275 N 
ATOM     26  C   UNL A   1      34.328  29.275  27.232  1.00  0.00     0.173 C 
ENDBRANCH  18  21
ENDBRANCH  16  17
ENDBRANCH   4   7
ENDBRANCH   2   3
ENDBRANCH   1   2
BRANCH   1  27
ATOM     27  C   UNL A   1      40.057  23.141  27.035  1.00  0.00     0.118 C 
BRANCH  27  28
ATOM     28  N   UNL A   1      40.769  23.950  26.049  1.00  0.00    -0.352 N 
ATOM     29  C   UNL A   1      41.277  25.229  26.112  1.00  0.00     0.251 C 
ATOM     30  H   UNL A   1      40.911  23.501  25.185  1.00  0.00     0.163 HD
ATOM     31  O   UNL A   1      41.748  25.735  25.096  1.00  0.00    -0.269 OA
BRANCH  29  32
ATOM     32  C   UNL A   1      41.218  26.016  27.367  1.00  0.00     0.039 A 
ATOM     33  C   UNL A   1      42.243  26.920  27.659  1.00  0.00     0.014 A 
ATOM     34  C   UNL A   1      40.152  25.882  28.254  1.00  0.00     0.014 A 
ATOM     35  C   UNL A   1      42.136  27.755  28.776  1.00  0.00     0.010 A 
ATOM     36  C   UNL A   1      39.972  26.813  29.269  1.00  0.00     0.010 A 
ATOM     37  C   UNL A   1      40.969  27.753  29.557  1.00  0.00    -0.014 A 
BRANCH  37  38
ATOM     38  C   UNL A   1      40.777  28.703  30.686  1.00  0.00     0.031 A 
ATOM     39  C   UNL A   1      41.615  28.575  31.934  1.00  0.00     0.074 A 
ATOM     40  C   UNL A   1      39.807  29.637  30.618  1.00  0.00     0.049 A 
ATOM     41  N   UNL A   1      41.558  29.269  33.042  1.00  0.00    -0.248 NA
ATOM     42  C   UNL A   1      42.627  27.503  31.956  1.00  0.00     0.031 C 
ATOM     43  C   UNL A   1      38.883  29.822  29.496  1.00  0.00     0.029 A 
ATOM     44  N   UNL A   1      39.432  30.609  31.512  1.00  0.00    -0.354 N 
ATOM     45  C   UNL A   1      42.510  28.711  33.888  1.00  0.00     0.074 A 
ATOM     46  C   UNL A   1      43.074  27.572  33.200  1.00  0.00     0.031 C 
ATOM     47  C   UNL A   1      38.082  30.869  29.749  1.00  0.00     0.029 A 
ATOM     48  C   UNL A   1      38.397  31.401  31.070  1.00  0.00     0.049 A 
ATOM     49  H   UNL A   1      39.863  30.729  32.390  1.00  0.00     0.167 HD
ATOM     50  C   UNL A   1      42.909  29.129  35.114  1.00  0.00     0.037 A 
ATOM     51  C   UNL A   1      37.769  32.436  31.661  1.00  0.00     0.037 A 
ATOM     52  C   UNL A   1      42.361  30.278  35.785  1.00  0.00     0.049 A 
ATOM     53  C   UNL A   1      38.224  32.879  33.027  1.00  0.00     0.074 A 
ATOM     54  C   UNL A   1      42.731  30.820  37.002  1.00  0.00     0.029 A 
ATOM     55  N   UNL A   1      41.325  31.061  35.296  1.00  0.00    -0.354 N 
ATOM     56  N   UNL A   1      39.177  32.383  33.782  1.00  0.00    -0.248 NA
ATOM     57  C   UNL A   1      37.526  34.029  33.618  1.00  0.00     0.031 C 
ATOM     58  C   UNL A   1      41.879  31.895  37.278  1.00  0.00     0.029 A 
ATOM     59  C   UNL A   1      41.025  32.067  36.200  1.00  0.00     0.049 A 
ATOM     60  H   UNL A   1      40.870  30.923  34.434  1.00  0.00     0.167 HD
ATOM     61  C   UNL A   1      39.213  33.179  34.921  1.00  0.00     0.074 A 
ATOM     62  C   UNL A   1      38.198  34.199  34.747  1.00  0.00     0.031 C 
ATOM     63  C   UNL A   1      40.014  33.078  36.011  1.00  0.00     0.037 A 
BRANCH  50  64
ATOM     64  C   UNL A   1      43.994  28.343  35.803  1.00  0.00     0.058 A 
ATOM     65  C   UNL A   1      43.700  27.290  36.687  1.00  0.00     0.135 A 
ATOM     66  C   UNL A   1      45.348  28.623  35.554  1.00  0.00     0.135 A 
ATOM     67  F   UNL A   1      42.424  26.988  36.977  1.00  0.00    -0.206 F 
ATOM     68  C   UNL A   1      44.704  26.568  37.322  1.00  0.00     0.059 A 
ATOM     69  C   UNL A   1      46.370  27.889  36.151  1.00  0.00     0.059 A 
ATOM     70  F   UNL A   1      45.691  29.619  34.722  1.00  0.00    -0.206 F 
ATOM     71  C   UNL A   1      46.037  26.873  37.045  1.00  0.00     0.060 A 
BRANCH  71  72
ATOM     72  S   UNL A   1      47.326  25.915  37.868  1.00  0.00     0.124 S 
ATOM     73  O   UNL A   1      47.028  24.564  37.401  1.00  0.00    -0.237 OA
ATOM     74  O   UNL A   1      48.546  26.514  37.335  1.00  0.00    -0.237 OA
ATOM     75  O   UNL A   1      47.078  26.157  39.286  1.00  0.00    -0.744 OA
ENDBRANCH  71  72
ENDBRANCH  50  64
BRANCH  51  76
ATOM     76  C   UNL A   1      36.664  33.144  30.956  1.00  0.00     0.058 A 
ATOM     77  C   UNL A   1      36.924  33.975  29.855  1.00  0.00     0.135 A 
ATOM     78  C   UNL A   1      35.329  32.999  31.361  1.00  0.00     0.135 A 
ATOM     79  F   UNL A   1      38.185  34.153  29.432  1.00  0.00    -0.206 F 
ATOM     80  C   UNL A   1      35.904  34.653  29.194  1.00  0.00     0.059 A 
ATOM     81  C   UNL A   1      34.287  33.642  30.697  1.00  0.00     0.059 A 
ATOM     82  F   UNL A   1      35.021  32.203  32.396  1.00  0.00    -0.206 F 
ATOM     83  C   UNL A   1      34.587  34.476  29.621  1.00  0.00     0.060 A 
BRANCH  83  84
ATOM     84  S   UNL A   1      33.267  35.322  28.726  1.00  0.00     0.124 S 
ATOM     85  O   UNL A   1      34.021  36.271  27.914  1.00  0.00    -0.237 OA
ATOM     86  O   UNL A   1      32.637  34.222  28.001  1.00  0.00    -0.237 OA
ATOM     87  O   UNL A   1      32.458  35.905  29.791  1.00  0.00    -0.744 OA
ENDBRANCH  83  84
ENDBRANCH  51  76
BRANCH  63  88
ATOM     88  C   UNL A   1      39.858  34.122  37.085  1.00  0.00     0.058 A 
ATOM     89  C   UNL A   1      40.457  35.387  36.987  1.00  0.00     0.135 A 
ATOM     90  C   UNL A   1      39.062  33.861  38.214  1.00  0.00     0.135 A 
ATOM     91  F   UNL A   1      41.231  35.689  35.931  1.00  0.00    -0.206 F 
ATOM     92  C   UNL A   1      40.305  36.343  37.986  1.00  0.00     0.059 A 
ATOM     93  C   UNL A   1      38.866  34.814  39.206  1.00  0.00     0.059 A 
ATOM     94  F   UNL A   1      38.453  32.672  38.353  1.00  0.00    -0.206 F 
ATOM     95  C   UNL A   1      39.506  36.046  39.092  1.00  0.00     0.060 A 
BRANCH  95  96
ATOM     96  S   UNL A   1      39.306  37.302  40.373  1.00  0.00     0.124 S 
ATOM     97  O   UNL A   1      40.693  37.649  40.664  1.00  0.00    -0.237 OA
ATOM     98  O   UNL A   1      38.528  38.327  39.685  1.00  0.00    -0.237 OA
ATOM     99  O   UNL A   1      38.599  36.594  41.436  1.00  0.00    -0.744 OA
ENDBRANCH  95  96
ENDBRANCH  63  88
ENDBRANCH  37  38
ENDBRANCH  29  32
ENDBRANCH  27  28
ENDBRANCH   1  27
TORSDOF 15
ENDMDL
MODEL 2
REMARK VINA RESULT:     -12.2      6.263     10.821
REMARK SMILES CC1=C(C(=O)NCCCNC(=O)c2ccc(-c3c4nc(c(-c5c(F)cc(S(=O)(=O)[O-])cc5F)c5ccc([nH]5)c(-c5c(F)cc(S(=O)(=O)[O-])cc5F)c5nc(c(-c6c(F)cc(S(=O)(=O)[O-])cc6F)c6ccc3[nH]6)C=C5)C=C4)cc2)N2C(=O)[C@@H](NC(=O)c3ccn(C)n3)[C@H]2SC1
REMARK SMILES IDX 8 1 7 2 6 3 4 4 5 5 3 7 1 8 2 9 94 10 79 11 93 12 80 13
REMARK SMILES IDX 92 14 81 15 82 16 83 17 84 18 85 20 86 21 87 22 91 23 88 24
REMARK SMILES IDX 89 25 90 26 9 27 10 28 11 29 12 31 13 32 14 33 78 34 15 35
REMARK SMILES IDX 77 36 16 37 17 38 18 39 71 40 19 41 76 42 70 43 72 44 20 45
REMARK SMILES IDX 75 46 69 47 68 48 21 50 55 51 34 52 54 53 35 54 38 55 53 56
REMARK SMILES IDX 73 57 36 58 37 59 52 61 74 62 39 63 22 64 23 65 32 66 24 67
REMARK SMILES IDX 25 68 31 69 33 70 26 71 27 72 28 73 29 74 30 75 56 76 57 77
REMARK SMILES IDX 66 78 58 79 59 80 65 81 67 82 60 83 61 84 62 85 63 86 64 87
REMARK SMILES IDX 40 88 41 89 50 90 42 91 43 92 49 93 51 94 44 95 45 96 46 97
REMARK SMILES IDX 47 98 48 99
REMARK H PARENT 6 6 83 19 10 30 72 49 38 60
REMARK Flexibility Score: inf
ROOT
ATOM      1  C   UNL A   1      37.817  20.267  25.010  1.00  0.00     0.042 C 
ENDROOT
BRANCH   1   2
ATOM      2  C   UNL A   1      36.817  21.394  24.878  1.00  0.00     0.118 C 
BRANCH   2   3
ATOM      3  N   UNL A   1      36.055  21.728  26.063  1.00  0.00    -0.351 N 
ATOM      4  C   UNL A   1      34.720  21.554  26.302  1.00  0.00     0.268 C 
ATOM      5  O   UNL A   1      34.305  21.656  27.458  1.00  0.00    -0.268 OA
ATOM      6  H   UNL A   1      36.568  22.136  26.798  1.00  0.00     0.163 HD
BRANCH   4   7
ATOM      7  C   UNL A   1      33.749  21.299  25.173  1.00  0.00     0.110 C 
ATOM      8  C   UNL A   1      32.992  18.971  25.841  1.00  0.00     0.043 C 
ATOM      9  C   UNL A   1      33.094  20.142  24.897  1.00  0.00    -0.034 C 
ATOM     10  C   UNL A   1      32.329  19.891  23.594  1.00  0.00     0.104 C 
ATOM     11  N   UNL A   1      33.368  22.401  24.473  1.00  0.00    -0.290 N 
ATOM     12  S   UNL A   1      32.143  21.329  22.480  1.00  0.00    -0.129 SA
ATOM     13  C   UNL A   1      33.740  23.673  24.240  1.00  0.00     0.253 C 
ATOM     14  C   UNL A   1      32.058  22.475  23.867  1.00  0.00     0.181 C 
ATOM     15  O   UNL A   1      34.753  24.304  24.432  1.00  0.00    -0.272 OA
ATOM     16  C   UNL A   1      32.323  23.978  23.676  1.00  0.00     0.206 C 
BRANCH  16  17
ATOM     17  N   UNL A   1      32.178  24.546  22.319  1.00  0.00    -0.336 N 
ATOM     18  C   UNL A   1      31.801  25.840  22.008  1.00  0.00     0.272 C 
ATOM     19  H   UNL A   1      32.369  23.945  21.562  1.00  0.00     0.164 HD
ATOM     20  O   UNL A   1      31.528  26.123  20.843  1.00  0.00    -0.267 OA
BRANCH  18  21
ATOM     21  C   UNL A   1      31.728  26.818  23.109  1.00  0.00     0.150 A 
ATOM     22  C   UNL A   1      30.560  27.413  23.667  1.00  0.00     0.056 A 
ATOM     23  N   UNL A   1      32.834  27.310  23.702  1.00  0.00    -0.168 NA
ATOM     24  C   UNL A   1      31.013  28.325  24.589  1.00  0.00     0.109 A 
ATOM     25  N   UNL A   1      32.368  28.192  24.603  1.00  0.00    -0.275 N 
ATOM     26  C   UNL A   1      33.284  28.914  25.453  1.00  0.00     0.173 C 
ENDBRANCH  18  21
ENDBRANCH  16  17
ENDBRANCH   4   7
ENDBRANCH   2   3
ENDBRANCH   1   2
BRANCH   1  27
ATOM     27  C   UNL A   1      39.098  20.620  25.741  1.00  0.00     0.118 C 
BRANCH  27  28
ATOM     28  N   UNL A   1      40.031  19.506  25.893  1.00  0.00    -0.352 N 
ATOM     29  C   UNL A   1      41.387  19.476  26.138  1.00  0.00     0.251 C 
ATOM     30  H   UNL A   1      39.617  18.618  25.804  1.00  0.00     0.163 HD
ATOM     31  O   UNL A   1      41.973  18.396  26.116  1.00  0.00    -0.269 OA
BRANCH  29  32
ATOM     32  C   UNL A   1      42.149  20.724  26.376  1.00  0.00     0.039 A 
ATOM     33  C   UNL A   1      42.634  21.451  25.284  1.00  0.00     0.014 A 
ATOM     34  C   UNL A   1      42.378  21.196  27.666  1.00  0.00     0.014 A 
ATOM     35  C   UNL A   1      43.245  22.692  25.491  1.00  0.00     0.010 A 
ATOM     36  C   UNL A   1      42.843  22.491  27.860  1.00  0.00     0.010 A 
ATOM     37  C   UNL A   1      43.299  23.253  26.778  1.00  0.00    -0.014 A 
BRANCH  37  38
ATOM     38  C   UNL A   1      43.844  24.616  27.019  1.00  0.00     0.031 A 
ATOM     39  C   UNL A   1      42.928  25.734  27.452  1.00  0.00     0.074 A 
ATOM     40  C   UNL A   1      45.149  24.866  26.788  1.00  0.00     0.049 A 
ATOM     41  N   UNL A   1      43.203  26.996  27.656  1.00  0.00    -0.248 NA
ATOM     42  C   UNL A   1      41.505  25.398  27.644  1.00  0.00     0.031 C 
ATOM     43  C   UNL A   1      46.128  23.889  26.304  1.00  0.00     0.029 A 
ATOM     44  N   UNL A   1      45.881  26.019  26.927  1.00  0.00    -0.354 N 
ATOM     45  C   UNL A   1      41.995  27.600  27.986  1.00  0.00     0.074 A 
ATOM     46  C   UNL A   1      40.971  26.587  27.874  1.00  0.00     0.031 C 
ATOM     47  C   UNL A   1      47.336  24.470  26.229  1.00  0.00     0.029 A 
ATOM     48  C   UNL A   1      47.213  25.872  26.611  1.00  0.00     0.049 A 
ATOM     49  H   UNL A   1      45.490  26.872  27.224  1.00  0.00     0.167 HD
ATOM     50  C   UNL A   1      41.760  28.874  28.382  1.00  0.00     0.037 A 
ATOM     51  C   UNL A   1      48.221  26.766  26.624  1.00  0.00     0.037 A 
ATOM     52  C   UNL A   1      42.788  29.873  28.515  1.00  0.00     0.049 A 
ATOM     53  C   UNL A   1      47.936  28.179  27.061  1.00  0.00     0.074 A 
ATOM     54  C   UNL A   1      42.667  31.176  28.960  1.00  0.00     0.029 A 
ATOM     55  N   UNL A   1      44.126  29.680  28.199  1.00  0.00    -0.354 N 
ATOM     56  N   UNL A   1      46.798  28.713  27.439  1.00  0.00    -0.248 NA
ATOM     57  C   UNL A   1      49.074  29.108  27.084  1.00  0.00     0.031 C 
ATOM     58  C   UNL A   1      43.920  31.790  28.859  1.00  0.00     0.029 A 
ATOM     59  C   UNL A   1      44.836  30.849  28.416  1.00  0.00     0.049 A 
ATOM     60  H   UNL A   1      44.513  28.836  27.869  1.00  0.00     0.167 HD
ATOM     61  C   UNL A   1      47.089  30.030  27.774  1.00  0.00     0.074 A 
ATOM     62  C   UNL A   1      48.513  30.206  27.570  1.00  0.00     0.031 C 
ATOM     63  C   UNL A   1      46.256  31.007  28.213  1.00  0.00     0.037 A 
BRANCH  50  64
ATOM     64  C   UNL A   1      40.340  29.256  28.708  1.00  0.00     0.058 A 
ATOM     65  C   UNL A   1      39.378  29.459  27.703  1.00  0.00     0.135 A 
ATOM     66  C   UNL A   1      39.924  29.391  30.043  1.00  0.00     0.135 A 
ATOM     67  F   UNL A   1      39.721  29.361  26.409  1.00  0.00    -0.206 F 
ATOM     68  C   UNL A   1      38.068  29.812  28.008  1.00  0.00     0.059 A 
ATOM     69  C   UNL A   1      38.608  29.708  30.372  1.00  0.00     0.059 A 
ATOM     70  F   UNL A   1      40.799  29.212  31.045  1.00  0.00    -0.206 F 
ATOM     71  C   UNL A   1      37.691  29.931  29.347  1.00  0.00     0.060 A 
BRANCH  71  72
ATOM     72  S   UNL A   1      35.983  30.376  29.722  1.00  0.00     0.124 S 
ATOM     73  O   UNL A   1      35.256  29.627  28.702  1.00  0.00    -0.237 OA
ATOM     74  O   UNL A   1      35.831  29.894  31.091  1.00  0.00    -0.237 OA
ATOM     75  O   UNL A   1      35.966  31.828  29.565  1.00  0.00    -0.744 OA
ENDBRANCH  71  72
ENDBRANCH  50  64
BRANCH  51  76
ATOM     76  C   UNL A   1      49.598  26.347  26.240  1.00  0.00     0.058 A 
ATOM     77  C   UNL A   1      50.113  26.634  24.966  1.00  0.00     0.135 A 
ATOM     78  C   UNL A   1      50.429  25.659  27.137  1.00  0.00     0.135 A 
ATOM     79  F   UNL A   1      49.357  27.285  24.068  1.00  0.00    -0.206 F 
ATOM     80  C   UNL A   1      51.392  26.238  24.588  1.00  0.00     0.059 A 
ATOM     81  C   UNL A   1      51.723  25.279  26.794  1.00  0.00     0.059 A 
ATOM     82  F   UNL A   1      49.995  25.374  28.374  1.00  0.00    -0.206 F 
ATOM     83  C   UNL A   1      52.192  25.563  25.511  1.00  0.00     0.060 A 
BRANCH  83  84
ATOM     84  S   UNL A   1      53.867  25.096  25.027  1.00  0.00     0.124 S 
ATOM     85  O   UNL A   1      53.753  23.646  24.930  1.00  0.00    -0.237 OA
ATOM     86  O   UNL A   1      54.028  25.810  23.763  1.00  0.00    -0.237 OA
ATOM     87  O   UNL A   1      54.686  25.593  26.127  1.00  0.00    -0.744 OA
ENDBRANCH  83  84
ENDBRANCH  51  76
BRANCH  63  88
ATOM     88  C   UNL A   1      46.866  32.342  28.545  1.00  0.00     0.058 A 
ATOM     89  C   UNL A   1      46.967  33.372  27.596  1.00  0.00     0.135 A 
ATOM     90  C   UNL A   1      47.324  32.606  29.847  1.00  0.00     0.135 A 
ATOM     91  F   UNL A   1      46.549  33.173  26.336  1.00  0.00    -0.206 F 
ATOM     92  C   UNL A   1      47.534  34.601  27.915  1.00  0.00     0.059 A 
ATOM     93  C   UNL A   1      47.860  33.840  30.198  1.00  0.00     0.059 A 
ATOM     94  F   UNL A   1      47.239  31.662  30.799  1.00  0.00    -0.206 F 
ATOM     95  C   UNL A   1      47.977  34.826  29.220  1.00  0.00     0.060 A 
BRANCH  95  96
ATOM     96  S   UNL A   1      48.696  36.431  29.623  1.00  0.00     0.124 S 
ATOM     97  O   UNL A   1      47.520  37.295  29.597  1.00  0.00    -0.237 OA
ATOM     98  O   UNL A   1      49.277  36.191  30.940  1.00  0.00    -0.237 OA
ATOM     99  O   UNL A   1      49.660  36.651  28.549  1.00  0.00    -0.744 OA
ENDBRANCH  95  96
ENDBRANCH  63  88
ENDBRANCH  37  38
ENDBRANCH  29  32
ENDBRANCH  27  28
ENDBRANCH   1  27
TORSDOF 15
ENDMDL
MODEL 3
REMARK VINA RESULT:     -11.8      1.126      2.083
REMARK SMILES CC1=C(C(=O)NCCCNC(=O)c2ccc(-c3c4nc(c(-c5c(F)cc(S(=O)(=O)[O-])cc5F)c5ccc([nH]5)c(-c5c(F)cc(S(=O)(=O)[O-])cc5F)c5nc(c(-c6c(F)cc(S(=O)(=O)[O-])cc6F)c6ccc3[nH]6)C=C5)C=C4)cc2)N2C(=O)[C@@H](NC(=O)c3ccn(C)n3)[C@H]2SC1
REMARK SMILES IDX 8 1 7 2 6 3 4 4 5 5 3 7 1 8 2 9 94 10 79 11 93 12 80 13
REMARK SMILES IDX 92 14 81 15 82 16 83 17 84 18 85 20 86 21 87 22 91 23 88 24
REMARK SMILES IDX 89 25 90 26 9 27 10 28 11 29 12 31 13 32 14 33 78 34 15 35
REMARK SMILES IDX 77 36 16 37 17 38 18 39 71 40 19 41 76 42 70 43 72 44 20 45
REMARK SMILES IDX 75 46 69 47 68 48 21 50 55 51 34 52 54 53 35 54 38 55 53 56
REMARK SMILES IDX 73 57 36 58 37 59 52 61 74 62 39 63 22 64 23 65 32 66 24 67
REMARK SMILES IDX 25 68 31 69 33 70 26 71 27 72 28 73 29 74 30 75 56 76 57 77
REMARK SMILES IDX 66 78 58 79 59 80 65 81 67 82 60 83 61 84 62 85 63 86 64 87
REMARK SMILES IDX 40 88 41 89 50 90 42 91 43 92 49 93 51 94 44 95 45 96 46 97
REMARK SMILES IDX 47 98 48 99
REMARK H PARENT 6 6 83 19 10 30 72 49 38 60
REMARK Flexibility Score: inf
ROOT
ATOM      1  C   UNL A   1      38.223  24.447  26.228  1.00  0.00     0.042 C 
ENDROOT
BRANCH   1   2
ATOM      2  C   UNL A   1      36.916  23.690  26.301  1.00  0.00     0.118 C 
BRANCH   2   3
ATOM      3  N   UNL A   1      36.970  22.272  26.015  1.00  0.00    -0.351 N 
ATOM      4  C   UNL A   1      36.046  21.489  25.381  1.00  0.00     0.268 C 
ATOM      5  O   UNL A   1      36.381  20.365  25.000  1.00  0.00    -0.268 OA
ATOM      6  H   UNL A   1      37.783  21.807  26.319  1.00  0.00     0.163 HD
BRANCH   4   7
ATOM      7  C   UNL A   1      34.620  21.953  25.196  1.00  0.00     0.110 C 
ATOM      8  C   UNL A   1      33.650  21.078  27.371  1.00  0.00     0.043 C 
ATOM      9  C   UNL A   1      33.554  21.672  25.989  1.00  0.00    -0.034 C 
ATOM     10  C   UNL A   1      32.103  21.967  25.595  1.00  0.00     0.104 C 
ATOM     11  N   UNL A   1      34.434  22.890  24.228  1.00  0.00    -0.290 N 
ATOM     12  S   UNL A   1      31.867  22.936  24.062  1.00  0.00    -0.129 SA
ATOM     13  C   UNL A   1      35.041  23.411  23.146  1.00  0.00     0.253 C 
ATOM     14  C   UNL A   1      33.380  23.872  24.343  1.00  0.00     0.181 C 
ATOM     15  O   UNL A   1      35.975  23.072  22.457  1.00  0.00    -0.272 OA
ATOM     16  C   UNL A   1      34.073  24.627  23.196  1.00  0.00     0.206 C 
BRANCH  16  17
ATOM     17  N   UNL A   1      33.270  24.979  22.006  1.00  0.00    -0.336 N 
ATOM     18  C   UNL A   1      32.241  25.902  21.954  1.00  0.00     0.272 C 
ATOM     19  H   UNL A   1      33.489  24.512  21.168  1.00  0.00     0.164 HD
ATOM     20  O   UNL A   1      31.529  25.953  20.953  1.00  0.00    -0.267 OA
BRANCH  18  21
ATOM     21  C   UNL A   1      32.040  26.773  23.127  1.00  0.00     0.150 A 
ATOM     22  C   UNL A   1      31.026  26.670  24.123  1.00  0.00     0.056 A 
ATOM     23  N   UNL A   1      32.819  27.848  23.360  1.00  0.00    -0.168 NA
ATOM     24  C   UNL A   1      31.197  27.761  24.939  1.00  0.00     0.109 A 
ATOM     25  N   UNL A   1      32.302  28.404  24.469  1.00  0.00    -0.275 N 
ATOM     26  C   UNL A   1      32.901  29.588  25.035  1.00  0.00     0.173 C 
ENDBRANCH  18  21
ENDBRANCH  16  17
ENDBRANCH   4   7
ENDBRANCH   2   3
ENDBRANCH   1   2
BRANCH   1  27
ATOM     27  C   UNL A   1      39.442  23.681  26.704  1.00  0.00     0.118 C 
BRANCH  27  28
ATOM     28  N   UNL A   1      40.675  24.011  25.994  1.00  0.00    -0.352 N 
ATOM     29  C   UNL A   1      41.654  24.948  26.248  1.00  0.00     0.251 C 
ATOM     30  H   UNL A   1      40.837  23.467  25.191  1.00  0.00     0.163 HD
ATOM     31  O   UNL A   1      42.556  25.106  25.429  1.00  0.00    -0.269 OA
BRANCH  29  32
ATOM     32  C   UNL A   1      41.604  25.795  27.463  1.00  0.00     0.039 A 
ATOM     33  C   UNL A   1      42.388  26.951  27.526  1.00  0.00     0.014 A 
ATOM     34  C   UNL A   1      40.779  25.471  28.538  1.00  0.00     0.014 A 
ATOM     35  C   UNL A   1      42.256  27.822  28.612  1.00  0.00     0.010 A 
ATOM     36  C   UNL A   1      40.536  26.407  29.535  1.00  0.00     0.010 A 
ATOM     37  C   UNL A   1      41.282  27.590  29.597  1.00  0.00    -0.014 A 
BRANCH  37  38
ATOM     38  C   UNL A   1      41.041  28.551  30.707  1.00  0.00     0.031 A 
ATOM     39  C   UNL A   1      41.861  28.469  31.972  1.00  0.00     0.074 A 
ATOM     40  C   UNL A   1      40.046  29.455  30.607  1.00  0.00     0.049 A 
ATOM     41  N   UNL A   1      41.764  29.177  33.067  1.00  0.00    -0.248 NA
ATOM     42  C   UNL A   1      42.904  27.428  32.029  1.00  0.00     0.031 C 
ATOM     43  C   UNL A   1      39.137  29.593  29.466  1.00  0.00     0.029 A 
ATOM     44  N   UNL A   1      39.626  30.428  31.479  1.00  0.00    -0.354 N 
ATOM     45  C   UNL A   1      42.717  28.662  33.938  1.00  0.00     0.074 A 
ATOM     46  C   UNL A   1      43.326  27.530  33.278  1.00  0.00     0.031 C 
ATOM     47  C   UNL A   1      38.300  30.619  29.688  1.00  0.00     0.029 A 
ATOM     48  C   UNL A   1      38.575  31.182  31.005  1.00  0.00     0.049 A 
ATOM     49  H   UNL A   1      40.038  30.575  32.361  1.00  0.00     0.167 HD
ATOM     50  C   UNL A   1      43.081  29.111  35.163  1.00  0.00     0.037 A 
ATOM     51  C   UNL A   1      37.907  32.207  31.569  1.00  0.00     0.037 A 
ATOM     52  C   UNL A   1      42.487  30.254  35.806  1.00  0.00     0.049 A 
ATOM     53  C   UNL A   1      38.324  32.684  32.935  1.00  0.00     0.074 A 
ATOM     54  C   UNL A   1      42.819  30.826  37.020  1.00  0.00     0.029 A 
ATOM     55  N   UNL A   1      41.437  30.998  35.287  1.00  0.00    -0.354 N 
ATOM     56  N   UNL A   1      39.277  32.229  33.714  1.00  0.00    -0.248 NA
ATOM     57  C   UNL A   1      37.581  33.822  33.495  1.00  0.00     0.031 C 
ATOM     58  C   UNL A   1      41.931  31.879  37.264  1.00  0.00     0.029 A 
ATOM     59  C   UNL A   1      41.091  32.008  36.169  1.00  0.00     0.049 A 
ATOM     60  H   UNL A   1      41.001  30.831  34.419  1.00  0.00     0.167 HD
ATOM     61  C   UNL A   1      39.270  33.044  34.841  1.00  0.00     0.074 A 
ATOM     62  C   UNL A   1      38.228  34.030  34.633  1.00  0.00     0.031 C 
ATOM     63  C   UNL A   1      40.054  32.985  35.946  1.00  0.00     0.037 A 
BRANCH  50  64
ATOM     64  C   UNL A   1      44.177  28.369  35.884  1.00  0.00     0.058 A 
ATOM     65  C   UNL A   1      45.534  28.686  35.695  1.00  0.00     0.135 A 
ATOM     66  C   UNL A   1      43.869  27.350  36.800  1.00  0.00     0.135 A 
ATOM     67  F   UNL A   1      45.890  29.638  34.818  1.00  0.00    -0.206 F 
ATOM     68  C   UNL A   1      46.543  27.999  36.361  1.00  0.00     0.059 A 
ATOM     69  C   UNL A   1      44.861  26.674  37.505  1.00  0.00     0.059 A 
ATOM     70  F   UNL A   1      42.591  27.002  37.020  1.00  0.00    -0.206 F 
ATOM     71  C   UNL A   1      46.197  26.996  37.267  1.00  0.00     0.060 A 
BRANCH  71  72
ATOM     72  S   UNL A   1      47.520  26.126  38.132  1.00  0.00     0.124 S 
ATOM     73  O   UNL A   1      47.891  25.111  37.150  1.00  0.00    -0.237 OA
ATOM     74  O   UNL A   1      48.498  27.187  38.348  1.00  0.00    -0.237 OA
ATOM     75  O   UNL A   1      46.867  25.622  39.337  1.00  0.00    -0.744 OA
ENDBRANCH  71  72
ENDBRANCH  50  64
BRANCH  51  76
ATOM     76  C   UNL A   1      36.794  32.869  30.834  1.00  0.00     0.058 A 
ATOM     77  C   UNL A   1      35.454  32.601  31.152  1.00  0.00     0.135 A 
ATOM     78  C   UNL A   1      37.046  33.789  29.803  1.00  0.00     0.135 A 
ATOM     79  F   UNL A   1      35.159  31.725  32.125  1.00  0.00    -0.206 F 
ATOM     80  C   UNL A   1      34.404  33.202  30.465  1.00  0.00     0.059 A 
ATOM     81  C   UNL A   1      36.013  34.427  29.122  1.00  0.00     0.059 A 
ATOM     82  F   UNL A   1      38.308  34.096  29.469  1.00  0.00    -0.206 F 
ATOM     83  C   UNL A   1      34.694  34.118  29.453  1.00  0.00     0.060 A 
BRANCH  83  84
ATOM     84  S   UNL A   1      33.325  34.929  28.600  1.00  0.00     0.124 S 
ATOM     85  O   UNL A   1      34.017  35.980  27.864  1.00  0.00    -0.237 OA
ATOM     86  O   UNL A   1      32.780  33.839  27.796  1.00  0.00    -0.237 OA
ATOM     87  O   UNL A   1      32.469  35.380  29.693  1.00  0.00    -0.744 OA
ENDBRANCH  83  84
ENDBRANCH  51  76
BRANCH  63  88
ATOM     88  C   UNL A   1      39.847  34.040  37.000  1.00  0.00     0.058 A 
ATOM     89  C   UNL A   1      39.056  33.813  38.137  1.00  0.00     0.135 A 
ATOM     90  C   UNL A   1      40.485  35.288  36.885  1.00  0.00     0.135 A 
ATOM     91  F   UNL A   1      38.421  32.640  38.295  1.00  0.00    -0.206 F 
ATOM     92  C   UNL A   1      38.873  34.796  39.103  1.00  0.00     0.059 A 
ATOM     93  C   UNL A   1      40.346  36.272  37.858  1.00  0.00     0.059 A 
ATOM     94  F   UNL A   1      41.266  35.554  35.826  1.00  0.00    -0.206 F 
ATOM     95  C   UNL A   1      39.523  36.023  38.954  1.00  0.00     0.060 A 
BRANCH  95  96
ATOM     96  S   UNL A   1      39.289  37.283  40.224  1.00  0.00     0.124 S 
ATOM     97  O   UNL A   1      40.667  37.630  40.553  1.00  0.00    -0.237 OA
ATOM     98  O   UNL A   1      38.530  38.307  39.512  1.00  0.00    -0.237 OA
ATOM     99  O   UNL A   1      38.552  36.579  41.270  1.00  0.00    -0.744 OA
ENDBRANCH  95  96
ENDBRANCH  63  88
ENDBRANCH  37  38
ENDBRANCH  29  32
ENDBRANCH  27  28
ENDBRANCH   1  27
TORSDOF 15
ENDMDL
