MODEL 1
REMARK VINA RESULT:     -12.5      0.000      0.000
REMARK SMILES COc1cc(/C=C2/N=C(c3ccccc3)OC2=O)ccc1OCC(=O)NCCCNC(=O)c1ccc(-c2c3nc(c(-c4c(F)cc(S(=O)(=O)[O-])cc4F)c4ccc([nH]4)c(-c4c(F)cc(S(=O)(=O)[O-])cc4F)c4nc(c(-c5c(F)cc(S(=O)(=O)[O-])cc5F)c5ccc2[nH]5)C=C4)C=C3)cc1
REMARK SMILES IDX 27 1 26 2 24 3 25 4 23 6 22 7 21 8 3 9 4 10 5 11 20 12 19 13
REMARK SMILES IDX 2 14 1 15 6 16 7 17 8 18 17 19 9 20 16 21 18 22 10 23 11 24
REMARK SMILES IDX 15 25 12 26 14 27 13 28 28 29 29 30 30 31 31 32 32 34 33 35
REMARK SMILES IDX 34 36 98 37 35 38 97 39 36 40 37 41 38 42 91 43 39 44 96 45
REMARK SMILES IDX 90 46 92 47 40 48 95 49 89 50 88 51 41 53 75 54 54 55 74 56
REMARK SMILES IDX 55 57 58 58 73 59 93 60 56 61 57 62 72 64 94 65 59 66 42 67
REMARK SMILES IDX 43 68 52 69 44 70 45 71 51 72 53 73 46 74 47 75 48 76 49 77
REMARK SMILES IDX 50 78 76 79 77 80 86 81 78 82 79 83 85 84 87 85 80 86 81 87
REMARK SMILES IDX 82 88 83 89 84 90 60 91 61 92 70 93 62 94 63 95 69 96 71 97
REMARK SMILES IDX 64 98 65 99 66 100 67 101 68 102
REMARK H PARENT 26 5 30 33 92 52 58 63
REMARK Flexibility Score: inf
ROOT
ATOM      1  C   UNL A   1      34.324  31.553  27.973  1.00  0.00     0.117 C 
ENDROOT
BRANCH   1   2
ATOM      2  N   UNL A   1      34.665  30.438  27.106  1.00  0.00    -0.353 N 
ATOM      3  C   UNL A   1      33.843  29.497  26.553  1.00  0.00     0.257 C 
ATOM      4  O   UNL A   1      34.308  28.785  25.657  1.00  0.00    -0.271 OA
ATOM      5  H   UNL A   1      35.620  30.350  26.884  1.00  0.00     0.163 HD
BRANCH   3   6
ATOM      6  C   UNL A   1      32.378  29.392  26.987  1.00  0.00     0.329 C 
BRANCH   6   7
ATOM      7  O   UNL A   1      31.460  28.977  26.000  1.00  0.00    -0.480 OA
BRANCH   7   8
ATOM      8  C   UNL A   1      31.371  27.676  25.597  1.00  0.00     0.161 A 
ATOM      9  C   UNL A   1      31.069  27.147  24.338  1.00  0.00     0.161 A 
ATOM     10  C   UNL A   1      30.958  25.754  24.168  1.00  0.00     0.058 A 
ATOM     11  C   UNL A   1      31.187  24.883  25.239  1.00  0.00    -0.019 A 
ATOM     12  C   UNL A   1      31.626  26.789  26.652  1.00  0.00     0.051 A 
ATOM     13  C   UNL A   1      31.547  25.407  26.478  1.00  0.00     0.012 A 
BRANCH   9  14
ATOM     14  O   UNL A   1      30.745  27.953  23.280  1.00  0.00    -0.493 OA
ATOM     15  C   UNL A   1      29.340  28.203  23.214  1.00  0.00     0.278 C 
ENDBRANCH   9  14
BRANCH  11  16
ATOM     16  C   UNL A   1      30.991  23.439  25.095  1.00  0.00     0.044 C 
ATOM     17  C   UNL A   1      31.955  22.572  24.756  1.00  0.00     0.153 C 
ATOM     18  N   UNL A   1      31.753  21.218  24.621  1.00  0.00    -0.205 NA
ATOM     19  C   UNL A   1      33.399  22.898  24.525  1.00  0.00     0.363 C 
ATOM     20  C   UNL A   1      32.947  20.778  24.396  1.00  0.00     0.231 C 
ATOM     21  O   UNL A   1      33.958  21.671  24.326  1.00  0.00    -0.402 OA
ATOM     22  O   UNL A   1      33.987  23.958  24.533  1.00  0.00    -0.244 OA
BRANCH  20  23
ATOM     23  C   UNL A   1      33.368  19.394  24.187  1.00  0.00     0.037 A 
ATOM     24  C   UNL A   1      32.485  18.481  23.609  1.00  0.00     0.014 A 
ATOM     25  C   UNL A   1      34.647  18.990  24.591  1.00  0.00     0.014 A 
ATOM     26  C   UNL A   1      32.890  17.157  23.425  1.00  0.00     0.001 A 
ATOM     27  C   UNL A   1      35.038  17.663  24.421  1.00  0.00     0.001 A 
ATOM     28  C   UNL A   1      34.162  16.749  23.835  1.00  0.00     0.000 A 
ENDBRANCH  20  23
ENDBRANCH  11  16
ENDBRANCH   7   8
ENDBRANCH   6   7
ENDBRANCH   3   6
ENDBRANCH   1   2
BRANCH   1  29
ATOM     29  C   UNL A   1      35.366  32.667  27.980  1.00  0.00     0.042 C 
BRANCH  29  30
ATOM     30  C   UNL A   1      36.186  32.781  29.264  1.00  0.00     0.118 C 
BRANCH  30  31
ATOM     31  N   UNL A   1      35.883  31.741  30.238  1.00  0.00    -0.352 N 
ATOM     32  C   UNL A   1      36.582  30.620  30.614  1.00  0.00     0.251 C 
ATOM     33  H   UNL A   1      35.028  31.864  30.710  1.00  0.00     0.163 HD
ATOM     34  O   UNL A   1      36.039  29.795  31.346  1.00  0.00    -0.269 OA
BRANCH  32  35
ATOM     35  C   UNL A   1      37.958  30.380  30.128  1.00  0.00     0.039 A 
ATOM     36  C   UNL A   1      39.011  30.416  31.048  1.00  0.00     0.014 A 
ATOM     37  C   UNL A   1      38.224  30.149  28.777  1.00  0.00     0.014 A 
ATOM     38  C   UNL A   1      40.312  30.129  30.628  1.00  0.00     0.010 A 
ATOM     39  C   UNL A   1      39.507  29.784  28.375  1.00  0.00     0.010 A 
ATOM     40  C   UNL A   1      40.564  29.760  29.298  1.00  0.00    -0.014 A 
BRANCH  40  41
ATOM     41  C   UNL A   1      41.912  29.310  28.862  1.00  0.00     0.031 A 
ATOM     42  C   UNL A   1      43.046  30.292  28.748  1.00  0.00     0.074 A 
ATOM     43  C   UNL A   1      42.095  28.024  28.498  1.00  0.00     0.049 A 
ATOM     44  N   UNL A   1      44.265  30.099  28.309  1.00  0.00    -0.248 NA
ATOM     45  C   UNL A   1      42.769  31.677  29.158  1.00  0.00     0.031 C 
ATOM     46  C   UNL A   1      41.065  26.984  28.526  1.00  0.00     0.029 A 
ATOM     47  N   UNL A   1      43.207  27.374  28.022  1.00  0.00    -0.354 N 
ATOM     48  C   UNL A   1      44.895  31.337  28.382  1.00  0.00     0.074 A 
ATOM     49  C   UNL A   1      43.907  32.283  28.854  1.00  0.00     0.031 C 
ATOM     50  C   UNL A   1      41.597  25.824  28.111  1.00  0.00     0.029 A 
ATOM     51  C   UNL A   1      42.991  26.044  27.738  1.00  0.00     0.049 A 
ATOM     52  H   UNL A   1      44.077  27.816  27.894  1.00  0.00     0.167 HD
ATOM     53  C   UNL A   1      46.184  31.650  28.104  1.00  0.00     0.037 A 
ATOM     54  C   UNL A   1      43.816  25.111  27.225  1.00  0.00     0.037 A 
ATOM     55  C   UNL A   1      47.163  30.699  27.641  1.00  0.00     0.049 A 
ATOM     56  C   UNL A   1      45.231  25.492  26.884  1.00  0.00     0.074 A 
ATOM     57  C   UNL A   1      48.505  30.906  27.378  1.00  0.00     0.029 A 
ATOM     58  N   UNL A   1      46.904  29.364  27.361  1.00  0.00    -0.354 N 
ATOM     59  N   UNL A   1      45.828  26.652  27.021  1.00  0.00    -0.248 NA
ATOM     60  C   UNL A   1      46.085  24.439  26.317  1.00  0.00     0.031 C 
ATOM     61  C   UNL A   1      49.045  29.713  26.884  1.00  0.00     0.029 A 
ATOM     62  C   UNL A   1      48.054  28.745  26.896  1.00  0.00     0.049 A 
ATOM     63  H   UNL A   1      46.031  28.923  27.476  1.00  0.00     0.167 HD
ATOM     64  C   UNL A   1      47.134  26.462  26.581  1.00  0.00     0.074 A 
ATOM     65  C   UNL A   1      47.243  25.072  26.190  1.00  0.00     0.031 C 
ATOM     66  C   UNL A   1      48.149  27.359  26.505  1.00  0.00     0.037 A 
BRANCH  53  67
ATOM     67  C   UNL A   1      46.608  33.083  28.288  1.00  0.00     0.058 A 
ATOM     68  C   UNL A   1      46.521  34.020  27.246  1.00  0.00     0.135 A 
ATOM     69  C   UNL A   1      47.083  33.535  29.531  1.00  0.00     0.135 A 
ATOM     70  F   UNL A   1      46.085  33.644  26.032  1.00  0.00    -0.206 F 
ATOM     71  C   UNL A   1      46.924  35.340  27.415  1.00  0.00     0.059 A 
ATOM     72  C   UNL A   1      47.462  34.860  29.733  1.00  0.00     0.059 A 
ATOM     73  F   UNL A   1      47.185  32.686  30.565  1.00  0.00    -0.206 F 
ATOM     74  C   UNL A   1      47.397  35.751  28.663  1.00  0.00     0.060 A 
BRANCH  74  75
ATOM     75  S   UNL A   1      47.925  37.465  28.862  1.00  0.00     0.124 S 
ATOM     76  O   UNL A   1      48.412  37.460  30.238  1.00  0.00    -0.237 OA
ATOM     77  O   UNL A   1      48.947  37.598  27.830  1.00  0.00    -0.237 OA
ATOM     78  O   UNL A   1      46.702  38.228  28.634  1.00  0.00    -0.744 OA
ENDBRANCH  74  75
ENDBRANCH  53  67
BRANCH  54  79
ATOM     79  C   UNL A   1      43.326  23.722  27.012  1.00  0.00     0.058 A 
ATOM     80  C   UNL A   1      42.978  23.269  25.732  1.00  0.00     0.135 A 
ATOM     81  C   UNL A   1      43.212  22.815  28.079  1.00  0.00     0.135 A 
ATOM     82  F   UNL A   1      43.060  24.100  24.682  1.00  0.00    -0.206 F 
ATOM     83  C   UNL A   1      42.523  21.972  25.515  1.00  0.00     0.059 A 
ATOM     84  C   UNL A   1      42.787  21.505  27.883  1.00  0.00     0.059 A 
ATOM     85  F   UNL A   1      43.546  23.193  29.322  1.00  0.00    -0.206 F 
ATOM     86  C   UNL A   1      42.436  21.096  26.597  1.00  0.00     0.060 A 
BRANCH  86  87
ATOM     87  S   UNL A   1      41.895  19.399  26.293  1.00  0.00     0.124 S 
ATOM     88  O   UNL A   1      40.454  19.571  26.156  1.00  0.00    -0.237 OA
ATOM     89  O   UNL A   1      42.618  19.063  25.071  1.00  0.00    -0.237 OA
ATOM     90  O   UNL A   1      42.335  18.687  27.490  1.00  0.00    -0.744 OA
ENDBRANCH  86  87
ENDBRANCH  54  79
BRANCH  66  91
ATOM     91  C   UNL A   1      49.477  26.863  25.998  1.00  0.00     0.058 A 
ATOM     92  C   UNL A   1      49.858  27.020  24.656  1.00  0.00     0.135 A 
ATOM     93  C   UNL A   1      50.402  26.274  26.877  1.00  0.00     0.135 A 
ATOM     94  F   UNL A   1      49.010  27.567  23.771  1.00  0.00    -0.206 F 
ATOM     95  C   UNL A   1      51.101  26.592  24.199  1.00  0.00     0.059 A 
ATOM     96  C   UNL A   1      51.661  25.869  26.448  1.00  0.00     0.059 A 
ATOM     97  F   UNL A   1      50.092  26.107  28.172  1.00  0.00    -0.206 F 
ATOM     98  C   UNL A   1      51.998  26.023  25.104  1.00  0.00     0.060 A 
BRANCH  98  99
ATOM     99  S   UNL A   1      53.623  25.514  24.503  1.00  0.00     0.124 S 
ATOM    100  O   UNL A   1      54.510  26.287  25.365  1.00  0.00    -0.237 OA
ATOM    101  O   UNL A   1      53.604  24.074  24.740  1.00  0.00    -0.237 OA
ATOM    102  O   UNL A   1      53.607  25.913  23.099  1.00  0.00    -0.744 OA
ENDBRANCH  98  99
ENDBRANCH  66  91
ENDBRANCH  40  41
ENDBRANCH  32  35
ENDBRANCH  30  31
ENDBRANCH  29  30
ENDBRANCH   1  29
TORSDOF 18
ENDMDL
MODEL 2
REMARK VINA RESULT:     -12.4      5.085     12.942
REMARK SMILES COc1cc(/C=C2/N=C(c3ccccc3)OC2=O)ccc1OCC(=O)NCCCNC(=O)c1ccc(-c2c3nc(c(-c4c(F)cc(S(=O)(=O)[O-])cc4F)c4ccc([nH]4)c(-c4c(F)cc(S(=O)(=O)[O-])cc4F)c4nc(c(-c5c(F)cc(S(=O)(=O)[O-])cc5F)c5ccc2[nH]5)C=C4)C=C3)cc1
REMARK SMILES IDX 27 1 26 2 24 3 25 4 23 6 22 7 21 8 3 9 4 10 5 11 20 12 19 13
REMARK SMILES IDX 2 14 1 15 6 16 7 17 8 18 17 19 9 20 16 21 18 22 10 23 11 24
REMARK SMILES IDX 15 25 12 26 14 27 13 28 28 29 29 30 30 31 31 32 32 34 33 35
REMARK SMILES IDX 34 36 98 37 35 38 97 39 36 40 37 41 38 42 91 43 39 44 96 45
REMARK SMILES IDX 90 46 92 47 40 48 95 49 89 50 88 51 41 53 75 54 54 55 74 56
REMARK SMILES IDX 55 57 58 58 73 59 93 60 56 61 57 62 72 64 94 65 59 66 42 67
REMARK SMILES IDX 43 68 52 69 44 70 45 71 51 72 53 73 46 74 47 75 48 76 49 77
REMARK SMILES IDX 50 78 76 79 77 80 86 81 78 82 79 83 85 84 87 85 80 86 81 87
REMARK SMILES IDX 82 88 83 89 84 90 60 91 61 92 70 93 62 94 63 95 69 96 71 97
REMARK SMILES IDX 64 98 65 99 66 100 67 101 68 102
REMARK H PARENT 26 5 30 33 92 52 58 63
REMARK Flexibility Score: inf
ROOT
ATOM      1  C   UNL A   1      42.648  22.957  25.306  1.00  0.00     0.117 C 
ENDROOT
BRANCH   1   2
ATOM      2  N   UNL A   1      43.811  22.878  24.439  1.00  0.00    -0.353 N 
ATOM      3  C   UNL A   1      44.977  23.588  24.500  1.00  0.00     0.257 C 
ATOM      4  O   UNL A   1      45.924  23.193  23.812  1.00  0.00    -0.271 OA
ATOM      5  H   UNL A   1      43.751  22.222  23.708  1.00  0.00     0.163 HD
BRANCH   3   6
ATOM      6  C   UNL A   1      45.113  24.781  25.449  1.00  0.00     0.329 C 
BRANCH   6   7
ATOM      7  O   UNL A   1      45.010  26.062  24.866  1.00  0.00    -0.480 OA
BRANCH   7   8
ATOM      8  C   UNL A   1      44.916  27.194  25.621  1.00  0.00     0.161 A 
ATOM      9  C   UNL A   1      45.892  27.851  26.377  1.00  0.00     0.161 A 
ATOM     10  C   UNL A   1      45.547  28.977  27.148  1.00  0.00     0.058 A 
ATOM     11  C   UNL A   1      44.240  29.477  27.138  1.00  0.00    -0.019 A 
ATOM     12  C   UNL A   1      43.618  27.725  25.600  1.00  0.00     0.051 A 
ATOM     13  C   UNL A   1      43.281  28.859  26.338  1.00  0.00     0.012 A 
BRANCH   9  14
ATOM     14  O   UNL A   1      47.162  27.353  26.497  1.00  0.00    -0.493 OA
ATOM     15  C   UNL A   1      48.123  28.393  26.690  1.00  0.00     0.278 C 
ENDBRANCH   9  14
BRANCH  11  16
ATOM     16  C   UNL A   1      43.850  30.593  28.001  1.00  0.00     0.044 C 
ATOM     17  C   UNL A   1      44.055  31.885  27.710  1.00  0.00     0.153 C 
ATOM     18  N   UNL A   1      43.686  32.922  28.534  1.00  0.00    -0.205 NA
ATOM     19  C   UNL A   1      44.653  32.425  26.446  1.00  0.00     0.363 C 
ATOM     20  C   UNL A   1      43.973  33.962  27.821  1.00  0.00     0.231 C 
ATOM     21  O   UNL A   1      44.530  33.773  26.605  1.00  0.00    -0.402 OA
ATOM     22  O   UNL A   1      45.113  31.859  25.479  1.00  0.00    -0.244 OA
BRANCH  20  23
ATOM     23  C   UNL A   1      43.781  35.369  28.169  1.00  0.00     0.037 A 
ATOM     24  C   UNL A   1      44.879  36.149  28.534  1.00  0.00     0.014 A 
ATOM     25  C   UNL A   1      42.492  35.916  28.155  1.00  0.00     0.014 A 
ATOM     26  C   UNL A   1      44.686  37.488  28.878  1.00  0.00     0.001 A 
ATOM     27  C   UNL A   1      42.303  37.249  28.516  1.00  0.00     0.001 A 
ATOM     28  C   UNL A   1      43.400  38.035  28.874  1.00  0.00     0.000 A 
ENDBRANCH  20  23
ENDBRANCH  11  16
ENDBRANCH   7   8
ENDBRANCH   6   7
ENDBRANCH   3   6
ENDBRANCH   1   2
BRANCH   1  29
ATOM     29  C   UNL A   1      42.310  21.642  26.003  1.00  0.00     0.042 C 
BRANCH  29  30
ATOM     30  C   UNL A   1      41.056  21.671  26.872  1.00  0.00     0.118 C 
BRANCH  30  31
ATOM     31  N   UNL A   1      39.830  21.876  26.111  1.00  0.00    -0.352 N 
ATOM     32  C   UNL A   1      38.963  22.941  26.059  1.00  0.00     0.251 C 
ATOM     33  H   UNL A   1      39.578  21.119  25.534  1.00  0.00     0.163 HD
ATOM     34  O   UNL A   1      37.895  22.813  25.463  1.00  0.00    -0.269 OA
BRANCH  32  35
ATOM     35  C   UNL A   1      39.283  24.219  26.731  1.00  0.00     0.039 A 
ATOM     36  C   UNL A   1      38.844  24.416  28.043  1.00  0.00     0.014 A 
ATOM     37  C   UNL A   1      39.985  25.231  26.074  1.00  0.00     0.014 A 
ATOM     38  C   UNL A   1      39.189  25.586  28.725  1.00  0.00     0.010 A 
ATOM     39  C   UNL A   1      40.396  26.361  26.778  1.00  0.00     0.010 A 
ATOM     40  C   UNL A   1      40.011  26.546  28.115  1.00  0.00    -0.014 A 
BRANCH  40  41
ATOM     41  C   UNL A   1      40.510  27.728  28.868  1.00  0.00     0.031 A 
ATOM     42  C   UNL A   1      41.873  27.710  29.504  1.00  0.00     0.074 A 
ATOM     43  C   UNL A   1      39.699  28.792  29.041  1.00  0.00     0.049 A 
ATOM     44  N   UNL A   1      42.442  28.611  30.264  1.00  0.00    -0.248 NA
ATOM     45  C   UNL A   1      42.696  26.513  29.276  1.00  0.00     0.031 C 
ATOM     46  C   UNL A   1      38.341  28.915  28.508  1.00  0.00     0.029 A 
ATOM     47  N   UNL A   1      39.894  29.969  29.722  1.00  0.00    -0.354 N 
ATOM     48  C   UNL A   1      43.683  28.088  30.610  1.00  0.00     0.074 A 
ATOM     49  C   UNL A   1      43.759  26.767  30.024  1.00  0.00     0.031 C 
ATOM     50  C   UNL A   1      37.834  30.106  28.860  1.00  0.00     0.029 A 
ATOM     51  C   UNL A   1      38.808  30.814  29.685  1.00  0.00     0.049 A 
ATOM     52  H   UNL A   1      40.730  30.188  30.192  1.00  0.00     0.167 HD
ATOM     53  C   UNL A   1      44.675  28.665  31.331  1.00  0.00     0.037 A 
ATOM     54  C   UNL A   1      38.612  32.016  30.261  1.00  0.00     0.037 A 
ATOM     55  C   UNL A   1      44.593  29.984  31.905  1.00  0.00     0.049 A 
ATOM     56  C   UNL A   1      39.712  32.619  31.092  1.00  0.00     0.074 A 
ATOM     57  C   UNL A   1      45.561  30.677  32.610  1.00  0.00     0.029 A 
ATOM     58  N   UNL A   1      43.475  30.806  31.851  1.00  0.00    -0.354 N 
ATOM     59  N   UNL A   1      40.904  32.138  31.355  1.00  0.00    -0.248 NA
ATOM     60  C   UNL A   1      39.443  33.926  31.706  1.00  0.00     0.031 C 
ATOM     61  C   UNL A   1      45.011  31.893  33.032  1.00  0.00     0.029 A 
ATOM     62  C   UNL A   1      43.719  31.985  32.539  1.00  0.00     0.049 A 
ATOM     63  H   UNL A   1      42.633  30.584  31.392  1.00  0.00     0.167 HD
ATOM     64  C   UNL A   1      41.535  33.094  32.143  1.00  0.00     0.074 A 
ATOM     65  C   UNL A   1      40.598  34.188  32.300  1.00  0.00     0.031 C 
ATOM     66  C   UNL A   1      42.775  33.067  32.691  1.00  0.00     0.037 A 
BRANCH  53  67
ATOM     67  C   UNL A   1      45.936  27.868  31.544  1.00  0.00     0.058 A 
ATOM     68  C   UNL A   1      47.083  28.078  30.761  1.00  0.00     0.135 A 
ATOM     69  C   UNL A   1      46.008  26.901  32.560  1.00  0.00     0.135 A 
ATOM     70  F   UNL A   1      47.069  28.981  29.767  1.00  0.00    -0.206 F 
ATOM     71  C   UNL A   1      48.242  27.332  30.951  1.00  0.00     0.059 A 
ATOM     72  C   UNL A   1      47.168  26.165  32.790  1.00  0.00     0.059 A 
ATOM     73  F   UNL A   1      44.944  26.660  33.342  1.00  0.00    -0.206 F 
ATOM     74  C   UNL A   1      48.274  26.376  31.968  1.00  0.00     0.060 A 
BRANCH  74  75
ATOM     75  S   UNL A   1      49.783  25.411  32.194  1.00  0.00     0.124 S 
ATOM     76  O   UNL A   1      50.710  26.432  32.674  1.00  0.00    -0.237 OA
ATOM     77  O   UNL A   1      49.372  24.417  33.180  1.00  0.00    -0.237 OA
ATOM     78  O   UNL A   1      50.060  24.892  30.860  1.00  0.00    -0.744 OA
ENDBRANCH  74  75
ENDBRANCH  53  67
BRANCH  54  79
ATOM     79  C   UNL A   1      37.324  32.735  30.062  1.00  0.00     0.058 A 
ATOM     80  C   UNL A   1      37.189  33.706  29.059  1.00  0.00     0.135 A 
ATOM     81  C   UNL A   1      36.199  32.455  30.855  1.00  0.00     0.135 A 
ATOM     82  F   UNL A   1      38.237  34.016  28.281  1.00  0.00    -0.206 F 
ATOM     83  C   UNL A   1      35.992  34.385  28.857  1.00  0.00     0.059 A 
ATOM     84  C   UNL A   1      34.983  33.100  30.653  1.00  0.00     0.059 A 
ATOM     85  F   UNL A   1      36.270  31.524  31.819  1.00  0.00    -0.206 F 
ATOM     86  C   UNL A   1      34.892  34.069  29.656  1.00  0.00     0.060 A 
BRANCH  86  87
ATOM     87  S   UNL A   1      33.328  34.919  29.347  1.00  0.00     0.124 S 
ATOM     88  O   UNL A   1      32.707  34.880  30.665  1.00  0.00    -0.237 OA
ATOM     89  O   UNL A   1      33.779  36.230  28.891  1.00  0.00    -0.237 OA
ATOM     90  O   UNL A   1      32.693  34.092  28.325  1.00  0.00    -0.744 OA
ENDBRANCH  86  87
ENDBRANCH  54  79
BRANCH  66  91
ATOM     91  C   UNL A   1      43.206  34.264  33.496  1.00  0.00     0.058 A 
ATOM     92  C   UNL A   1      43.013  34.326  34.885  1.00  0.00     0.135 A 
ATOM     93  C   UNL A   1      43.869  35.338  32.879  1.00  0.00     0.135 A 
ATOM     94  F   UNL A   1      42.376  33.332  35.525  1.00  0.00    -0.206 F 
ATOM     95  C   UNL A   1      43.443  35.419  35.631  1.00  0.00     0.059 A 
ATOM     96  C   UNL A   1      44.337  36.425  33.610  1.00  0.00     0.059 A 
ATOM     97  F   UNL A   1      44.088  35.327  31.554  1.00  0.00    -0.206 F 
ATOM     98  C   UNL A   1      44.110  36.461  34.985  1.00  0.00     0.060 A 
BRANCH  98  99
ATOM     99  S   UNL A   1      44.701  37.851  35.974  1.00  0.00     0.124 S 
ATOM    100  O   UNL A   1      44.304  37.447  37.317  1.00  0.00    -0.237 OA
ATOM    101  O   UNL A   1      46.136  37.835  35.705  1.00  0.00    -0.237 OA
ATOM    102  O   UNL A   1      43.979  38.993  35.422  1.00  0.00    -0.744 OA
ENDBRANCH  98  99
ENDBRANCH  66  91
ENDBRANCH  40  41
ENDBRANCH  32  35
ENDBRANCH  30  31
ENDBRANCH  29  30
ENDBRANCH   1  29
TORSDOF 18
ENDMDL
MODEL 3
REMARK VINA RESULT:     -11.7      5.101     12.868
REMARK SMILES COc1cc(/C=C2/N=C(c3ccccc3)OC2=O)ccc1OCC(=O)NCCCNC(=O)c1ccc(-c2c3nc(c(-c4c(F)cc(S(=O)(=O)[O-])cc4F)c4ccc([nH]4)c(-c4c(F)cc(S(=O)(=O)[O-])cc4F)c4nc(c(-c5c(F)cc(S(=O)(=O)[O-])cc5F)c5ccc2[nH]5)C=C4)C=C3)cc1
REMARK SMILES IDX 27 1 26 2 24 3 25 4 23 6 22 7 21 8 3 9 4 10 5 11 20 12 19 13
REMARK SMILES IDX 2 14 1 15 6 16 7 17 8 18 17 19 9 20 16 21 18 22 10 23 11 24
REMARK SMILES IDX 15 25 12 26 14 27 13 28 28 29 29 30 30 31 31 32 32 34 33 35
REMARK SMILES IDX 34 36 98 37 35 38 97 39 36 40 37 41 38 42 91 43 39 44 96 45
REMARK SMILES IDX 90 46 92 47 40 48 95 49 89 50 88 51 41 53 75 54 54 55 74 56
REMARK SMILES IDX 55 57 58 58 73 59 93 60 56 61 57 62 72 64 94 65 59 66 42 67
REMARK SMILES IDX 43 68 52 69 44 70 45 71 51 72 53 73 46 74 47 75 48 76 49 77
REMARK SMILES IDX 50 78 76 79 77 80 86 81 78 82 79 83 85 84 87 85 80 86 81 87
REMARK SMILES IDX 82 88 83 89 84 90 60 91 61 92 70 93 62 94 63 95 69 96 71 97
REMARK SMILES IDX 64 98 65 99 66 100 67 101 68 102
REMARK H PARENT 26 5 30 33 92 52 58 63
REMARK Flexibility Score: inf
ROOT
ATOM      1  C   UNL A   1      42.955  21.532  25.864  1.00  0.00     0.117 C 
ENDROOT
BRANCH   1   2
ATOM      2  N   UNL A   1      43.767  20.591  25.112  1.00  0.00    -0.353 N 
ATOM      3  C   UNL A   1      45.048  20.731  24.661  1.00  0.00     0.257 C 
ATOM      4  O   UNL A   1      45.626  19.719  24.254  1.00  0.00    -0.271 OA
ATOM      5  H   UNL A   1      43.333  19.733  24.900  1.00  0.00     0.163 HD
BRANCH   3   6
ATOM      6  C   UNL A   1      45.755  22.088  24.736  1.00  0.00     0.329 C 
BRANCH   6   7
ATOM      7  O   UNL A   1      46.031  22.581  26.029  1.00  0.00    -0.480 OA
BRANCH   7   8
ATOM      8  C   UNL A   1      46.404  23.876  26.244  1.00  0.00     0.161 A 
ATOM      9  C   UNL A   1      46.446  24.610  27.433  1.00  0.00     0.161 A 
ATOM     10  C   UNL A   1      46.796  25.973  27.407  1.00  0.00     0.058 A 
ATOM     11  C   UNL A   1      47.144  26.599  26.204  1.00  0.00    -0.019 A 
ATOM     12  C   UNL A   1      46.783  24.510  25.052  1.00  0.00     0.051 A 
ATOM     13  C   UNL A   1      47.161  25.852  25.028  1.00  0.00     0.012 A 
BRANCH   9  14
ATOM     14  O   UNL A   1      46.027  24.076  28.622  1.00  0.00    -0.493 OA
ATOM     15  C   UNL A   1      44.650  23.697  28.577  1.00  0.00     0.278 C 
ENDBRANCH   9  14
BRANCH  11  16
ATOM     16  C   UNL A   1      47.427  28.035  26.152  1.00  0.00     0.044 C 
ATOM     17  C   UNL A   1      46.490  28.994  26.158  1.00  0.00     0.153 C 
ATOM     18  N   UNL A   1      46.773  30.338  26.105  1.00  0.00    -0.205 NA
ATOM     19  C   UNL A   1      45.011  28.787  26.279  1.00  0.00     0.363 C 
ATOM     20  C   UNL A   1      45.605  30.875  26.240  1.00  0.00     0.231 C 
ATOM     21  O   UNL A   1      44.533  30.061  26.350  1.00  0.00    -0.402 OA
ATOM     22  O   UNL A   1      44.352  27.773  26.339  1.00  0.00    -0.244 OA
BRANCH  20  23
ATOM     23  C   UNL A   1      45.271  32.298  26.280  1.00  0.00     0.037 A 
ATOM     24  C   UNL A   1      44.152  32.767  25.590  1.00  0.00     0.014 A 
ATOM     25  C   UNL A   1      46.091  33.183  26.992  1.00  0.00     0.014 A 
ATOM     26  C   UNL A   1      43.847  34.129  25.622  1.00  0.00     0.001 A 
ATOM     27  C   UNL A   1      45.791  34.544  27.005  1.00  0.00     0.001 A 
ATOM     28  C   UNL A   1      44.668  35.015  26.324  1.00  0.00     0.000 A 
ENDBRANCH  20  23
ENDBRANCH  11  16
ENDBRANCH   7   8
ENDBRANCH   6   7
ENDBRANCH   3   6
ENDBRANCH   1   2
BRANCH   1  29
ATOM     29  C   UNL A   1      42.016  20.870  26.867  1.00  0.00     0.042 C 
BRANCH  29  30
ATOM     30  C   UNL A   1      40.959  21.789  27.474  1.00  0.00     0.118 C 
BRANCH  30  31
ATOM     31  N   UNL A   1      39.799  21.985  26.613  1.00  0.00    -0.352 N 
ATOM     32  C   UNL A   1      38.992  23.078  26.413  1.00  0.00     0.251 C 
ATOM     33  H   UNL A   1      39.551  21.194  26.081  1.00  0.00     0.163 HD
ATOM     34  O   UNL A   1      37.963  22.949  25.754  1.00  0.00    -0.269 OA
BRANCH  32  35
ATOM     35  C   UNL A   1      39.329  24.393  27.002  1.00  0.00     0.039 A 
ATOM     36  C   UNL A   1      38.896  24.678  28.300  1.00  0.00     0.014 A 
ATOM     37  C   UNL A   1      40.042  25.353  26.281  1.00  0.00     0.014 A 
ATOM     38  C   UNL A   1      39.256  25.885  28.906  1.00  0.00     0.010 A 
ATOM     39  C   UNL A   1      40.468  26.520  26.912  1.00  0.00     0.010 A 
ATOM     40  C   UNL A   1      40.089  26.794  28.235  1.00  0.00    -0.014 A 
BRANCH  40  41
ATOM     41  C   UNL A   1      40.603  28.015  28.911  1.00  0.00     0.031 A 
ATOM     42  C   UNL A   1      42.013  28.063  29.434  1.00  0.00     0.074 A 
ATOM     43  C   UNL A   1      39.771  29.056  29.119  1.00  0.00     0.049 A 
ATOM     44  N   UNL A   1      42.608  29.007  30.118  1.00  0.00    -0.248 NA
ATOM     45  C   UNL A   1      42.858  26.888  29.173  1.00  0.00     0.031 C 
ATOM     46  C   UNL A   1      38.370  29.116  28.696  1.00  0.00     0.029 A 
ATOM     47  N   UNL A   1      39.977  30.259  29.748  1.00  0.00    -0.354 N 
ATOM     48  C   UNL A   1      43.891  28.537  30.377  1.00  0.00     0.074 A 
ATOM     49  C   UNL A   1      43.968  27.202  29.824  1.00  0.00     0.031 C 
ATOM     50  C   UNL A   1      37.851  30.300  29.054  1.00  0.00     0.029 A 
ATOM     51  C   UNL A   1      38.862  31.066  29.776  1.00  0.00     0.049 A 
ATOM     52  H   UNL A   1      40.840  30.521  30.142  1.00  0.00     0.167 HD
ATOM     53  C   UNL A   1      44.917  29.169  30.998  1.00  0.00     0.037 A 
ATOM     54  C   UNL A   1      38.669  32.278  30.332  1.00  0.00     0.037 A 
ATOM     55  C   UNL A   1      44.833  30.503  31.539  1.00  0.00     0.049 A 
ATOM     56  C   UNL A   1      39.810  32.944  31.052  1.00  0.00     0.074 A 
ATOM     57  C   UNL A   1      45.829  31.250  32.142  1.00  0.00     0.029 A 
ATOM     58  N   UNL A   1      43.685  31.284  31.553  1.00  0.00    -0.354 N 
ATOM     59  N   UNL A   1      41.037  32.511  31.230  1.00  0.00    -0.248 NA
ATOM     60  C   UNL A   1      39.544  34.259  31.649  1.00  0.00     0.031 C 
ATOM     61  C   UNL A   1      45.271  32.458  32.573  1.00  0.00     0.029 A 
ATOM     62  C   UNL A   1      43.941  32.491  32.185  1.00  0.00     0.049 A 
ATOM     63  H   UNL A   1      42.818  31.019  31.170  1.00  0.00     0.167 HD
ATOM     64  C   UNL A   1      41.694  33.513  31.937  1.00  0.00     0.074 A 
ATOM     65  C   UNL A   1      40.733  34.578  32.139  1.00  0.00     0.031 C 
ATOM     66  C   UNL A   1      42.974  33.544  32.382  1.00  0.00     0.037 A 
BRANCH  53  67
ATOM     67  C   UNL A   1      46.218  28.423  31.129  1.00  0.00     0.058 A 
ATOM     68  C   UNL A   1      46.423  27.465  32.135  1.00  0.00     0.135 A 
ATOM     69  C   UNL A   1      47.267  28.647  30.220  1.00  0.00     0.135 A 
ATOM     70  F   UNL A   1      45.461  27.217  33.039  1.00  0.00    -0.206 F 
ATOM     71  C   UNL A   1      47.630  26.786  32.262  1.00  0.00     0.059 A 
ATOM     72  C   UNL A   1      48.472  27.956  30.308  1.00  0.00     0.059 A 
ATOM     73  F   UNL A   1      47.128  29.548  29.236  1.00  0.00    -0.206 F 
ATOM     74  C   UNL A   1      48.651  27.040  31.344  1.00  0.00     0.060 A 
BRANCH  74  75
ATOM     75  S   UNL A   1      50.213  26.156  31.528  1.00  0.00     0.124 S 
ATOM     76  O   UNL A   1      50.300  26.019  32.979  1.00  0.00    -0.237 OA
ATOM     77  O   UNL A   1      49.963  24.922  30.791  1.00  0.00    -0.237 OA
ATOM     78  O   UNL A   1      51.189  27.057  30.926  1.00  0.00    -0.744 OA
ENDBRANCH  74  75
ENDBRANCH  53  67
BRANCH  54  79
ATOM     79  C   UNL A   1      37.344  32.946  30.218  1.00  0.00     0.058 A 
ATOM     80  C   UNL A   1      36.407  32.868  31.258  1.00  0.00     0.135 A 
ATOM     81  C   UNL A   1      36.994  33.689  29.078  1.00  0.00     0.135 A 
ATOM     82  F   UNL A   1      36.690  32.163  32.363  1.00  0.00    -0.206 F 
ATOM     83  C   UNL A   1      35.166  33.490  31.170  1.00  0.00     0.059 A 
ATOM     84  C   UNL A   1      35.771  34.344  28.979  1.00  0.00     0.059 A 
ATOM     85  F   UNL A   1      37.861  33.808  28.061  1.00  0.00    -0.206 F 
ATOM     86  C   UNL A   1      34.860  34.231  30.028  1.00  0.00     0.060 A 
BRANCH  86  87
ATOM     87  S   UNL A   1      33.266  35.078  29.949  1.00  0.00     0.124 S 
ATOM     88  O   UNL A   1      32.563  34.290  28.944  1.00  0.00    -0.237 OA
ATOM     89  O   UNL A   1      32.782  34.944  31.319  1.00  0.00    -0.237 OA
ATOM     90  O   UNL A   1      33.627  36.435  29.549  1.00  0.00    -0.744 OA
ENDBRANCH  86  87
ENDBRANCH  54  79
BRANCH  66  91
ATOM     91  C   UNL A   1      43.425  34.780  33.115  1.00  0.00     0.058 A 
ATOM     92  C   UNL A   1      43.988  35.873  32.438  1.00  0.00     0.135 A 
ATOM     93  C   UNL A   1      43.239  34.895  34.502  1.00  0.00     0.135 A 
ATOM     94  F   UNL A   1      44.198  35.815  31.114  1.00  0.00    -0.206 F 
ATOM     95  C   UNL A   1      44.371  37.028  33.114  1.00  0.00     0.059 A 
ATOM     96  C   UNL A   1      43.584  36.052  35.193  1.00  0.00     0.059 A 
ATOM     97  F   UNL A   1      42.697  33.883  35.198  1.00  0.00    -0.206 F 
ATOM     98  C   UNL A   1      44.159  37.111  34.491  1.00  0.00     0.060 A 
BRANCH  98  99
ATOM     99  S   UNL A   1      44.620  38.632  35.346  1.00  0.00     0.124 S 
ATOM    100  O   UNL A   1      43.767  39.612  34.684  1.00  0.00    -0.237 OA
ATOM    101  O   UNL A   1      44.278  38.326  36.732  1.00  0.00    -0.237 OA
ATOM    102  O   UNL A   1      46.049  38.757  35.073  1.00  0.00    -0.744 OA
ENDBRANCH  98  99
ENDBRANCH  66  91
ENDBRANCH  40  41
ENDBRANCH  32  35
ENDBRANCH  30  31
ENDBRANCH  29  30
ENDBRANCH   1  29
TORSDOF 18
ENDMDL
