MODEL 1
REMARK VINA RESULT:     -10.9      0.000      0.000
REMARK SMILES C[C@H](NC(=O)c1ccc(N)cc1)C(=O)NCCCNC(=O)c1ccc(-c2c3nc(c(-c4c(F)cc(S(=O)(=O)[O-])cc4F)c4ccc([nH]4)c(-c4c(F)cc(S(=O)(=O)[O-])cc4F)c4nc(c(-c5c(F)cc(S(=O)(=O)[O-])cc5F)c5ccc2[nH]5)C=C4)C=C3)cc1
REMARK SMILES IDX 17 1 16 2 15 3 13 4 14 5 2 7 1 8 3 9 4 10 5 12 6 13 7 14
REMARK SMILES IDX 12 15 8 16 11 17 9 18 10 19 18 22 19 23 20 24 21 26 22 27
REMARK SMILES IDX 23 28 87 29 24 30 86 31 25 32 26 33 27 34 80 35 28 36 85 37
REMARK SMILES IDX 79 38 81 39 29 40 84 41 78 42 77 43 30 45 64 46 43 47 63 48
REMARK SMILES IDX 44 49 47 50 62 51 82 52 45 53 46 54 61 56 83 57 48 58 31 59
REMARK SMILES IDX 32 60 41 61 33 62 34 63 40 64 42 65 35 66 36 67 37 68 38 69
REMARK SMILES IDX 39 70 65 71 66 72 75 73 67 74 68 75 74 76 76 77 69 78 70 79
REMARK SMILES IDX 71 80 72 81 73 82 49 83 50 84 59 85 51 86 52 87 58 88 60 89
REMARK SMILES IDX 53 90 54 91 55 92 56 93 57 94
REMARK H PARENT 15 6 3 11 10 20 10 21 19 25 81 44 47 55
REMARK Flexibility Score: inf
ROOT
ATOM      1  C   UNL A   1      32.413  27.504  26.655  1.00  0.00     0.042 C 
ENDROOT
BRANCH   1   2
ATOM      2  C   UNL A   1      32.546  26.039  26.262  1.00  0.00     0.117 C 
BRANCH   2   3
ATOM      3  N   UNL A   1      31.499  25.211  26.834  1.00  0.00    -0.354 N 
ATOM      4  C   UNL A   1      31.078  23.957  26.518  1.00  0.00     0.242 C 
ATOM      5  O   UNL A   1      30.254  23.428  27.270  1.00  0.00    -0.273 OA
ATOM      6  H   UNL A   1      31.011  25.630  27.578  1.00  0.00     0.163 HD
BRANCH   4   7
ATOM      7  C   UNL A   1      31.645  23.184  25.318  1.00  0.00     0.168 C 
ATOM      8  C   UNL A   1      30.879  23.477  24.030  1.00  0.00     0.041 C 
BRANCH   7   9
ATOM      9  N   UNL A   1      31.750  21.751  25.603  1.00  0.00    -0.341 N 
ATOM     10  C   UNL A   1      32.879  20.969  25.645  1.00  0.00     0.251 C 
ATOM     11  H   UNL A   1      30.901  21.287  25.789  1.00  0.00     0.164 HD
ATOM     12  O   UNL A   1      32.796  19.752  25.756  1.00  0.00    -0.269 OA
BRANCH  10  13
ATOM     13  C   UNL A   1      34.202  21.609  25.521  1.00  0.00     0.039 A 
ATOM     14  C   UNL A   1      34.746  22.330  26.586  1.00  0.00     0.016 A 
ATOM     15  C   UNL A   1      34.893  21.505  24.314  1.00  0.00     0.016 A 
ATOM     16  C   UNL A   1      35.943  23.026  26.408  1.00  0.00     0.026 A 
ATOM     17  C   UNL A   1      36.098  22.193  24.152  1.00  0.00     0.026 A 
ATOM     18  C   UNL A   1      36.632  22.960  25.194  1.00  0.00     0.031 A 
BRANCH  18  19
ATOM     19  N   UNL A   1      37.759  23.736  24.987  1.00  0.00    -0.399 N 
ATOM     20  H   UNL A   1      38.640  23.416  25.290  1.00  0.00     0.156 HD
ATOM     21  H   UNL A   1      37.681  24.609  24.538  1.00  0.00     0.156 HD
ENDBRANCH  18  19
ENDBRANCH  10  13
ENDBRANCH   7   9
ENDBRANCH   4   7
ENDBRANCH   2   3
ENDBRANCH   1   2
BRANCH   1  22
ATOM     22  C   UNL A   1      33.729  28.197  26.993  1.00  0.00     0.118 C 
BRANCH  22  23
ATOM     23  N   UNL A   1      33.551  29.567  27.443  1.00  0.00    -0.352 N 
ATOM     24  C   UNL A   1      34.415  30.412  28.095  1.00  0.00     0.251 C 
ATOM     25  H   UNL A   1      32.667  29.954  27.247  1.00  0.00     0.163 HD
ATOM     26  O   UNL A   1      33.985  31.478  28.529  1.00  0.00    -0.269 OA
BRANCH  24  27
ATOM     27  C   UNL A   1      35.837  30.050  28.294  1.00  0.00     0.039 A 
ATOM     28  C   UNL A   1      36.235  29.565  29.542  1.00  0.00     0.014 A 
ATOM     29  C   UNL A   1      36.789  30.234  27.287  1.00  0.00     0.014 A 
ATOM     30  C   UNL A   1      37.572  29.228  29.768  1.00  0.00     0.010 A 
ATOM     31  C   UNL A   1      38.104  29.818  27.483  1.00  0.00     0.010 A 
ATOM     32  C   UNL A   1      38.515  29.333  28.733  1.00  0.00    -0.014 A 
BRANCH  32  33
ATOM     33  C   UNL A   1      39.943  28.990  28.962  1.00  0.00     0.031 A 
ATOM     34  C   UNL A   1      40.876  30.008  29.563  1.00  0.00     0.074 A 
ATOM     35  C   UNL A   1      40.408  27.780  28.596  1.00  0.00     0.049 A 
ATOM     36  N   UNL A   1      42.155  29.908  29.819  1.00  0.00    -0.248 NA
ATOM     37  C   UNL A   1      40.303  31.324  29.892  1.00  0.00     0.031 C 
ATOM     38  C   UNL A   1      39.619  26.729  27.947  1.00  0.00     0.029 A 
ATOM     39  N   UNL A   1      41.658  27.229  28.717  1.00  0.00    -0.354 N 
ATOM     40  C   UNL A   1      42.542  31.148  30.317  1.00  0.00     0.074 A 
ATOM     41  C   UNL A   1      41.375  32.001  30.277  1.00  0.00     0.031 C 
ATOM     42  C   UNL A   1      40.397  25.651  27.755  1.00  0.00     0.029 A 
ATOM     43  C   UNL A   1      41.742  25.939  28.246  1.00  0.00     0.049 A 
ATOM     44  H   UNL A   1      42.424  27.710  29.105  1.00  0.00     0.167 HD
ATOM     45  C   UNL A   1      43.750  31.534  30.792  1.00  0.00     0.037 A 
ATOM     46  C   UNL A   1      42.781  25.084  28.224  1.00  0.00     0.037 A 
ATOM     47  C   UNL A   1      44.898  30.670  30.871  1.00  0.00     0.049 A 
ATOM     48  C   UNL A   1      44.096  25.512  28.815  1.00  0.00     0.074 A 
ATOM     49  C   UNL A   1      46.155  30.946  31.380  1.00  0.00     0.029 A 
ATOM     50  N   UNL A   1      44.924  29.351  30.439  1.00  0.00    -0.354 N 
ATOM     51  N   UNL A   1      44.429  26.672  29.332  1.00  0.00    -0.248 NA
ATOM     52  C   UNL A   1      45.171  24.511  28.839  1.00  0.00     0.031 C 
ATOM     53  C   UNL A   1      46.947  29.801  31.238  1.00  0.00     0.029 A 
ATOM     54  C   UNL A   1      46.173  28.800  30.672  1.00  0.00     0.049 A 
ATOM     55  H   UNL A   1      44.165  28.877  30.027  1.00  0.00     0.167 HD
ATOM     56  C   UNL A   1      45.740  26.529  29.772  1.00  0.00     0.074 A 
ATOM     57  C   UNL A   1      46.136  25.169  29.467  1.00  0.00     0.031 C 
ATOM     58  C   UNL A   1      46.543  27.440  30.377  1.00  0.00     0.037 A 
BRANCH  45  59
ATOM     59  C   UNL A   1      43.883  32.952  31.276  1.00  0.00     0.058 A 
ATOM     60  C   UNL A   1      43.650  33.294  32.618  1.00  0.00     0.135 A 
ATOM     61  C   UNL A   1      44.258  33.978  30.395  1.00  0.00     0.135 A 
ATOM     62  F   UNL A   1      43.272  32.355  33.499  1.00  0.00    -0.206 F 
ATOM     63  C   UNL A   1      43.749  34.609  33.061  1.00  0.00     0.059 A 
ATOM     64  C   UNL A   1      44.389  35.296  30.822  1.00  0.00     0.059 A 
ATOM     65  F   UNL A   1      44.492  33.706  29.101  1.00  0.00    -0.206 F 
ATOM     66  C   UNL A   1      44.115  35.604  32.154  1.00  0.00     0.060 A 
BRANCH  66  67
ATOM     67  S   UNL A   1      44.233  37.308  32.741  1.00  0.00     0.124 S 
ATOM     68  O   UNL A   1      45.529  37.293  33.414  1.00  0.00    -0.237 OA
ATOM     69  O   UNL A   1      44.174  38.073  31.499  1.00  0.00    -0.237 OA
ATOM     70  O   UNL A   1      43.073  37.447  33.615  1.00  0.00    -0.744 OA
ENDBRANCH  66  67
ENDBRANCH  45  59
BRANCH  46  71
ATOM     71  C   UNL A   1      42.603  23.714  27.674  1.00  0.00     0.058 A 
ATOM     72  C   UNL A   1      42.393  22.619  28.525  1.00  0.00     0.135 A 
ATOM     73  C   UNL A   1      42.623  23.476  26.292  1.00  0.00     0.135 A 
ATOM     74  F   UNL A   1      42.369  22.801  29.854  1.00  0.00    -0.206 F 
ATOM     75  C   UNL A   1      42.229  21.331  28.029  1.00  0.00     0.059 A 
ATOM     76  C   UNL A   1      42.440  22.199  25.769  1.00  0.00     0.059 A 
ATOM     77  F   UNL A   1      42.801  24.494  25.435  1.00  0.00    -0.206 F 
ATOM     78  C   UNL A   1      42.253  21.131  26.648  1.00  0.00     0.060 A 
BRANCH  78  79
ATOM     79  S   UNL A   1      41.991  19.461  26.009  1.00  0.00     0.124 S 
ATOM     80  O   UNL A   1      42.469  18.644  27.118  1.00  0.00    -0.237 OA
ATOM     81  O   UNL A   1      40.550  19.443  25.777  1.00  0.00    -0.237 OA
ATOM     82  O   UNL A   1      42.812  19.434  24.802  1.00  0.00    -0.744 OA
ENDBRANCH  78  79
ENDBRANCH  46  71
BRANCH  58  83
ATOM     83  C   UNL A   1      47.910  26.978  30.793  1.00  0.00     0.058 A 
ATOM     84  C   UNL A   1      49.031  27.148  29.967  1.00  0.00     0.135 A 
ATOM     85  C   UNL A   1      48.101  26.378  32.048  1.00  0.00     0.135 A 
ATOM     86  F   UNL A   1      48.899  27.714  28.757  1.00  0.00    -0.206 F 
ATOM     87  C   UNL A   1      50.292  26.708  30.356  1.00  0.00     0.059 A 
ATOM     88  C   UNL A   1      49.357  25.952  32.467  1.00  0.00     0.059 A 
ATOM     89  F   UNL A   1      47.063  26.204  32.881  1.00  0.00    -0.206 F 
ATOM     90  C   UNL A   1      50.443  26.105  31.606  1.00  0.00     0.060 A 
BRANCH  90  91
ATOM     91  S   UNL A   1      52.084  25.540  32.107  1.00  0.00     0.124 S 
ATOM     92  O   UNL A   1      52.882  25.883  30.935  1.00  0.00    -0.237 OA
ATOM     93  O   UNL A   1      52.340  26.337  33.303  1.00  0.00    -0.237 OA
ATOM     94  O   UNL A   1      51.891  24.113  32.343  1.00  0.00    -0.744 OA
ENDBRANCH  90  91
ENDBRANCH  58  83
ENDBRANCH  32  33
ENDBRANCH  24  27
ENDBRANCH  22  23
ENDBRANCH   1  22
TORSDOF 16
ENDMDL
MODEL 2
REMARK VINA RESULT:     -10.7      4.866     10.655
REMARK SMILES C[C@H](NC(=O)c1ccc(N)cc1)C(=O)NCCCNC(=O)c1ccc(-c2c3nc(c(-c4c(F)cc(S(=O)(=O)[O-])cc4F)c4ccc([nH]4)c(-c4c(F)cc(S(=O)(=O)[O-])cc4F)c4nc(c(-c5c(F)cc(S(=O)(=O)[O-])cc5F)c5ccc2[nH]5)C=C4)C=C3)cc1
REMARK SMILES IDX 17 1 16 2 15 3 13 4 14 5 2 7 1 8 3 9 4 10 5 12 6 13 7 14
REMARK SMILES IDX 12 15 8 16 11 17 9 18 10 19 18 22 19 23 20 24 21 26 22 27
REMARK SMILES IDX 23 28 87 29 24 30 86 31 25 32 26 33 27 34 80 35 28 36 85 37
REMARK SMILES IDX 79 38 81 39 29 40 84 41 78 42 77 43 30 45 64 46 43 47 63 48
REMARK SMILES IDX 44 49 47 50 62 51 82 52 45 53 46 54 61 56 83 57 48 58 31 59
REMARK SMILES IDX 32 60 41 61 33 62 34 63 40 64 42 65 35 66 36 67 37 68 38 69
REMARK SMILES IDX 39 70 65 71 66 72 75 73 67 74 68 75 74 76 76 77 69 78 70 79
REMARK SMILES IDX 71 80 72 81 73 82 49 83 50 84 59 85 51 86 52 87 58 88 60 89
REMARK SMILES IDX 53 90 54 91 55 92 56 93 57 94
REMARK H PARENT 15 6 3 11 10 20 10 21 19 25 81 44 47 55
REMARK Flexibility Score: inf
ROOT
ATOM      1  C   UNL A   1      39.765  22.739  27.440  1.00  0.00     0.042 C 
ENDROOT
BRANCH   1   2
ATOM      2  C   UNL A   1      39.080  22.666  26.082  1.00  0.00     0.117 C 
BRANCH   2   3
ATOM      3  N   UNL A   1      38.823  21.301  25.658  1.00  0.00    -0.354 N 
ATOM      4  C   UNL A   1      37.756  20.747  25.022  1.00  0.00     0.242 C 
ATOM      5  O   UNL A   1      37.863  19.576  24.648  1.00  0.00    -0.273 OA
ATOM      6  H   UNL A   1      39.547  20.668  25.868  1.00  0.00     0.163 HD
BRANCH   4   7
ATOM      7  C   UNL A   1      36.486  21.552  24.708  1.00  0.00     0.168 C 
ATOM      8  C   UNL A   1      36.794  22.836  23.941  1.00  0.00     0.041 C 
BRANCH   7   9
ATOM      9  N   UNL A   1      35.688  21.788  25.913  1.00  0.00    -0.341 N 
ATOM     10  C   UNL A   1      34.388  21.421  26.161  1.00  0.00     0.251 C 
ATOM     11  H   UNL A   1      36.141  22.273  26.640  1.00  0.00     0.164 HD
ATOM     12  O   UNL A   1      33.804  21.814  27.164  1.00  0.00    -0.269 OA
BRANCH  10  13
ATOM     13  C   UNL A   1      33.683  20.567  25.187  1.00  0.00     0.039 A 
ATOM     14  C   UNL A   1      33.814  19.177  25.231  1.00  0.00     0.016 A 
ATOM     15  C   UNL A   1      32.901  21.170  24.202  1.00  0.00     0.016 A 
ATOM     16  C   UNL A   1      33.236  18.397  24.229  1.00  0.00     0.026 A 
ATOM     17  C   UNL A   1      32.313  20.378  23.211  1.00  0.00     0.026 A 
ATOM     18  C   UNL A   1      32.477  18.988  23.214  1.00  0.00     0.031 A 
BRANCH  18  19
ATOM     19  N   UNL A   1      31.997  18.223  22.165  1.00  0.00    -0.399 N 
ATOM     20  H   UNL A   1      32.296  18.406  21.245  1.00  0.00     0.156 HD
ATOM     21  H   UNL A   1      31.356  17.496  22.339  1.00  0.00     0.156 HD
ENDBRANCH  18  19
ENDBRANCH  10  13
ENDBRANCH   7   9
ENDBRANCH   4   7
ENDBRANCH   2   3
ENDBRANCH   1   2
BRANCH   1  22
ATOM     22  C   UNL A   1      41.216  23.206  27.399  1.00  0.00     0.118 C 
BRANCH  22  23
ATOM     23  N   UNL A   1      41.514  24.035  26.243  1.00  0.00    -0.352 N 
ATOM     24  C   UNL A   1      41.450  25.397  26.081  1.00  0.00     0.251 C 
ATOM     25  H   UNL A   1      41.811  23.539  25.446  1.00  0.00     0.163 HD
ATOM     26  O   UNL A   1      41.587  25.866  24.954  1.00  0.00    -0.269 OA
BRANCH  24  27
ATOM     27  C   UNL A   1      41.204  26.295  27.232  1.00  0.00     0.039 A 
ATOM     28  C   UNL A   1      42.090  27.353  27.455  1.00  0.00     0.014 A 
ATOM     29  C   UNL A   1      40.149  26.077  28.123  1.00  0.00     0.014 A 
ATOM     30  C   UNL A   1      41.896  28.210  28.541  1.00  0.00     0.010 A 
ATOM     31  C   UNL A   1      39.905  26.981  29.154  1.00  0.00     0.010 A 
ATOM     32  C   UNL A   1      40.789  28.043  29.389  1.00  0.00    -0.014 A 
BRANCH  32  33
ATOM     33  C   UNL A   1      40.578  28.941  30.555  1.00  0.00     0.031 A 
ATOM     34  C   UNL A   1      41.432  28.791  31.786  1.00  0.00     0.074 A 
ATOM     35  C   UNL A   1      39.596  29.862  30.521  1.00  0.00     0.049 A 
ATOM     36  N   UNL A   1      41.386  29.459  32.911  1.00  0.00    -0.248 NA
ATOM     37  C   UNL A   1      42.451  27.729  31.765  1.00  0.00     0.031 C 
ATOM     38  C   UNL A   1      38.661  30.065  29.410  1.00  0.00     0.029 A 
ATOM     39  N   UNL A   1      39.220  30.803  31.446  1.00  0.00    -0.354 N 
ATOM     40  C   UNL A   1      42.351  28.888  33.732  1.00  0.00     0.074 A 
ATOM     41  C   UNL A   1      42.930  27.784  32.999  1.00  0.00     0.031 C 
ATOM     42  C   UNL A   1      37.840  31.085  29.708  1.00  0.00     0.029 A 
ATOM     43  C   UNL A   1      38.174  31.595  31.035  1.00  0.00     0.049 A 
ATOM     44  H   UNL A   1      39.658  30.902  32.322  1.00  0.00     0.167 HD
ATOM     45  C   UNL A   1      42.742  29.264  34.974  1.00  0.00     0.037 A 
ATOM     46  C   UNL A   1      37.563  32.623  31.653  1.00  0.00     0.037 A 
ATOM     47  C   UNL A   1      42.195  30.390  35.683  1.00  0.00     0.049 A 
ATOM     48  C   UNL A   1      38.055  33.064  33.004  1.00  0.00     0.074 A 
ATOM     49  C   UNL A   1      42.554  30.887  36.924  1.00  0.00     0.029 A 
ATOM     50  N   UNL A   1      41.178  31.204  35.206  1.00  0.00    -0.354 N 
ATOM     51  N   UNL A   1      39.008  32.546  33.744  1.00  0.00    -0.248 NA
ATOM     52  C   UNL A   1      37.407  34.242  33.596  1.00  0.00     0.031 C 
ATOM     53  C   UNL A   1      41.740  31.990  37.207  1.00  0.00     0.029 A 
ATOM     54  C   UNL A   1      40.899  32.202  36.126  1.00  0.00     0.049 A 
ATOM     55  H   UNL A   1      40.722  31.090  34.341  1.00  0.00     0.167 HD
ATOM     56  C   UNL A   1      39.094  33.354  34.872  1.00  0.00     0.074 A 
ATOM     57  C   UNL A   1      38.103  34.399  34.713  1.00  0.00     0.031 C 
ATOM     58  C   UNL A   1      39.921  33.243  35.942  1.00  0.00     0.037 A 
BRANCH  45  59
ATOM     59  C   UNL A   1      43.825  28.455  35.633  1.00  0.00     0.058 A 
ATOM     60  C   UNL A   1      45.185  28.729  35.410  1.00  0.00     0.135 A 
ATOM     61  C   UNL A   1      43.505  27.404  36.506  1.00  0.00     0.135 A 
ATOM     62  F   UNL A   1      45.548  29.712  34.570  1.00  0.00    -0.206 F 
ATOM     63  C   UNL A   1      46.187  27.967  36.000  1.00  0.00     0.059 A 
ATOM     64  C   UNL A   1      44.492  26.645  37.129  1.00  0.00     0.059 A 
ATOM     65  F   UNL A   1      42.221  27.099  36.754  1.00  0.00    -0.206 F 
ATOM     66  C   UNL A   1      45.830  26.923  36.855  1.00  0.00     0.060 A 
BRANCH  66  67
ATOM     67  S   UNL A   1      47.141  25.936  37.610  1.00  0.00     0.124 S 
ATOM     68  O   UNL A   1      46.554  24.599  37.571  1.00  0.00    -0.237 OA
ATOM     69  O   UNL A   1      48.264  26.160  36.706  1.00  0.00    -0.237 OA
ATOM     70  O   UNL A   1      47.283  26.521  38.939  1.00  0.00    -0.744 OA
ENDBRANCH  66  67
ENDBRANCH  45  59
BRANCH  46  71
ATOM     71  C   UNL A   1      36.454  33.344  30.974  1.00  0.00     0.058 A 
ATOM     72  C   UNL A   1      35.132  33.223  31.429  1.00  0.00     0.135 A 
ATOM     73  C   UNL A   1      36.694  34.176  29.871  1.00  0.00     0.135 A 
ATOM     74  F   UNL A   1      34.856  32.436  32.479  1.00  0.00    -0.206 F 
ATOM     75  C   UNL A   1      34.082  33.887  30.803  1.00  0.00     0.059 A 
ATOM     76  C   UNL A   1      35.663  34.867  29.241  1.00  0.00     0.059 A 
ATOM     77  F   UNL A   1      37.944  34.339  29.410  1.00  0.00    -0.206 F 
ATOM     78  C   UNL A   1      34.359  34.708  29.709  1.00  0.00     0.060 A 
BRANCH  78  79
ATOM     79  S   UNL A   1      32.996  35.604  28.932  1.00  0.00     0.124 S 
ATOM     80  O   UNL A   1      32.223  36.028  30.093  1.00  0.00    -0.237 OA
ATOM     81  O   UNL A   1      33.695  36.661  28.209  1.00  0.00    -0.237 OA
ATOM     82  O   UNL A   1      32.368  34.590  28.090  1.00  0.00    -0.744 OA
ENDBRANCH  78  79
ENDBRANCH  46  71
BRANCH  58  83
ATOM     83  C   UNL A   1      39.821  34.307  36.997  1.00  0.00     0.058 A 
ATOM     84  C   UNL A   1      39.031  34.139  38.144  1.00  0.00     0.135 A 
ATOM     85  C   UNL A   1      40.548  35.501  36.867  1.00  0.00     0.135 A 
ATOM     86  F   UNL A   1      38.315  33.016  38.313  1.00  0.00    -0.206 F 
ATOM     87  C   UNL A   1      38.936  35.134  39.112  1.00  0.00     0.059 A 
ATOM     88  C   UNL A   1      40.487  36.499  37.833  1.00  0.00     0.059 A 
ATOM     89  F   UNL A   1      41.330  35.705  35.795  1.00  0.00    -0.206 F 
ATOM     90  C   UNL A   1      39.663  36.314  38.943  1.00  0.00     0.060 A 
BRANCH  90  91
ATOM     91  S   UNL A   1      39.540  37.600  40.205  1.00  0.00     0.124 S 
ATOM     92  O   UNL A   1      40.921  38.069  40.279  1.00  0.00    -0.237 OA
ATOM     93  O   UNL A   1      38.586  38.533  39.614  1.00  0.00    -0.237 OA
ATOM     94  O   UNL A   1      39.057  36.877  41.377  1.00  0.00    -0.744 OA
ENDBRANCH  90  91
ENDBRANCH  58  83
ENDBRANCH  32  33
ENDBRANCH  24  27
ENDBRANCH  22  23
ENDBRANCH   1  22
TORSDOF 16
ENDMDL
MODEL 3
REMARK VINA RESULT:     -10.7      3.753      4.985
REMARK SMILES C[C@H](NC(=O)c1ccc(N)cc1)C(=O)NCCCNC(=O)c1ccc(-c2c3nc(c(-c4c(F)cc(S(=O)(=O)[O-])cc4F)c4ccc([nH]4)c(-c4c(F)cc(S(=O)(=O)[O-])cc4F)c4nc(c(-c5c(F)cc(S(=O)(=O)[O-])cc5F)c5ccc2[nH]5)C=C4)C=C3)cc1
REMARK SMILES IDX 17 1 16 2 15 3 13 4 14 5 2 7 1 8 3 9 4 10 5 12 6 13 7 14
REMARK SMILES IDX 12 15 8 16 11 17 9 18 10 19 18 22 19 23 20 24 21 26 22 27
REMARK SMILES IDX 23 28 87 29 24 30 86 31 25 32 26 33 27 34 80 35 28 36 85 37
REMARK SMILES IDX 79 38 81 39 29 40 84 41 78 42 77 43 30 45 64 46 43 47 63 48
REMARK SMILES IDX 44 49 47 50 62 51 82 52 45 53 46 54 61 56 83 57 48 58 31 59
REMARK SMILES IDX 32 60 41 61 33 62 34 63 40 64 42 65 35 66 36 67 37 68 38 69
REMARK SMILES IDX 39 70 65 71 66 72 75 73 67 74 68 75 74 76 76 77 69 78 70 79
REMARK SMILES IDX 71 80 72 81 73 82 49 83 50 84 59 85 51 86 52 87 58 88 60 89
REMARK SMILES IDX 53 90 54 91 55 92 56 93 57 94
REMARK H PARENT 15 6 3 11 10 20 10 21 19 25 81 44 47 55
REMARK Flexibility Score: inf
ROOT
ATOM      1  C   UNL A   1      35.466  32.670  27.971  1.00  0.00     0.042 C 
ENDROOT
BRANCH   1   2
ATOM      2  C   UNL A   1      34.484  31.512  27.867  1.00  0.00     0.117 C 
BRANCH   2   3
ATOM      3  N   UNL A   1      33.162  31.937  27.444  1.00  0.00    -0.354 N 
ATOM      4  C   UNL A   1      32.174  31.269  26.789  1.00  0.00     0.242 C 
ATOM      5  O   UNL A   1      31.081  31.834  26.681  1.00  0.00    -0.273 OA
ATOM      6  H   UNL A   1      32.944  32.870  27.668  1.00  0.00     0.163 HD
BRANCH   4   7
ATOM      7  C   UNL A   1      32.367  29.840  26.262  1.00  0.00     0.168 C 
ATOM      8  C   UNL A   1      32.970  28.914  27.315  1.00  0.00     0.041 C 
BRANCH   7   9
ATOM      9  N   UNL A   1      33.114  29.829  25.002  1.00  0.00    -0.341 N 
ATOM     10  C   UNL A   1      32.845  29.122  23.855  1.00  0.00     0.251 C 
ATOM     11  H   UNL A   1      33.913  30.404  24.972  1.00  0.00     0.164 HD
ATOM     12  O   UNL A   1      33.643  29.103  22.926  1.00  0.00    -0.269 OA
BRANCH  10  13
ATOM     13  C   UNL A   1      31.591  28.351  23.764  1.00  0.00     0.039 A 
ATOM     14  C   UNL A   1      30.442  28.923  23.212  1.00  0.00     0.016 A 
ATOM     15  C   UNL A   1      31.561  27.047  24.259  1.00  0.00     0.016 A 
ATOM     16  C   UNL A   1      29.237  28.218  23.244  1.00  0.00     0.026 A 
ATOM     17  C   UNL A   1      30.353  26.345  24.272  1.00  0.00     0.026 A 
ATOM     18  C   UNL A   1      29.182  26.924  23.768  1.00  0.00     0.031 A 
BRANCH  18  19
ATOM     19  N   UNL A   1      27.967  26.273  23.896  1.00  0.00    -0.399 N 
ATOM     20  H   UNL A   1      27.937  25.349  24.237  1.00  0.00     0.156 HD
ATOM     21  H   UNL A   1      27.133  26.733  23.646  1.00  0.00     0.156 HD
ENDBRANCH  18  19
ENDBRANCH  10  13
ENDBRANCH   7   9
ENDBRANCH   4   7
ENDBRANCH   2   3
ENDBRANCH   1   2
BRANCH   1  22
ATOM     22  C   UNL A   1      36.452  32.570  29.130  1.00  0.00     0.118 C 
BRANCH  22  23
ATOM     23  N   UNL A   1      36.043  31.611  30.143  1.00  0.00    -0.352 N 
ATOM     24  C   UNL A   1      36.610  30.421  30.525  1.00  0.00     0.251 C 
ATOM     25  H   UNL A   1      35.226  31.855  30.636  1.00  0.00     0.163 HD
ATOM     26  O   UNL A   1      35.990  29.690  31.293  1.00  0.00    -0.269 OA
BRANCH  24  27
ATOM     27  C   UNL A   1      37.937  30.005  30.015  1.00  0.00     0.039 A 
ATOM     28  C   UNL A   1      38.915  29.621  30.936  1.00  0.00     0.014 A 
ATOM     29  C   UNL A   1      38.245  30.041  28.653  1.00  0.00     0.014 A 
ATOM     30  C   UNL A   1      40.182  29.237  30.490  1.00  0.00     0.010 A 
ATOM     31  C   UNL A   1      39.478  29.577  28.201  1.00  0.00     0.010 A 
ATOM     32  C   UNL A   1      40.469  29.193  29.116  1.00  0.00    -0.014 A 
BRANCH  32  33
ATOM     33  C   UNL A   1      41.816  28.798  28.629  1.00  0.00     0.031 A 
ATOM     34  C   UNL A   1      42.915  29.825  28.536  1.00  0.00     0.074 A 
ATOM     35  C   UNL A   1      42.041  27.530  28.235  1.00  0.00     0.049 A 
ATOM     36  N   UNL A   1      44.146  29.682  28.115  1.00  0.00    -0.248 NA
ATOM     37  C   UNL A   1      42.577  31.200  28.940  1.00  0.00     0.031 C 
ATOM     38  C   UNL A   1      41.042  26.458  28.218  1.00  0.00     0.029 A 
ATOM     39  N   UNL A   1      43.182  26.927  27.772  1.00  0.00    -0.354 N 
ATOM     40  C   UNL A   1      44.720  30.947  28.184  1.00  0.00     0.074 A 
ATOM     41  C   UNL A   1      43.688  31.855  28.635  1.00  0.00     0.031 C 
ATOM     42  C   UNL A   1      41.623  25.323  27.795  1.00  0.00     0.029 A 
ATOM     43  C   UNL A   1      43.026  25.589  27.492  1.00  0.00     0.049 A 
ATOM     44  H   UNL A   1      44.034  27.405  27.651  1.00  0.00     0.167 HD
ATOM     45  C   UNL A   1      45.997  31.317  27.924  1.00  0.00     0.037 A 
ATOM     46  C   UNL A   1      43.916  24.680  27.053  1.00  0.00     0.037 A 
ATOM     47  C   UNL A   1      47.032  30.404  27.518  1.00  0.00     0.049 A 
ATOM     48  C   UNL A   1      45.344  25.098  26.832  1.00  0.00     0.074 A 
ATOM     49  C   UNL A   1      48.369  30.665  27.276  1.00  0.00     0.029 A 
ATOM     50  N   UNL A   1      46.846  29.045  27.304  1.00  0.00    -0.354 N 
ATOM     51  N   UNL A   1      45.883  26.289  26.956  1.00  0.00    -0.248 NA
ATOM     52  C   UNL A   1      46.290  24.047  26.433  1.00  0.00     0.031 C 
ATOM     53  C   UNL A   1      48.989  29.469  26.897  1.00  0.00     0.029 A 
ATOM     54  C   UNL A   1      48.045  28.455  26.938  1.00  0.00     0.049 A 
ATOM     55  H   UNL A   1      45.989  28.570  27.400  1.00  0.00     0.167 HD
ATOM     56  C   UNL A   1      47.235  26.123  26.681  1.00  0.00     0.074 A 
ATOM     57  C   UNL A   1      47.434  24.717  26.394  1.00  0.00     0.031 C 
ATOM     58  C   UNL A   1      48.226  27.051  26.672  1.00  0.00     0.037 A 
BRANCH  45  59
ATOM     59  C   UNL A   1      46.344  32.771  28.088  1.00  0.00     0.058 A 
ATOM     60  C   UNL A   1      46.935  33.256  29.266  1.00  0.00     0.135 A 
ATOM     61  C   UNL A   1      46.095  33.688  27.055  1.00  0.00     0.135 A 
ATOM     62  F   UNL A   1      47.178  32.426  30.292  1.00  0.00    -0.206 F 
ATOM     63  C   UNL A   1      47.234  34.605  29.428  1.00  0.00     0.059 A 
ATOM     64  C   UNL A   1      46.411  35.037  27.185  1.00  0.00     0.059 A 
ATOM     65  F   UNL A   1      45.531  33.278  25.908  1.00  0.00    -0.206 F 
ATOM     66  C   UNL A   1      46.964  35.490  28.382  1.00  0.00     0.060 A 
BRANCH  66  67
ATOM     67  S   UNL A   1      47.350  37.239  28.607  1.00  0.00     0.124 S 
ATOM     68  O   UNL A   1      48.554  37.165  29.432  1.00  0.00    -0.237 OA
ATOM     69  O   UNL A   1      47.550  37.696  27.236  1.00  0.00    -0.237 OA
ATOM     70  O   UNL A   1      46.164  37.765  29.274  1.00  0.00    -0.744 OA
ENDBRANCH  66  67
ENDBRANCH  45  59
BRANCH  46  71
ATOM     71  C   UNL A   1      43.496  23.268  26.850  1.00  0.00     0.058 A 
ATOM     72  C   UNL A   1      43.386  22.729  25.560  1.00  0.00     0.135 A 
ATOM     73  C   UNL A   1      43.212  22.429  27.937  1.00  0.00     0.135 A 
ATOM     74  F   UNL A   1      43.644  23.497  24.490  1.00  0.00    -0.206 F 
ATOM     75  C   UNL A   1      42.990  21.413  25.351  1.00  0.00     0.059 A 
ATOM     76  C   UNL A   1      42.836  21.101  27.755  1.00  0.00     0.059 A 
ATOM     77  F   UNL A   1      43.323  22.892  29.192  1.00  0.00    -0.206 F 
ATOM     78  C   UNL A   1      42.718  20.606  26.457  1.00  0.00     0.060 A 
BRANCH  78  79
ATOM     79  S   UNL A   1      42.251  18.883  26.178  1.00  0.00     0.124 S 
ATOM     80  O   UNL A   1      40.845  19.014  25.815  1.00  0.00    -0.237 OA
ATOM     81  O   UNL A   1      43.155  18.488  25.103  1.00  0.00    -0.237 OA
ATOM     82  O   UNL A   1      42.515  18.254  27.469  1.00  0.00    -0.744 OA
ENDBRANCH  78  79
ENDBRANCH  46  71
BRANCH  58  83
ATOM     83  C   UNL A   1      49.618  26.564  26.389  1.00  0.00     0.058 A 
ATOM     84  C   UNL A   1      50.157  26.578  25.094  1.00  0.00     0.135 A 
ATOM     85  C   UNL A   1      50.429  26.098  27.436  1.00  0.00     0.135 A 
ATOM     86  F   UNL A   1      49.420  27.012  24.059  1.00  0.00    -0.206 F 
ATOM     87  C   UNL A   1      51.444  26.115  24.839  1.00  0.00     0.059 A 
ATOM     88  C   UNL A   1      51.727  25.652  27.208  1.00  0.00     0.059 A 
ATOM     89  F   UNL A   1      49.964  26.076  28.695  1.00  0.00    -0.206 F 
ATOM     90  C   UNL A   1      52.218  25.648  25.902  1.00  0.00     0.060 A 
BRANCH  90  91
ATOM     91  S   UNL A   1      53.890  25.052  25.567  1.00  0.00     0.124 S 
ATOM     92  O   UNL A   1      54.214  25.768  24.337  1.00  0.00    -0.237 OA
ATOM     93  O   UNL A   1      54.622  25.476  26.757  1.00  0.00    -0.237 OA
ATOM     94  O   UNL A   1      53.713  23.611  25.428  1.00  0.00    -0.744 OA
ENDBRANCH  90  91
ENDBRANCH  58  83
ENDBRANCH  32  33
ENDBRANCH  24  27
ENDBRANCH  22  23
ENDBRANCH   1  22
TORSDOF 16
ENDMDL
