MODEL 1
REMARK VINA RESULT:     -11.8      0.000      0.000
REMARK SMILES CC[NH2+][C@@]1(C(=O)NCCCNC(=O)c2ccc(-c3c4nc(c(-c5c(F)cc(S(=O)(=O)[O-])cc5F)c5ccc([nH]5)c(-c5c(F)cc(S(=O)(=O)[O-])cc5F)c5nc(c(-c6c(F)cc(S(=O)(=O)[O-])cc6F)c6ccc3[nH]6)C=C5)C=C4)cc2)CCC[C@@H](Sc2ncc(C)cn2)C1
REMARK SMILES IDX 9 1 8 2 7 3 5 4 6 5 4 7 80 8 92 9 81 10 83 11 82 12 3 13
REMARK SMILES IDX 2 16 1 17 84 18 85 19 86 20 91 21 87 22 90 23 88 24 89 25
REMARK SMILES IDX 10 26 11 27 12 28 13 30 14 31 15 32 79 33 16 34 78 35 17 36
REMARK SMILES IDX 18 37 19 38 72 39 20 40 77 41 71 42 73 43 21 44 76 45 70 46
REMARK SMILES IDX 69 47 22 49 56 50 35 51 55 52 36 53 39 54 54 55 74 56 37 57
REMARK SMILES IDX 38 58 53 60 75 61 40 62 23 63 24 64 33 65 25 66 26 67 32 68
REMARK SMILES IDX 34 69 27 70 28 71 29 72 30 73 31 74 57 75 58 76 67 77 59 78
REMARK SMILES IDX 60 79 66 80 68 81 61 82 62 83 63 84 64 85 65 86 41 87 42 88
REMARK SMILES IDX 51 89 43 90 44 91 50 92 52 93 45 94 46 95 47 96 48 97 49 98
REMARK H PARENT 7 6 3 14 3 15 11 29 73 48 39 59
REMARK Flexibility Score: inf
ROOT
ATOM      1  C   UNL A   1      39.214  22.394  26.477  1.00  0.00     0.042 C 
ENDROOT
BRANCH   1   2
ATOM      2  C   UNL A   1      38.085  23.204  25.865  1.00  0.00     0.118 C 
BRANCH   2   3
ATOM      3  N   UNL A   1      37.612  22.661  24.611  1.00  0.00    -0.351 N 
ATOM      4  C   UNL A   1      36.467  22.873  23.917  1.00  0.00     0.281 C 
ATOM      5  O   UNL A   1      36.656  22.958  22.692  1.00  0.00    -0.268 OA
ATOM      6  H   UNL A   1      38.231  22.025  24.186  1.00  0.00     0.163 HD
BRANCH   4   7
ATOM      7  C   UNL A   1      34.998  23.026  24.519  1.00  0.00     0.176 C 
ATOM      8  C   UNL A   1      33.947  22.307  23.640  1.00  0.00     0.079 C 
ATOM      9  C   UNL A   1      34.519  24.450  24.885  1.00  0.00     0.094 C 
ATOM     10  C   UNL A   1      33.330  23.096  22.491  1.00  0.00     0.008 C 
ATOM     11  C   UNL A   1      34.035  25.273  23.696  1.00  0.00     0.061 C 
ATOM     12  C   UNL A   1      33.010  24.559  22.810  1.00  0.00     0.015 C 
BRANCH   7  13
ATOM     13  N   UNL A   1      34.974  22.211  25.804  1.00  0.00    -0.334 N 
ATOM     14  H   UNL A   1      35.577  21.399  25.667  1.00  0.00     0.347 HD
ATOM     15  H   UNL A   1      35.286  22.850  26.535  1.00  0.00     0.347 HD
BRANCH  13  16
ATOM     16  C   UNL A   1      33.660  21.725  26.244  1.00  0.00     0.257 C 
ATOM     17  C   UNL A   1      33.404  22.202  27.668  1.00  0.00     0.071 C 
ENDBRANCH  13  16
ENDBRANCH   7  13
BRANCH  11  18
ATOM     18  S   UNL A   1      33.616  27.004  24.149  1.00  0.00    -0.083 SA
BRANCH  18  19
ATOM     19  C   UNL A   1      31.857  26.944  24.103  1.00  0.00     0.187 A 
ATOM     20  N   UNL A   1      31.235  26.190  25.021  1.00  0.00    -0.231 NA
ATOM     21  N   UNL A   1      31.250  27.614  23.110  1.00  0.00    -0.231 NA
ATOM     22  C   UNL A   1      29.896  26.134  24.929  1.00  0.00     0.119 A 
ATOM     23  C   UNL A   1      29.910  27.527  23.067  1.00  0.00     0.119 A 
ATOM     24  C   UNL A   1      29.165  26.786  23.958  1.00  0.00    -0.014 A 
ATOM     25  C   UNL A   1      27.682  26.709  23.877  1.00  0.00     0.048 C 
ENDBRANCH  18  19
ENDBRANCH  11  18
ENDBRANCH   4   7
ENDBRANCH   2   3
ENDBRANCH   1   2
BRANCH   1  26
ATOM     26  C   UNL A   1      40.254  23.265  27.150  1.00  0.00     0.118 C 
BRANCH  26  27
ATOM     27  N   UNL A   1      41.143  23.895  26.179  1.00  0.00    -0.352 N 
ATOM     28  C   UNL A   1      41.505  25.214  26.035  1.00  0.00     0.251 C 
ATOM     29  H   UNL A   1      41.548  23.280  25.525  1.00  0.00     0.163 HD
ATOM     30  O   UNL A   1      42.041  25.585  24.998  1.00  0.00    -0.269 OA
BRANCH  28  31
ATOM     31  C   UNL A   1      41.234  26.173  27.127  1.00  0.00     0.039 A 
ATOM     32  C   UNL A   1      40.287  25.860  28.102  1.00  0.00     0.014 A 
ATOM     33  C   UNL A   1      41.919  27.387  27.181  1.00  0.00     0.014 A 
ATOM     34  C   UNL A   1      40.081  26.741  29.167  1.00  0.00     0.010 A 
ATOM     35  C   UNL A   1      41.818  28.187  28.308  1.00  0.00     0.010 A 
ATOM     36  C   UNL A   1      40.875  27.893  29.298  1.00  0.00    -0.014 A 
BRANCH  36  37
ATOM     37  C   UNL A   1      40.712  28.834  30.432  1.00  0.00     0.031 A 
ATOM     38  C   UNL A   1      41.571  28.672  31.661  1.00  0.00     0.074 A 
ATOM     39  C   UNL A   1      39.750  29.777  30.386  1.00  0.00     0.049 A 
ATOM     40  N   UNL A   1      41.520  29.321  32.795  1.00  0.00    -0.248 NA
ATOM     41  C   UNL A   1      42.593  27.612  31.628  1.00  0.00     0.031 C 
ATOM     42  C   UNL A   1      38.815  29.984  29.277  1.00  0.00     0.029 A 
ATOM     43  N   UNL A   1      39.391  30.734  31.301  1.00  0.00    -0.354 N 
ATOM     44  C   UNL A   1      42.483  28.733  33.608  1.00  0.00     0.074 A 
ATOM     45  C   UNL A   1      43.050  27.629  32.870  1.00  0.00     0.031 C 
ATOM     46  C   UNL A   1      38.014  31.023  29.561  1.00  0.00     0.029 A 
ATOM     47  C   UNL A   1      38.345  31.527  30.889  1.00  0.00     0.049 A 
ATOM     48  H   UNL A   1      39.839  30.844  32.171  1.00  0.00     0.167 HD
ATOM     49  C   UNL A   1      42.888  29.104  34.845  1.00  0.00     0.037 A 
ATOM     50  C   UNL A   1      37.718  32.541  31.518  1.00  0.00     0.037 A 
ATOM     51  C   UNL A   1      42.345  30.233  35.552  1.00  0.00     0.049 A 
ATOM     52  C   UNL A   1      38.194  32.943  32.889  1.00  0.00     0.074 A 
ATOM     53  C   UNL A   1      42.721  30.740  36.783  1.00  0.00     0.029 A 
ATOM     54  N   UNL A   1      41.312  31.035  35.087  1.00  0.00    -0.354 N 
ATOM     55  N   UNL A   1      39.154  32.420  33.615  1.00  0.00    -0.248 NA
ATOM     56  C   UNL A   1      37.509  34.077  33.523  1.00  0.00     0.031 C 
ATOM     57  C   UNL A   1      41.884  31.818  37.083  1.00  0.00     0.029 A 
ATOM     58  C   UNL A   1      41.025  32.021  36.014  1.00  0.00     0.049 A 
ATOM     59  H   UNL A   1      40.852  30.919  34.224  1.00  0.00     0.167 HD
ATOM     60  C   UNL A   1      39.207  33.180  34.779  1.00  0.00     0.074 A 
ATOM     61  C   UNL A   1      38.194  34.207  34.650  1.00  0.00     0.031 C 
ATOM     62  C   UNL A   1      40.019  33.042  35.856  1.00  0.00     0.037 A 
BRANCH  49  63
ATOM     63  C   UNL A   1      43.977  28.300  35.500  1.00  0.00     0.058 A 
ATOM     64  C   UNL A   1      45.336  28.597  35.302  1.00  0.00     0.135 A 
ATOM     65  C   UNL A   1      43.662  27.241  36.366  1.00  0.00     0.135 A 
ATOM     66  F   UNL A   1      45.699  29.586  34.468  1.00  0.00    -0.206 F 
ATOM     67  C   UNL A   1      46.341  27.859  35.917  1.00  0.00     0.059 A 
ATOM     68  C   UNL A   1      44.651  26.509  37.019  1.00  0.00     0.059 A 
ATOM     69  F   UNL A   1      42.381  26.908  36.588  1.00  0.00    -0.206 F 
ATOM     70  C   UNL A   1      45.988  26.819  36.778  1.00  0.00     0.060 A 
BRANCH  70  71
ATOM     71  S   UNL A   1      47.307  25.889  37.587  1.00  0.00     0.124 S 
ATOM     72  O   UNL A   1      48.240  26.954  37.942  1.00  0.00    -0.237 OA
ATOM     73  O   UNL A   1      46.605  25.264  38.704  1.00  0.00    -0.237 OA
ATOM     74  O   UNL A   1      47.766  24.974  36.547  1.00  0.00    -0.744 OA
ENDBRANCH  70  71
ENDBRANCH  49  63
BRANCH  50  75
ATOM     75  C   UNL A   1      36.596  33.255  30.852  1.00  0.00     0.058 A 
ATOM     76  C   UNL A   1      36.829  34.123  29.775  1.00  0.00     0.135 A 
ATOM     77  C   UNL A   1      35.268  33.085  31.275  1.00  0.00     0.135 A 
ATOM     78  F   UNL A   1      38.080  34.323  29.333  1.00  0.00    -0.206 F 
ATOM     79  C   UNL A   1      35.792  34.817  29.158  1.00  0.00     0.059 A 
ATOM     80  C   UNL A   1      34.210  33.744  30.655  1.00  0.00     0.059 A 
ATOM     81  F   UNL A   1      34.987  32.252  32.289  1.00  0.00    -0.206 F 
ATOM     82  C   UNL A   1      34.485  34.620  29.606  1.00  0.00     0.060 A 
BRANCH  82  83
ATOM     83  S   UNL A   1      33.144  35.506  28.780  1.00  0.00     0.124 S 
ATOM     84  O   UNL A   1      32.524  34.439  28.003  1.00  0.00    -0.237 OA
ATOM     85  O   UNL A   1      32.367  36.008  29.910  1.00  0.00    -0.237 OA
ATOM     86  O   UNL A   1      33.843  36.528  28.006  1.00  0.00    -0.744 OA
ENDBRANCH  82  83
ENDBRANCH  50  75
BRANCH  62  87
ATOM     87  C   UNL A   1      39.875  34.048  36.964  1.00  0.00     0.058 A 
ATOM     88  C   UNL A   1      40.599  35.250  36.971  1.00  0.00     0.135 A 
ATOM     89  C   UNL A   1      38.952  33.830  38.000  1.00  0.00     0.135 A 
ATOM     90  F   UNL A   1      41.497  35.503  36.007  1.00  0.00    -0.206 F 
ATOM     91  C   UNL A   1      40.433  36.189  37.983  1.00  0.00     0.059 A 
ATOM     92  C   UNL A   1      38.746  34.769  39.003  1.00  0.00     0.059 A 
ATOM     93  F   UNL A   1      38.224  32.702  38.032  1.00  0.00    -0.206 F 
ATOM     94  C   UNL A   1      39.501  35.942  38.993  1.00  0.00     0.060 A 
BRANCH  94  95
ATOM     95  S   UNL A   1      39.270  37.186  40.278  1.00  0.00     0.124 S 
ATOM     96  O   UNL A   1      38.525  36.436  41.284  1.00  0.00    -0.237 OA
ATOM     97  O   UNL A   1      40.644  37.530  40.630  1.00  0.00    -0.237 OA
ATOM     98  O   UNL A   1      38.521  38.241  39.599  1.00  0.00    -0.744 OA
ENDBRANCH  94  95
ENDBRANCH  62  87
ENDBRANCH  36  37
ENDBRANCH  28  31
ENDBRANCH  26  27
ENDBRANCH   1  26
TORSDOF 17
ENDMDL
MODEL 2
REMARK VINA RESULT:     -11.6      1.847      3.496
REMARK SMILES CC[NH2+][C@@]1(C(=O)NCCCNC(=O)c2ccc(-c3c4nc(c(-c5c(F)cc(S(=O)(=O)[O-])cc5F)c5ccc([nH]5)c(-c5c(F)cc(S(=O)(=O)[O-])cc5F)c5nc(c(-c6c(F)cc(S(=O)(=O)[O-])cc6F)c6ccc3[nH]6)C=C5)C=C4)cc2)CCC[C@@H](Sc2ncc(C)cn2)C1
REMARK SMILES IDX 9 1 8 2 7 3 5 4 6 5 4 7 80 8 92 9 81 10 83 11 82 12 3 13
REMARK SMILES IDX 2 16 1 17 84 18 85 19 86 20 91 21 87 22 90 23 88 24 89 25
REMARK SMILES IDX 10 26 11 27 12 28 13 30 14 31 15 32 79 33 16 34 78 35 17 36
REMARK SMILES IDX 18 37 19 38 72 39 20 40 77 41 71 42 73 43 21 44 76 45 70 46
REMARK SMILES IDX 69 47 22 49 56 50 35 51 55 52 36 53 39 54 54 55 74 56 37 57
REMARK SMILES IDX 38 58 53 60 75 61 40 62 23 63 24 64 33 65 25 66 26 67 32 68
REMARK SMILES IDX 34 69 27 70 28 71 29 72 30 73 31 74 57 75 58 76 67 77 59 78
REMARK SMILES IDX 60 79 66 80 68 81 61 82 62 83 63 84 64 85 65 86 41 87 42 88
REMARK SMILES IDX 51 89 43 90 44 91 50 92 52 93 45 94 46 95 47 96 48 97 49 98
REMARK H PARENT 7 6 3 14 3 15 11 29 73 48 39 59
REMARK Flexibility Score: inf
ROOT
ATOM      1  C   UNL A   1      38.395  22.672  26.098  1.00  0.00     0.042 C 
ENDROOT
BRANCH   1   2
ATOM      2  C   UNL A   1      37.036  23.216  25.696  1.00  0.00     0.118 C 
BRANCH   2   3
ATOM      3  N   UNL A   1      36.088  23.240  26.787  1.00  0.00    -0.351 N 
ATOM      4  C   UNL A   1      34.739  23.105  26.807  1.00  0.00     0.281 C 
ATOM      5  O   UNL A   1      34.339  22.412  27.758  1.00  0.00    -0.268 OA
ATOM      6  H   UNL A   1      36.494  23.377  27.673  1.00  0.00     0.163 HD
BRANCH   4   7
ATOM      7  C   UNL A   1      33.702  23.718  25.762  1.00  0.00     0.176 C 
ATOM      8  C   UNL A   1      32.391  24.160  26.457  1.00  0.00     0.079 C 
ATOM      9  C   UNL A   1      33.393  22.893  24.491  1.00  0.00     0.094 C 
ATOM     10  C   UNL A   1      31.292  23.117  26.615  1.00  0.00     0.008 C 
ATOM     11  C   UNL A   1      32.393  21.763  24.706  1.00  0.00     0.061 C 
ATOM     12  C   UNL A   1      31.101  22.189  25.412  1.00  0.00     0.015 C 
BRANCH   7  13
ATOM     13  N   UNL A   1      34.295  25.039  25.294  1.00  0.00    -0.334 N 
ATOM     14  H   UNL A   1      35.002  25.320  25.974  1.00  0.00     0.347 HD
ATOM     15  H   UNL A   1      34.657  24.857  24.358  1.00  0.00     0.347 HD
BRANCH  13  16
ATOM     16  C   UNL A   1      33.355  26.157  25.138  1.00  0.00     0.257 C 
ATOM     17  C   UNL A   1      33.720  27.257  26.128  1.00  0.00     0.071 C 
ENDBRANCH  13  16
ENDBRANCH   7  13
BRANCH  11  18
ATOM     18  S   UNL A   1      32.166  20.716  23.213  1.00  0.00    -0.083 SA
BRANCH  18  19
ATOM     19  C   UNL A   1      32.537  19.122  23.864  1.00  0.00     0.187 A 
ATOM     20  N   UNL A   1      32.977  18.187  23.009  1.00  0.00    -0.231 NA
ATOM     21  N   UNL A   1      32.297  18.927  25.171  1.00  0.00    -0.231 NA
ATOM     22  C   UNL A   1      33.208  16.972  23.533  1.00  0.00     0.119 A 
ATOM     23  C   UNL A   1      32.550  17.695  25.644  1.00  0.00     0.119 A 
ATOM     24  C   UNL A   1      33.007  16.657  24.861  1.00  0.00    -0.014 A 
ATOM     25  C   UNL A   1      33.271  15.303  25.418  1.00  0.00     0.048 C 
ENDBRANCH  18  19
ENDBRANCH  11  18
ENDBRANCH   4   7
ENDBRANCH   2   3
ENDBRANCH   1   2
BRANCH   1  26
ATOM     26  C   UNL A   1      39.248  23.706  26.803  1.00  0.00     0.118 C 
BRANCH  26  27
ATOM     27  N   UNL A   1      40.518  23.921  26.115  1.00  0.00    -0.352 N 
ATOM     28  C   UNL A   1      41.428  24.944  26.237  1.00  0.00     0.251 C 
ATOM     29  H   UNL A   1      40.761  23.224  25.464  1.00  0.00     0.163 HD
ATOM     30  O   UNL A   1      42.294  25.088  25.382  1.00  0.00    -0.269 OA
BRANCH  28  31
ATOM     31  C   UNL A   1      41.348  25.865  27.389  1.00  0.00     0.039 A 
ATOM     32  C   UNL A   1      42.266  26.909  27.505  1.00  0.00     0.014 A 
ATOM     33  C   UNL A   1      40.362  25.691  28.361  1.00  0.00     0.014 A 
ATOM     34  C   UNL A   1      42.147  27.815  28.561  1.00  0.00     0.010 A 
ATOM     35  C   UNL A   1      40.158  26.667  29.322  1.00  0.00     0.010 A 
ATOM     36  C   UNL A   1      41.066  27.723  29.455  1.00  0.00    -0.014 A 
BRANCH  36  37
ATOM     37  C   UNL A   1      40.885  28.686  30.569  1.00  0.00     0.031 A 
ATOM     38  C   UNL A   1      41.734  28.555  31.809  1.00  0.00     0.074 A 
ATOM     39  C   UNL A   1      39.916  29.619  30.497  1.00  0.00     0.049 A 
ATOM     40  N   UNL A   1      41.668  29.225  32.929  1.00  0.00    -0.248 NA
ATOM     41  C   UNL A   1      42.766  27.503  31.805  1.00  0.00     0.031 C 
ATOM     42  C   UNL A   1      38.989  29.795  29.375  1.00  0.00     0.029 A 
ATOM     43  N   UNL A   1      39.540  30.590  31.389  1.00  0.00    -0.354 N 
ATOM     44  C   UNL A   1      42.629  28.662  33.762  1.00  0.00     0.074 A 
ATOM     45  C   UNL A   1      43.212  27.549  33.050  1.00  0.00     0.031 C 
ATOM     46  C   UNL A   1      38.176  30.833  29.632  1.00  0.00     0.029 A 
ATOM     47  C   UNL A   1      38.491  31.366  30.952  1.00  0.00     0.049 A 
ATOM     48  H   UNL A   1      39.980  30.721  32.260  1.00  0.00     0.167 HD
ATOM     49  C   UNL A   1      43.020  29.061  34.995  1.00  0.00     0.037 A 
ATOM     50  C   UNL A   1      37.850  32.386  31.556  1.00  0.00     0.037 A 
ATOM     51  C   UNL A   1      42.461  30.199  35.674  1.00  0.00     0.049 A 
ATOM     52  C   UNL A   1      38.311  32.820  32.923  1.00  0.00     0.074 A 
ATOM     53  C   UNL A   1      42.822  30.733  36.898  1.00  0.00     0.029 A 
ATOM     54  N   UNL A   1      41.425  30.982  35.184  1.00  0.00    -0.354 N 
ATOM     55  N   UNL A   1      39.268  32.320  33.667  1.00  0.00    -0.248 NA
ATOM     56  C   UNL A   1      37.610  33.960  33.528  1.00  0.00     0.031 C 
ATOM     57  C   UNL A   1      41.973  31.809  37.170  1.00  0.00     0.029 A 
ATOM     58  C   UNL A   1      41.122  31.984  36.090  1.00  0.00     0.049 A 
ATOM     59  H   UNL A   1      40.974  30.845  34.321  1.00  0.00     0.167 HD
ATOM     60  C   UNL A   1      39.305  33.102  34.816  1.00  0.00     0.074 A 
ATOM     61  C   UNL A   1      38.284  34.118  34.659  1.00  0.00     0.031 C 
ATOM     62  C   UNL A   1      40.109  32.993  35.903  1.00  0.00     0.037 A 
BRANCH  49  63
ATOM     63  C   UNL A   1      44.110  28.279  35.674  1.00  0.00     0.058 A 
ATOM     64  C   UNL A   1      43.824  27.207  36.536  1.00  0.00     0.135 A 
ATOM     65  C   UNL A   1      45.461  28.579  35.434  1.00  0.00     0.135 A 
ATOM     66  F   UNL A   1      42.550  26.887  36.818  1.00  0.00    -0.206 F 
ATOM     67  C   UNL A   1      44.833  26.478  37.154  1.00  0.00     0.059 A 
ATOM     68  C   UNL A   1      46.489  27.842  36.017  1.00  0.00     0.059 A 
ATOM     69  F   UNL A   1      45.794  29.597  34.625  1.00  0.00    -0.206 F 
ATOM     70  C   UNL A   1      46.164  26.800  36.884  1.00  0.00     0.060 A 
BRANCH  70  71
ATOM     71  S   UNL A   1      47.461  25.826  37.677  1.00  0.00     0.124 S 
ATOM     72  O   UNL A   1      48.455  25.741  36.611  1.00  0.00    -0.237 OA
ATOM     73  O   UNL A   1      47.824  26.663  38.817  1.00  0.00    -0.237 OA
ATOM     74  O   UNL A   1      46.791  24.573  38.010  1.00  0.00    -0.744 OA
ENDBRANCH  70  71
ENDBRANCH  49  63
BRANCH  50  75
ATOM     75  C   UNL A   1      36.728  33.078  30.867  1.00  0.00     0.058 A 
ATOM     76  C   UNL A   1      35.397  32.866  31.259  1.00  0.00     0.135 A 
ATOM     77  C   UNL A   1      36.959  33.966  29.805  1.00  0.00     0.135 A 
ATOM     78  F   UNL A   1      35.121  32.025  32.267  1.00  0.00    -0.206 F 
ATOM     79  C   UNL A   1      34.335  33.487  30.608  1.00  0.00     0.059 A 
ATOM     80  C   UNL A   1      35.917  34.623  29.157  1.00  0.00     0.059 A 
ATOM     81  F   UNL A   1      38.214  34.220  29.402  1.00  0.00    -0.206 F 
ATOM     82  C   UNL A   1      34.606  34.365  29.556  1.00  0.00     0.060 A 
BRANCH  82  83
ATOM     83  S   UNL A   1      33.222  35.185  28.736  1.00  0.00     0.124 S 
ATOM     84  O   UNL A   1      33.906  36.224  27.975  1.00  0.00    -0.237 OA
ATOM     85  O   UNL A   1      32.641  34.098  27.953  1.00  0.00    -0.237 OA
ATOM     86  O   UNL A   1      32.401  35.654  29.849  1.00  0.00    -0.744 OA
ENDBRANCH  82  83
ENDBRANCH  50  75
BRANCH  62  87
ATOM     87  C   UNL A   1      39.946  34.019  36.989  1.00  0.00     0.058 A 
ATOM     88  C   UNL A   1      40.530  35.291  36.899  1.00  0.00     0.135 A 
ATOM     89  C   UNL A   1      39.142  33.742  38.108  1.00  0.00     0.135 A 
ATOM     90  F   UNL A   1      41.311  35.604  35.853  1.00  0.00    -0.206 F 
ATOM     91  C   UNL A   1      40.346  36.246  37.893  1.00  0.00     0.059 A 
ATOM     92  C   UNL A   1      38.917  34.692  39.098  1.00  0.00     0.059 A 
ATOM     93  F   UNL A   1      38.550  32.544  38.236  1.00  0.00    -0.206 F 
ATOM     94  C   UNL A   1      39.534  35.938  38.988  1.00  0.00     0.060 A 
BRANCH  94  95
ATOM     95  S   UNL A   1      39.274  37.199  40.251  1.00  0.00     0.124 S 
ATOM     96  O   UNL A   1      38.476  36.471  41.233  1.00  0.00    -0.237 OA
ATOM     97  O   UNL A   1      40.638  37.522  40.655  1.00  0.00    -0.237 OA
ATOM     98  O   UNL A   1      38.571  38.259  39.534  1.00  0.00    -0.744 OA
ENDBRANCH  94  95
ENDBRANCH  62  87
ENDBRANCH  36  37
ENDBRANCH  28  31
ENDBRANCH  26  27
ENDBRANCH   1  26
TORSDOF 17
ENDMDL
MODEL 3
REMARK VINA RESULT:     -11.6      6.277     11.205
REMARK SMILES CC[NH2+][C@@]1(C(=O)NCCCNC(=O)c2ccc(-c3c4nc(c(-c5c(F)cc(S(=O)(=O)[O-])cc5F)c5ccc([nH]5)c(-c5c(F)cc(S(=O)(=O)[O-])cc5F)c5nc(c(-c6c(F)cc(S(=O)(=O)[O-])cc6F)c6ccc3[nH]6)C=C5)C=C4)cc2)CCC[C@@H](Sc2ncc(C)cn2)C1
REMARK SMILES IDX 9 1 8 2 7 3 5 4 6 5 4 7 80 8 92 9 81 10 83 11 82 12 3 13
REMARK SMILES IDX 2 16 1 17 84 18 85 19 86 20 91 21 87 22 90 23 88 24 89 25
REMARK SMILES IDX 10 26 11 27 12 28 13 30 14 31 15 32 79 33 16 34 78 35 17 36
REMARK SMILES IDX 18 37 19 38 72 39 20 40 77 41 71 42 73 43 21 44 76 45 70 46
REMARK SMILES IDX 69 47 22 49 56 50 35 51 55 52 36 53 39 54 54 55 74 56 37 57
REMARK SMILES IDX 38 58 53 60 75 61 40 62 23 63 24 64 33 65 25 66 26 67 32 68
REMARK SMILES IDX 34 69 27 70 28 71 29 72 30 73 31 74 57 75 58 76 67 77 59 78
REMARK SMILES IDX 60 79 66 80 68 81 61 82 62 83 63 84 64 85 65 86 41 87 42 88
REMARK SMILES IDX 51 89 43 90 44 91 50 92 52 93 45 94 46 95 47 96 48 97 49 98
REMARK H PARENT 7 6 3 14 3 15 11 29 73 48 39 59
REMARK Flexibility Score: inf
ROOT
ATOM      1  C   UNL A   1      38.046  19.644  24.993  1.00  0.00     0.042 C 
ENDROOT
BRANCH   1   2
ATOM      2  C   UNL A   1      36.812  20.528  24.983  1.00  0.00     0.118 C 
BRANCH   2   3
ATOM      3  N   UNL A   1      37.103  21.904  24.644  1.00  0.00    -0.351 N 
ATOM      4  C   UNL A   1      36.568  23.069  25.087  1.00  0.00     0.281 C 
ATOM      5  O   UNL A   1      37.424  23.951  25.269  1.00  0.00    -0.268 OA
ATOM      6  H   UNL A   1      37.814  22.014  23.974  1.00  0.00     0.163 HD
BRANCH   4   7
ATOM      7  C   UNL A   1      35.030  23.362  25.384  1.00  0.00     0.176 C 
ATOM      8  C   UNL A   1      34.701  23.199  26.888  1.00  0.00     0.079 C 
ATOM      9  C   UNL A   1      33.980  22.631  24.515  1.00  0.00     0.094 C 
ATOM     10  C   UNL A   1      34.312  21.809  27.377  1.00  0.00     0.008 C 
ATOM     11  C   UNL A   1      33.708  21.192  24.939  1.00  0.00     0.061 C 
ATOM     12  C   UNL A   1      33.403  21.021  26.431  1.00  0.00     0.015 C 
BRANCH   7  13
ATOM     13  N   UNL A   1      34.826  24.853  25.156  1.00  0.00    -0.334 N 
ATOM     14  H   UNL A   1      35.631  25.340  25.550  1.00  0.00     0.347 HD
ATOM     15  H   UNL A   1      34.718  24.961  24.148  1.00  0.00     0.347 HD
BRANCH  13  16
ATOM     16  C   UNL A   1      33.615  25.443  25.744  1.00  0.00     0.257 C 
ATOM     17  C   UNL A   1      33.831  26.940  25.931  1.00  0.00     0.071 C 
ENDBRANCH  13  16
ENDBRANCH   7  13
BRANCH  11  18
ATOM     18  S   UNL A   1      32.570  20.313  23.795  1.00  0.00    -0.083 SA
BRANCH  18  19
ATOM     19  C   UNL A   1      32.842  18.640  24.275  1.00  0.00     0.187 A 
ATOM     20  N   UNL A   1      33.857  17.983  23.696  1.00  0.00    -0.231 NA
ATOM     21  N   UNL A   1      31.973  18.109  25.151  1.00  0.00    -0.231 NA
ATOM     22  C   UNL A   1      34.007  16.697  24.055  1.00  0.00     0.119 A 
ATOM     23  C   UNL A   1      32.171  16.822  25.478  1.00  0.00     0.119 A 
ATOM     24  C   UNL A   1      33.182  16.048  24.950  1.00  0.00    -0.014 A 
ATOM     25  C   UNL A   1      33.370  14.623  25.331  1.00  0.00     0.048 C 
ENDBRANCH  18  19
ENDBRANCH  11  18
ENDBRANCH   4   7
ENDBRANCH   2   3
ENDBRANCH   1   2
BRANCH   1  26
ATOM     26  C   UNL A   1      39.175  20.233  25.812  1.00  0.00     0.118 C 
BRANCH  26  27
ATOM     27  N   UNL A   1      40.276  19.288  25.975  1.00  0.00    -0.352 N 
ATOM     28  C   UNL A   1      41.625  19.517  26.117  1.00  0.00     0.251 C 
ATOM     29  H   UNL A   1      40.013  18.340  25.987  1.00  0.00     0.163 HD
ATOM     30  O   UNL A   1      42.414  18.592  25.966  1.00  0.00    -0.269 OA
BRANCH  28  31
ATOM     31  C   UNL A   1      42.110  20.875  26.438  1.00  0.00     0.039 A 
ATOM     32  C   UNL A   1      42.357  21.225  27.766  1.00  0.00     0.014 A 
ATOM     33  C   UNL A   1      42.316  21.807  25.420  1.00  0.00     0.014 A 
ATOM     34  C   UNL A   1      42.876  22.488  28.059  1.00  0.00     0.010 A 
ATOM     35  C   UNL A   1      42.962  23.001  25.697  1.00  0.00     0.010 A 
ATOM     36  C   UNL A   1      43.220  23.371  27.021  1.00  0.00    -0.014 A 
BRANCH  36  37
ATOM     37  C   UNL A   1      43.805  24.707  27.288  1.00  0.00     0.031 A 
ATOM     38  C   UNL A   1      42.908  25.835  27.733  1.00  0.00     0.074 A 
ATOM     39  C   UNL A   1      45.116  24.922  27.060  1.00  0.00     0.049 A 
ATOM     40  N   UNL A   1      43.198  27.095  27.924  1.00  0.00    -0.248 NA
ATOM     41  C   UNL A   1      41.487  25.512  27.953  1.00  0.00     0.031 C 
ATOM     42  C   UNL A   1      46.067  23.923  26.564  1.00  0.00     0.029 A 
ATOM     43  N   UNL A   1      45.876  26.055  27.206  1.00  0.00    -0.354 N 
ATOM     44  C   UNL A   1      41.998  27.711  28.261  1.00  0.00     0.074 A 
ATOM     45  C   UNL A   1      40.964  26.707  28.176  1.00  0.00     0.031 C 
ATOM     46  C   UNL A   1      47.286  24.478  26.479  1.00  0.00     0.029 A 
ATOM     47  C   UNL A   1      47.198  25.880  26.870  1.00  0.00     0.049 A 
ATOM     48  H   UNL A   1      45.509  26.912  27.522  1.00  0.00     0.167 HD
ATOM     49  C   UNL A   1      41.782  28.991  28.646  1.00  0.00     0.037 A 
ATOM     50  C   UNL A   1      48.221  26.758  26.868  1.00  0.00     0.037 A 
ATOM     51  C   UNL A   1      42.829  29.970  28.768  1.00  0.00     0.049 A 
ATOM     52  C   UNL A   1      47.959  28.172  27.312  1.00  0.00     0.074 A 
ATOM     53  C   UNL A   1      42.736  31.278  29.209  1.00  0.00     0.029 A 
ATOM     54  N   UNL A   1      44.162  29.745  28.454  1.00  0.00    -0.354 N 
ATOM     55  N   UNL A   1      46.830  28.721  27.695  1.00  0.00    -0.248 NA
ATOM     56  C   UNL A   1      49.109  29.086  27.333  1.00  0.00     0.031 C 
ATOM     57  C   UNL A   1      44.004  31.858  29.116  1.00  0.00     0.029 A 
ATOM     58  C   UNL A   1      44.899  30.896  28.674  1.00  0.00     0.049 A 
ATOM     59  H   UNL A   1      44.528  28.894  28.125  1.00  0.00     0.167 HD
ATOM     60  C   UNL A   1      47.139  30.035  28.029  1.00  0.00     0.074 A 
ATOM     61  C   UNL A   1      48.564  30.192  27.819  1.00  0.00     0.031 C 
ATOM     62  C   UNL A   1      46.320  31.023  28.470  1.00  0.00     0.037 A 
BRANCH  49  63
ATOM     63  C   UNL A   1      40.373  29.396  28.979  1.00  0.00     0.058 A 
ATOM     64  C   UNL A   1      39.947  29.566  30.308  1.00  0.00     0.135 A 
ATOM     65  C   UNL A   1      39.443  29.656  27.959  1.00  0.00     0.135 A 
ATOM     66  F   UNL A   1      40.787  29.312  31.325  1.00  0.00    -0.206 F 
ATOM     67  C   UNL A   1      38.647  29.952  30.613  1.00  0.00     0.059 A 
ATOM     68  C   UNL A   1      38.145  30.076  28.242  1.00  0.00     0.059 A 
ATOM     69  F   UNL A   1      39.791  29.505  26.672  1.00  0.00    -0.206 F 
ATOM     70  C   UNL A   1      37.754  30.210  29.573  1.00  0.00     0.060 A 
BRANCH  70  71
ATOM     71  S   UNL A   1      36.078  30.734  29.990  1.00  0.00     0.124 S 
ATOM     72  O   UNL A   1      35.854  30.024  31.246  1.00  0.00    -0.237 OA
ATOM     73  O   UNL A   1      36.224  32.182  30.098  1.00  0.00    -0.237 OA
ATOM     74  O   UNL A   1      35.284  30.270  28.857  1.00  0.00    -0.744 OA
ENDBRANCH  70  71
ENDBRANCH  49  63
BRANCH  50  75
ATOM     75  C   UNL A   1      49.582  26.320  26.457  1.00  0.00     0.058 A 
ATOM     76  C   UNL A   1      50.064  26.572  25.164  1.00  0.00     0.135 A 
ATOM     77  C   UNL A   1      50.432  25.644  27.347  1.00  0.00     0.135 A 
ATOM     78  F   UNL A   1      49.291  27.213  24.274  1.00  0.00    -0.206 F 
ATOM     79  C   UNL A   1      51.325  26.147  24.757  1.00  0.00     0.059 A 
ATOM     80  C   UNL A   1      51.709  25.235  26.975  1.00  0.00     0.059 A 
ATOM     81  F   UNL A   1      50.029  25.393  28.603  1.00  0.00    -0.206 F 
ATOM     82  C   UNL A   1      52.141  25.478  25.672  1.00  0.00     0.060 A 
BRANCH  82  83
ATOM     83  S   UNL A   1      53.786  24.955  25.141  1.00  0.00     0.124 S 
ATOM     84  O   UNL A   1      54.621  25.477  26.217  1.00  0.00    -0.237 OA
ATOM     85  O   UNL A   1      53.645  23.502  25.092  1.00  0.00    -0.237 OA
ATOM     86  O   UNL A   1      53.945  25.606  23.844  1.00  0.00    -0.744 OA
ENDBRANCH  82  83
ENDBRANCH  50  75
BRANCH  62  87
ATOM     87  C   UNL A   1      46.950  32.348  28.793  1.00  0.00     0.058 A 
ATOM     88  C   UNL A   1      47.063  33.368  27.836  1.00  0.00     0.135 A 
ATOM     89  C   UNL A   1      47.390  32.622  30.099  1.00  0.00     0.135 A 
ATOM     90  F   UNL A   1      46.661  33.156  26.573  1.00  0.00    -0.206 F 
ATOM     91  C   UNL A   1      47.615  34.603  28.154  1.00  0.00     0.059 A 
ATOM     92  C   UNL A   1      47.916  33.860  30.448  1.00  0.00     0.059 A 
ATOM     93  F   UNL A   1      47.293  31.684  31.056  1.00  0.00    -0.206 F 
ATOM     94  C   UNL A   1      48.036  34.841  29.465  1.00  0.00     0.060 A 
BRANCH  94  95
ATOM     95  S   UNL A   1      48.717  36.462  29.872  1.00  0.00     0.124 S 
ATOM     96  O   UNL A   1      49.630  36.132  30.961  1.00  0.00    -0.237 OA
ATOM     97  O   UNL A   1      49.344  36.861  28.616  1.00  0.00    -0.237 OA
ATOM     98  O   UNL A   1      47.541  37.239  30.253  1.00  0.00    -0.744 OA
ENDBRANCH  94  95
ENDBRANCH  62  87
ENDBRANCH  36  37
ENDBRANCH  28  31
ENDBRANCH  26  27
ENDBRANCH   1  26
TORSDOF 17
ENDMDL
