MODEL 1
REMARK VINA RESULT:     -10.1      0.000      0.000
REMARK SMILES Cn1cc(S(=O)(=O)N2CCCc3cc(C(=O)NCCCNC(=O)c4ccc(-c5c6nc(c(-c7c(F)cc(S(=O)(=O)[O-])cc7F)c7ccc([nH]7)c(-c7c(F)cc(S(=O)(=O)[O-])cc7F)c7nc(c(-c8c(F)cc(S(=O)(=O)[O-])cc8F)c8ccc5[nH]8)C=C7)C=C6)cc4)ccc32)cc1C(N)=O
REMARK SMILES IDX 19 1 18 2 17 3 15 4 16 5 14 7 8 8 9 9 92 10 10 11 12 12
REMARK SMILES IDX 91 13 11 14 13 15 90 16 5 17 6 18 7 19 4 20 1 21 2 22 3 23
REMARK SMILES IDX 94 24 93 25 95 26 96 27 97 28 20 31 21 32 22 33 23 35 24 36
REMARK SMILES IDX 25 37 89 38 26 39 88 40 27 41 28 42 29 43 82 44 30 45 87 46
REMARK SMILES IDX 81 47 83 48 31 49 86 50 80 51 79 52 32 54 66 55 45 56 65 57
REMARK SMILES IDX 46 58 49 59 64 60 84 61 47 62 48 63 63 65 85 66 50 67 33 68
REMARK SMILES IDX 34 69 43 70 35 71 36 72 42 73 44 74 37 75 38 76 39 77 40 78
REMARK SMILES IDX 41 79 67 80 68 81 77 82 69 83 70 84 76 85 78 86 71 87 72 88
REMARK SMILES IDX 73 89 74 90 75 91 51 92 52 93 61 94 53 95 54 96 60 97 62 98
REMARK SMILES IDX 55 99 56 100 57 101 58 102 59 103
REMARK H PARENT 17 6 96 29 96 30 21 34 83 53 49 64
REMARK Flexibility Score: inf
ROOT
ATOM      1  C   UNL A   1      40.423  22.209  27.544  1.00  0.00     0.042 C 
ENDROOT
BRANCH   1   2
ATOM      2  C   UNL A   1      39.370  22.463  26.466  1.00  0.00     0.118 C 
BRANCH   2   3
ATOM      3  N   UNL A   1      38.983  21.231  25.801  1.00  0.00    -0.352 N 
ATOM      4  C   UNL A   1      37.828  20.835  25.180  1.00  0.00     0.251 C 
ATOM      5  O   UNL A   1      37.831  19.732  24.628  1.00  0.00    -0.269 OA
ATOM      6  H   UNL A   1      39.689  20.545  25.797  1.00  0.00     0.163 HD
BRANCH   4   7
ATOM      7  C   UNL A   1      36.600  21.673  25.095  1.00  0.00     0.040 A 
ATOM      8  N   UNL A   1      32.962  23.895  25.111  1.00  0.00    -0.266 N 
ATOM      9  C   UNL A   1      32.298  24.110  26.410  1.00  0.00     0.136 C 
ATOM     10  C   UNL A   1      34.194  23.163  25.096  1.00  0.00     0.055 A 
ATOM     11  C   UNL A   1      32.190  22.777  27.131  1.00  0.00     0.028 C 
ATOM     12  C   UNL A   1      34.476  22.286  26.155  1.00  0.00    -0.023 A 
ATOM     13  C   UNL A   1      35.154  23.353  24.100  1.00  0.00     0.028 A 
ATOM     14  C   UNL A   1      33.579  22.195  27.366  1.00  0.00     0.039 C 
ATOM     15  C   UNL A   1      35.667  21.540  26.136  1.00  0.00     0.019 A 
ATOM     16  C   UNL A   1      36.352  22.626  24.107  1.00  0.00     0.016 A 
BRANCH   8  17
ATOM     17  S   UNL A   1      32.043  24.115  23.700  1.00  0.00     0.265 S 
ATOM     18  O   UNL A   1      30.651  23.833  24.003  1.00  0.00    -0.201 OA
ATOM     19  O   UNL A   1      32.692  23.551  22.540  1.00  0.00    -0.201 OA
BRANCH  17  20
ATOM     20  C   UNL A   1      32.035  25.818  23.376  1.00  0.00     0.106 A 
ATOM     21  C   UNL A   1      33.586  28.971  22.549  1.00  0.00     0.150 C 
ATOM     22  N   UNL A   1      32.678  27.881  22.843  1.00  0.00    -0.345 N 
ATOM     23  C   UNL A   1      33.126  26.599  23.069  1.00  0.00     0.108 A 
ATOM     24  C   UNL A   1      31.298  27.934  22.962  1.00  0.00     0.107 A 
ATOM     25  C   UNL A   1      30.898  26.659  23.351  1.00  0.00     0.056 A 
BRANCH  24  26
ATOM     26  C   UNL A   1      30.465  29.092  22.693  1.00  0.00     0.265 C 
ATOM     27  N   UNL A   1      30.294  29.952  23.739  1.00  0.00    -0.364 N 
ATOM     28  O   UNL A   1      29.901  29.322  21.629  1.00  0.00    -0.268 OA
ATOM     29  H   UNL A   1      30.740  29.777  24.598  1.00  0.00     0.160 HD
ATOM     30  H   UNL A   1      29.722  30.747  23.634  1.00  0.00     0.160 HD
ENDBRANCH  24  26
ENDBRANCH  17  20
ENDBRANCH   8  17
ENDBRANCH   4   7
ENDBRANCH   2   3
ENDBRANCH   1   2
BRANCH   1  31
ATOM     31  C   UNL A   1      41.733  22.963  27.313  1.00  0.00     0.118 C 
BRANCH  31  32
ATOM     32  N   UNL A   1      41.662  23.849  26.158  1.00  0.00    -0.352 N 
ATOM     33  C   UNL A   1      41.374  25.191  26.091  1.00  0.00     0.251 C 
ATOM     34  H   UNL A   1      41.848  23.419  25.292  1.00  0.00     0.163 HD
ATOM     35  O   UNL A   1      41.152  25.706  24.998  1.00  0.00    -0.269 OA
BRANCH  33  36
ATOM     36  C   UNL A   1      41.316  26.013  27.320  1.00  0.00     0.039 A 
ATOM     37  C   UNL A   1      42.391  26.854  27.622  1.00  0.00     0.014 A 
ATOM     38  C   UNL A   1      40.224  25.936  28.189  1.00  0.00     0.014 A 
ATOM     39  C   UNL A   1      42.335  27.678  28.749  1.00  0.00     0.010 A 
ATOM     40  C   UNL A   1      40.145  26.797  29.284  1.00  0.00     0.010 A 
ATOM     41  C   UNL A   1      41.193  27.686  29.566  1.00  0.00    -0.014 A 
BRANCH  41  42
ATOM     42  C   UNL A   1      41.046  28.658  30.679  1.00  0.00     0.031 A 
ATOM     43  C   UNL A   1      41.875  28.529  31.926  1.00  0.00     0.074 A 
ATOM     44  C   UNL A   1      40.092  29.608  30.597  1.00  0.00     0.049 A 
ATOM     45  N   UNL A   1      41.802  29.213  33.039  1.00  0.00    -0.248 NA
ATOM     46  C   UNL A   1      42.907  27.481  31.930  1.00  0.00     0.031 C 
ATOM     47  C   UNL A   1      39.197  29.808  29.455  1.00  0.00     0.029 A 
ATOM     48  N   UNL A   1      39.700  30.567  31.497  1.00  0.00    -0.354 N 
ATOM     49  C   UNL A   1      42.766  28.674  33.881  1.00  0.00     0.074 A 
ATOM     50  C   UNL A   1      43.388  27.581  33.162  1.00  0.00     0.031 C 
ATOM     51  C   UNL A   1      38.365  30.827  29.721  1.00  0.00     0.029 A 
ATOM     52  C   UNL A   1      38.638  31.326  31.065  1.00  0.00     0.049 A 
ATOM     53  H   UNL A   1      40.138  30.699  32.368  1.00  0.00     0.167 HD
ATOM     54  C   UNL A   1      43.111  29.064  35.132  1.00  0.00     0.037 A 
ATOM     55  C   UNL A   1      37.946  32.299  31.687  1.00  0.00     0.037 A 
ATOM     56  C   UNL A   1      42.501  30.165  35.834  1.00  0.00     0.049 A 
ATOM     57  C   UNL A   1      38.331  32.699  33.083  1.00  0.00     0.074 A 
ATOM     58  C   UNL A   1      42.831  30.684  37.074  1.00  0.00     0.029 A 
ATOM     59  N   UNL A   1      41.430  30.910  35.363  1.00  0.00    -0.354 N 
ATOM     60  N   UNL A   1      39.287  32.219  33.841  1.00  0.00    -0.248 NA
ATOM     61  C   UNL A   1      37.539  33.766  33.712  1.00  0.00     0.031 C 
ATOM     62  C   UNL A   1      41.932  31.715  37.371  1.00  0.00     0.029 A 
ATOM     63  C   UNL A   1      41.067  31.864  36.299  1.00  0.00     0.049 A 
ATOM     64  H   UNL A   1      40.991  30.780  34.490  1.00  0.00     0.167 HD
ATOM     65  C   UNL A   1      39.219  32.930  35.032  1.00  0.00     0.074 A 
ATOM     66  C   UNL A   1      38.140  33.886  34.889  1.00  0.00     0.031 C 
ATOM     67  C   UNL A   1      39.981  32.800  36.147  1.00  0.00     0.037 A 
BRANCH  54  68
ATOM     68  C   UNL A   1      44.200  28.296  35.827  1.00  0.00     0.058 A 
ATOM     69  C   UNL A   1      43.913  27.210  36.667  1.00  0.00     0.135 A 
ATOM     70  C   UNL A   1      45.550  28.624  35.619  1.00  0.00     0.135 A 
ATOM     71  F   UNL A   1      42.639  26.861  36.909  1.00  0.00    -0.206 F 
ATOM     72  C   UNL A   1      44.923  26.491  37.298  1.00  0.00     0.059 A 
ATOM     73  C   UNL A   1      46.578  27.905  36.222  1.00  0.00     0.059 A 
ATOM     74  F   UNL A   1      45.881  29.654  34.825  1.00  0.00    -0.206 F 
ATOM     75  C   UNL A   1      46.253  26.849  37.073  1.00  0.00     0.060 A 
BRANCH  75  76
ATOM     76  S   UNL A   1      47.553  25.906  37.898  1.00  0.00     0.124 S 
ATOM     77  O   UNL A   1      48.436  25.589  36.779  1.00  0.00    -0.237 OA
ATOM     78  O   UNL A   1      48.077  26.869  38.862  1.00  0.00    -0.237 OA
ATOM     79  O   UNL A   1      46.838  24.773  38.475  1.00  0.00    -0.744 OA
ENDBRANCH  75  76
ENDBRANCH  54  68
BRANCH  55  80
ATOM     80  C   UNL A   1      36.813  32.960  30.988  1.00  0.00     0.058 A 
ATOM     81  C   UNL A   1      35.489  32.576  31.242  1.00  0.00     0.135 A 
ATOM     82  C   UNL A   1      37.031  34.005  30.077  1.00  0.00     0.135 A 
ATOM     83  F   UNL A   1      35.234  31.576  32.099  1.00  0.00    -0.206 F 
ATOM     84  C   UNL A   1      34.417  33.200  30.612  1.00  0.00     0.059 A 
ATOM     85  C   UNL A   1      35.975  34.659  29.451  1.00  0.00     0.059 A 
ATOM     86  F   UNL A   1      38.279  34.420  29.813  1.00  0.00    -0.206 F 
ATOM     87  C   UNL A   1      34.670  34.244  29.720  1.00  0.00     0.060 A 
BRANCH  87  88
ATOM     88  S   UNL A   1      33.272  35.093  28.957  1.00  0.00     0.124 S 
ATOM     89  O   UNL A   1      32.671  34.021  28.171  1.00  0.00    -0.237 OA
ATOM     90  O   UNL A   1      32.510  35.539  30.118  1.00  0.00    -0.237 OA
ATOM     91  O   UNL A   1      33.909  36.159  28.189  1.00  0.00    -0.744 OA
ENDBRANCH  87  88
ENDBRANCH  55  80
BRANCH  67  92
ATOM     92  C   UNL A   1      39.672  33.712  37.299  1.00  0.00     0.058 A 
ATOM     93  C   UNL A   1      38.860  33.292  38.364  1.00  0.00     0.135 A 
ATOM     94  C   UNL A   1      40.233  34.997  37.367  1.00  0.00     0.135 A 
ATOM     95  F   UNL A   1      38.291  32.076  38.341  1.00  0.00    -0.206 F 
ATOM     96  C   UNL A   1      38.601  34.121  39.451  1.00  0.00     0.059 A 
ATOM     97  C   UNL A   1      40.006  35.834  38.455  1.00  0.00     0.059 A 
ATOM     98  F   UNL A   1      41.024  35.443  36.378  1.00  0.00    -0.206 F 
ATOM     99  C   UNL A   1      39.180  35.391  39.487  1.00  0.00     0.060 A 
BRANCH  99 100
ATOM    100  S   UNL A   1      38.872  36.442  40.922  1.00  0.00     0.124 S 
ATOM    101  O   UNL A   1      37.779  35.730  41.578  1.00  0.00    -0.237 OA
ATOM    102  O   UNL A   1      40.155  36.410  41.617  1.00  0.00    -0.237 OA
ATOM    103  O   UNL A   1      38.518  37.729  40.331  1.00  0.00    -0.744 OA
ENDBRANCH  99 100
ENDBRANCH  67  92
ENDBRANCH  41  42
ENDBRANCH  33  36
ENDBRANCH  31  32
ENDBRANCH   1  31
TORSDOF 16
ENDMDL
MODEL 2
REMARK VINA RESULT:     -10.1      5.013     12.595
REMARK SMILES Cn1cc(S(=O)(=O)N2CCCc3cc(C(=O)NCCCNC(=O)c4ccc(-c5c6nc(c(-c7c(F)cc(S(=O)(=O)[O-])cc7F)c7ccc([nH]7)c(-c7c(F)cc(S(=O)(=O)[O-])cc7F)c7nc(c(-c8c(F)cc(S(=O)(=O)[O-])cc8F)c8ccc5[nH]8)C=C7)C=C6)cc4)ccc32)cc1C(N)=O
REMARK SMILES IDX 19 1 18 2 17 3 15 4 16 5 14 7 8 8 9 9 92 10 10 11 12 12
REMARK SMILES IDX 91 13 11 14 13 15 90 16 5 17 6 18 7 19 4 20 1 21 2 22 3 23
REMARK SMILES IDX 94 24 93 25 95 26 96 27 97 28 20 31 21 32 22 33 23 35 24 36
REMARK SMILES IDX 25 37 89 38 26 39 88 40 27 41 28 42 29 43 82 44 30 45 87 46
REMARK SMILES IDX 81 47 83 48 31 49 86 50 80 51 79 52 32 54 66 55 45 56 65 57
REMARK SMILES IDX 46 58 49 59 64 60 84 61 47 62 48 63 63 65 85 66 50 67 33 68
REMARK SMILES IDX 34 69 43 70 35 71 36 72 42 73 44 74 37 75 38 76 39 77 40 78
REMARK SMILES IDX 41 79 67 80 68 81 77 82 69 83 70 84 76 85 78 86 71 87 72 88
REMARK SMILES IDX 73 89 74 90 75 91 51 92 52 93 61 94 53 95 54 96 60 97 62 98
REMARK SMILES IDX 55 99 56 100 57 101 58 102 59 103
REMARK H PARENT 17 6 96 29 96 30 21 34 83 53 49 64
REMARK Flexibility Score: inf
ROOT
ATOM      1  C   UNL A   1      34.309  32.893  29.482  1.00  0.00     0.042 C 
ENDROOT
BRANCH   1   2
ATOM      2  C   UNL A   1      34.880  34.305  29.607  1.00  0.00     0.118 C 
BRANCH   2   3
ATOM      3  N   UNL A   1      36.206  34.396  29.022  1.00  0.00    -0.352 N 
ATOM      4  C   UNL A   1      37.451  34.061  29.487  1.00  0.00     0.251 C 
ATOM      5  O   UNL A   1      38.398  34.186  28.708  1.00  0.00    -0.269 OA
ATOM      6  H   UNL A   1      36.212  34.774  28.113  1.00  0.00     0.163 HD
BRANCH   4   7
ATOM      7  C   UNL A   1      37.711  33.516  30.848  1.00  0.00     0.040 A 
ATOM      8  N   UNL A   1      38.733  32.149  34.755  1.00  0.00    -0.266 N 
ATOM      9  C   UNL A   1      39.411  33.099  35.655  1.00  0.00     0.136 C 
ATOM     10  C   UNL A   1      38.371  32.603  33.444  1.00  0.00     0.055 A 
ATOM     11  C   UNL A   1      40.579  33.728  34.915  1.00  0.00     0.028 C 
ATOM     12  C   UNL A   1      39.060  33.691  32.888  1.00  0.00    -0.023 A 
ATOM     13  C   UNL A   1      37.303  32.045  32.738  1.00  0.00     0.028 A 
ATOM     14  C   UNL A   1      40.078  34.473  33.683  1.00  0.00     0.039 C 
ATOM     15  C   UNL A   1      38.734  34.126  31.592  1.00  0.00     0.019 A 
ATOM     16  C   UNL A   1      36.967  32.506  31.458  1.00  0.00     0.016 A 
BRANCH   8  17
ATOM     17  S   UNL A   1      38.822  30.495  35.127  1.00  0.00     0.265 S 
ATOM     18  O   UNL A   1      38.139  29.747  34.086  1.00  0.00    -0.201 OA
ATOM     19  O   UNL A   1      38.572  30.242  36.526  1.00  0.00    -0.201 OA
BRANCH  17  20
ATOM     20  C   UNL A   1      40.479  30.030  34.918  1.00  0.00     0.106 A 
ATOM     21  C   UNL A   1      43.833  29.367  36.074  1.00  0.00     0.150 C 
ATOM     22  N   UNL A   1      42.604  29.506  35.320  1.00  0.00    -0.345 N 
ATOM     23  C   UNL A   1      41.439  29.954  35.900  1.00  0.00     0.108 A 
ATOM     24  C   UNL A   1      42.401  29.251  33.973  1.00  0.00     0.107 A 
ATOM     25  C   UNL A   1      41.089  29.632  33.705  1.00  0.00     0.056 A 
BRANCH  24  26
ATOM     26  C   UNL A   1      43.370  28.671  33.062  1.00  0.00     0.265 C 
ATOM     27  N   UNL A   1      42.854  27.879  32.077  1.00  0.00    -0.364 N 
ATOM     28  O   UNL A   1      44.584  28.819  33.136  1.00  0.00    -0.268 OA
ATOM     29  H   UNL A   1      41.881  27.751  32.008  1.00  0.00     0.160 HD
ATOM     30  H   UNL A   1      43.455  27.434  31.437  1.00  0.00     0.160 HD
ENDBRANCH  24  26
ENDBRANCH  17  20
ENDBRANCH   8  17
ENDBRANCH   4   7
ENDBRANCH   2   3
ENDBRANCH   1   2
BRANCH   1  31
ATOM     31  C   UNL A   1      34.327  32.348  28.054  1.00  0.00     0.118 C 
BRANCH  31  32
ATOM     32  N   UNL A   1      33.770  31.004  27.970  1.00  0.00    -0.352 N 
ATOM     33  C   UNL A   1      34.404  29.786  27.951  1.00  0.00     0.251 C 
ATOM     34  H   UNL A   1      32.787  30.964  27.920  1.00  0.00     0.163 HD
ATOM     35  O   UNL A   1      33.765  28.778  27.657  1.00  0.00    -0.269 OA
BRANCH  33  36
ATOM     36  C   UNL A   1      35.846  29.680  28.264  1.00  0.00     0.039 A 
ATOM     37  C   UNL A   1      36.232  29.352  29.567  1.00  0.00     0.014 A 
ATOM     38  C   UNL A   1      36.817  29.930  27.290  1.00  0.00     0.014 A 
ATOM     39  C   UNL A   1      37.586  29.196  29.873  1.00  0.00     0.010 A 
ATOM     40  C   UNL A   1      38.164  29.722  27.582  1.00  0.00     0.010 A 
ATOM     41  C   UNL A   1      38.561  29.338  28.873  1.00  0.00    -0.014 A 
BRANCH  41  42
ATOM     42  C   UNL A   1      39.990  29.029  29.135  1.00  0.00     0.031 A 
ATOM     43  C   UNL A   1      40.924  30.091  29.644  1.00  0.00     0.074 A 
ATOM     44  C   UNL A   1      40.463  27.806  28.825  1.00  0.00     0.049 A 
ATOM     45  N   UNL A   1      42.218  30.034  29.821  1.00  0.00    -0.248 NA
ATOM     46  C   UNL A   1      40.327  31.394  29.977  1.00  0.00     0.031 C 
ATOM     47  C   UNL A   1      39.663  26.703  28.286  1.00  0.00     0.029 A 
ATOM     48  N   UNL A   1      41.733  27.289  28.895  1.00  0.00    -0.354 N 
ATOM     49  C   UNL A   1      42.597  31.292  30.274  1.00  0.00     0.074 A 
ATOM     50  C   UNL A   1      41.398  32.103  30.311  1.00  0.00     0.031 C 
ATOM     51  C   UNL A   1      40.457  25.642  28.080  1.00  0.00     0.029 A 
ATOM     52  C   UNL A   1      41.828  25.998  28.431  1.00  0.00     0.049 A 
ATOM     53  H   UNL A   1      42.501  27.795  29.245  1.00  0.00     0.167 HD
ATOM     54  C   UNL A   1      43.828  31.725  30.639  1.00  0.00     0.037 A 
ATOM     55  C   UNL A   1      42.901  25.198  28.282  1.00  0.00     0.037 A 
ATOM     56  C   UNL A   1      45.013  30.906  30.618  1.00  0.00     0.049 A 
ATOM     57  C   UNL A   1      44.259  25.708  28.671  1.00  0.00     0.074 A 
ATOM     58  C   UNL A   1      46.291  31.231  31.039  1.00  0.00     0.029 A 
ATOM     59  N   UNL A   1      45.070  29.604  30.142  1.00  0.00    -0.354 N 
ATOM     60  N   UNL A   1      44.589  26.881  29.157  1.00  0.00    -0.248 NA
ATOM     61  C   UNL A   1      45.393  24.791  28.486  1.00  0.00     0.031 C 
ATOM     62  C   UNL A   1      47.129  30.140  30.778  1.00  0.00     0.029 A 
ATOM     63  C   UNL A   1      46.366  29.123  30.231  1.00  0.00     0.049 A 
ATOM     64  H   UNL A   1      44.301  29.096  29.793  1.00  0.00     0.167 HD
ATOM     65  C   UNL A   1      45.965  26.841  29.344  1.00  0.00     0.074 A 
ATOM     66  C   UNL A   1      46.405  25.522  28.937  1.00  0.00     0.031 C 
ATOM     67  C   UNL A   1      46.790  27.811  29.809  1.00  0.00     0.037 A 
BRANCH  54  68
ATOM     68  C   UNL A   1      43.959  33.151  31.095  1.00  0.00     0.058 A 
ATOM     69  C   UNL A   1      44.331  34.174  30.211  1.00  0.00     0.135 A 
ATOM     70  C   UNL A   1      43.670  33.506  32.423  1.00  0.00     0.135 A 
ATOM     71  F   UNL A   1      44.629  33.888  28.933  1.00  0.00    -0.206 F 
ATOM     72  C   UNL A   1      44.438  35.496  30.631  1.00  0.00     0.059 A 
ATOM     73  C   UNL A   1      43.748  34.825  32.861  1.00  0.00     0.059 A 
ATOM     74  F   UNL A   1      43.309  32.566  33.311  1.00  0.00    -0.206 F 
ATOM     75  C   UNL A   1      44.148  35.812  31.960  1.00  0.00     0.060 A 
BRANCH  75  76
ATOM     76  S   UNL A   1      44.290  37.531  32.490  1.00  0.00     0.124 S 
ATOM     77  O   UNL A   1      43.332  37.575  33.591  1.00  0.00    -0.237 OA
ATOM     78  O   UNL A   1      45.696  37.628  32.871  1.00  0.00    -0.237 OA
ATOM     79  O   UNL A   1      43.914  38.287  31.300  1.00  0.00    -0.744 OA
ENDBRANCH  75  76
ENDBRANCH  54  68
BRANCH  55  80
ATOM     80  C   UNL A   1      42.728  23.828  27.734  1.00  0.00     0.058 A 
ATOM     81  C   UNL A   1      42.579  22.725  28.586  1.00  0.00     0.135 A 
ATOM     82  C   UNL A   1      42.681  23.599  26.349  1.00  0.00     0.135 A 
ATOM     83  F   UNL A   1      42.626  22.895  29.916  1.00  0.00    -0.206 F 
ATOM     84  C   UNL A   1      42.394  21.440  28.087  1.00  0.00     0.059 A 
ATOM     85  C   UNL A   1      42.476  22.327  25.826  1.00  0.00     0.059 A 
ATOM     86  F   UNL A   1      42.803  24.625  25.493  1.00  0.00    -0.206 F 
ATOM     87  C   UNL A   1      42.340  21.251  26.705  1.00  0.00     0.060 A 
BRANCH  87  88
ATOM     88  S   UNL A   1      42.035  19.591  26.065  1.00  0.00     0.124 S 
ATOM     89  O   UNL A   1      42.412  18.763  27.206  1.00  0.00    -0.237 OA
ATOM     90  O   UNL A   1      40.611  19.638  25.752  1.00  0.00    -0.237 OA
ATOM     91  O   UNL A   1      42.920  19.513  24.906  1.00  0.00    -0.744 OA
ENDBRANCH  87  88
ENDBRANCH  55  80
BRANCH  67  92
ATOM     92  C   UNL A   1      48.253  27.483  29.899  1.00  0.00     0.058 A 
ATOM     93  C   UNL A   1      49.133  27.778  28.847  1.00  0.00     0.135 A 
ATOM     94  C   UNL A   1      48.789  26.915  31.065  1.00  0.00     0.135 A 
ATOM     95  F   UNL A   1      48.667  28.311  27.706  1.00  0.00    -0.206 F 
ATOM     96  C   UNL A   1      50.494  27.509  28.941  1.00  0.00     0.059 A 
ATOM     97  C   UNL A   1      50.151  26.658  31.191  1.00  0.00     0.059 A 
ATOM     98  F   UNL A   1      47.991  26.620  32.104  1.00  0.00    -0.206 F 
ATOM     99  C   UNL A   1      50.994  26.949  30.118  1.00  0.00     0.060 A 
BRANCH  99 100
ATOM    100  S   UNL A   1      52.769  26.643  30.246  1.00  0.00     0.124 S 
ATOM    101  O   UNL A   1      52.810  25.560  31.224  1.00  0.00    -0.237 OA
ATOM    102  O   UNL A   1      53.123  26.274  28.879  1.00  0.00    -0.237 OA
ATOM    103  O   UNL A   1      53.303  27.923  30.702  1.00  0.00    -0.744 OA
ENDBRANCH  99 100
ENDBRANCH  67  92
ENDBRANCH  41  42
ENDBRANCH  33  36
ENDBRANCH  31  32
ENDBRANCH   1  31
TORSDOF 16
ENDMDL
MODEL 3
REMARK VINA RESULT:     -10.1      1.276      2.056
REMARK SMILES Cn1cc(S(=O)(=O)N2CCCc3cc(C(=O)NCCCNC(=O)c4ccc(-c5c6nc(c(-c7c(F)cc(S(=O)(=O)[O-])cc7F)c7ccc([nH]7)c(-c7c(F)cc(S(=O)(=O)[O-])cc7F)c7nc(c(-c8c(F)cc(S(=O)(=O)[O-])cc8F)c8ccc5[nH]8)C=C7)C=C6)cc4)ccc32)cc1C(N)=O
REMARK SMILES IDX 19 1 18 2 17 3 15 4 16 5 14 7 8 8 9 9 92 10 10 11 12 12
REMARK SMILES IDX 91 13 11 14 13 15 90 16 5 17 6 18 7 19 4 20 1 21 2 22 3 23
REMARK SMILES IDX 94 24 93 25 95 26 96 27 97 28 20 31 21 32 22 33 23 35 24 36
REMARK SMILES IDX 25 37 89 38 26 39 88 40 27 41 28 42 29 43 82 44 30 45 87 46
REMARK SMILES IDX 81 47 83 48 31 49 86 50 80 51 79 52 32 54 66 55 45 56 65 57
REMARK SMILES IDX 46 58 49 59 64 60 84 61 47 62 48 63 63 65 85 66 50 67 33 68
REMARK SMILES IDX 34 69 43 70 35 71 36 72 42 73 44 74 37 75 38 76 39 77 40 78
REMARK SMILES IDX 41 79 67 80 68 81 77 82 69 83 70 84 76 85 78 86 71 87 72 88
REMARK SMILES IDX 73 89 74 90 75 91 51 92 52 93 61 94 53 95 54 96 60 97 62 98
REMARK SMILES IDX 55 99 56 100 57 101 58 102 59 103
REMARK H PARENT 17 6 96 29 96 30 21 34 83 53 49 64
REMARK Flexibility Score: inf
ROOT
ATOM      1  C   UNL A   1      39.068  22.125  26.351  1.00  0.00     0.042 C 
ENDROOT
BRANCH   1   2
ATOM      2  C   UNL A   1      37.740  22.627  25.784  1.00  0.00     0.118 C 
BRANCH   2   3
ATOM      3  N   UNL A   1      36.653  21.714  26.092  1.00  0.00    -0.352 N 
ATOM      4  C   UNL A   1      35.293  21.876  26.151  1.00  0.00     0.251 C 
ATOM      5  O   UNL A   1      34.613  20.871  26.367  1.00  0.00    -0.269 OA
ATOM      6  H   UNL A   1      36.952  20.800  26.302  1.00  0.00     0.163 HD
BRANCH   4   7
ATOM      7  C   UNL A   1      34.600  23.174  25.922  1.00  0.00     0.040 A 
ATOM      8  N   UNL A   1      32.324  26.720  25.277  1.00  0.00    -0.266 N 
ATOM      9  C   UNL A   1      30.998  26.806  25.915  1.00  0.00     0.136 C 
ATOM     10  C   UNL A   1      33.105  25.538  25.500  1.00  0.00     0.055 A 
ATOM     11  C   UNL A   1      30.224  25.533  25.613  1.00  0.00     0.028 C 
ATOM     12  C   UNL A   1      32.451  24.353  25.869  1.00  0.00    -0.023 A 
ATOM     13  C   UNL A   1      34.499  25.552  25.435  1.00  0.00     0.028 A 
ATOM     14  C   UNL A   1      30.971  24.324  26.164  1.00  0.00     0.039 C 
ATOM     15  C   UNL A   1      33.203  23.181  26.062  1.00  0.00     0.019 A 
ATOM     16  C   UNL A   1      35.241  24.384  25.658  1.00  0.00     0.016 A 
BRANCH   8  17
ATOM     17  S   UNL A   1      32.659  27.774  23.989  1.00  0.00     0.265 S 
ATOM     18  O   UNL A   1      32.784  26.994  22.770  1.00  0.00    -0.201 OA
ATOM     19  O   UNL A   1      33.637  28.773  24.349  1.00  0.00    -0.201 OA
BRANCH  17  20
ATOM     20  C   UNL A   1      31.216  28.696  23.717  1.00  0.00     0.106 A 
ATOM     21  C   UNL A   1      29.074  31.571  24.139  1.00  0.00     0.150 C 
ATOM     22  N   UNL A   1      29.703  30.328  23.741  1.00  0.00    -0.345 N 
ATOM     23  C   UNL A   1      30.924  29.935  24.239  1.00  0.00     0.108 A 
ATOM     24  C   UNL A   1      29.212  29.370  22.867  1.00  0.00     0.107 A 
ATOM     25  C   UNL A   1      30.128  28.323  22.893  1.00  0.00     0.056 A 
BRANCH  24  26
ATOM     26  C   UNL A   1      28.003  29.484  22.072  1.00  0.00     0.265 C 
ATOM     27  N   UNL A   1      26.897  28.875  22.590  1.00  0.00    -0.364 N 
ATOM     28  O   UNL A   1      27.924  30.050  20.987  1.00  0.00    -0.268 OA
ATOM     29  H   UNL A   1      26.949  28.417  23.459  1.00  0.00     0.160 HD
ATOM     30  H   UNL A   1      26.047  28.893  22.093  1.00  0.00     0.160 HD
ENDBRANCH  24  26
ENDBRANCH  17  20
ENDBRANCH   8  17
ENDBRANCH   4   7
ENDBRANCH   2   3
ENDBRANCH   1   2
BRANCH   1  31
ATOM     31  C   UNL A   1      39.915  23.224  26.994  1.00  0.00     0.118 C 
BRANCH  31  32
ATOM     32  N   UNL A   1      40.774  23.894  26.027  1.00  0.00    -0.352 N 
ATOM     33  C   UNL A   1      41.308  25.160  26.049  1.00  0.00     0.251 C 
ATOM     34  H   UNL A   1      41.007  23.357  25.235  1.00  0.00     0.163 HD
ATOM     35  O   UNL A   1      41.829  25.612  25.032  1.00  0.00    -0.269 OA
BRANCH  33  36
ATOM     36  C   UNL A   1      41.247  25.984  27.276  1.00  0.00     0.039 A 
ATOM     37  C   UNL A   1      42.360  26.751  27.630  1.00  0.00     0.014 A 
ATOM     38  C   UNL A   1      40.113  25.980  28.093  1.00  0.00     0.014 A 
ATOM     39  C   UNL A   1      42.307  27.576  28.757  1.00  0.00     0.010 A 
ATOM     40  C   UNL A   1      40.041  26.844  29.186  1.00  0.00     0.010 A 
ATOM     41  C   UNL A   1      41.132  27.661  29.519  1.00  0.00    -0.014 A 
BRANCH  41  42
ATOM     42  C   UNL A   1      40.997  28.641  30.627  1.00  0.00     0.031 A 
ATOM     43  C   UNL A   1      41.840  28.519  31.866  1.00  0.00     0.074 A 
ATOM     44  C   UNL A   1      40.044  29.591  30.549  1.00  0.00     0.049 A 
ATOM     45  N   UNL A   1      41.780  29.211  32.975  1.00  0.00    -0.248 NA
ATOM     46  C   UNL A   1      42.870  27.469  31.867  1.00  0.00     0.031 C 
ATOM     47  C   UNL A   1      39.137  29.786  29.415  1.00  0.00     0.029 A 
ATOM     48  N   UNL A   1      39.663  30.558  31.447  1.00  0.00    -0.354 N 
ATOM     49  C   UNL A   1      42.752  28.675  33.811  1.00  0.00     0.074 A 
ATOM     50  C   UNL A   1      43.364  27.577  33.092  1.00  0.00     0.031 C 
ATOM     51  C   UNL A   1      38.310  30.808  29.683  1.00  0.00     0.029 A 
ATOM     52  C   UNL A   1      38.598  31.316  31.020  1.00  0.00     0.049 A 
ATOM     53  H   UNL A   1      40.110  30.694  32.312  1.00  0.00     0.167 HD
ATOM     54  C   UNL A   1      43.110  29.073  35.055  1.00  0.00     0.037 A 
ATOM     55  C   UNL A   1      37.914  32.294  31.643  1.00  0.00     0.037 A 
ATOM     56  C   UNL A   1      42.509  30.180  35.756  1.00  0.00     0.049 A 
ATOM     57  C   UNL A   1      38.314  32.702  33.032  1.00  0.00     0.074 A 
ATOM     58  C   UNL A   1      42.853  30.707  36.989  1.00  0.00     0.029 A 
ATOM     59  N   UNL A   1      41.434  30.923  35.291  1.00  0.00    -0.354 N 
ATOM     60  N   UNL A   1      39.277  32.226  33.783  1.00  0.00    -0.248 NA
ATOM     61  C   UNL A   1      37.531  33.775  33.663  1.00  0.00     0.031 C 
ATOM     62  C   UNL A   1      41.959  31.741  37.288  1.00  0.00     0.029 A 
ATOM     63  C   UNL A   1      41.083  31.884  36.225  1.00  0.00     0.049 A 
ATOM     64  H   UNL A   1      40.987  30.788  34.424  1.00  0.00     0.167 HD
ATOM     65  C   UNL A   1      39.224  32.945  34.971  1.00  0.00     0.074 A 
ATOM     66  C   UNL A   1      38.145  33.902  34.833  1.00  0.00     0.031 C 
ATOM     67  C   UNL A   1      39.997  32.821  36.078  1.00  0.00     0.037 A 
BRANCH  54  68
ATOM     68  C   UNL A   1      44.205  28.308  35.744  1.00  0.00     0.058 A 
ATOM     69  C   UNL A   1      45.552  28.682  35.621  1.00  0.00     0.135 A 
ATOM     70  C   UNL A   1      43.903  27.212  36.568  1.00  0.00     0.135 A 
ATOM     71  F   UNL A   1      45.897  29.715  34.836  1.00  0.00    -0.206 F 
ATOM     72  C   UNL A   1      46.564  27.982  36.270  1.00  0.00     0.059 A 
ATOM     73  C   UNL A   1      44.897  26.511  37.246  1.00  0.00     0.059 A 
ATOM     74  F   UNL A   1      42.631  26.812  36.721  1.00  0.00    -0.206 F 
ATOM     75  C   UNL A   1      46.226  26.895  37.077  1.00  0.00     0.060 A 
BRANCH  75  76
ATOM     76  S   UNL A   1      47.550  25.996  37.914  1.00  0.00     0.124 S 
ATOM     77  O   UNL A   1      47.428  26.505  39.277  1.00  0.00    -0.237 OA
ATOM     78  O   UNL A   1      47.157  24.604  37.721  1.00  0.00    -0.237 OA
ATOM     79  O   UNL A   1      48.750  26.410  37.195  1.00  0.00    -0.744 OA
ENDBRANCH  75  76
ENDBRANCH  54  68
BRANCH  55  80
ATOM     80  C   UNL A   1      36.775  32.952  30.952  1.00  0.00     0.058 A 
ATOM     81  C   UNL A   1      35.451  32.661  31.311  1.00  0.00     0.135 A 
ATOM     82  C   UNL A   1      36.988  33.902  29.941  1.00  0.00     0.135 A 
ATOM     83  F   UNL A   1      35.200  31.754  32.266  1.00  0.00    -0.206 F 
ATOM     84  C   UNL A   1      34.375  33.286  30.689  1.00  0.00     0.059 A 
ATOM     85  C   UNL A   1      35.930  34.555  29.319  1.00  0.00     0.059 A 
ATOM     86  F   UNL A   1      38.237  34.225  29.573  1.00  0.00    -0.206 F 
ATOM     87  C   UNL A   1      34.625  34.235  29.695  1.00  0.00     0.060 A 
BRANCH  87  88
ATOM     88  S   UNL A   1      33.226  35.088  28.938  1.00  0.00     0.124 S 
ATOM     89  O   UNL A   1      33.880  36.247  28.338  1.00  0.00    -0.237 OA
ATOM     90  O   UNL A   1      32.720  34.086  28.006  1.00  0.00    -0.237 OA
ATOM     91  O   UNL A   1      32.354  35.372  30.074  1.00  0.00    -0.744 OA
ENDBRANCH  87  88
ENDBRANCH  55  80
BRANCH  67  92
ATOM     92  C   UNL A   1      39.702  33.741  37.228  1.00  0.00     0.058 A 
ATOM     93  C   UNL A   1      38.799  33.378  38.239  1.00  0.00     0.135 A 
ATOM     94  C   UNL A   1      40.363  34.973  37.348  1.00  0.00     0.135 A 
ATOM     95  F   UNL A   1      38.133  32.215  38.164  1.00  0.00    -0.206 F 
ATOM     96  C   UNL A   1      38.550  34.212  39.324  1.00  0.00     0.059 A 
ATOM     97  C   UNL A   1      40.147  35.813  38.436  1.00  0.00     0.059 A 
ATOM     98  F   UNL A   1      41.242  35.364  36.411  1.00  0.00    -0.206 F 
ATOM     99  C   UNL A   1      39.231  35.428  39.414  1.00  0.00     0.060 A 
BRANCH  99 100
ATOM    100  S   UNL A   1      38.932  36.483  40.848  1.00  0.00     0.124 S 
ATOM    101  O   UNL A   1      37.919  35.719  41.569  1.00  0.00    -0.237 OA
ATOM    102  O   UNL A   1      40.248  36.540  41.476  1.00  0.00    -0.237 OA
ATOM    103  O   UNL A   1      38.471  37.736  40.257  1.00  0.00    -0.744 OA
ENDBRANCH  99 100
ENDBRANCH  67  92
ENDBRANCH  41  42
ENDBRANCH  33  36
ENDBRANCH  31  32
ENDBRANCH   1  31
TORSDOF 16
ENDMDL
