MODEL 1
REMARK VINA RESULT:     -11.7      0.000      0.000
REMARK SMILES C[N@H+](Cc1ccc2nsnc2c1)Cc1ccccc1C(=O)NCCCNC(=O)c1ccc(-c2c3nc(c(-c4c(F)cc(S(=O)(=O)[O-])cc4F)c4ccc([nH]4)c(-c4c(F)cc(S(=O)(=O)[O-])cc4F)c4nc(c(-c5c(F)cc(S(=O)(=O)[O-])cc5F)c5ccc2[nH]5)C=C4)C=C3)cc1
REMARK SMILES IDX 23 1 22 2 20 3 21 4 19 6 14 7 15 8 16 9 18 10 17 11 13 12
REMARK SMILES IDX 2 13 1 14 3 16 4 17 5 18 12 19 6 20 11 21 7 22 10 23 8 24
REMARK SMILES IDX 9 25 24 26 25 27 26 28 27 29 28 31 29 32 30 33 94 34 31 35
REMARK SMILES IDX 93 36 32 37 33 38 34 39 87 40 35 41 92 42 86 43 88 44 36 45
REMARK SMILES IDX 91 46 85 47 84 48 37 50 71 51 50 52 70 53 51 54 54 55 69 56
REMARK SMILES IDX 89 57 52 58 53 59 68 61 90 62 55 63 38 64 39 65 48 66 40 67
REMARK SMILES IDX 41 68 47 69 49 70 42 71 43 72 44 73 45 74 46 75 72 76 73 77
REMARK SMILES IDX 82 78 74 79 75 80 81 81 83 82 76 83 77 84 78 85 79 86 80 87
REMARK SMILES IDX 56 88 57 89 66 90 58 91 59 92 65 93 67 94 60 95 61 96 62 97
REMARK SMILES IDX 63 98 64 99
REMARK H PARENT 22 5 2 15 26 30 88 49 54 60
REMARK Flexibility Score: inf
ROOT
ATOM      1  C   UNL A   1      33.738  26.879  25.284  1.00  0.00     0.118 C 
ENDROOT
BRANCH   1   2
ATOM      2  N   UNL A   1      33.954  26.663  23.890  1.00  0.00    -0.352 N 
ATOM      3  C   UNL A   1      33.077  26.773  22.839  1.00  0.00     0.251 C 
ATOM      4  O   UNL A   1      33.568  26.504  21.735  1.00  0.00    -0.269 OA
ATOM      5  H   UNL A   1      34.870  26.396  23.644  1.00  0.00     0.163 HD
BRANCH   3   6
ATOM      6  C   UNL A   1      31.600  27.138  22.888  1.00  0.00     0.048 A 
ATOM      7  C   UNL A   1      30.448  26.390  23.276  1.00  0.00     0.019 A 
ATOM      8  C   UNL A   1      29.238  27.100  23.481  1.00  0.00     0.010 A 
ATOM      9  C   UNL A   1      29.099  28.458  23.210  1.00  0.00     0.001 A 
ATOM     10  C   UNL A   1      31.414  28.519  22.603  1.00  0.00     0.014 A 
ATOM     11  C   UNL A   1      30.186  29.166  22.741  1.00  0.00     0.001 A 
BRANCH   7  12
ATOM     12  C   UNL A   1      30.391  24.886  23.468  1.00  0.00     0.299 C 
BRANCH  12  13
ATOM     13  N   UNL A   1      30.387  24.352  24.841  1.00  0.00    -0.330 N 
ATOM     14  C   UNL A   1      30.551  25.348  25.879  1.00  0.00     0.333 C 
ATOM     15  H   UNL A   1      29.423  24.046  24.975  1.00  0.00     0.348 HD
BRANCH  13  16
ATOM     16  C   UNL A   1      31.130  23.093  25.032  1.00  0.00     0.299 C 
BRANCH  16  17
ATOM     17  C   UNL A   1      32.575  23.351  24.631  1.00  0.00     0.009 A 
ATOM     18  C   UNL A   1      32.968  23.210  23.268  1.00  0.00     0.012 A 
ATOM     19  C   UNL A   1      33.512  23.459  25.686  1.00  0.00     0.041 A 
ATOM     20  C   UNL A   1      34.308  23.047  22.868  1.00  0.00     0.032 A 
ATOM     21  C   UNL A   1      34.861  23.235  25.341  1.00  0.00     0.105 A 
ATOM     22  C   UNL A   1      35.265  23.006  23.908  1.00  0.00     0.104 A 
ATOM     23  N   UNL A   1      35.883  23.144  26.205  1.00  0.00    -0.173 NA
ATOM     24  N   UNL A   1      36.574  22.739  23.770  1.00  0.00    -0.173 NA
ATOM     25  S   UNL A   1      37.221  22.763  25.300  1.00  0.00     0.069 S 
ENDBRANCH  16  17
ENDBRANCH  13  16
ENDBRANCH  12  13
ENDBRANCH   7  12
ENDBRANCH   3   6
ENDBRANCH   1   2
BRANCH   1  26
ATOM     26  C   UNL A   1      33.457  28.274  25.778  1.00  0.00     0.042 C 
BRANCH  26  27
ATOM     27  C   UNL A   1      33.378  28.464  27.275  1.00  0.00     0.118 C 
BRANCH  27  28
ATOM     28  N   UNL A   1      33.421  29.848  27.733  1.00  0.00    -0.352 N 
ATOM     29  C   UNL A   1      34.457  30.618  28.237  1.00  0.00     0.251 C 
ATOM     30  H   UNL A   1      32.559  30.318  27.675  1.00  0.00     0.163 HD
ATOM     31  O   UNL A   1      34.229  31.757  28.601  1.00  0.00    -0.269 OA
BRANCH  29  32
ATOM     32  C   UNL A   1      35.822  30.048  28.388  1.00  0.00     0.039 A 
ATOM     33  C   UNL A   1      36.702  30.084  27.301  1.00  0.00     0.014 A 
ATOM     34  C   UNL A   1      36.255  29.506  29.594  1.00  0.00     0.014 A 
ATOM     35  C   UNL A   1      38.032  29.683  27.471  1.00  0.00     0.010 A 
ATOM     36  C   UNL A   1      37.607  29.276  29.807  1.00  0.00     0.010 A 
ATOM     37  C   UNL A   1      38.514  29.334  28.743  1.00  0.00    -0.014 A 
BRANCH  37  38
ATOM     38  C   UNL A   1      39.939  28.984  28.983  1.00  0.00     0.031 A 
ATOM     39  C   UNL A   1      40.879  30.009  29.573  1.00  0.00     0.074 A 
ATOM     40  C   UNL A   1      40.409  27.777  28.605  1.00  0.00     0.049 A 
ATOM     41  N   UNL A   1      42.165  29.921  29.795  1.00  0.00    -0.248 NA
ATOM     42  C   UNL A   1      40.307  31.324  29.916  1.00  0.00     0.031 C 
ATOM     43  C   UNL A   1      39.625  26.729  27.944  1.00  0.00     0.029 A 
ATOM     44  N   UNL A   1      41.660  27.225  28.721  1.00  0.00    -0.354 N 
ATOM     45  C   UNL A   1      42.552  31.169  30.274  1.00  0.00     0.074 A 
ATOM     46  C   UNL A   1      41.387  32.020  30.229  1.00  0.00     0.031 C 
ATOM     47  C   UNL A   1      40.400  25.648  27.759  1.00  0.00     0.029 A 
ATOM     48  C   UNL A   1      41.742  25.935  28.250  1.00  0.00     0.049 A 
ATOM     49  H   UNL A   1      42.427  27.708  29.104  1.00  0.00     0.167 HD
ATOM     50  C   UNL A   1      43.758  31.562  30.749  1.00  0.00     0.037 A 
ATOM     51  C   UNL A   1      42.782  25.078  28.225  1.00  0.00     0.037 A 
ATOM     52  C   UNL A   1      44.900  30.695  30.841  1.00  0.00     0.049 A 
ATOM     53  C   UNL A   1      44.099  25.519  28.803  1.00  0.00     0.074 A 
ATOM     54  C   UNL A   1      46.148  30.965  31.372  1.00  0.00     0.029 A 
ATOM     55  N   UNL A   1      44.930  29.381  30.397  1.00  0.00    -0.354 N 
ATOM     56  N   UNL A   1      44.427  26.681  29.318  1.00  0.00    -0.248 NA
ATOM     57  C   UNL A   1      45.185  24.530  28.809  1.00  0.00     0.031 C 
ATOM     58  C   UNL A   1      46.946  29.826  31.213  1.00  0.00     0.029 A 
ATOM     59  C   UNL A   1      46.179  28.831  30.629  1.00  0.00     0.049 A 
ATOM     60  H   UNL A   1      44.174  28.909  29.977  1.00  0.00     0.167 HD
ATOM     61  C   UNL A   1      45.748  26.554  29.733  1.00  0.00     0.074 A 
ATOM     62  C   UNL A   1      46.150  25.196  29.426  1.00  0.00     0.031 C 
ATOM     63  C   UNL A   1      46.556  27.476  30.314  1.00  0.00     0.037 A 
BRANCH  50  64
ATOM     64  C   UNL A   1      43.887  32.985  31.228  1.00  0.00     0.058 A 
ATOM     65  C   UNL A   1      43.616  33.345  32.559  1.00  0.00     0.135 A 
ATOM     66  C   UNL A   1      44.299  34.001  30.349  1.00  0.00     0.135 A 
ATOM     67  F   UNL A   1      43.200  32.420  33.439  1.00  0.00    -0.206 F 
ATOM     68  C   UNL A   1      43.712  34.663  32.992  1.00  0.00     0.059 A 
ATOM     69  C   UNL A   1      44.434  35.321  30.770  1.00  0.00     0.059 A 
ATOM     70  F   UNL A   1      44.569  33.716  29.065  1.00  0.00    -0.206 F 
ATOM     71  C   UNL A   1      44.121  35.645  32.089  1.00  0.00     0.060 A 
BRANCH  71  72
ATOM     72  S   UNL A   1      44.243  37.350  32.669  1.00  0.00     0.124 S 
ATOM     73  O   UNL A   1      44.061  38.093  31.427  1.00  0.00    -0.237 OA
ATOM     74  O   UNL A   1      43.144  37.433  33.625  1.00  0.00    -0.237 OA
ATOM     75  O   UNL A   1      45.582  37.416  33.249  1.00  0.00    -0.744 OA
ENDBRANCH  71  72
ENDBRANCH  50  64
BRANCH  51  76
ATOM     76  C   UNL A   1      42.604  23.703  27.683  1.00  0.00     0.058 A 
ATOM     77  C   UNL A   1      42.683  23.456  26.304  1.00  0.00     0.135 A 
ATOM     78  C   UNL A   1      42.370  22.608  28.530  1.00  0.00     0.135 A 
ATOM     79  F   UNL A   1      42.902  24.469  25.454  1.00  0.00    -0.206 F 
ATOM     80  C   UNL A   1      42.519  22.177  25.781  1.00  0.00     0.059 A 
ATOM     81  C   UNL A   1      42.228  21.316  28.032  1.00  0.00     0.059 A 
ATOM     82  F   UNL A   1      42.307  22.787  29.858  1.00  0.00    -0.206 F 
ATOM     83  C   UNL A   1      42.294  21.113  26.654  1.00  0.00     0.060 A 
BRANCH  83  84
ATOM     84  S   UNL A   1      42.134  19.449  25.969  1.00  0.00     0.124 S 
ATOM     85  O   UNL A   1      42.970  19.540  24.778  1.00  0.00    -0.237 OA
ATOM     86  O   UNL A   1      42.653  18.621  27.054  1.00  0.00    -0.237 OA
ATOM     87  O   UNL A   1      40.700  19.322  25.728  1.00  0.00    -0.744 OA
ENDBRANCH  83  84
ENDBRANCH  51  76
BRANCH  63  88
ATOM     88  C   UNL A   1      47.945  27.032  30.684  1.00  0.00     0.058 A 
ATOM     89  C   UNL A   1      48.203  26.329  31.871  1.00  0.00     0.135 A 
ATOM     90  C   UNL A   1      49.026  27.297  29.828  1.00  0.00     0.135 A 
ATOM     91  F   UNL A   1      47.204  26.053  32.725  1.00  0.00    -0.206 F 
ATOM     92  C   UNL A   1      49.493  25.943  32.218  1.00  0.00     0.059 A 
ATOM     93  C   UNL A   1      50.319  26.892  30.140  1.00  0.00     0.059 A 
ATOM     94  F   UNL A   1      48.830  27.951  28.672  1.00  0.00    -0.206 F 
ATOM     95  C   UNL A   1      50.545  26.233  31.349  1.00  0.00     0.060 A 
BRANCH  95  96
ATOM     96  S   UNL A   1      52.215  25.730  31.811  1.00  0.00     0.124 S 
ATOM     97  O   UNL A   1      52.006  24.336  32.188  1.00  0.00    -0.237 OA
ATOM     98  O   UNL A   1      52.962  25.947  30.576  1.00  0.00    -0.237 OA
ATOM     99  O   UNL A   1      52.552  26.635  32.907  1.00  0.00    -0.744 OA
ENDBRANCH  95  96
ENDBRANCH  63  88
ENDBRANCH  37  38
ENDBRANCH  29  32
ENDBRANCH  27  28
ENDBRANCH  26  27
ENDBRANCH   1  26
TORSDOF 17
ENDMDL
MODEL 2
REMARK VINA RESULT:     -11.4      4.954     10.585
REMARK SMILES C[N@H+](Cc1ccc2nsnc2c1)Cc1ccccc1C(=O)NCCCNC(=O)c1ccc(-c2c3nc(c(-c4c(F)cc(S(=O)(=O)[O-])cc4F)c4ccc([nH]4)c(-c4c(F)cc(S(=O)(=O)[O-])cc4F)c4nc(c(-c5c(F)cc(S(=O)(=O)[O-])cc5F)c5ccc2[nH]5)C=C4)C=C3)cc1
REMARK SMILES IDX 23 1 22 2 20 3 21 4 19 6 14 7 15 8 16 9 18 10 17 11 13 12
REMARK SMILES IDX 2 13 1 14 3 16 4 17 5 18 12 19 6 20 11 21 7 22 10 23 8 24
REMARK SMILES IDX 9 25 24 26 25 27 26 28 27 29 28 31 29 32 30 33 94 34 31 35
REMARK SMILES IDX 93 36 32 37 33 38 34 39 87 40 35 41 92 42 86 43 88 44 36 45
REMARK SMILES IDX 91 46 85 47 84 48 37 50 71 51 50 52 70 53 51 54 54 55 69 56
REMARK SMILES IDX 89 57 52 58 53 59 68 61 90 62 55 63 38 64 39 65 48 66 40 67
REMARK SMILES IDX 41 68 47 69 49 70 42 71 43 72 44 73 45 74 46 75 72 76 73 77
REMARK SMILES IDX 82 78 74 79 75 80 81 81 83 82 76 83 77 84 78 85 79 86 80 87
REMARK SMILES IDX 56 88 57 89 66 90 58 91 59 92 65 93 67 94 60 95 61 96 62 97
REMARK SMILES IDX 63 98 64 99
REMARK H PARENT 22 5 2 15 26 30 88 49 54 60
REMARK Flexibility Score: inf
ROOT
ATOM      1  C   UNL A   1      36.423  22.767  25.678  1.00  0.00     0.118 C 
ENDROOT
BRANCH   1   2
ATOM      2  N   UNL A   1      35.513  22.673  26.774  1.00  0.00    -0.352 N 
ATOM      3  C   UNL A   1      34.215  22.226  26.800  1.00  0.00     0.251 C 
ATOM      4  O   UNL A   1      33.679  22.281  27.914  1.00  0.00    -0.269 OA
ATOM      5  H   UNL A   1      35.870  22.973  27.641  1.00  0.00     0.163 HD
BRANCH   3   6
ATOM      6  C   UNL A   1      33.375  21.725  25.634  1.00  0.00     0.048 A 
ATOM      7  C   UNL A   1      32.533  22.407  24.706  1.00  0.00     0.019 A 
ATOM      8  C   UNL A   1      32.106  21.698  23.555  1.00  0.00     0.010 A 
ATOM      9  C   UNL A   1      32.373  20.347  23.354  1.00  0.00     0.001 A 
ATOM     10  C   UNL A   1      33.609  20.341  25.404  1.00  0.00     0.014 A 
ATOM     11  C   UNL A   1      33.105  19.657  24.298  1.00  0.00     0.001 A 
BRANCH   7  12
ATOM     12  C   UNL A   1      32.025  23.831  24.850  1.00  0.00     0.299 C 
BRANCH  12  13
ATOM     13  N   UNL A   1      32.604  24.874  23.985  1.00  0.00    -0.330 N 
ATOM     14  C   UNL A   1      33.158  26.009  24.692  1.00  0.00     0.333 C 
ATOM     15  H   UNL A   1      33.433  24.426  23.594  1.00  0.00     0.348 HD
BRANCH  13  16
ATOM     16  C   UNL A   1      31.830  25.186  22.769  1.00  0.00     0.299 C 
BRANCH  16  17
ATOM     17  C   UNL A   1      30.860  26.305  23.120  1.00  0.00     0.009 A 
ATOM     18  C   UNL A   1      29.681  26.013  23.866  1.00  0.00     0.012 A 
ATOM     19  C   UNL A   1      31.053  27.539  22.453  1.00  0.00     0.041 A 
ATOM     20  C   UNL A   1      28.564  26.870  23.904  1.00  0.00     0.032 A 
ATOM     21  C   UNL A   1      29.937  28.399  22.409  1.00  0.00     0.105 A 
ATOM     22  C   UNL A   1      28.662  28.051  23.131  1.00  0.00     0.104 A 
ATOM     23  N   UNL A   1      29.858  29.540  21.708  1.00  0.00    -0.173 NA
ATOM     24  N   UNL A   1      27.682  28.944  22.923  1.00  0.00    -0.173 NA
ATOM     25  S   UNL A   1      28.309  30.099  21.907  1.00  0.00     0.069 S 
ENDBRANCH  16  17
ENDBRANCH  13  16
ENDBRANCH  12  13
ENDBRANCH   7  12
ENDBRANCH   3   6
ENDBRANCH   1   2
BRANCH   1  26
ATOM     26  C   UNL A   1      37.901  22.640  25.936  1.00  0.00     0.042 C 
BRANCH  26  27
ATOM     27  C   UNL A   1      38.616  23.877  26.431  1.00  0.00     0.118 C 
BRANCH  27  28
ATOM     28  N   UNL A   1      40.033  23.956  26.097  1.00  0.00    -0.352 N 
ATOM     29  C   UNL A   1      41.033  24.813  26.527  1.00  0.00     0.251 C 
ATOM     30  H   UNL A   1      40.333  23.278  25.450  1.00  0.00     0.163 HD
ATOM     31  O   UNL A   1      42.152  24.705  26.059  1.00  0.00    -0.269 OA
BRANCH  29  32
ATOM     32  C   UNL A   1      40.737  25.893  27.506  1.00  0.00     0.039 A 
ATOM     33  C   UNL A   1      39.727  25.699  28.454  1.00  0.00     0.014 A 
ATOM     34  C   UNL A   1      41.461  27.081  27.520  1.00  0.00     0.014 A 
ATOM     35  C   UNL A   1      39.535  26.644  29.468  1.00  0.00     0.010 A 
ATOM     36  C   UNL A   1      41.389  27.926  28.618  1.00  0.00     0.010 A 
ATOM     37  C   UNL A   1      40.407  27.737  29.596  1.00  0.00    -0.014 A 
BRANCH  37  38
ATOM     38  C   UNL A   1      40.291  28.718  30.708  1.00  0.00     0.031 A 
ATOM     39  C   UNL A   1      41.176  28.587  31.925  1.00  0.00     0.074 A 
ATOM     40  C   UNL A   1      39.344  29.679  30.662  1.00  0.00     0.049 A 
ATOM     41  N   UNL A   1      41.182  29.297  33.024  1.00  0.00    -0.248 NA
ATOM     42  C   UNL A   1      42.153  27.484  31.928  1.00  0.00     0.031 C 
ATOM     43  C   UNL A   1      38.369  29.860  29.583  1.00  0.00     0.029 A 
ATOM     44  N   UNL A   1      39.045  30.686  31.545  1.00  0.00    -0.354 N 
ATOM     45  C   UNL A   1      42.137  28.710  33.849  1.00  0.00     0.074 A 
ATOM     46  C   UNL A   1      42.627  27.538  33.162  1.00  0.00     0.031 C 
ATOM     47  C   UNL A   1      37.615  30.940  29.845  1.00  0.00     0.029 A 
ATOM     48  C   UNL A   1      38.024  31.506  31.125  1.00  0.00     0.049 A 
ATOM     49  H   UNL A   1      39.517  30.809  32.400  1.00  0.00     0.167 HD
ATOM     50  C   UNL A   1      42.597  29.129  35.051  1.00  0.00     0.037 A 
ATOM     51  C   UNL A   1      37.485  32.597  31.704  1.00  0.00     0.037 A 
ATOM     52  C   UNL A   1      42.143  30.326  35.706  1.00  0.00     0.049 A 
ATOM     53  C   UNL A   1      38.045  33.073  33.016  1.00  0.00     0.074 A 
ATOM     54  C   UNL A   1      42.591  30.885  36.889  1.00  0.00     0.029 A 
ATOM     55  N   UNL A   1      41.140  31.155  35.226  1.00  0.00    -0.354 N 
ATOM     56  N   UNL A   1      38.998  32.545  33.747  1.00  0.00    -0.248 NA
ATOM     57  C   UNL A   1      37.466  34.301  33.577  1.00  0.00     0.031 C 
ATOM     58  C   UNL A   1      41.831  32.031  37.145  1.00  0.00     0.029 A 
ATOM     59  C   UNL A   1      40.945  32.214  36.095  1.00  0.00     0.049 A 
ATOM     60  H   UNL A   1      40.640  31.011  34.389  1.00  0.00     0.167 HD
ATOM     61  C   UNL A   1      39.151  33.390  34.841  1.00  0.00     0.074 A 
ATOM     62  C   UNL A   1      38.205  34.474  34.664  1.00  0.00     0.031 C 
ATOM     63  C   UNL A   1      39.996  33.281  35.897  1.00  0.00     0.037 A 
BRANCH  50  64
ATOM     64  C   UNL A   1      43.662  28.297  35.717  1.00  0.00     0.058 A 
ATOM     65  C   UNL A   1      45.029  28.502  35.459  1.00  0.00     0.135 A 
ATOM     66  C   UNL A   1      43.316  27.291  36.634  1.00  0.00     0.135 A 
ATOM     67  F   UNL A   1      45.418  29.436  34.577  1.00  0.00    -0.206 F 
ATOM     68  C   UNL A   1      46.009  27.716  36.056  1.00  0.00     0.059 A 
ATOM     69  C   UNL A   1      44.283  26.516  37.269  1.00  0.00     0.059 A 
ATOM     70  F   UNL A   1      42.026  27.050  36.917  1.00  0.00    -0.206 F 
ATOM     71  C   UNL A   1      45.625  26.724  36.959  1.00  0.00     0.060 A 
BRANCH  71  72
ATOM     72  S   UNL A   1      46.911  25.716  37.727  1.00  0.00     0.124 S 
ATOM     73  O   UNL A   1      46.577  24.387  37.225  1.00  0.00    -0.237 OA
ATOM     74  O   UNL A   1      48.133  26.308  37.191  1.00  0.00    -0.237 OA
ATOM     75  O   UNL A   1      46.694  25.920  39.157  1.00  0.00    -0.744 OA
ENDBRANCH  71  72
ENDBRANCH  50  64
BRANCH  51  76
ATOM     76  C   UNL A   1      36.392  33.341  31.021  1.00  0.00     0.058 A 
ATOM     77  C   UNL A   1      35.077  33.300  31.509  1.00  0.00     0.135 A 
ATOM     78  C   UNL A   1      36.639  34.122  29.881  1.00  0.00     0.135 A 
ATOM     79  F   UNL A   1      34.788  32.566  32.594  1.00  0.00    -0.206 F 
ATOM     80  C   UNL A   1      34.043  33.989  30.883  1.00  0.00     0.059 A 
ATOM     81  C   UNL A   1      35.627  34.841  29.252  1.00  0.00     0.059 A 
ATOM     82  F   UNL A   1      37.883  34.213  29.386  1.00  0.00    -0.206 F 
ATOM     83  C   UNL A   1      34.329  34.760  29.755  1.00  0.00     0.060 A 
BRANCH  83  84
ATOM     84  S   UNL A   1      32.990  35.692  28.980  1.00  0.00     0.124 S 
ATOM     85  O   UNL A   1      33.722  36.777  28.337  1.00  0.00    -0.237 OA
ATOM     86  O   UNL A   1      32.402  34.698  28.087  1.00  0.00    -0.237 OA
ATOM     87  O   UNL A   1      32.152  36.078  30.112  1.00  0.00    -0.744 OA
ENDBRANCH  83  84
ENDBRANCH  51  76
BRANCH  63  88
ATOM     88  C   UNL A   1      39.954  34.380  36.923  1.00  0.00     0.058 A 
ATOM     89  C   UNL A   1      39.017  34.379  37.968  1.00  0.00     0.135 A 
ATOM     90  C   UNL A   1      40.878  35.435  36.869  1.00  0.00     0.135 A 
ATOM     91  F   UNL A   1      38.109  33.394  38.062  1.00  0.00    -0.206 F 
ATOM     92  C   UNL A   1      38.969  35.412  38.899  1.00  0.00     0.059 A 
ATOM     93  C   UNL A   1      40.869  36.461  37.808  1.00  0.00     0.059 A 
ATOM     94  F   UNL A   1      41.807  35.475  35.900  1.00  0.00    -0.206 F 
ATOM     95  C   UNL A   1      39.896  36.451  38.808  1.00  0.00     0.060 A 
BRANCH  95  96
ATOM     96  S   UNL A   1      39.823  37.786  40.019  1.00  0.00     0.124 S 
ATOM     97  O   UNL A   1      38.639  38.516  39.577  1.00  0.00    -0.237 OA
ATOM     98  O   UNL A   1      39.687  37.060  41.278  1.00  0.00    -0.237 OA
ATOM     99  O   UNL A   1      41.094  38.481  39.836  1.00  0.00    -0.744 OA
ENDBRANCH  95  96
ENDBRANCH  63  88
ENDBRANCH  37  38
ENDBRANCH  29  32
ENDBRANCH  27  28
ENDBRANCH  26  27
ENDBRANCH   1  26
TORSDOF 17
ENDMDL
MODEL 3
REMARK VINA RESULT:     -11.4      4.802     10.444
REMARK SMILES C[N@H+](Cc1ccc2nsnc2c1)Cc1ccccc1C(=O)NCCCNC(=O)c1ccc(-c2c3nc(c(-c4c(F)cc(S(=O)(=O)[O-])cc4F)c4ccc([nH]4)c(-c4c(F)cc(S(=O)(=O)[O-])cc4F)c4nc(c(-c5c(F)cc(S(=O)(=O)[O-])cc5F)c5ccc2[nH]5)C=C4)C=C3)cc1
REMARK SMILES IDX 23 1 22 2 20 3 21 4 19 6 14 7 15 8 16 9 18 10 17 11 13 12
REMARK SMILES IDX 2 13 1 14 3 16 4 17 5 18 12 19 6 20 11 21 7 22 10 23 8 24
REMARK SMILES IDX 9 25 24 26 25 27 26 28 27 29 28 31 29 32 30 33 94 34 31 35
REMARK SMILES IDX 93 36 32 37 33 38 34 39 87 40 35 41 92 42 86 43 88 44 36 45
REMARK SMILES IDX 91 46 85 47 84 48 37 50 71 51 50 52 70 53 51 54 54 55 69 56
REMARK SMILES IDX 89 57 52 58 53 59 68 61 90 62 55 63 38 64 39 65 48 66 40 67
REMARK SMILES IDX 41 68 47 69 49 70 42 71 43 72 44 73 45 74 46 75 72 76 73 77
REMARK SMILES IDX 82 78 74 79 75 80 81 81 83 82 76 83 77 84 78 85 79 86 80 87
REMARK SMILES IDX 56 88 57 89 66 90 58 91 59 92 65 93 67 94 60 95 61 96 62 97
REMARK SMILES IDX 63 98 64 99
REMARK H PARENT 22 5 2 15 26 30 88 49 54 60
REMARK Flexibility Score: inf
ROOT
ATOM      1  C   UNL A   1      37.572  22.195  25.678  1.00  0.00     0.118 C 
ENDROOT
BRANCH   1   2
ATOM      2  N   UNL A   1      37.382  22.674  24.347  1.00  0.00    -0.352 N 
ATOM      3  C   UNL A   1      36.250  22.676  23.569  1.00  0.00     0.251 C 
ATOM      4  O   UNL A   1      36.409  23.154  22.439  1.00  0.00    -0.269 OA
ATOM      5  H   UNL A   1      38.181  23.062  23.923  1.00  0.00     0.163 HD
BRANCH   3   6
ATOM      6  C   UNL A   1      34.873  22.130  23.921  1.00  0.00     0.048 A 
ATOM      7  C   UNL A   1      33.588  22.343  23.340  1.00  0.00     0.019 A 
ATOM      8  C   UNL A   1      32.538  21.469  23.717  1.00  0.00     0.010 A 
ATOM      9  C   UNL A   1      32.677  20.500  24.706  1.00  0.00     0.001 A 
ATOM     10  C   UNL A   1      34.970  21.142  24.941  1.00  0.00     0.014 A 
ATOM     11  C   UNL A   1      33.892  20.354  25.342  1.00  0.00     0.001 A 
BRANCH   7  12
ATOM     12  C   UNL A   1      33.230  23.447  22.361  1.00  0.00     0.299 C 
BRANCH  12  13
ATOM     13  N   UNL A   1      32.772  24.741  22.897  1.00  0.00    -0.330 N 
ATOM     14  C   UNL A   1      31.350  24.978  22.776  1.00  0.00     0.333 C 
ATOM     15  H   UNL A   1      32.897  24.639  23.905  1.00  0.00     0.348 HD
BRANCH  13  16
ATOM     16  C   UNL A   1      33.645  25.891  22.602  1.00  0.00     0.299 C 
BRANCH  16  17
ATOM     17  C   UNL A   1      33.731  26.736  23.865  1.00  0.00     0.009 A 
ATOM     18  C   UNL A   1      33.995  26.112  25.119  1.00  0.00     0.012 A 
ATOM     19  C   UNL A   1      33.277  28.073  23.760  1.00  0.00     0.041 A 
ATOM     20  C   UNL A   1      33.716  26.724  26.356  1.00  0.00     0.032 A 
ATOM     21  C   UNL A   1      32.922  28.702  24.971  1.00  0.00     0.105 A 
ATOM     22  C   UNL A   1      33.126  28.009  26.292  1.00  0.00     0.104 A 
ATOM     23  N   UNL A   1      32.335  29.903  25.084  1.00  0.00    -0.173 NA
ATOM     24  N   UNL A   1      32.668  28.721  27.334  1.00  0.00    -0.173 NA
ATOM     25  S   UNL A   1      32.031  30.119  26.701  1.00  0.00     0.069 S 
ENDBRANCH  16  17
ENDBRANCH  13  16
ENDBRANCH  12  13
ENDBRANCH   7  12
ENDBRANCH   3   6
ENDBRANCH   1   2
BRANCH   1  26
ATOM     26  C   UNL A   1      38.964  22.158  26.254  1.00  0.00     0.042 C 
BRANCH  26  27
ATOM     27  C   UNL A   1      39.525  23.465  26.767  1.00  0.00     0.118 C 
BRANCH  27  28
ATOM     28  N   UNL A   1      40.764  23.904  26.137  1.00  0.00    -0.352 N 
ATOM     29  C   UNL A   1      41.549  25.029  26.335  1.00  0.00     0.251 C 
ATOM     30  H   UNL A   1      41.104  23.291  25.446  1.00  0.00     0.163 HD
ATOM     31  O   UNL A   1      42.533  25.198  25.639  1.00  0.00    -0.269 OA
BRANCH  29  32
ATOM     32  C   UNL A   1      41.166  26.052  27.345  1.00  0.00     0.039 A 
ATOM     33  C   UNL A   1      40.261  25.711  28.355  1.00  0.00     0.014 A 
ATOM     34  C   UNL A   1      41.711  27.331  27.326  1.00  0.00     0.014 A 
ATOM     35  C   UNL A   1      40.003  26.614  29.392  1.00  0.00     0.010 A 
ATOM     36  C   UNL A   1      41.593  28.154  28.438  1.00  0.00     0.010 A 
ATOM     37  C   UNL A   1      40.716  27.822  29.476  1.00  0.00    -0.014 A 
BRANCH  37  38
ATOM     38  C   UNL A   1      40.534  28.772  30.606  1.00  0.00     0.031 A 
ATOM     39  C   UNL A   1      41.390  28.644  31.844  1.00  0.00     0.074 A 
ATOM     40  C   UNL A   1      39.556  29.700  30.555  1.00  0.00     0.049 A 
ATOM     41  N   UNL A   1      41.341  29.327  32.959  1.00  0.00    -0.248 NA
ATOM     42  C   UNL A   1      42.405  27.574  31.850  1.00  0.00     0.031 C 
ATOM     43  C   UNL A   1      38.605  29.872  29.453  1.00  0.00     0.029 A 
ATOM     44  N   UNL A   1      39.198  30.675  31.452  1.00  0.00    -0.354 N 
ATOM     45  C   UNL A   1      42.293  28.755  33.796  1.00  0.00     0.074 A 
ATOM     46  C   UNL A   1      42.843  27.617  33.098  1.00  0.00     0.031 C 
ATOM     47  C   UNL A   1      37.806  30.919  29.718  1.00  0.00     0.029 A 
ATOM     48  C   UNL A   1      38.160  31.469  31.022  1.00  0.00     0.049 A 
ATOM     49  H   UNL A   1      39.642  30.795  32.322  1.00  0.00     0.167 HD
ATOM     50  C   UNL A   1      42.706  29.161  35.021  1.00  0.00     0.037 A 
ATOM     51  C   UNL A   1      37.567  32.527  31.609  1.00  0.00     0.037 A 
ATOM     52  C   UNL A   1      42.192  30.326  35.688  1.00  0.00     0.049 A 
ATOM     53  C   UNL A   1      38.074  32.991  32.947  1.00  0.00     0.074 A 
ATOM     54  C   UNL A   1      42.587  30.872  36.896  1.00  0.00     0.029 A 
ATOM     55  N   UNL A   1      41.173  31.131  35.199  1.00  0.00    -0.354 N 
ATOM     56  N   UNL A   1      39.025  32.480  33.693  1.00  0.00    -0.248 NA
ATOM     57  C   UNL A   1      37.437  34.185  33.518  1.00  0.00     0.031 C 
ATOM     58  C   UNL A   1      41.780  31.986  37.156  1.00  0.00     0.029 A 
ATOM     59  C   UNL A   1      40.918  32.162  36.086  1.00  0.00     0.049 A 
ATOM     60  H   UNL A   1      40.702  30.989  34.345  1.00  0.00     0.167 HD
ATOM     61  C   UNL A   1      39.118  33.304  34.809  1.00  0.00     0.074 A 
ATOM     62  C   UNL A   1      38.139  34.358  34.629  1.00  0.00     0.031 C 
ATOM     63  C   UNL A   1      39.937  33.200  35.886  1.00  0.00     0.037 A 
BRANCH  50  64
ATOM     64  C   UNL A   1      43.781  28.352  35.698  1.00  0.00     0.058 A 
ATOM     65  C   UNL A   1      43.471  27.318  36.598  1.00  0.00     0.135 A 
ATOM     66  C   UNL A   1      45.138  28.603  35.436  1.00  0.00     0.135 A 
ATOM     67  F   UNL A   1      42.192  27.046  36.901  1.00  0.00    -0.206 F 
ATOM     68  C   UNL A   1      44.466  26.589  37.240  1.00  0.00     0.059 A 
ATOM     69  C   UNL A   1      46.149  27.863  36.043  1.00  0.00     0.059 A 
ATOM     70  F   UNL A   1      45.493  29.581  34.587  1.00  0.00    -0.206 F 
ATOM     71  C   UNL A   1      45.803  26.870  36.957  1.00  0.00     0.060 A 
BRANCH  71  72
ATOM     72  S   UNL A   1      47.080  25.911  37.799  1.00  0.00     0.124 S 
ATOM     73  O   UNL A   1      47.244  26.668  39.036  1.00  0.00    -0.237 OA
ATOM     74  O   UNL A   1      46.449  24.603  37.935  1.00  0.00    -0.237 OA
ATOM     75  O   UNL A   1      48.210  25.966  36.875  1.00  0.00    -0.744 OA
ENDBRANCH  71  72
ENDBRANCH  50  64
BRANCH  51  76
ATOM     76  C   UNL A   1      36.468  33.248  30.912  1.00  0.00     0.058 A 
ATOM     77  C   UNL A   1      35.141  33.145  31.359  1.00  0.00     0.135 A 
ATOM     78  C   UNL A   1      36.719  34.068  29.801  1.00  0.00     0.135 A 
ATOM     79  F   UNL A   1      34.848  32.372  32.415  1.00  0.00    -0.206 F 
ATOM     80  C   UNL A   1      34.101  33.812  30.719  1.00  0.00     0.059 A 
ATOM     81  C   UNL A   1      35.700  34.765  29.160  1.00  0.00     0.059 A 
ATOM     82  F   UNL A   1      37.973  34.218  29.347  1.00  0.00    -0.206 F 
ATOM     83  C   UNL A   1      34.391  34.623  29.621  1.00  0.00     0.060 A 
BRANCH  83  84
ATOM     84  S   UNL A   1      33.042  35.526  28.830  1.00  0.00     0.124 S 
ATOM     85  O   UNL A   1      33.771  36.512  28.042  1.00  0.00    -0.237 OA
ATOM     86  O   UNL A   1      32.370  34.473  28.074  1.00  0.00    -0.237 OA
ATOM     87  O   UNL A   1      32.283  36.054  29.961  1.00  0.00    -0.744 OA
ENDBRANCH  83  84
ENDBRANCH  51  76
BRANCH  63  88
ATOM     88  C   UNL A   1      39.829  34.272  36.934  1.00  0.00     0.058 A 
ATOM     89  C   UNL A   1      40.502  35.498  36.808  1.00  0.00     0.135 A 
ATOM     90  C   UNL A   1      39.025  34.077  38.068  1.00  0.00     0.135 A 
ATOM     91  F   UNL A   1      41.285  35.733  35.744  1.00  0.00    -0.206 F 
ATOM     92  C   UNL A   1      40.416  36.475  37.793  1.00  0.00     0.059 A 
ATOM     93  C   UNL A   1      38.900  35.053  39.050  1.00  0.00     0.059 A 
ATOM     94  F   UNL A   1      38.347  32.930  38.229  1.00  0.00    -0.206 F 
ATOM     95  C   UNL A   1      39.617  36.242  38.913  1.00  0.00     0.060 A 
BRANCH  95  96
ATOM     96  S   UNL A   1      39.516  37.517  40.186  1.00  0.00     0.124 S 
ATOM     97  O   UNL A   1      38.591  38.466  39.575  1.00  0.00    -0.237 OA
ATOM     98  O   UNL A   1      38.998  36.776  41.332  1.00  0.00    -0.237 OA
ATOM     99  O   UNL A   1      40.895  37.978  40.316  1.00  0.00    -0.744 OA
ENDBRANCH  95  96
ENDBRANCH  63  88
ENDBRANCH  37  38
ENDBRANCH  29  32
ENDBRANCH  27  28
ENDBRANCH  26  27
ENDBRANCH   1  26
TORSDOF 17
ENDMDL
