MODEL 1
REMARK VINA RESULT:     -12.4      0.000      0.000
REMARK SMILES CS(=O)(=O)c1ccc(/C=C(/C(=O)NCCCNC(=O)c2ccc(-c3c4nc(c(-c5c(F)cc(S(=O)(=O)[O-])cc5F)c5ccc([nH]5)c(-c5c(F)cc(S(=O)(=O)[O-])cc5F)c5nc(c(-c6c(F)cc(S(=O)(=O)[O-])cc6F)c6ccc3[nH]6)C=C5)C=C4)cc2)c2ccc(F)cc2)cc1
REMARK SMILES IDX 15 1 14 2 13 3 11 4 12 5 10 7 9 8 8 9 5 10 6 11 94 12 7 13
REMARK SMILES IDX 93 14 2 15 1 16 3 17 4 18 86 19 87 20 92 21 88 22 91 23
REMARK SMILES IDX 89 24 90 25 16 26 17 27 18 28 19 30 20 31 21 32 85 33 22 34
REMARK SMILES IDX 84 35 23 36 24 37 25 38 78 39 26 40 83 41 77 42 79 43 27 44
REMARK SMILES IDX 82 45 76 46 75 47 28 49 62 50 41 51 61 52 42 53 45 54 60 55
REMARK SMILES IDX 80 56 43 57 44 58 59 60 81 61 46 62 29 63 30 64 39 65 31 66
REMARK SMILES IDX 32 67 38 68 40 69 33 70 34 71 35 72 36 73 37 74 63 75 64 76
REMARK SMILES IDX 73 77 65 78 66 79 72 80 74 81 67 82 68 83 69 84 70 85 71 86
REMARK SMILES IDX 47 87 48 88 57 89 49 90 50 91 56 92 58 93 51 94 52 95 53 96
REMARK SMILES IDX 54 97 55 98
REMARK H PARENT 13 6 17 29 79 48 45 59
REMARK Flexibility Score: inf
ROOT
ATOM      1  C   UNL A   1      36.753  23.708  25.236  1.00  0.00     0.042 C 
ENDROOT
BRANCH   1   2
ATOM      2  C   UNL A   1      35.433  24.445  25.003  1.00  0.00     0.118 C 
BRANCH   2   3
ATOM      3  N   UNL A   1      34.370  23.865  25.804  1.00  0.00    -0.352 N 
ATOM      4  C   UNL A   1      33.112  24.257  26.138  1.00  0.00     0.251 C 
ATOM      5  O   UNL A   1      32.483  23.484  26.866  1.00  0.00    -0.269 OA
ATOM      6  H   UNL A   1      34.613  22.994  26.190  1.00  0.00     0.163 HD
BRANCH   4   7
ATOM      7  C   UNL A   1      32.449  25.503  25.598  1.00  0.00     0.047 C 
ATOM      8  C   UNL A   1      31.618  25.462  24.530  1.00  0.00     0.022 C 
BRANCH   8   9
ATOM      9  C   UNL A   1      30.807  26.541  23.922  1.00  0.00    -0.025 A 
ATOM     10  C   UNL A   1      29.148  28.584  22.927  1.00  0.00     0.067 A 
ATOM     11  C   UNL A   1      30.522  28.632  22.698  1.00  0.00     0.021 A 
ATOM     12  C   UNL A   1      28.588  27.503  23.611  1.00  0.00     0.021 A 
ATOM     13  C   UNL A   1      31.339  27.599  23.174  1.00  0.00     0.009 A 
ATOM     14  C   UNL A   1      29.416  26.488  24.101  1.00  0.00     0.009 A 
BRANCH  10  15
ATOM     15  S   UNL A   1      28.058  29.885  22.404  1.00  0.00     0.175 S 
ATOM     16  C   UNL A   1      28.725  31.406  23.016  1.00  0.00     0.163 C 
ATOM     17  O   UNL A   1      26.801  29.675  23.097  1.00  0.00    -0.224 OA
ATOM     18  O   UNL A   1      28.121  29.926  20.956  1.00  0.00    -0.224 OA
ENDBRANCH  10  15
ENDBRANCH   8   9
BRANCH   7  19
ATOM     19  C   UNL A   1      32.888  26.797  26.181  1.00  0.00    -0.013 A 
ATOM     20  C   UNL A   1      32.031  27.455  27.086  1.00  0.00     0.012 A 
ATOM     21  C   UNL A   1      34.148  27.351  25.917  1.00  0.00     0.012 A 
ATOM     22  C   UNL A   1      32.431  28.623  27.731  1.00  0.00     0.040 A 
ATOM     23  C   UNL A   1      34.554  28.516  26.577  1.00  0.00     0.040 A 
ATOM     24  C   UNL A   1      33.696  29.137  27.478  1.00  0.00     0.123 A 
ATOM     25  F   UNL A   1      34.098  30.240  28.122  1.00  0.00    -0.207 F 
ENDBRANCH   7  19
ENDBRANCH   4   7
ENDBRANCH   2   3
ENDBRANCH   1   2
BRANCH   1  26
ATOM     26  C   UNL A   1      37.681  24.405  26.234  1.00  0.00     0.118 C 
BRANCH  26  27
ATOM     27  N   UNL A   1      39.070  24.004  26.065  1.00  0.00    -0.352 N 
ATOM     28  C   UNL A   1      40.221  24.585  26.535  1.00  0.00     0.251 C 
ATOM     29  H   UNL A   1      39.204  23.188  25.530  1.00  0.00     0.163 HD
ATOM     30  O   UNL A   1      41.303  24.218  26.084  1.00  0.00    -0.269 OA
BRANCH  28  31
ATOM     31  C   UNL A   1      40.170  25.645  27.566  1.00  0.00     0.039 A 
ATOM     32  C   UNL A   1      39.280  25.502  28.635  1.00  0.00     0.014 A 
ATOM     33  C   UNL A   1      40.952  26.798  27.460  1.00  0.00     0.014 A 
ATOM     34  C   UNL A   1      39.212  26.489  29.621  1.00  0.00     0.010 A 
ATOM     35  C   UNL A   1      40.932  27.750  28.478  1.00  0.00     0.010 A 
ATOM     36  C   UNL A   1      40.057  27.608  29.567  1.00  0.00    -0.014 A 
BRANCH  36  37
ATOM     37  C   UNL A   1      40.047  28.633  30.643  1.00  0.00     0.031 A 
ATOM     38  C   UNL A   1      40.919  28.473  31.859  1.00  0.00     0.074 A 
ATOM     39  C   UNL A   1      39.192  29.671  30.561  1.00  0.00     0.049 A 
ATOM     40  N   UNL A   1      40.994  29.225  32.927  1.00  0.00    -0.248 NA
ATOM     41  C   UNL A   1      41.798  27.293  31.894  1.00  0.00     0.031 C 
ATOM     42  C   UNL A   1      38.249  29.900  29.464  1.00  0.00     0.029 A 
ATOM     43  N   UNL A   1      38.959  30.714  31.421  1.00  0.00    -0.354 N 
ATOM     44  C   UNL A   1      41.908  28.601  33.769  1.00  0.00     0.074 A 
ATOM     45  C   UNL A   1      42.327  27.384  33.105  1.00  0.00     0.031 C 
ATOM     46  C   UNL A   1      37.545  31.015  29.714  1.00  0.00     0.029 A 
ATOM     47  C   UNL A   1      37.961  31.562  31.002  1.00  0.00     0.049 A 
ATOM     48  H   UNL A   1      39.459  30.843  32.259  1.00  0.00     0.167 HD
ATOM     49  C   UNL A   1      42.367  29.012  34.976  1.00  0.00     0.037 A 
ATOM     50  C   UNL A   1      37.431  32.651  31.592  1.00  0.00     0.037 A 
ATOM     51  C   UNL A   1      41.965  30.239  35.615  1.00  0.00     0.049 A 
ATOM     52  C   UNL A   1      37.981  33.112  32.912  1.00  0.00     0.074 A 
ATOM     53  C   UNL A   1      42.438  30.791  36.793  1.00  0.00     0.029 A 
ATOM     54  N   UNL A   1      40.987  31.099  35.136  1.00  0.00    -0.354 N 
ATOM     55  N   UNL A   1      38.912  32.559  33.653  1.00  0.00    -0.248 NA
ATOM     56  C   UNL A   1      37.419  34.347  33.472  1.00  0.00     0.031 C 
ATOM     57  C   UNL A   1      41.712  31.961  37.050  1.00  0.00     0.029 A 
ATOM     58  C   UNL A   1      40.822  32.163  36.008  1.00  0.00     0.049 A 
ATOM     59  H   UNL A   1      40.483  30.971  34.300  1.00  0.00     0.167 HD
ATOM     60  C   UNL A   1      39.060  33.388  34.759  1.00  0.00     0.074 A 
ATOM     61  C   UNL A   1      38.133  34.488  34.582  1.00  0.00     0.031 C 
ATOM     62  C   UNL A   1      39.889  33.249  35.823  1.00  0.00     0.037 A 
BRANCH  49  63
ATOM     63  C   UNL A   1      43.348  28.120  35.687  1.00  0.00     0.058 A 
ATOM     64  C   UNL A   1      44.733  28.217  35.470  1.00  0.00     0.135 A 
ATOM     65  C   UNL A   1      42.899  27.158  36.608  1.00  0.00     0.135 A 
ATOM     66  F   UNL A   1      45.219  29.110  34.593  1.00  0.00    -0.206 F 
ATOM     67  C   UNL A   1      45.631  27.364  36.103  1.00  0.00     0.059 A 
ATOM     68  C   UNL A   1      43.784  26.315  37.276  1.00  0.00     0.059 A 
ATOM     69  F   UNL A   1      41.588  27.024  36.860  1.00  0.00    -0.206 F 
ATOM     70  C   UNL A   1      45.147  26.411  36.999  1.00  0.00     0.060 A 
BRANCH  70  71
ATOM     71  S   UNL A   1      46.322  25.294  37.794  1.00  0.00     0.124 S 
ATOM     72  O   UNL A   1      47.103  26.226  38.603  1.00  0.00    -0.237 OA
ATOM     73  O   UNL A   1      45.445  24.393  38.536  1.00  0.00    -0.237 OA
ATOM     74  O   UNL A   1      47.031  24.691  36.671  1.00  0.00    -0.744 OA
ENDBRANCH  70  71
ENDBRANCH  49  63
BRANCH  50  75
ATOM     75  C   UNL A   1      36.327  33.380  30.915  1.00  0.00     0.058 A 
ATOM     76  C   UNL A   1      35.010  33.303  31.391  1.00  0.00     0.135 A 
ATOM     77  C   UNL A   1      36.580  34.220  29.818  1.00  0.00     0.135 A 
ATOM     78  F   UNL A   1      34.718  32.509  32.432  1.00  0.00    -0.206 F 
ATOM     79  C   UNL A   1      33.981  34.033  30.804  1.00  0.00     0.059 A 
ATOM     80  C   UNL A   1      35.571  34.977  29.230  1.00  0.00     0.059 A 
ATOM     81  F   UNL A   1      37.827  34.342  29.339  1.00  0.00    -0.206 F 
ATOM     82  C   UNL A   1      34.274  34.874  29.730  1.00  0.00     0.060 A 
BRANCH  82  83
ATOM     83  S   UNL A   1      32.948  35.886  29.036  1.00  0.00     0.124 S 
ATOM     84  O   UNL A   1      32.253  34.922  28.193  1.00  0.00    -0.237 OA
ATOM     85  O   UNL A   1      32.235  36.319  30.233  1.00  0.00    -0.237 OA
ATOM     86  O   UNL A   1      33.668  36.942  28.329  1.00  0.00    -0.744 OA
ENDBRANCH  82  83
ENDBRANCH  50  75
BRANCH  62  87
ATOM     87  C   UNL A   1      39.847  34.322  36.877  1.00  0.00     0.058 A 
ATOM     88  C   UNL A   1      40.547  35.529  36.727  1.00  0.00     0.135 A 
ATOM     89  C   UNL A   1      39.054  34.161  38.024  1.00  0.00     0.135 A 
ATOM     90  F   UNL A   1      41.325  35.731  35.651  1.00  0.00    -0.206 F 
ATOM     91  C   UNL A   1      40.480  36.531  37.690  1.00  0.00     0.059 A 
ATOM     92  C   UNL A   1      38.952  35.161  38.987  1.00  0.00     0.059 A 
ATOM     93  F   UNL A   1      38.356  33.030  38.211  1.00  0.00    -0.206 F 
ATOM     94  C   UNL A   1      39.678  36.338  38.816  1.00  0.00     0.060 A 
BRANCH  94  95
ATOM     95  S   UNL A   1      39.574  37.659  40.043  1.00  0.00     0.124 S 
ATOM     96  O   UNL A   1      39.163  36.923  41.234  1.00  0.00    -0.237 OA
ATOM     97  O   UNL A   1      40.937  38.180  40.059  1.00  0.00    -0.237 OA
ATOM     98  O   UNL A   1      38.571  38.562  39.485  1.00  0.00    -0.744 OA
ENDBRANCH  94  95
ENDBRANCH  62  87
ENDBRANCH  36  37
ENDBRANCH  28  31
ENDBRANCH  26  27
ENDBRANCH   1  26
TORSDOF 16
ENDMDL
MODEL 2
REMARK VINA RESULT:     -12.3      5.190     10.763
REMARK SMILES CS(=O)(=O)c1ccc(/C=C(/C(=O)NCCCNC(=O)c2ccc(-c3c4nc(c(-c5c(F)cc(S(=O)(=O)[O-])cc5F)c5ccc([nH]5)c(-c5c(F)cc(S(=O)(=O)[O-])cc5F)c5nc(c(-c6c(F)cc(S(=O)(=O)[O-])cc6F)c6ccc3[nH]6)C=C5)C=C4)cc2)c2ccc(F)cc2)cc1
REMARK SMILES IDX 15 1 14 2 13 3 11 4 12 5 10 7 9 8 8 9 5 10 6 11 94 12 7 13
REMARK SMILES IDX 93 14 2 15 1 16 3 17 4 18 86 19 87 20 92 21 88 22 91 23
REMARK SMILES IDX 89 24 90 25 16 26 17 27 18 28 19 30 20 31 21 32 85 33 22 34
REMARK SMILES IDX 84 35 23 36 24 37 25 38 78 39 26 40 83 41 77 42 79 43 27 44
REMARK SMILES IDX 82 45 76 46 75 47 28 49 62 50 41 51 61 52 42 53 45 54 60 55
REMARK SMILES IDX 80 56 43 57 44 58 59 60 81 61 46 62 29 63 30 64 39 65 31 66
REMARK SMILES IDX 32 67 38 68 40 69 33 70 34 71 35 72 36 73 37 74 63 75 64 76
REMARK SMILES IDX 73 77 65 78 66 79 72 80 74 81 67 82 68 83 69 84 70 85 71 86
REMARK SMILES IDX 47 87 48 88 57 89 49 90 50 91 56 92 58 93 51 94 52 95 53 96
REMARK SMILES IDX 54 97 55 98
REMARK H PARENT 13 6 17 29 79 48 45 59
REMARK Flexibility Score: inf
ROOT
ATOM      1  C   UNL A   1      32.399  27.542  27.056  1.00  0.00     0.042 C 
ENDROOT
BRANCH   1   2
ATOM      2  C   UNL A   1      32.205  26.356  26.111  1.00  0.00     0.118 C 
BRANCH   2   3
ATOM      3  N   UNL A   1      32.704  26.666  24.783  1.00  0.00    -0.352 N 
ATOM      4  C   UNL A   1      33.343  25.953  23.819  1.00  0.00     0.251 C 
ATOM      5  O   UNL A   1      33.628  26.573  22.790  1.00  0.00    -0.269 OA
ATOM      6  H   UNL A   1      32.544  27.601  24.522  1.00  0.00     0.163 HD
BRANCH   4   7
ATOM      7  C   UNL A   1      33.622  24.470  23.917  1.00  0.00     0.047 C 
ATOM      8  C   UNL A   1      32.637  23.551  23.786  1.00  0.00     0.022 C 
BRANCH   8   9
ATOM      9  C   UNL A   1      32.722  22.073  23.752  1.00  0.00    -0.025 A 
ATOM     10  C   UNL A   1      32.855  19.266  23.887  1.00  0.00     0.067 A 
ATOM     11  C   UNL A   1      32.242  19.881  22.796  1.00  0.00     0.021 A 
ATOM     12  C   UNL A   1      33.441  20.040  24.891  1.00  0.00     0.021 A 
ATOM     13  C   UNL A   1      32.202  21.279  22.723  1.00  0.00     0.009 A 
ATOM     14  C   UNL A   1      33.375  21.435  24.818  1.00  0.00     0.009 A 
BRANCH  10  15
ATOM     15  S   UNL A   1      32.895  17.500  24.077  1.00  0.00     0.175 S 
ATOM     16  C   UNL A   1      34.465  17.083  24.778  1.00  0.00     0.163 C 
ATOM     17  O   UNL A   1      32.875  16.940  22.739  1.00  0.00    -0.224 OA
ATOM     18  O   UNL A   1      31.873  17.163  25.050  1.00  0.00    -0.224 OA
ENDBRANCH  10  15
ENDBRANCH   8   9
BRANCH   7  19
ATOM     19  C   UNL A   1      34.991  24.076  24.336  1.00  0.00    -0.013 A 
ATOM     20  C   UNL A   1      35.393  24.340  25.660  1.00  0.00     0.012 A 
ATOM     21  C   UNL A   1      35.870  23.392  23.485  1.00  0.00     0.012 A 
ATOM     22  C   UNL A   1      36.632  23.910  26.132  1.00  0.00     0.040 A 
ATOM     23  C   UNL A   1      37.107  22.949  23.964  1.00  0.00     0.040 A 
ATOM     24  C   UNL A   1      37.474  23.207  25.281  1.00  0.00     0.123 A 
ATOM     25  F   UNL A   1      38.650  22.762  25.739  1.00  0.00    -0.207 F 
ENDBRANCH   7  19
ENDBRANCH   4   7
ENDBRANCH   2   3
ENDBRANCH   1   2
BRANCH   1  26
ATOM     26  C   UNL A   1      33.689  28.326  26.804  1.00  0.00     0.118 C 
BRANCH  26  27
ATOM     27  N   UNL A   1      33.555  29.732  27.155  1.00  0.00    -0.352 N 
ATOM     28  C   UNL A   1      34.388  30.545  27.883  1.00  0.00     0.251 C 
ATOM     29  H   UNL A   1      32.740  30.169  26.816  1.00  0.00     0.163 HD
ATOM     30  O   UNL A   1      33.976  31.640  28.259  1.00  0.00    -0.269 OA
BRANCH  28  31
ATOM     31  C   UNL A   1      35.763  30.116  28.222  1.00  0.00     0.039 A 
ATOM     32  C   UNL A   1      36.746  30.163  27.230  1.00  0.00     0.014 A 
ATOM     33  C   UNL A   1      36.076  29.620  29.490  1.00  0.00     0.014 A 
ATOM     34  C   UNL A   1      38.052  29.761  27.523  1.00  0.00     0.010 A 
ATOM     35  C   UNL A   1      37.392  29.283  29.801  1.00  0.00     0.010 A 
ATOM     36  C   UNL A   1      38.393  29.345  28.819  1.00  0.00    -0.014 A 
BRANCH  36  37
ATOM     37  C   UNL A   1      39.791  28.982  29.167  1.00  0.00     0.031 A 
ATOM     38  C   UNL A   1      40.711  29.994  29.794  1.00  0.00     0.074 A 
ATOM     39  C   UNL A   1      40.256  27.759  28.845  1.00  0.00     0.049 A 
ATOM     40  N   UNL A   1      41.977  29.880  30.104  1.00  0.00    -0.248 NA
ATOM     41  C   UNL A   1      40.140  31.319  30.082  1.00  0.00     0.031 C 
ATOM     42  C   UNL A   1      39.482  26.712  28.174  1.00  0.00     0.029 A 
ATOM     43  N   UNL A   1      41.496  27.195  29.016  1.00  0.00    -0.354 N 
ATOM     44  C   UNL A   1      42.362  31.121  30.599  1.00  0.00     0.074 A 
ATOM     45  C   UNL A   1      41.203  31.986  30.507  1.00  0.00     0.031 C 
ATOM     46  C   UNL A   1      40.260  25.634  27.996  1.00  0.00     0.029 A 
ATOM     47  C   UNL A   1      41.597  25.921  28.509  1.00  0.00     0.049 A 
ATOM     48  H   UNL A   1      42.242  27.659  29.459  1.00  0.00     0.167 HD
ATOM     49  C   UNL A   1      43.562  31.500  31.098  1.00  0.00     0.037 A 
ATOM     50  C   UNL A   1      42.648  25.081  28.451  1.00  0.00     0.037 A 
ATOM     51  C   UNL A   1      44.701  30.624  31.212  1.00  0.00     0.049 A 
ATOM     52  C   UNL A   1      43.961  25.506  29.045  1.00  0.00     0.074 A 
ATOM     53  C   UNL A   1      45.933  30.884  31.786  1.00  0.00     0.029 A 
ATOM     54  N   UNL A   1      44.749  29.323  30.732  1.00  0.00    -0.354 N 
ATOM     55  N   UNL A   1      44.282  26.654  29.594  1.00  0.00    -0.248 NA
ATOM     56  C   UNL A   1      45.051  24.522  29.024  1.00  0.00     0.031 C 
ATOM     57  C   UNL A   1      46.743  29.755  31.611  1.00  0.00     0.029 A 
ATOM     58  C   UNL A   1      46.000  28.775  30.973  1.00  0.00     0.049 A 
ATOM     59  H   UNL A   1      44.006  28.857  30.285  1.00  0.00     0.167 HD
ATOM     60  C   UNL A   1      45.605  26.525  29.999  1.00  0.00     0.074 A 
ATOM     61  C   UNL A   1      46.020  25.183  29.645  1.00  0.00     0.031 C 
ATOM     62  C   UNL A   1      46.402  27.438  30.608  1.00  0.00     0.037 A 
BRANCH  49  63
ATOM     63  C   UNL A   1      43.708  32.929  31.550  1.00  0.00     0.058 A 
ATOM     64  C   UNL A   1      43.516  33.308  32.888  1.00  0.00     0.135 A 
ATOM     65  C   UNL A   1      44.055  33.934  30.632  1.00  0.00     0.135 A 
ATOM     66  F   UNL A   1      43.173  32.391  33.808  1.00  0.00    -0.206 F 
ATOM     67  C   UNL A   1      43.616  34.635  33.292  1.00  0.00     0.059 A 
ATOM     68  C   UNL A   1      44.191  35.265  31.019  1.00  0.00     0.059 A 
ATOM     69  F   UNL A   1      44.257  33.630  29.340  1.00  0.00    -0.206 F 
ATOM     70  C   UNL A   1      43.947  35.608  32.348  1.00  0.00     0.060 A 
BRANCH  70  71
ATOM     71  S   UNL A   1      44.049  37.331  32.881  1.00  0.00     0.124 S 
ATOM     72  O   UNL A   1      43.939  38.034  31.605  1.00  0.00    -0.237 OA
ATOM     73  O   UNL A   1      42.898  37.452  33.771  1.00  0.00    -0.237 OA
ATOM     74  O   UNL A   1      45.352  37.410  33.531  1.00  0.00    -0.744 OA
ENDBRANCH  70  71
ENDBRANCH  49  63
BRANCH  50  75
ATOM     75  C   UNL A   1      42.480  23.747  27.817  1.00  0.00     0.058 A 
ATOM     76  C   UNL A   1      42.537  23.596  26.424  1.00  0.00     0.135 A 
ATOM     77  C   UNL A   1      42.324  22.590  28.596  1.00  0.00     0.135 A 
ATOM     78  F   UNL A   1      42.678  24.673  25.637  1.00  0.00    -0.206 F 
ATOM     79  C   UNL A   1      42.446  22.343  25.824  1.00  0.00     0.059 A 
ATOM     80  C   UNL A   1      42.254  21.325  28.021  1.00  0.00     0.059 A 
ATOM     81  F   UNL A   1      42.284  22.681  29.935  1.00  0.00    -0.206 F 
ATOM     82  C   UNL A   1      42.314  21.213  26.633  1.00  0.00     0.060 A 
BRANCH  82  83
ATOM     83  S   UNL A   1      42.290  19.586  25.848  1.00  0.00     0.124 S 
ATOM     84  O   UNL A   1      40.899  19.485  25.425  1.00  0.00    -0.237 OA
ATOM     85  O   UNL A   1      43.273  19.746  24.782  1.00  0.00    -0.237 OA
ATOM     86  O   UNL A   1      42.690  18.688  26.928  1.00  0.00    -0.744 OA
ENDBRANCH  82  83
ENDBRANCH  50  75
BRANCH  62  87
ATOM     87  C   UNL A   1      47.804  27.012  30.949  1.00  0.00     0.058 A 
ATOM     88  C   UNL A   1      48.107  26.382  32.166  1.00  0.00     0.135 A 
ATOM     89  C   UNL A   1      48.846  27.190  30.025  1.00  0.00     0.135 A 
ATOM     90  F   UNL A   1      47.149  26.194  33.088  1.00  0.00    -0.206 F 
ATOM     91  C   UNL A   1      49.400  25.962  32.464  1.00  0.00     0.059 A 
ATOM     92  C   UNL A   1      50.141  26.754  30.291  1.00  0.00     0.059 A 
ATOM     93  F   UNL A   1      48.608  27.778  28.842  1.00  0.00    -0.206 F 
ATOM     94  C   UNL A   1      50.410  26.152  31.519  1.00  0.00     0.060 A 
BRANCH  94  95
ATOM     95  S   UNL A   1      52.076  25.573  31.904  1.00  0.00     0.124 S 
ATOM     96  O   UNL A   1      52.805  25.949  30.697  1.00  0.00    -0.237 OA
ATOM     97  O   UNL A   1      52.403  26.336  33.106  1.00  0.00    -0.237 OA
ATOM     98  O   UNL A   1      51.898  24.139  32.110  1.00  0.00    -0.744 OA
ENDBRANCH  94  95
ENDBRANCH  62  87
ENDBRANCH  36  37
ENDBRANCH  28  31
ENDBRANCH  26  27
ENDBRANCH   1  26
TORSDOF 16
ENDMDL
MODEL 3
REMARK VINA RESULT:     -12.3      2.913      3.616
REMARK SMILES CS(=O)(=O)c1ccc(/C=C(/C(=O)NCCCNC(=O)c2ccc(-c3c4nc(c(-c5c(F)cc(S(=O)(=O)[O-])cc5F)c5ccc([nH]5)c(-c5c(F)cc(S(=O)(=O)[O-])cc5F)c5nc(c(-c6c(F)cc(S(=O)(=O)[O-])cc6F)c6ccc3[nH]6)C=C5)C=C4)cc2)c2ccc(F)cc2)cc1
REMARK SMILES IDX 15 1 14 2 13 3 11 4 12 5 10 7 9 8 8 9 5 10 6 11 94 12 7 13
REMARK SMILES IDX 93 14 2 15 1 16 3 17 4 18 86 19 87 20 92 21 88 22 91 23
REMARK SMILES IDX 89 24 90 25 16 26 17 27 18 28 19 30 20 31 21 32 85 33 22 34
REMARK SMILES IDX 84 35 23 36 24 37 25 38 78 39 26 40 83 41 77 42 79 43 27 44
REMARK SMILES IDX 82 45 76 46 75 47 28 49 62 50 41 51 61 52 42 53 45 54 60 55
REMARK SMILES IDX 80 56 43 57 44 58 59 60 81 61 46 62 29 63 30 64 39 65 31 66
REMARK SMILES IDX 32 67 38 68 40 69 33 70 34 71 35 72 36 73 37 74 63 75 64 76
REMARK SMILES IDX 73 77 65 78 66 79 72 80 74 81 67 82 68 83 69 84 70 85 71 86
REMARK SMILES IDX 47 87 48 88 57 89 49 90 50 91 56 92 58 93 51 94 52 95 53 96
REMARK SMILES IDX 54 97 55 98
REMARK H PARENT 13 6 17 29 79 48 45 59
REMARK Flexibility Score: inf
ROOT
ATOM      1  C   UNL A   1      35.126  23.695  26.317  1.00  0.00     0.042 C 
ENDROOT
BRANCH   1   2
ATOM      2  C   UNL A   1      33.881  23.562  25.440  1.00  0.00     0.118 C 
BRANCH   2   3
ATOM      3  N   UNL A   1      32.696  23.358  26.254  1.00  0.00    -0.352 N 
ATOM      4  C   UNL A   1      31.577  24.088  26.501  1.00  0.00     0.251 C 
ATOM      5  O   UNL A   1      30.763  23.581  27.278  1.00  0.00    -0.269 OA
ATOM      6  H   UNL A   1      32.704  22.499  26.734  1.00  0.00     0.163 HD
BRANCH   4   7
ATOM      7  C   UNL A   1      31.260  25.398  25.816  1.00  0.00     0.047 C 
ATOM      8  C   UNL A   1      30.441  25.459  24.741  1.00  0.00     0.022 C 
BRANCH   8   9
ATOM      9  C   UNL A   1      29.937  26.639  24.002  1.00  0.00    -0.025 A 
ATOM     10  C   UNL A   1      28.839  28.902  22.741  1.00  0.00     0.067 A 
ATOM     11  C   UNL A   1      30.218  28.696  22.722  1.00  0.00     0.021 A 
ATOM     12  C   UNL A   1      27.998  27.966  23.346  1.00  0.00     0.021 A 
ATOM     13  C   UNL A   1      30.755  27.555  23.330  1.00  0.00     0.009 A 
ATOM     14  C   UNL A   1      28.548  26.841  23.969  1.00  0.00     0.009 A 
BRANCH  10  15
ATOM     15  S   UNL A   1      28.091  30.354  22.042  1.00  0.00     0.175 S 
ATOM     16  C   UNL A   1      29.256  31.676  22.207  1.00  0.00     0.163 C 
ATOM     17  O   UNL A   1      26.962  30.686  22.889  1.00  0.00    -0.224 OA
ATOM     18  O   UNL A   1      27.918  30.093  20.625  1.00  0.00    -0.224 OA
ENDBRANCH  10  15
ENDBRANCH   8   9
BRANCH   7  19
ATOM     19  C   UNL A   1      32.027  26.588  26.267  1.00  0.00    -0.013 A 
ATOM     20  C   UNL A   1      31.436  27.453  27.209  1.00  0.00     0.012 A 
ATOM     21  C   UNL A   1      33.338  26.842  25.842  1.00  0.00     0.012 A 
ATOM     22  C   UNL A   1      32.145  28.532  27.734  1.00  0.00     0.040 A 
ATOM     23  C   UNL A   1      34.053  27.917  26.380  1.00  0.00     0.040 A 
ATOM     24  C   UNL A   1      33.453  28.747  27.322  1.00  0.00     0.123 A 
ATOM     25  F   UNL A   1      34.151  29.762  27.849  1.00  0.00    -0.207 F 
ENDBRANCH   7  19
ENDBRANCH   4   7
ENDBRANCH   2   3
ENDBRANCH   1   2
BRANCH   1  26
ATOM     26  C   UNL A   1      36.393  24.055  25.537  1.00  0.00     0.118 C 
BRANCH  26  27
ATOM     27  N   UNL A   1      37.404  23.010  25.619  1.00  0.00    -0.352 N 
ATOM     28  C   UNL A   1      38.700  23.067  26.068  1.00  0.00     0.251 C 
ATOM     29  H   UNL A   1      37.112  22.124  25.303  1.00  0.00     0.163 HD
ATOM     30  O   UNL A   1      39.454  22.126  25.835  1.00  0.00    -0.269 OA
BRANCH  28  31
ATOM     31  C   UNL A   1      39.193  24.244  26.817  1.00  0.00     0.039 A 
ATOM     32  C   UNL A   1      40.019  25.161  26.161  1.00  0.00     0.014 A 
ATOM     33  C   UNL A   1      38.891  24.421  28.170  1.00  0.00     0.014 A 
ATOM     34  C   UNL A   1      40.500  26.280  26.846  1.00  0.00     0.010 A 
ATOM     35  C   UNL A   1      39.316  25.571  28.833  1.00  0.00     0.010 A 
ATOM     36  C   UNL A   1      40.129  26.510  28.180  1.00  0.00    -0.014 A 
BRANCH  36  37
ATOM     37  C   UNL A   1      40.574  27.730  28.902  1.00  0.00     0.031 A 
ATOM     38  C   UNL A   1      41.912  27.768  29.587  1.00  0.00     0.074 A 
ATOM     39  C   UNL A   1      39.735  28.779  29.006  1.00  0.00     0.049 A 
ATOM     40  N   UNL A   1      42.440  28.715  30.320  1.00  0.00    -0.248 NA
ATOM     41  C   UNL A   1      42.756  26.569  29.460  1.00  0.00     0.031 C 
ATOM     42  C   UNL A   1      38.384  28.838  28.442  1.00  0.00     0.029 A 
ATOM     43  N   UNL A   1      39.882  29.988  29.640  1.00  0.00    -0.354 N 
ATOM     44  C   UNL A   1      43.663  28.222  30.759  1.00  0.00     0.074 A 
ATOM     45  C   UNL A   1      43.778  26.872  30.246  1.00  0.00     0.031 C 
ATOM     46  C   UNL A   1      37.830  30.021  28.749  1.00  0.00     0.029 A 
ATOM     47  C   UNL A   1      38.769  30.792  29.559  1.00  0.00     0.049 A 
ATOM     48  H   UNL A   1      40.705  30.253  30.109  1.00  0.00     0.167 HD
ATOM     49  C   UNL A   1      44.609  28.840  31.506  1.00  0.00     0.037 A 
ATOM     50  C   UNL A   1      38.525  32.007  30.085  1.00  0.00     0.037 A 
ATOM     51  C   UNL A   1      44.496  30.194  31.989  1.00  0.00     0.049 A 
ATOM     52  C   UNL A   1      39.601  32.693  30.879  1.00  0.00     0.074 A 
ATOM     53  C   UNL A   1      45.435  30.943  32.676  1.00  0.00     0.029 A 
ATOM     54  N   UNL A   1      43.373  30.995  31.844  1.00  0.00    -0.354 N 
ATOM     55  N   UNL A   1      40.791  32.247  31.208  1.00  0.00    -0.248 NA
ATOM     56  C   UNL A   1      39.310  34.048  31.364  1.00  0.00     0.031 C 
ATOM     57  C   UNL A   1      44.861  32.182  32.987  1.00  0.00     0.029 A 
ATOM     58  C   UNL A   1      43.585  32.223  32.452  1.00  0.00     0.049 A 
ATOM     59  H   UNL A   1      42.547  30.731  31.378  1.00  0.00     0.167 HD
ATOM     60  C   UNL A   1      41.397  33.272  31.924  1.00  0.00     0.074 A 
ATOM     61  C   UNL A   1      40.448  34.367  31.967  1.00  0.00     0.031 C 
ATOM     62  C   UNL A   1      42.627  33.303  32.493  1.00  0.00     0.037 A 
BRANCH  49  63
ATOM     63  C   UNL A   1      45.843  28.053  31.858  1.00  0.00     0.058 A 
ATOM     64  C   UNL A   1      47.000  28.093  31.063  1.00  0.00     0.135 A 
ATOM     65  C   UNL A   1      45.873  27.254  33.013  1.00  0.00     0.135 A 
ATOM     66  F   UNL A   1      47.025  28.832  29.942  1.00  0.00    -0.206 F 
ATOM     67  C   UNL A   1      48.124  27.334  31.373  1.00  0.00     0.059 A 
ATOM     68  C   UNL A   1      46.999  26.510  33.359  1.00  0.00     0.059 A 
ATOM     69  F   UNL A   1      44.798  27.182  33.814  1.00  0.00    -0.206 F 
ATOM     70  C   UNL A   1      48.111  26.540  32.519  1.00  0.00     0.060 A 
BRANCH  70  71
ATOM     71  S   UNL A   1      49.567  25.541  32.896  1.00  0.00     0.124 S 
ATOM     72  O   UNL A   1      49.777  24.847  31.628  1.00  0.00    -0.237 OA
ATOM     73  O   UNL A   1      50.563  26.553  33.236  1.00  0.00    -0.237 OA
ATOM     74  O   UNL A   1      49.127  24.702  34.005  1.00  0.00    -0.744 OA
ENDBRANCH  70  71
ENDBRANCH  49  63
BRANCH  50  75
ATOM     75  C   UNL A   1      37.205  32.649  29.854  1.00  0.00     0.058 A 
ATOM     76  C   UNL A   1      36.146  32.472  30.756  1.00  0.00     0.135 A 
ATOM     77  C   UNL A   1      36.998  33.504  28.760  1.00  0.00     0.135 A 
ATOM     78  F   UNL A   1      36.295  31.660  31.814  1.00  0.00    -0.206 F 
ATOM     79  C   UNL A   1      34.927  33.121  30.584  1.00  0.00     0.059 A 
ATOM     80  C   UNL A   1      35.796  34.181  28.579  1.00  0.00     0.059 A 
ATOM     81  F   UNL A   1      37.987  33.721  27.879  1.00  0.00    -0.206 F 
ATOM     82  C   UNL A   1      34.766  33.981  29.496  1.00  0.00     0.060 A 
BRANCH  82  83
ATOM     83  S   UNL A   1      33.212  34.888  29.333  1.00  0.00     0.124 S 
ATOM     84  O   UNL A   1      32.500  34.077  28.352  1.00  0.00    -0.237 OA
ATOM     85  O   UNL A   1      32.690  34.847  30.695  1.00  0.00    -0.237 OA
ATOM     86  O   UNL A   1      33.640  36.206  28.874  1.00  0.00    -0.744 OA
ENDBRANCH  82  83
ENDBRANCH  50  75
BRANCH  62  87
ATOM     87  C   UNL A   1      43.030  34.568  33.201  1.00  0.00     0.058 A 
ATOM     88  C   UNL A   1      42.888  34.712  34.589  1.00  0.00     0.135 A 
ATOM     89  C   UNL A   1      43.614  35.626  32.487  1.00  0.00     0.135 A 
ATOM     90  F   UNL A   1      42.329  33.732  35.318  1.00  0.00    -0.206 F 
ATOM     91  C   UNL A   1      43.290  35.873  35.244  1.00  0.00     0.059 A 
ATOM     92  C   UNL A   1      44.048  36.785  33.124  1.00  0.00     0.059 A 
ATOM     93  F   UNL A   1      43.783  35.535  31.159  1.00  0.00    -0.206 F 
ATOM     94  C   UNL A   1      43.871  36.903  34.502  1.00  0.00     0.060 A 
BRANCH  94  95
ATOM     95  S   UNL A   1      44.418  38.390  35.367  1.00  0.00     0.124 S 
ATOM     96  O   UNL A   1      45.865  38.315  35.194  1.00  0.00    -0.237 OA
ATOM     97  O   UNL A   1      43.745  39.451  34.624  1.00  0.00    -0.237 OA
ATOM     98  O   UNL A   1      43.937  38.187  36.730  1.00  0.00    -0.744 OA
ENDBRANCH  94  95
ENDBRANCH  62  87
ENDBRANCH  36  37
ENDBRANCH  28  31
ENDBRANCH  26  27
ENDBRANCH   1  26
TORSDOF 16
ENDMDL
