MODEL 1
REMARK VINA RESULT:     -14.3      0.000      0.000
REMARK SMILES Cc1cc(S(=O)(=O)Nc2ccc(Cl)cc2F)ccc1OCC(=O)NCCCNC(=O)c1ccc(-c2c3nc(c(-c4c(F)cc(S(=O)(=O)[O-])cc4F)c4ccc([nH]4)c(-c4c(F)cc(S(=O)(=O)[O-])cc4F)c4nc(c(-c5c(F)cc(S(=O)(=O)[O-])cc5F)c5ccc2[nH]5)C=C4)C=C3)cc1
REMARK SMILES IDX 25 1 24 2 22 3 23 4 21 6 20 7 19 8 1 9 2 10 3 11 4 12 18 13
REMARK SMILES IDX 17 14 5 15 6 16 7 17 8 18 9 20 10 21 15 22 11 23 14 24 16 25
REMARK SMILES IDX 12 26 13 27 26 28 27 29 28 30 29 31 30 33 31 34 32 35 96 36
REMARK SMILES IDX 33 37 95 38 34 39 35 40 36 41 89 42 37 43 94 44 88 45 90 46
REMARK SMILES IDX 38 47 93 48 87 49 86 50 39 52 73 53 52 54 72 55 53 56 56 57
REMARK SMILES IDX 71 58 91 59 54 60 55 61 70 63 92 64 57 65 40 66 41 67 50 68
REMARK SMILES IDX 42 69 43 70 49 71 51 72 44 73 45 74 46 75 47 76 48 77 74 78
REMARK SMILES IDX 75 79 84 80 76 81 77 82 83 83 85 84 78 85 79 86 80 87 81 88
REMARK SMILES IDX 82 89 58 90 59 91 68 92 60 93 61 94 67 95 69 96 62 97 63 98
REMARK SMILES IDX 64 99 65 100 66 101
REMARK H PARENT 24 5 8 19 28 32 90 51 56 62
REMARK Flexibility Score: inf
ROOT
ATOM      1  C   UNL A   1      32.343  30.210  25.751  1.00  0.00     0.117 C 
ENDROOT
BRANCH   1   2
ATOM      2  N   UNL A   1      33.073  29.617  24.639  1.00  0.00    -0.353 N 
ATOM      3  C   UNL A   1      32.600  29.080  23.475  1.00  0.00     0.257 C 
ATOM      4  O   UNL A   1      33.405  28.738  22.607  1.00  0.00    -0.271 OA
ATOM      5  H   UNL A   1      34.053  29.600  24.742  1.00  0.00     0.163 HD
BRANCH   3   6
ATOM      6  C   UNL A   1      31.091  28.968  23.242  1.00  0.00     0.329 C 
BRANCH   6   7
ATOM      7  O   UNL A   1      30.549  27.697  22.961  1.00  0.00    -0.484 OA
BRANCH   7   8
ATOM      8  C   UNL A   1      30.834  26.595  23.714  1.00  0.00     0.123 A 
ATOM      9  C   UNL A   1      32.153  25.118  22.052  1.00  0.00     0.048 C 
ATOM     10  C   UNL A   1      31.464  25.396  23.355  1.00  0.00    -0.008 A 
ATOM     11  C   UNL A   1      31.466  24.334  24.292  1.00  0.00     0.029 A 
ATOM     12  C   UNL A   1      30.892  24.461  25.563  1.00  0.00     0.088 A 
ATOM     13  C   UNL A   1      30.303  26.717  25.010  1.00  0.00     0.048 A 
ATOM     14  C   UNL A   1      30.387  25.691  25.950  1.00  0.00     0.026 A 
BRANCH  12  15
ATOM     15  S   UNL A   1      30.729  22.973  26.528  1.00  0.00     0.262 S 
ATOM     16  O   UNL A   1      29.695  23.204  27.515  1.00  0.00    -0.201 OA
ATOM     17  O   UNL A   1      30.607  21.888  25.578  1.00  0.00    -0.201 OA
BRANCH  15  18
ATOM     18  N   UNL A   1      32.168  22.656  27.331  1.00  0.00    -0.277 N 
ATOM     19  H   UNL A   1      32.117  22.518  28.305  1.00  0.00     0.180 HD
BRANCH  18  20
ATOM     20  C   UNL A   1      33.455  22.570  26.729  1.00  0.00     0.085 A 
ATOM     21  C   UNL A   1      33.908  21.275  26.449  1.00  0.00     0.031 A 
ATOM     22  C   UNL A   1      34.238  23.658  26.320  1.00  0.00     0.148 A 
ATOM     23  C   UNL A   1      35.050  21.075  25.671  1.00  0.00     0.023 A 
ATOM     24  C   UNL A   1      35.376  23.466  25.539  1.00  0.00     0.062 A 
ATOM     25  F   UNL A   1      33.872  24.918  26.586  1.00  0.00    -0.205 F 
ATOM     26  C   UNL A   1      35.764  22.174  25.197  1.00  0.00     0.044 A 
ATOM     27  Cl  UNL A   1      37.115  21.928  24.163  1.00  0.00    -0.084 Cl
ENDBRANCH  18  20
ENDBRANCH  15  18
ENDBRANCH  12  15
ENDBRANCH   7   8
ENDBRANCH   6   7
ENDBRANCH   3   6
ENDBRANCH   1   2
BRANCH   1  28
ATOM     28  C   UNL A   1      32.932  29.847  27.105  1.00  0.00     0.042 C 
BRANCH  28  29
ATOM     29  C   UNL A   1      34.451  29.760  27.101  1.00  0.00     0.118 C 
BRANCH  29  30
ATOM     30  N   UNL A   1      35.089  30.969  27.600  1.00  0.00    -0.352 N 
ATOM     31  C   UNL A   1      36.234  31.061  28.372  1.00  0.00     0.251 C 
ATOM     32  H   UNL A   1      34.655  31.821  27.362  1.00  0.00     0.163 HD
ATOM     33  O   UNL A   1      36.548  32.076  28.969  1.00  0.00    -0.269 OA
BRANCH  31  34
ATOM     34  C   UNL A   1      37.145  29.901  28.329  1.00  0.00     0.039 A 
ATOM     35  C   UNL A   1      37.292  29.164  29.510  1.00  0.00     0.014 A 
ATOM     36  C   UNL A   1      38.022  29.740  27.261  1.00  0.00     0.014 A 
ATOM     37  C   UNL A   1      38.424  28.376  29.687  1.00  0.00     0.010 A 
ATOM     38  C   UNL A   1      39.185  29.024  27.469  1.00  0.00     0.010 A 
ATOM     39  C   UNL A   1      39.405  28.376  28.695  1.00  0.00    -0.014 A 
BRANCH  39  40
ATOM     40  C   UNL A   1      40.728  27.793  28.878  1.00  0.00     0.031 A 
ATOM     41  C   UNL A   1      40.995  26.399  28.460  1.00  0.00     0.074 A 
ATOM     42  C   UNL A   1      41.738  28.562  29.339  1.00  0.00     0.049 A 
ATOM     43  N   UNL A   1      41.951  25.665  28.919  1.00  0.00    -0.248 NA
ATOM     44  C   UNL A   1      40.157  25.706  27.488  1.00  0.00     0.031 C 
ATOM     45  C   UNL A   1      43.166  28.267  29.281  1.00  0.00     0.029 A 
ATOM     46  N   UNL A   1      41.651  29.711  30.132  1.00  0.00    -0.354 N 
ATOM     47  C   UNL A   1      42.042  24.546  28.121  1.00  0.00     0.074 A 
ATOM     48  C   UNL A   1      40.861  24.589  27.289  1.00  0.00     0.031 C 
ATOM     49  C   UNL A   1      43.804  29.025  30.185  1.00  0.00     0.029 A 
ATOM     50  C   UNL A   1      42.790  29.719  30.960  1.00  0.00     0.049 A 
ATOM     51  H   UNL A   1      40.932  30.382  30.114  1.00  0.00     0.167 HD
ATOM     52  C   UNL A   1      43.178  23.788  28.144  1.00  0.00     0.037 A 
ATOM     53  C   UNL A   1      42.675  29.654  32.320  1.00  0.00     0.037 A 
ATOM     54  C   UNL A   1      44.128  24.295  29.134  1.00  0.00     0.049 A 
ATOM     55  C   UNL A   1      43.315  28.428  32.930  1.00  0.00     0.074 A 
ATOM     56  C   UNL A   1      45.230  25.128  29.024  1.00  0.00     0.029 A 
ATOM     57  N   UNL A   1      43.831  24.217  30.493  1.00  0.00    -0.354 N 
ATOM     58  N   UNL A   1      43.655  27.368  32.251  1.00  0.00    -0.248 NA
ATOM     59  C   UNL A   1      43.608  28.291  34.355  1.00  0.00     0.031 C 
ATOM     60  C   UNL A   1      45.556  25.605  30.315  1.00  0.00     0.029 A 
ATOM     61  C   UNL A   1      44.663  25.051  31.217  1.00  0.00     0.049 A 
ATOM     62  H   UNL A   1      43.127  23.650  30.882  1.00  0.00     0.167 HD
ATOM     63  C   UNL A   1      44.154  26.415  33.102  1.00  0.00     0.074 A 
ATOM     64  C   UNL A   1      44.132  27.053  34.405  1.00  0.00     0.031 C 
ATOM     65  C   UNL A   1      44.535  25.178  32.661  1.00  0.00     0.037 A 
BRANCH  52  66
ATOM     66  C   UNL A   1      43.550  22.816  27.037  1.00  0.00     0.058 A 
ATOM     67  C   UNL A   1      42.859  21.593  26.881  1.00  0.00     0.135 A 
ATOM     68  C   UNL A   1      44.622  22.996  26.141  1.00  0.00     0.135 A 
ATOM     69  F   UNL A   1      41.742  21.324  27.567  1.00  0.00    -0.206 F 
ATOM     70  C   UNL A   1      43.283  20.581  26.019  1.00  0.00     0.059 A 
ATOM     71  C   UNL A   1      45.103  21.978  25.309  1.00  0.00     0.059 A 
ATOM     72  F   UNL A   1      45.218  24.190  26.004  1.00  0.00    -0.206 F 
ATOM     73  C   UNL A   1      44.434  20.763  25.267  1.00  0.00     0.060 A 
BRANCH  73  74
ATOM     74  S   UNL A   1      45.026  19.405  24.239  1.00  0.00     0.124 S 
ATOM     75  O   UNL A   1      44.474  18.238  24.921  1.00  0.00    -0.237 OA
ATOM     76  O   UNL A   1      44.433  19.723  22.945  1.00  0.00    -0.237 OA
ATOM     77  O   UNL A   1      46.478  19.532  24.312  1.00  0.00    -0.744 OA
ENDBRANCH  73  74
ENDBRANCH  52  66
BRANCH  53  78
ATOM     78  C   UNL A   1      41.465  30.349  32.837  1.00  0.00     0.058 A 
ATOM     79  C   UNL A   1      40.326  29.565  33.104  1.00  0.00     0.135 A 
ATOM     80  C   UNL A   1      41.549  31.601  33.461  1.00  0.00     0.135 A 
ATOM     81  F   UNL A   1      40.186  28.363  32.520  1.00  0.00    -0.206 F 
ATOM     82  C   UNL A   1      39.396  29.927  34.072  1.00  0.00     0.059 A 
ATOM     83  C   UNL A   1      40.621  31.990  34.432  1.00  0.00     0.059 A 
ATOM     84  F   UNL A   1      42.606  32.395  33.241  1.00  0.00    -0.206 F 
ATOM     85  C   UNL A   1      39.592  31.113  34.778  1.00  0.00     0.060 A 
BRANCH  85  86
ATOM     86  S   UNL A   1      38.585  31.386  36.257  1.00  0.00     0.124 S 
ATOM     87  O   UNL A   1      39.503  32.128  37.115  1.00  0.00    -0.237 OA
ATOM     88  O   UNL A   1      37.462  32.158  35.723  1.00  0.00    -0.237 OA
ATOM     89  O   UNL A   1      38.262  30.035  36.697  1.00  0.00    -0.744 OA
ENDBRANCH  85  86
ENDBRANCH  53  78
BRANCH  65  90
ATOM     90  C   UNL A   1      44.921  24.008  33.536  1.00  0.00     0.058 A 
ATOM     91  C   UNL A   1      44.045  22.969  33.890  1.00  0.00     0.135 A 
ATOM     92  C   UNL A   1      46.267  23.836  33.943  1.00  0.00     0.135 A 
ATOM     93  F   UNL A   1      42.772  22.957  33.468  1.00  0.00    -0.206 F 
ATOM     94  C   UNL A   1      44.452  21.874  34.655  1.00  0.00     0.059 A 
ATOM     95  C   UNL A   1      46.706  22.726  34.659  1.00  0.00     0.059 A 
ATOM     96  F   UNL A   1      47.208  24.745  33.646  1.00  0.00    -0.206 F 
ATOM     97  C   UNL A   1      45.785  21.761  35.038  1.00  0.00     0.060 A 
BRANCH  97  98
ATOM     98  S   UNL A   1      46.335  20.325  35.978  1.00  0.00     0.124 S 
ATOM     99  O   UNL A   1      45.812  19.229  35.169  1.00  0.00    -0.237 OA
ATOM    100  O   UNL A   1      47.788  20.471  35.976  1.00  0.00    -0.237 OA
ATOM    101  O   UNL A   1      45.698  20.515  37.277  1.00  0.00    -0.744 OA
ENDBRANCH  97  98
ENDBRANCH  65  90
ENDBRANCH  39  40
ENDBRANCH  31  34
ENDBRANCH  29  30
ENDBRANCH  28  29
ENDBRANCH   1  28
TORSDOF 18
ENDMDL
MODEL 2
REMARK VINA RESULT:     -13.7      4.995     11.327
REMARK SMILES Cc1cc(S(=O)(=O)Nc2ccc(Cl)cc2F)ccc1OCC(=O)NCCCNC(=O)c1ccc(-c2c3nc(c(-c4c(F)cc(S(=O)(=O)[O-])cc4F)c4ccc([nH]4)c(-c4c(F)cc(S(=O)(=O)[O-])cc4F)c4nc(c(-c5c(F)cc(S(=O)(=O)[O-])cc5F)c5ccc2[nH]5)C=C4)C=C3)cc1
REMARK SMILES IDX 25 1 24 2 22 3 23 4 21 6 20 7 19 8 1 9 2 10 3 11 4 12 18 13
REMARK SMILES IDX 17 14 5 15 6 16 7 17 8 18 9 20 10 21 15 22 11 23 14 24 16 25
REMARK SMILES IDX 12 26 13 27 26 28 27 29 28 30 29 31 30 33 31 34 32 35 96 36
REMARK SMILES IDX 33 37 95 38 34 39 35 40 36 41 89 42 37 43 94 44 88 45 90 46
REMARK SMILES IDX 38 47 93 48 87 49 86 50 39 52 73 53 52 54 72 55 53 56 56 57
REMARK SMILES IDX 71 58 91 59 54 60 55 61 70 63 92 64 57 65 40 66 41 67 50 68
REMARK SMILES IDX 42 69 43 70 49 71 51 72 44 73 45 74 46 75 47 76 48 77 74 78
REMARK SMILES IDX 75 79 84 80 76 81 77 82 83 83 85 84 78 85 79 86 80 87 81 88
REMARK SMILES IDX 82 89 58 90 59 91 68 92 60 93 61 94 67 95 69 96 62 97 63 98
REMARK SMILES IDX 64 99 65 100 66 101
REMARK H PARENT 24 5 8 19 28 32 90 51 56 62
REMARK Flexibility Score: inf
ROOT
ATOM      1  C   UNL A   1      36.823  21.172  25.401  1.00  0.00     0.117 C 
ENDROOT
BRANCH   1   2
ATOM      2  N   UNL A   1      35.790  21.546  26.356  1.00  0.00    -0.353 N 
ATOM      3  C   UNL A   1      34.455  21.252  26.353  1.00  0.00     0.257 C 
ATOM      4  O   UNL A   1      33.773  21.570  27.330  1.00  0.00    -0.271 OA
ATOM      5  H   UNL A   1      36.098  22.092  27.116  1.00  0.00     0.163 HD
BRANCH   3   6
ATOM      6  C   UNL A   1      33.842  20.489  25.176  1.00  0.00     0.329 C 
BRANCH   6   7
ATOM      7  O   UNL A   1      33.488  21.211  24.019  1.00  0.00    -0.484 OA
BRANCH   7   8
ATOM      8  C   UNL A   1      32.937  22.458  24.073  1.00  0.00     0.123 A 
ATOM      9  C   UNL A   1      34.954  23.979  23.525  1.00  0.00     0.048 C 
ATOM     10  C   UNL A   1      33.538  23.717  23.945  1.00  0.00    -0.008 A 
ATOM     11  C   UNL A   1      32.759  24.865  24.231  1.00  0.00     0.029 A 
ATOM     12  C   UNL A   1      31.411  24.775  24.602  1.00  0.00     0.088 A 
ATOM     13  C   UNL A   1      31.571  22.393  24.402  1.00  0.00     0.048 A 
ATOM     14  C   UNL A   1      30.796  23.535  24.599  1.00  0.00     0.026 A 
BRANCH  12  15
ATOM     15  S   UNL A   1      30.634  26.267  25.190  1.00  0.00     0.262 S 
ATOM     16  O   UNL A   1      29.258  26.248  24.742  1.00  0.00    -0.201 OA
ATOM     17  O   UNL A   1      30.947  26.354  26.601  1.00  0.00    -0.201 OA
BRANCH  15  18
ATOM     18  N   UNL A   1      31.392  27.605  24.518  1.00  0.00    -0.277 N 
ATOM     19  H   UNL A   1      31.339  27.707  23.541  1.00  0.00     0.180 HD
BRANCH  18  20
ATOM     20  C   UNL A   1      32.106  28.605  25.238  1.00  0.00     0.085 A 
ATOM     21  C   UNL A   1      31.430  29.817  25.424  1.00  0.00     0.031 A 
ATOM     22  C   UNL A   1      33.362  28.437  25.838  1.00  0.00     0.148 A 
ATOM     23  C   UNL A   1      31.938  30.787  26.291  1.00  0.00     0.023 A 
ATOM     24  C   UNL A   1      33.872  29.400  26.708  1.00  0.00     0.062 A 
ATOM     25  F   UNL A   1      34.069  27.313  25.671  1.00  0.00    -0.205 F 
ATOM     26  C   UNL A   1      33.144  30.562  26.949  1.00  0.00     0.044 A 
ATOM     27  Cl  UNL A   1      33.722  31.715  28.086  1.00  0.00    -0.084 Cl
ENDBRANCH  18  20
ENDBRANCH  15  18
ENDBRANCH  12  15
ENDBRANCH   7   8
ENDBRANCH   6   7
ENDBRANCH   3   6
ENDBRANCH   1   2
BRANCH   1  28
ATOM     28  C   UNL A   1      37.665  22.355  24.948  1.00  0.00     0.042 C 
BRANCH  28  29
ATOM     29  C   UNL A   1      38.082  23.273  26.087  1.00  0.00     0.118 C 
BRANCH  29  30
ATOM     30  N   UNL A   1      39.426  22.997  26.574  1.00  0.00    -0.352 N 
ATOM     31  C   UNL A   1      40.394  23.915  26.943  1.00  0.00     0.251 C 
ATOM     32  H   UNL A   1      39.675  22.047  26.649  1.00  0.00     0.163 HD
ATOM     33  O   UNL A   1      41.567  23.617  27.080  1.00  0.00    -0.269 OA
BRANCH  31  34
ATOM     34  C   UNL A   1      39.912  25.262  27.305  1.00  0.00     0.039 A 
ATOM     35  C   UNL A   1      40.383  26.333  26.536  1.00  0.00     0.014 A 
ATOM     36  C   UNL A   1      39.266  25.471  28.520  1.00  0.00     0.014 A 
ATOM     37  C   UNL A   1      40.353  27.618  27.065  1.00  0.00     0.010 A 
ATOM     38  C   UNL A   1      39.312  26.734  29.078  1.00  0.00     0.010 A 
ATOM     39  C   UNL A   1      39.890  27.798  28.368  1.00  0.00    -0.014 A 
BRANCH  39  40
ATOM     40  C   UNL A   1      40.043  29.046  29.107  1.00  0.00     0.031 A 
ATOM     41  C   UNL A   1      38.984  30.078  29.057  1.00  0.00     0.074 A 
ATOM     42  C   UNL A   1      41.109  29.215  29.919  1.00  0.00     0.049 A 
ATOM     43  N   UNL A   1      39.167  31.329  29.312  1.00  0.00    -0.248 NA
ATOM     44  C   UNL A   1      37.613  29.766  28.672  1.00  0.00     0.031 C 
ATOM     45  C   UNL A   1      41.269  30.221  30.963  1.00  0.00     0.029 A 
ATOM     46  N   UNL A   1      42.363  28.601  29.830  1.00  0.00    -0.354 N 
ATOM     47  C   UNL A   1      37.927  31.921  29.417  1.00  0.00     0.074 A 
ATOM     48  C   UNL A   1      36.999  30.920  28.944  1.00  0.00     0.031 C 
ATOM     49  C   UNL A   1      42.574  30.348  31.249  1.00  0.00     0.029 A 
ATOM     50  C   UNL A   1      43.307  29.539  30.290  1.00  0.00     0.049 A 
ATOM     51  H   UNL A   1      42.548  27.690  29.507  1.00  0.00     0.167 HD
ATOM     52  C   UNL A   1      37.806  33.134  30.033  1.00  0.00     0.037 A 
ATOM     53  C   UNL A   1      44.290  30.014  29.467  1.00  0.00     0.037 A 
ATOM     54  C   UNL A   1      39.114  33.655  30.430  1.00  0.00     0.049 A 
ATOM     55  C   UNL A   1      44.221  31.505  29.229  1.00  0.00     0.074 A 
ATOM     56  C   UNL A   1      39.800  33.622  31.634  1.00  0.00     0.029 A 
ATOM     57  N   UNL A   1      40.040  34.035  29.462  1.00  0.00    -0.354 N 
ATOM     58  N   UNL A   1      43.173  32.237  29.486  1.00  0.00    -0.248 NA
ATOM     59  C   UNL A   1      45.319  32.287  28.666  1.00  0.00     0.031 C 
ATOM     60  C   UNL A   1      41.159  33.920  31.378  1.00  0.00     0.029 A 
ATOM     61  C   UNL A   1      41.300  34.150  30.020  1.00  0.00     0.049 A 
ATOM     62  H   UNL A   1      39.827  34.197  28.515  1.00  0.00     0.167 HD
ATOM     63  C   UNL A   1      43.410  33.533  29.105  1.00  0.00     0.074 A 
ATOM     64  C   UNL A   1      44.780  33.518  28.626  1.00  0.00     0.031 C 
ATOM     65  C   UNL A   1      42.455  34.506  29.209  1.00  0.00     0.037 A 
BRANCH  52  66
ATOM     66  C   UNL A   1      36.487  33.665  30.568  1.00  0.00     0.058 A 
ATOM     67  C   UNL A   1      35.531  34.243  29.703  1.00  0.00     0.135 A 
ATOM     68  C   UNL A   1      36.132  33.699  31.931  1.00  0.00     0.135 A 
ATOM     69  F   UNL A   1      35.657  34.179  28.371  1.00  0.00    -0.206 F 
ATOM     70  C   UNL A   1      34.400  34.923  30.159  1.00  0.00     0.059 A 
ATOM     71  C   UNL A   1      35.037  34.422  32.419  1.00  0.00     0.059 A 
ATOM     72  F   UNL A   1      36.813  32.988  32.842  1.00  0.00    -0.206 F 
ATOM     73  C   UNL A   1      34.183  35.048  31.523  1.00  0.00     0.060 A 
BRANCH  73  74
ATOM     74  S   UNL A   1      32.776  36.019  32.094  1.00  0.00     0.124 S 
ATOM     75  O   UNL A   1      31.887  34.993  32.628  1.00  0.00    -0.237 OA
ATOM     76  O   UNL A   1      33.395  36.899  33.079  1.00  0.00    -0.237 OA
ATOM     77  O   UNL A   1      32.301  36.675  30.879  1.00  0.00    -0.744 OA
ENDBRANCH  73  74
ENDBRANCH  52  66
BRANCH  53  78
ATOM     78  C   UNL A   1      44.772  29.000  28.490  1.00  0.00     0.058 A 
ATOM     79  C   UNL A   1      44.205  29.014  27.201  1.00  0.00     0.135 A 
ATOM     80  C   UNL A   1      46.012  28.366  28.644  1.00  0.00     0.135 A 
ATOM     81  F   UNL A   1      43.010  29.594  27.000  1.00  0.00    -0.206 F 
ATOM     82  C   UNL A   1      44.907  28.571  26.086  1.00  0.00     0.059 A 
ATOM     83  C   UNL A   1      46.733  27.906  27.538  1.00  0.00     0.059 A 
ATOM     84  F   UNL A   1      46.599  28.314  29.848  1.00  0.00    -0.206 F 
ATOM     85  C   UNL A   1      46.199  28.080  26.260  1.00  0.00     0.060 A 
BRANCH  85  86
ATOM     86  S   UNL A   1      47.215  27.846  24.780  1.00  0.00     0.124 S 
ATOM     87  O   UNL A   1      46.859  26.490  24.379  1.00  0.00    -0.237 OA
ATOM     88  O   UNL A   1      46.725  28.910  23.902  1.00  0.00    -0.237 OA
ATOM     89  O   UNL A   1      48.575  28.021  25.276  1.00  0.00    -0.744 OA
ENDBRANCH  85  86
ENDBRANCH  53  78
BRANCH  65  90
ATOM     90  C   UNL A   1      42.556  35.906  28.653  1.00  0.00     0.058 A 
ATOM     91  C   UNL A   1      42.096  36.282  27.380  1.00  0.00     0.135 A 
ATOM     92  C   UNL A   1      43.018  36.967  29.472  1.00  0.00     0.135 A 
ATOM     93  F   UNL A   1      41.530  35.391  26.553  1.00  0.00    -0.206 F 
ATOM     94  C   UNL A   1      42.155  37.599  26.921  1.00  0.00     0.059 A 
ATOM     95  C   UNL A   1      43.035  38.295  29.053  1.00  0.00     0.059 A 
ATOM     96  F   UNL A   1      43.461  36.745  30.718  1.00  0.00    -0.206 F 
ATOM     97  C   UNL A   1      42.629  38.601  27.764  1.00  0.00     0.060 A 
BRANCH  97  98
ATOM     98  S   UNL A   1      42.659  40.313  27.203  1.00  0.00     0.124 S 
ATOM     99  O   UNL A   1      41.303  40.475  26.690  1.00  0.00    -0.237 OA
ATOM    100  O   UNL A   1      42.962  41.052  28.425  1.00  0.00    -0.237 OA
ATOM    101  O   UNL A   1      43.721  40.315  26.201  1.00  0.00    -0.744 OA
ENDBRANCH  97  98
ENDBRANCH  65  90
ENDBRANCH  39  40
ENDBRANCH  31  34
ENDBRANCH  29  30
ENDBRANCH  28  29
ENDBRANCH   1  28
TORSDOF 18
ENDMDL
MODEL 3
REMARK VINA RESULT:     -13.7      1.639      2.002
REMARK SMILES Cc1cc(S(=O)(=O)Nc2ccc(Cl)cc2F)ccc1OCC(=O)NCCCNC(=O)c1ccc(-c2c3nc(c(-c4c(F)cc(S(=O)(=O)[O-])cc4F)c4ccc([nH]4)c(-c4c(F)cc(S(=O)(=O)[O-])cc4F)c4nc(c(-c5c(F)cc(S(=O)(=O)[O-])cc5F)c5ccc2[nH]5)C=C4)C=C3)cc1
REMARK SMILES IDX 25 1 24 2 22 3 23 4 21 6 20 7 19 8 1 9 2 10 3 11 4 12 18 13
REMARK SMILES IDX 17 14 5 15 6 16 7 17 8 18 9 20 10 21 15 22 11 23 14 24 16 25
REMARK SMILES IDX 12 26 13 27 26 28 27 29 28 30 29 31 30 33 31 34 32 35 96 36
REMARK SMILES IDX 33 37 95 38 34 39 35 40 36 41 89 42 37 43 94 44 88 45 90 46
REMARK SMILES IDX 38 47 93 48 87 49 86 50 39 52 73 53 52 54 72 55 53 56 56 57
REMARK SMILES IDX 71 58 91 59 54 60 55 61 70 63 92 64 57 65 40 66 41 67 50 68
REMARK SMILES IDX 42 69 43 70 49 71 51 72 44 73 45 74 46 75 47 76 48 77 74 78
REMARK SMILES IDX 75 79 84 80 76 81 77 82 83 83 85 84 78 85 79 86 80 87 81 88
REMARK SMILES IDX 82 89 58 90 59 91 68 92 60 93 61 94 67 95 69 96 62 97 63 98
REMARK SMILES IDX 64 99 65 100 66 101
REMARK H PARENT 24 5 8 19 28 32 90 51 56 62
REMARK Flexibility Score: inf
ROOT
ATOM      1  C   UNL A   1      32.123  29.354  26.169  1.00  0.00     0.117 C 
ENDROOT
BRANCH   1   2
ATOM      2  N   UNL A   1      31.277  30.095  25.244  1.00  0.00    -0.353 N 
ATOM      3  C   UNL A   1      30.622  29.661  24.126  1.00  0.00     0.257 C 
ATOM      4  O   UNL A   1      29.855  30.433  23.548  1.00  0.00    -0.271 OA
ATOM      5  H   UNL A   1      31.161  31.050  25.454  1.00  0.00     0.163 HD
BRANCH   3   6
ATOM      6  C   UNL A   1      30.801  28.218  23.646  1.00  0.00     0.329 C 
BRANCH   6   7
ATOM      7  O   UNL A   1      31.859  27.932  22.759  1.00  0.00    -0.484 OA
BRANCH   7   8
ATOM      8  C   UNL A   1      32.687  26.860  22.926  1.00  0.00     0.123 A 
ATOM      9  C   UNL A   1      32.526  25.675  20.634  1.00  0.00     0.048 C 
ATOM     10  C   UNL A   1      32.962  25.790  22.065  1.00  0.00    -0.008 A 
ATOM     11  C   UNL A   1      33.723  24.705  22.565  1.00  0.00     0.029 A 
ATOM     12  C   UNL A   1      34.228  24.690  23.872  1.00  0.00     0.088 A 
ATOM     13  C   UNL A   1      33.240  26.846  24.219  1.00  0.00     0.048 A 
ATOM     14  C   UNL A   1      34.057  25.810  24.669  1.00  0.00     0.026 A 
BRANCH  12  15
ATOM     15  S   UNL A   1      34.930  23.158  24.450  1.00  0.00     0.262 S 
ATOM     16  O   UNL A   1      35.700  22.593  23.362  1.00  0.00    -0.201 OA
ATOM     17  O   UNL A   1      35.560  23.457  25.718  1.00  0.00    -0.201 OA
BRANCH  15  18
ATOM     18  N   UNL A   1      33.702  22.084  24.844  1.00  0.00    -0.277 N 
ATOM     19  H   UNL A   1      32.878  22.465  25.225  1.00  0.00     0.180 HD
BRANCH  18  20
ATOM     20  C   UNL A   1      33.747  20.671  24.675  1.00  0.00     0.085 A 
ATOM     21  C   UNL A   1      32.617  20.095  24.083  1.00  0.00     0.031 A 
ATOM     22  C   UNL A   1      34.846  19.851  24.965  1.00  0.00     0.148 A 
ATOM     23  C   UNL A   1      32.634  18.759  23.674  1.00  0.00     0.023 A 
ATOM     24  C   UNL A   1      34.871  18.519  24.555  1.00  0.00     0.062 A 
ATOM     25  F   UNL A   1      35.942  20.339  25.559  1.00  0.00    -0.205 F 
ATOM     26  C   UNL A   1      33.772  17.985  23.889  1.00  0.00     0.044 A 
ATOM     27  Cl  UNL A   1      33.824  16.370  23.302  1.00  0.00    -0.084 Cl
ENDBRANCH  18  20
ENDBRANCH  15  18
ENDBRANCH  12  15
ENDBRANCH   7   8
ENDBRANCH   6   7
ENDBRANCH   3   6
ENDBRANCH   1   2
BRANCH   1  28
ATOM     28  C   UNL A   1      33.577  29.799  26.125  1.00  0.00     0.042 C 
BRANCH  28  29
ATOM     29  C   UNL A   1      34.279  29.705  27.472  1.00  0.00     0.118 C 
BRANCH  29  30
ATOM     30  N   UNL A   1      34.953  30.941  27.847  1.00  0.00    -0.352 N 
ATOM     31  C   UNL A   1      36.167  31.075  28.498  1.00  0.00     0.251 C 
ATOM     32  H   UNL A   1      34.490  31.777  27.611  1.00  0.00     0.163 HD
ATOM     33  O   UNL A   1      36.528  32.120  29.010  1.00  0.00    -0.269 OA
BRANCH  31  34
ATOM     34  C   UNL A   1      37.079  29.918  28.423  1.00  0.00     0.039 A 
ATOM     35  C   UNL A   1      37.221  29.145  29.581  1.00  0.00     0.014 A 
ATOM     36  C   UNL A   1      37.962  29.791  27.354  1.00  0.00     0.014 A 
ATOM     37  C   UNL A   1      38.353  28.353  29.739  1.00  0.00     0.010 A 
ATOM     38  C   UNL A   1      39.124  29.071  27.546  1.00  0.00     0.010 A 
ATOM     39  C   UNL A   1      39.338  28.384  28.753  1.00  0.00    -0.014 A 
BRANCH  39  40
ATOM     40  C   UNL A   1      40.662  27.797  28.924  1.00  0.00     0.031 A 
ATOM     41  C   UNL A   1      40.918  26.400  28.512  1.00  0.00     0.074 A 
ATOM     42  C   UNL A   1      41.681  28.566  29.367  1.00  0.00     0.049 A 
ATOM     43  N   UNL A   1      41.877  25.665  28.965  1.00  0.00    -0.248 NA
ATOM     44  C   UNL A   1      40.066  25.703  27.555  1.00  0.00     0.031 C 
ATOM     45  C   UNL A   1      43.106  28.264  29.294  1.00  0.00     0.029 A 
ATOM     46  N   UNL A   1      41.607  29.720  30.152  1.00  0.00    -0.354 N 
ATOM     47  C   UNL A   1      41.954  24.541  28.174  1.00  0.00     0.074 A 
ATOM     48  C   UNL A   1      40.763  24.582  27.355  1.00  0.00     0.031 C 
ATOM     49  C   UNL A   1      43.758  29.026  30.185  1.00  0.00     0.029 A 
ATOM     50  C   UNL A   1      42.756  29.730  30.967  1.00  0.00     0.049 A 
ATOM     51  H   UNL A   1      40.891  30.395  30.139  1.00  0.00     0.167 HD
ATOM     52  C   UNL A   1      43.087  23.778  28.189  1.00  0.00     0.037 A 
ATOM     53  C   UNL A   1      42.657  29.675  32.329  1.00  0.00     0.037 A 
ATOM     54  C   UNL A   1      44.051  24.288  29.164  1.00  0.00     0.049 A 
ATOM     55  C   UNL A   1      43.300  28.451  32.940  1.00  0.00     0.074 A 
ATOM     56  C   UNL A   1      45.154  25.116  29.034  1.00  0.00     0.029 A 
ATOM     57  N   UNL A   1      43.769  24.221  30.526  1.00  0.00    -0.354 N 
ATOM     58  N   UNL A   1      43.627  27.384  32.264  1.00  0.00    -0.248 NA
ATOM     59  C   UNL A   1      43.609  28.322  34.362  1.00  0.00     0.031 C 
ATOM     60  C   UNL A   1      45.498  25.601  30.319  1.00  0.00     0.029 A 
ATOM     61  C   UNL A   1      44.614  25.056  31.234  1.00  0.00     0.049 A 
ATOM     62  H   UNL A   1      43.068  23.659  30.928  1.00  0.00     0.167 HD
ATOM     63  C   UNL A   1      44.133  26.435  33.115  1.00  0.00     0.074 A 
ATOM     64  C   UNL A   1      44.129  27.083  34.414  1.00  0.00     0.031 C 
ATOM     65  C   UNL A   1      44.503  25.194  32.679  1.00  0.00     0.037 A 
BRANCH  52  66
ATOM     66  C   UNL A   1      43.442  22.797  27.084  1.00  0.00     0.058 A 
ATOM     67  C   UNL A   1      42.775  21.556  26.973  1.00  0.00     0.135 A 
ATOM     68  C   UNL A   1      44.477  22.987  26.147  1.00  0.00     0.135 A 
ATOM     69  F   UNL A   1      41.690  21.272  27.703  1.00  0.00    -0.206 F 
ATOM     70  C   UNL A   1      43.192  20.540  26.111  1.00  0.00     0.059 A 
ATOM     71  C   UNL A   1      44.951  21.967  25.314  1.00  0.00     0.059 A 
ATOM     72  F   UNL A   1      45.038  24.192  25.970  1.00  0.00    -0.206 F 
ATOM     73  C   UNL A   1      44.310  20.736  25.316  1.00  0.00     0.060 A 
BRANCH  73  74
ATOM     74  S   UNL A   1      44.896  19.375  24.288  1.00  0.00     0.124 S 
ATOM     75  O   UNL A   1      44.425  19.762  22.963  1.00  0.00    -0.237 OA
ATOM     76  O   UNL A   1      46.339  19.439  24.494  1.00  0.00    -0.237 OA
ATOM     77  O   UNL A   1      44.233  18.207  24.862  1.00  0.00    -0.744 OA
ENDBRANCH  73  74
ENDBRANCH  52  66
BRANCH  53  78
ATOM     78  C   UNL A   1      41.456  30.379  32.855  1.00  0.00     0.058 A 
ATOM     79  C   UNL A   1      40.301  29.609  33.095  1.00  0.00     0.135 A 
ATOM     80  C   UNL A   1      41.558  31.612  33.511  1.00  0.00     0.135 A 
ATOM     81  F   UNL A   1      40.144  28.425  32.480  1.00  0.00    -0.206 F 
ATOM     82  C   UNL A   1      39.371  29.963  34.066  1.00  0.00     0.059 A 
ATOM     83  C   UNL A   1      40.631  31.994  34.486  1.00  0.00     0.059 A 
ATOM     84  F   UNL A   1      42.631  32.394  33.317  1.00  0.00    -0.206 F 
ATOM     85  C   UNL A   1      39.584  31.127  34.803  1.00  0.00     0.060 A 
BRANCH  85  86
ATOM     86  S   UNL A   1      38.572  31.381  36.281  1.00  0.00     0.124 S 
ATOM     87  O   UNL A   1      39.471  32.149  37.136  1.00  0.00    -0.237 OA
ATOM     88  O   UNL A   1      37.430  32.123  35.746  1.00  0.00    -0.237 OA
ATOM     89  O   UNL A   1      38.283  30.024  36.728  1.00  0.00    -0.744 OA
ENDBRANCH  85  86
ENDBRANCH  53  78
BRANCH  65  90
ATOM     90  C   UNL A   1      44.895  24.029  33.557  1.00  0.00     0.058 A 
ATOM     91  C   UNL A   1      44.013  23.009  33.949  1.00  0.00     0.135 A 
ATOM     92  C   UNL A   1      46.249  23.841  33.929  1.00  0.00     0.135 A 
ATOM     93  F   UNL A   1      42.729  23.011  33.562  1.00  0.00    -0.206 F 
ATOM     94  C   UNL A   1      44.424  21.916  34.715  1.00  0.00     0.059 A 
ATOM     95  C   UNL A   1      46.691  22.732  34.647  1.00  0.00     0.059 A 
ATOM     96  F   UNL A   1      47.196  24.730  33.595  1.00  0.00    -0.206 F 
ATOM     97  C   UNL A   1      45.766  21.787  35.063  1.00  0.00     0.060 A 
BRANCH  97  98
ATOM     98  S   UNL A   1      46.319  20.354  36.006  1.00  0.00     0.124 S 
ATOM     99  O   UNL A   1      45.695  19.261  35.267  1.00  0.00    -0.237 OA
ATOM    100  O   UNL A   1      47.774  20.435  35.899  1.00  0.00    -0.237 OA
ATOM    101  O   UNL A   1      45.783  20.606  37.339  1.00  0.00    -0.744 OA
ENDBRANCH  97  98
ENDBRANCH  65  90
ENDBRANCH  39  40
ENDBRANCH  31  34
ENDBRANCH  29  30
ENDBRANCH  28  29
ENDBRANCH   1  28
TORSDOF 18
ENDMDL
