MODEL 1
REMARK VINA RESULT:     -12.3      0.000      0.000
REMARK SMILES Cc1ccc(C)c([C@@H](C)[C@](C)(O)C(=O)NCCCNC(=O)c2ccc(-c3c4nc(c(-c5c(F)cc(S(=O)(=O)[O-])cc5F)c5ccc([nH]5)c(-c5c(F)cc(S(=O)(=O)[O-])cc5F)c5nc(c(-c6c(F)cc(S(=O)(=O)[O-])cc6F)c6ccc3[nH]6)C=C5)C=C4)cc2)c1
REMARK SMILES IDX 17 1 16 2 15 3 13 4 14 5 10 7 11 8 8 9 9 10 7 11 1 12 2 13
REMARK SMILES IDX 3 14 88 15 4 16 5 17 6 18 12 19 18 21 19 22 20 23 21 25
REMARK SMILES IDX 22 26 23 27 87 28 24 29 86 30 25 31 26 32 27 33 80 34 28 35
REMARK SMILES IDX 85 36 79 37 81 38 29 39 84 40 78 41 77 42 30 44 64 45 43 46
REMARK SMILES IDX 63 47 44 48 47 49 62 50 82 51 45 52 46 53 61 55 83 56 48 57
REMARK SMILES IDX 31 58 32 59 41 60 33 61 34 62 40 63 42 64 35 65 36 66 37 67
REMARK SMILES IDX 38 68 39 69 65 70 66 71 75 72 67 73 68 74 74 75 76 76 69 77
REMARK SMILES IDX 70 78 71 79 72 80 73 81 49 82 50 83 59 84 51 85 52 86 58 87
REMARK SMILES IDX 60 88 53 89 54 90 55 91 56 92 57 93
REMARK H PARENT 15 6 12 20 19 24 81 43 47 54
REMARK Flexibility Score: inf
ROOT
ATOM      1  C   UNL A   1      32.220  30.713  26.879  1.00  0.00     0.042 C 
ENDROOT
BRANCH   1   2
ATOM      2  C   UNL A   1      31.884  29.658  25.826  1.00  0.00     0.117 C 
BRANCH   2   3
ATOM      3  N   UNL A   1      31.079  30.131  24.716  1.00  0.00    -0.354 N 
ATOM      4  C   UNL A   1      30.604  29.472  23.618  1.00  0.00     0.252 C 
ATOM      5  O   UNL A   1      29.790  30.091  22.925  1.00  0.00    -0.272 OA
ATOM      6  H   UNL A   1      30.833  31.083  24.762  1.00  0.00     0.163 HD
BRANCH   4   7
ATOM      7  C   UNL A   1      31.080  28.037  23.225  1.00  0.00     0.146 C 
ATOM      8  C   UNL A   1      30.181  27.022  23.967  1.00  0.00     0.053 C 
BRANCH   7   9
ATOM      9  C   UNL A   1      32.629  27.807  23.410  1.00  0.00     0.057 C 
ATOM     10  C   UNL A   1      33.518  28.419  22.317  1.00  0.00     0.016 C 
BRANCH   9  11
ATOM     11  C   UNL A   1      33.108  26.416  23.840  1.00  0.00    -0.039 A 
ATOM     12  C   UNL A   1      33.439  23.080  21.963  1.00  0.00     0.044 C 
ATOM     13  C   UNL A   1      33.503  24.104  23.057  1.00  0.00    -0.051 A 
ATOM     14  C   UNL A   1      34.174  23.824  24.241  1.00  0.00     0.004 A 
ATOM     15  C   UNL A   1      32.939  25.374  22.893  1.00  0.00     0.007 A 
ATOM     16  C   UNL A   1      34.279  24.802  25.227  1.00  0.00     0.004 A 
ATOM     17  C   UNL A   1      33.753  26.100  25.050  1.00  0.00    -0.048 A 
ATOM     18  C   UNL A   1      33.973  27.047  26.192  1.00  0.00     0.044 C 
ENDBRANCH   9  11
ENDBRANCH   7   9
BRANCH   7  19
ATOM     19  O   UNL A   1      30.794  27.815  21.819  1.00  0.00    -0.380 OA
ATOM     20  H   UNL A   1      31.041  28.604  21.310  1.00  0.00     0.212 HD
ENDBRANCH   7  19
ENDBRANCH   4   7
ENDBRANCH   2   3
ENDBRANCH   1   2
BRANCH   1  21
ATOM     21  C   UNL A   1      33.703  30.862  27.222  1.00  0.00     0.118 C 
BRANCH  21  22
ATOM     22  N   UNL A   1      34.003  31.999  28.117  1.00  0.00    -0.352 N 
ATOM     23  C   UNL A   1      34.940  32.177  29.140  1.00  0.00     0.251 C 
ATOM     24  H   UNL A   1      33.433  32.786  27.962  1.00  0.00     0.163 HD
ATOM     25  O   UNL A   1      34.789  33.069  29.952  1.00  0.00    -0.269 OA
BRANCH  23  26
ATOM     26  C   UNL A   1      36.124  31.290  29.226  1.00  0.00     0.039 A 
ATOM     27  C   UNL A   1      36.132  29.906  29.015  1.00  0.00     0.014 A 
ATOM     28  C   UNL A   1      37.303  31.891  29.566  1.00  0.00     0.014 A 
ATOM     29  C   UNL A   1      37.349  29.216  29.162  1.00  0.00     0.010 A 
ATOM     30  C   UNL A   1      38.426  31.317  29.088  1.00  0.00     0.010 A 
ATOM     31  C   UNL A   1      38.519  29.965  29.252  1.00  0.00    -0.014 A 
BRANCH  31  32
ATOM     32  C   UNL A   1      39.876  29.476  29.415  1.00  0.00     0.031 A 
ATOM     33  C   UNL A   1      40.271  29.227  30.810  1.00  0.00     0.074 A 
ATOM     34  C   UNL A   1      40.574  28.924  28.393  1.00  0.00     0.049 A 
ATOM     35  N   UNL A   1      41.016  29.970  31.553  1.00  0.00    -0.248 NA
ATOM     36  C   UNL A   1      39.618  28.120  31.525  1.00  0.00     0.031 C 
ATOM     37  C   UNL A   1      40.148  28.683  27.007  1.00  0.00     0.029 A 
ATOM     38  N   UNL A   1      41.804  28.341  28.427  1.00  0.00    -0.354 N 
ATOM     39  C   UNL A   1      41.128  29.282  32.753  1.00  0.00     0.074 A 
ATOM     40  C   UNL A   1      40.044  28.337  32.771  1.00  0.00     0.031 C 
ATOM     41  C   UNL A   1      41.021  27.844  26.402  1.00  0.00     0.029 A 
ATOM     42  C   UNL A   1      42.132  27.591  27.301  1.00  0.00     0.049 A 
ATOM     43  H   UNL A   1      42.415  28.442  29.191  1.00  0.00     0.167 HD
ATOM     44  C   UNL A   1      42.266  29.337  33.498  1.00  0.00     0.037 A 
ATOM     45  C   UNL A   1      43.220  26.789  27.160  1.00  0.00     0.037 A 
ATOM     46  C   UNL A   1      43.181  30.328  32.976  1.00  0.00     0.049 A 
ATOM     47  C   UNL A   1      44.213  27.233  28.180  1.00  0.00     0.074 A 
ATOM     48  C   UNL A   1      43.087  31.680  32.699  1.00  0.00     0.029 A 
ATOM     49  N   UNL A   1      44.262  29.875  32.251  1.00  0.00    -0.354 N 
ATOM     50  N   UNL A   1      44.811  28.395  28.162  1.00  0.00    -0.248 NA
ATOM     51  C   UNL A   1      44.203  26.572  29.479  1.00  0.00     0.031 C 
ATOM     52  C   UNL A   1      43.790  31.859  31.472  1.00  0.00     0.029 A 
ATOM     53  C   UNL A   1      44.339  30.629  31.104  1.00  0.00     0.049 A 
ATOM     54  H   UNL A   1      44.869  29.144  32.507  1.00  0.00     0.167 HD
ATOM     55  C   UNL A   1      44.849  28.802  29.489  1.00  0.00     0.074 A 
ATOM     56  C   UNL A   1      44.567  27.595  30.260  1.00  0.00     0.031 C 
ATOM     57  C   UNL A   1      44.810  30.128  29.827  1.00  0.00     0.037 A 
BRANCH  44  58
ATOM     58  C   UNL A   1      42.711  28.274  34.470  1.00  0.00     0.058 A 
ATOM     59  C   UNL A   1      42.901  28.624  35.821  1.00  0.00     0.135 A 
ATOM     60  C   UNL A   1      43.178  26.992  34.100  1.00  0.00     0.135 A 
ATOM     61  F   UNL A   1      42.504  29.822  36.277  1.00  0.00    -0.206 F 
ATOM     62  C   UNL A   1      43.562  27.790  36.722  1.00  0.00     0.059 A 
ATOM     63  C   UNL A   1      43.779  26.119  34.998  1.00  0.00     0.059 A 
ATOM     64  F   UNL A   1      43.170  26.562  32.833  1.00  0.00    -0.206 F 
ATOM     65  C   UNL A   1      44.009  26.544  36.295  1.00  0.00     0.060 A 
BRANCH  65  66
ATOM     66  S   UNL A   1      44.962  25.511  37.420  1.00  0.00     0.124 S 
ATOM     67  O   UNL A   1      44.285  25.769  38.686  1.00  0.00    -0.237 OA
ATOM     68  O   UNL A   1      44.770  24.182  36.850  1.00  0.00    -0.237 OA
ATOM     69  O   UNL A   1      46.315  26.048  37.304  1.00  0.00    -0.744 OA
ENDBRANCH  65  66
ENDBRANCH  44  58
BRANCH  45  70
ATOM     70  C   UNL A   1      43.338  25.500  26.419  1.00  0.00     0.058 A 
ATOM     71  C   UNL A   1      44.282  25.341  25.386  1.00  0.00     0.135 A 
ATOM     72  C   UNL A   1      42.733  24.313  26.882  1.00  0.00     0.135 A 
ATOM     73  F   UNL A   1      44.921  26.409  24.884  1.00  0.00    -0.206 F 
ATOM     74  C   UNL A   1      44.657  24.083  24.899  1.00  0.00     0.059 A 
ATOM     75  C   UNL A   1      43.074  23.051  26.397  1.00  0.00     0.059 A 
ATOM     76  F   UNL A   1      41.862  24.325  27.900  1.00  0.00    -0.206 F 
ATOM     77  C   UNL A   1      44.065  22.939  25.432  1.00  0.00     0.060 A 
BRANCH  77  78
ATOM     78  S   UNL A   1      44.702  21.307  24.980  1.00  0.00     0.124 S 
ATOM     79  O   UNL A   1      46.045  21.336  25.547  1.00  0.00    -0.237 OA
ATOM     80  O   UNL A   1      43.752  20.413  25.634  1.00  0.00    -0.237 OA
ATOM     81  O   UNL A   1      44.640  21.311  23.520  1.00  0.00    -0.744 OA
ENDBRANCH  77  78
ENDBRANCH  45  70
BRANCH  57  82
ATOM     82  C   UNL A   1      45.036  31.148  28.733  1.00  0.00     0.058 A 
ATOM     83  C   UNL A   1      44.009  31.758  27.988  1.00  0.00     0.135 A 
ATOM     84  C   UNL A   1      46.338  31.627  28.519  1.00  0.00     0.135 A 
ATOM     85  F   UNL A   1      42.724  31.456  28.206  1.00  0.00    -0.206 F 
ATOM     86  C   UNL A   1      44.268  32.746  27.037  1.00  0.00     0.059 A 
ATOM     87  C   UNL A   1      46.617  32.638  27.602  1.00  0.00     0.059 A 
ATOM     88  F   UNL A   1      47.360  31.140  29.243  1.00  0.00    -0.206 F 
ATOM     89  C   UNL A   1      45.578  33.178  26.847  1.00  0.00     0.060 A 
BRANCH  89  90
ATOM     90  S   UNL A   1      45.901  34.498  25.659  1.00  0.00     0.124 S 
ATOM     91  O   UNL A   1      45.066  34.105  24.529  1.00  0.00    -0.237 OA
ATOM     92  O   UNL A   1      45.471  35.693  26.379  1.00  0.00    -0.237 OA
ATOM     93  O   UNL A   1      47.342  34.407  25.431  1.00  0.00    -0.744 OA
ENDBRANCH  89  90
ENDBRANCH  57  82
ENDBRANCH  31  32
ENDBRANCH  23  26
ENDBRANCH  21  22
ENDBRANCH   1  21
TORSDOF 16
ENDMDL
MODEL 2
REMARK VINA RESULT:     -12.2      2.952      5.715
REMARK SMILES Cc1ccc(C)c([C@@H](C)[C@](C)(O)C(=O)NCCCNC(=O)c2ccc(-c3c4nc(c(-c5c(F)cc(S(=O)(=O)[O-])cc5F)c5ccc([nH]5)c(-c5c(F)cc(S(=O)(=O)[O-])cc5F)c5nc(c(-c6c(F)cc(S(=O)(=O)[O-])cc6F)c6ccc3[nH]6)C=C5)C=C4)cc2)c1
REMARK SMILES IDX 17 1 16 2 15 3 13 4 14 5 10 7 11 8 8 9 9 10 7 11 1 12 2 13
REMARK SMILES IDX 3 14 88 15 4 16 5 17 6 18 12 19 18 21 19 22 20 23 21 25
REMARK SMILES IDX 22 26 23 27 87 28 24 29 86 30 25 31 26 32 27 33 80 34 28 35
REMARK SMILES IDX 85 36 79 37 81 38 29 39 84 40 78 41 77 42 30 44 64 45 43 46
REMARK SMILES IDX 63 47 44 48 47 49 62 50 82 51 45 52 46 53 61 55 83 56 48 57
REMARK SMILES IDX 31 58 32 59 41 60 33 61 34 62 40 63 42 64 35 65 36 66 37 67
REMARK SMILES IDX 38 68 39 69 65 70 66 71 75 72 67 73 68 74 74 75 76 76 69 77
REMARK SMILES IDX 70 78 71 79 72 80 73 81 49 82 50 83 59 84 51 85 52 86 58 87
REMARK SMILES IDX 60 88 53 89 54 90 55 91 56 92 57 93
REMARK H PARENT 15 6 12 20 19 24 81 43 47 54
REMARK Flexibility Score: inf
ROOT
ATOM      1  C   UNL A   1      34.028  34.509  28.982  1.00  0.00     0.042 C 
ENDROOT
BRANCH   1   2
ATOM      2  C   UNL A   1      34.570  34.550  30.410  1.00  0.00     0.117 C 
BRANCH   2   3
ATOM      3  N   UNL A   1      33.809  33.784  31.378  1.00  0.00    -0.354 N 
ATOM      4  C   UNL A   1      34.082  33.474  32.680  1.00  0.00     0.252 C 
ATOM      5  O   UNL A   1      33.161  32.955  33.319  1.00  0.00    -0.272 OA
ATOM      6  H   UNL A   1      32.955  33.429  31.043  1.00  0.00     0.163 HD
BRANCH   4   7
ATOM      7  C   UNL A   1      35.482  33.721  33.329  1.00  0.00     0.146 C 
ATOM      8  C   UNL A   1      35.724  35.246  33.366  1.00  0.00     0.053 C 
BRANCH   7   9
ATOM      9  C   UNL A   1      36.644  32.883  32.672  1.00  0.00     0.057 C 
ATOM     10  C   UNL A   1      36.482  31.358  32.756  1.00  0.00     0.016 C 
BRANCH   9  11
ATOM     11  C   UNL A   1      38.090  33.330  32.922  1.00  0.00    -0.039 A 
ATOM     12  C   UNL A   1      40.678  32.396  35.603  1.00  0.00     0.044 C 
ATOM     13  C   UNL A   1      40.051  33.029  34.397  1.00  0.00    -0.051 A 
ATOM     14  C   UNL A   1      40.831  33.743  33.494  1.00  0.00     0.004 A 
ATOM     15  C   UNL A   1      38.687  32.875  34.125  1.00  0.00     0.007 A 
ATOM     16  C   UNL A   1      40.251  34.277  32.346  1.00  0.00     0.004 A 
ATOM     17  C   UNL A   1      38.886  34.085  32.042  1.00  0.00    -0.048 A 
ATOM     18  C   UNL A   1      38.419  34.699  30.755  1.00  0.00     0.044 C 
ENDBRANCH   9  11
ENDBRANCH   7   9
BRANCH   7  19
ATOM     19  O   UNL A   1      35.428  33.328  34.727  1.00  0.00    -0.380 OA
ATOM     20  H   UNL A   1      35.532  34.113  35.287  1.00  0.00     0.212 HD
ENDBRANCH   7  19
ENDBRANCH   4   7
ENDBRANCH   2   3
ENDBRANCH   1   2
BRANCH   1  21
ATOM     21  C   UNL A   1      34.803  33.627  28.001  1.00  0.00     0.118 C 
BRANCH  21  22
ATOM     22  N   UNL A   1      34.266  32.256  27.869  1.00  0.00    -0.352 N 
ATOM     23  C   UNL A   1      34.881  31.003  27.784  1.00  0.00     0.251 C 
ATOM     24  H   UNL A   1      33.283  32.218  27.836  1.00  0.00     0.163 HD
ATOM     25  O   UNL A   1      34.259  30.051  27.355  1.00  0.00    -0.269 OA
BRANCH  23  26
ATOM     26  C   UNL A   1      36.283  30.831  28.230  1.00  0.00     0.039 A 
ATOM     27  C   UNL A   1      36.978  31.677  29.104  1.00  0.00     0.014 A 
ATOM     28  C   UNL A   1      36.952  29.757  27.715  1.00  0.00     0.014 A 
ATOM     29  C   UNL A   1      38.318  31.371  29.402  1.00  0.00     0.010 A 
ATOM     30  C   UNL A   1      37.923  29.229  28.488  1.00  0.00     0.010 A 
ATOM     31  C   UNL A   1      38.803  30.122  29.028  1.00  0.00    -0.014 A 
BRANCH  31  32
ATOM     32  C   UNL A   1      40.142  29.595  29.221  1.00  0.00     0.031 A 
ATOM     33  C   UNL A   1      40.493  29.317  30.623  1.00  0.00     0.074 A 
ATOM     34  C   UNL A   1      40.854  29.039  28.211  1.00  0.00     0.049 A 
ATOM     35  N   UNL A   1      41.237  30.029  31.396  1.00  0.00    -0.248 NA
ATOM     36  C   UNL A   1      39.792  28.217  31.304  1.00  0.00     0.031 C 
ATOM     37  C   UNL A   1      40.459  28.829  26.810  1.00  0.00     0.029 A 
ATOM     38  N   UNL A   1      42.066  28.424  28.269  1.00  0.00    -0.354 N 
ATOM     39  C   UNL A   1      41.299  29.323  32.588  1.00  0.00     0.074 A 
ATOM     40  C   UNL A   1      40.190  28.406  32.564  1.00  0.00     0.031 C 
ATOM     41  C   UNL A   1      41.326  27.975  26.217  1.00  0.00     0.029 A 
ATOM     42  C   UNL A   1      42.406  27.681  27.142  1.00  0.00     0.049 A 
ATOM     43  H   UNL A   1      42.659  28.498  29.050  1.00  0.00     0.167 HD
ATOM     44  C   UNL A   1      42.417  29.337  33.364  1.00  0.00     0.037 A 
ATOM     45  C   UNL A   1      43.476  26.852  27.018  1.00  0.00     0.037 A 
ATOM     46  C   UNL A   1      43.370  30.312  32.881  1.00  0.00     0.049 A 
ATOM     47  C   UNL A   1      44.452  27.256  28.071  1.00  0.00     0.074 A 
ATOM     48  C   UNL A   1      43.319  31.669  32.621  1.00  0.00     0.029 A 
ATOM     49  N   UNL A   1      44.458  29.840  32.178  1.00  0.00    -0.354 N 
ATOM     50  N   UNL A   1      45.080  28.402  28.085  1.00  0.00    -0.248 NA
ATOM     51  C   UNL A   1      44.389  26.578  29.359  1.00  0.00     0.031 C 
ATOM     52  C   UNL A   1      44.060  31.846  31.416  1.00  0.00     0.029 A 
ATOM     53  C   UNL A   1      44.587  30.608  31.045  1.00  0.00     0.049 A 
ATOM     54  H   UNL A   1      45.039  29.091  32.441  1.00  0.00     0.167 HD
ATOM     55  C   UNL A   1      45.093  28.791  29.419  1.00  0.00     0.074 A 
ATOM     56  C   UNL A   1      44.758  27.580  30.164  1.00  0.00     0.031 C 
ATOM     57  C   UNL A   1      45.079  30.112  29.774  1.00  0.00     0.037 A 
BRANCH  44  58
ATOM     58  C   UNL A   1      42.807  28.250  34.332  1.00  0.00     0.058 A 
ATOM     59  C   UNL A   1      43.017  28.585  35.684  1.00  0.00     0.135 A 
ATOM     60  C   UNL A   1      43.207  26.947  33.958  1.00  0.00     0.135 A 
ATOM     61  F   UNL A   1      42.682  29.801  36.144  1.00  0.00    -0.206 F 
ATOM     62  C   UNL A   1      43.635  27.716  36.581  1.00  0.00     0.059 A 
ATOM     63  C   UNL A   1      43.764  26.041  34.852  1.00  0.00     0.059 A 
ATOM     64  F   UNL A   1      43.176  26.522  32.689  1.00  0.00    -0.206 F 
ATOM     65  C   UNL A   1      44.017  26.450  36.150  1.00  0.00     0.060 A 
BRANCH  65  66
ATOM     66  S   UNL A   1      44.916  25.366  37.270  1.00  0.00     0.124 S 
ATOM     67  O   UNL A   1      44.653  24.060  36.677  1.00  0.00    -0.237 OA
ATOM     68  O   UNL A   1      46.282  25.864  37.145  1.00  0.00    -0.237 OA
ATOM     69  O   UNL A   1      44.280  25.615  38.561  1.00  0.00    -0.744 OA
ENDBRANCH  65  66
ENDBRANCH  44  58
BRANCH  45  70
ATOM     70  C   UNL A   1      43.580  25.571  26.262  1.00  0.00     0.058 A 
ATOM     71  C   UNL A   1      44.619  25.359  25.335  1.00  0.00     0.135 A 
ATOM     72  C   UNL A   1      42.842  24.426  26.626  1.00  0.00     0.135 A 
ATOM     73  F   UNL A   1      45.386  26.384  24.933  1.00  0.00    -0.206 F 
ATOM     74  C   UNL A   1      44.952  24.084  24.860  1.00  0.00     0.059 A 
ATOM     75  C   UNL A   1      43.142  23.150  26.149  1.00  0.00     0.059 A 
ATOM     76  F   UNL A   1      41.867  24.486  27.542  1.00  0.00    -0.206 F 
ATOM     77  C   UNL A   1      44.223  22.979  25.295  1.00  0.00     0.060 A 
BRANCH  77  78
ATOM     78  S   UNL A   1      44.784  21.312  24.875  1.00  0.00     0.124 S 
ATOM     79  O   UNL A   1      46.164  21.326  25.349  1.00  0.00    -0.237 OA
ATOM     80  O   UNL A   1      43.859  20.474  25.631  1.00  0.00    -0.237 OA
ATOM     81  O   UNL A   1      44.623  21.256  23.424  1.00  0.00    -0.744 OA
ENDBRANCH  77  78
ENDBRANCH  45  70
BRANCH  57  82
ATOM     82  C   UNL A   1      45.360  31.141  28.701  1.00  0.00     0.058 A 
ATOM     83  C   UNL A   1      44.410  31.603  27.771  1.00  0.00     0.135 A 
ATOM     84  C   UNL A   1      46.608  31.783  28.698  1.00  0.00     0.135 A 
ATOM     85  F   UNL A   1      43.156  31.137  27.776  1.00  0.00    -0.206 F 
ATOM     86  C   UNL A   1      44.704  32.605  26.846  1.00  0.00     0.059 A 
ATOM     87  C   UNL A   1      46.912  32.812  27.809  1.00  0.00     0.059 A 
ATOM     88  F   UNL A   1      47.541  31.443  29.603  1.00  0.00    -0.206 F 
ATOM     89  C   UNL A   1      45.961  33.203  26.869  1.00  0.00     0.060 A 
BRANCH  89  90
ATOM     90  S   UNL A   1      46.316  34.541  25.710  1.00  0.00     0.124 S 
ATOM     91  O   UNL A   1      47.735  34.340  25.437  1.00  0.00    -0.237 OA
ATOM     92  O   UNL A   1      45.410  34.256  24.601  1.00  0.00    -0.237 OA
ATOM     93  O   UNL A   1      45.992  35.746  26.471  1.00  0.00    -0.744 OA
ENDBRANCH  89  90
ENDBRANCH  57  82
ENDBRANCH  31  32
ENDBRANCH  23  26
ENDBRANCH  21  22
ENDBRANCH   1  21
TORSDOF 16
ENDMDL
MODEL 3
REMARK VINA RESULT:     -12.0      4.390     11.145
REMARK SMILES Cc1ccc(C)c([C@@H](C)[C@](C)(O)C(=O)NCCCNC(=O)c2ccc(-c3c4nc(c(-c5c(F)cc(S(=O)(=O)[O-])cc5F)c5ccc([nH]5)c(-c5c(F)cc(S(=O)(=O)[O-])cc5F)c5nc(c(-c6c(F)cc(S(=O)(=O)[O-])cc6F)c6ccc3[nH]6)C=C5)C=C4)cc2)c1
REMARK SMILES IDX 17 1 16 2 15 3 13 4 14 5 10 7 11 8 8 9 9 10 7 11 1 12 2 13
REMARK SMILES IDX 3 14 88 15 4 16 5 17 6 18 12 19 18 21 19 22 20 23 21 25
REMARK SMILES IDX 22 26 23 27 87 28 24 29 86 30 25 31 26 32 27 33 80 34 28 35
REMARK SMILES IDX 85 36 79 37 81 38 29 39 84 40 78 41 77 42 30 44 64 45 43 46
REMARK SMILES IDX 63 47 44 48 47 49 62 50 82 51 45 52 46 53 61 55 83 56 48 57
REMARK SMILES IDX 31 58 32 59 41 60 33 61 34 62 40 63 42 64 35 65 36 66 37 67
REMARK SMILES IDX 38 68 39 69 65 70 66 71 75 72 67 73 68 74 74 75 76 76 69 77
REMARK SMILES IDX 70 78 71 79 72 80 73 81 49 82 50 83 59 84 51 85 52 86 58 87
REMARK SMILES IDX 60 88 53 89 54 90 55 91 56 92 57 93
REMARK H PARENT 15 6 12 20 19 24 81 43 47 54
REMARK Flexibility Score: inf
ROOT
ATOM      1  C   UNL A   1      42.073  20.358  26.523  1.00  0.00     0.042 C 
ENDROOT
BRANCH   1   2
ATOM      2  C   UNL A   1      43.103  21.454  26.257  1.00  0.00     0.117 C 
BRANCH   2   3
ATOM      3  N   UNL A   1      43.248  21.838  24.866  1.00  0.00    -0.354 N 
ATOM      4  C   UNL A   1      44.182  22.624  24.253  1.00  0.00     0.252 C 
ATOM      5  O   UNL A   1      44.158  22.630  23.018  1.00  0.00    -0.272 OA
ATOM      6  H   UNL A   1      42.561  21.471  24.264  1.00  0.00     0.163 HD
BRANCH   4   7
ATOM      7  C   UNL A   1      45.202  23.498  25.051  1.00  0.00     0.146 C 
ATOM      8  C   UNL A   1      46.046  22.552  25.934  1.00  0.00     0.053 C 
BRANCH   7   9
ATOM      9  C   UNL A   1      44.541  24.706  25.819  1.00  0.00     0.057 C 
ATOM     10  C   UNL A   1      43.413  25.425  25.063  1.00  0.00     0.016 C 
BRANCH   9  11
ATOM     11  C   UNL A   1      45.460  25.683  26.560  1.00  0.00    -0.039 A 
ATOM     12  C   UNL A   1      47.285  25.490  29.936  1.00  0.00     0.044 C 
ATOM     13  C   UNL A   1      46.811  25.999  28.607  1.00  0.00    -0.051 A 
ATOM     14  C   UNL A   1      47.382  27.135  28.048  1.00  0.00     0.004 A 
ATOM     15  C   UNL A   1      45.826  25.319  27.881  1.00  0.00     0.007 A 
ATOM     16  C   UNL A   1      46.977  27.566  26.786  1.00  0.00     0.004 A 
ATOM     17  C   UNL A   1      46.019  26.859  26.028  1.00  0.00    -0.048 A 
ATOM     18  C   UNL A   1      45.711  27.436  24.678  1.00  0.00     0.044 C 
ENDBRANCH   9  11
ENDBRANCH   7   9
BRANCH   7  19
ATOM     19  O   UNL A   1      46.157  24.073  24.119  1.00  0.00    -0.380 OA
ATOM     20  H   UNL A   1      47.020  24.160  24.553  1.00  0.00     0.212 HD
ENDBRANCH   7  19
ENDBRANCH   4   7
ENDBRANCH   2   3
ENDBRANCH   1   2
BRANCH   1  21
ATOM     21  C   UNL A   1      40.799  20.802  27.245  1.00  0.00     0.118 C 
BRANCH  21  22
ATOM     22  N   UNL A   1      39.813  21.471  26.370  1.00  0.00    -0.352 N 
ATOM     23  C   UNL A   1      39.245  22.748  26.389  1.00  0.00     0.251 C 
ATOM     24  H   UNL A   1      39.494  20.906  25.629  1.00  0.00     0.163 HD
ATOM     25  O   UNL A   1      38.221  22.965  25.770  1.00  0.00    -0.269 OA
BRANCH  23  26
ATOM     26  C   UNL A   1      39.896  23.841  27.148  1.00  0.00     0.039 A 
ATOM     27  C   UNL A   1      41.247  23.895  27.514  1.00  0.00     0.014 A 
ATOM     28  C   UNL A   1      39.087  24.870  27.537  1.00  0.00     0.014 A 
ATOM     29  C   UNL A   1      41.691  25.004  28.257  1.00  0.00     0.010 A 
ATOM     30  C   UNL A   1      39.673  26.078  27.663  1.00  0.00     0.010 A 
ATOM     31  C   UNL A   1      40.843  26.101  28.367  1.00  0.00    -0.014 A 
BRANCH  31  32
ATOM     32  C   UNL A   1      41.081  27.340  29.085  1.00  0.00     0.031 A 
ATOM     33  C   UNL A   1      42.130  28.191  28.502  1.00  0.00     0.074 A 
ATOM     34  C   UNL A   1      40.180  27.858  29.955  1.00  0.00     0.049 A 
ATOM     35  N   UNL A   1      43.339  28.336  28.922  1.00  0.00    -0.248 NA
ATOM     36  C   UNL A   1      41.866  28.815  27.196  1.00  0.00     0.031 C 
ATOM     37  C   UNL A   1      38.851  27.347  30.321  1.00  0.00     0.029 A 
ATOM     38  N   UNL A   1      40.228  29.047  30.615  1.00  0.00    -0.354 N 
ATOM     39  C   UNL A   1      43.907  29.272  28.071  1.00  0.00     0.074 A 
ATOM     40  C   UNL A   1      43.073  29.300  26.898  1.00  0.00     0.031 C 
ATOM     41  C   UNL A   1      38.159  28.308  30.976  1.00  0.00     0.029 A 
ATOM     42  C   UNL A   1      39.029  29.450  31.194  1.00  0.00     0.049 A 
ATOM     43  H   UNL A   1      41.051  29.583  30.678  1.00  0.00     0.167 HD
ATOM     44  C   UNL A   1      44.840  30.159  28.513  1.00  0.00     0.037 A 
ATOM     45  C   UNL A   1      38.776  30.659  31.763  1.00  0.00     0.037 A 
ATOM     46  C   UNL A   1      45.262  29.840  29.859  1.00  0.00     0.049 A 
ATOM     47  C   UNL A   1      40.101  31.258  32.096  1.00  0.00     0.074 A 
ATOM     48  C   UNL A   1      45.788  28.714  30.466  1.00  0.00     0.029 A 
ATOM     49  N   UNL A   1      44.756  30.611  30.883  1.00  0.00    -0.354 N 
ATOM     50  N   UNL A   1      40.918  30.774  32.994  1.00  0.00    -0.248 NA
ATOM     51  C   UNL A   1      40.726  32.129  31.109  1.00  0.00     0.031 C 
ATOM     52  C   UNL A   1      45.144  28.641  31.736  1.00  0.00     0.029 A 
ATOM     53  C   UNL A   1      44.321  29.759  31.870  1.00  0.00     0.049 A 
ATOM     54  H   UNL A   1      44.714  31.594  30.904  1.00  0.00     0.167 HD
ATOM     55  C   UNL A   1      42.185  30.907  32.440  1.00  0.00     0.074 A 
ATOM     56  C   UNL A   1      42.014  31.848  31.336  1.00  0.00     0.031 C 
ATOM     57  C   UNL A   1      43.186  30.022  32.735  1.00  0.00     0.037 A 
BRANCH  44  58
ATOM     58  C   UNL A   1      45.115  31.503  27.888  1.00  0.00     0.058 A 
ATOM     59  C   UNL A   1      46.403  31.768  27.381  1.00  0.00     0.135 A 
ATOM     60  C   UNL A   1      44.250  32.618  27.968  1.00  0.00     0.135 A 
ATOM     61  F   UNL A   1      47.307  30.782  27.272  1.00  0.00    -0.206 F 
ATOM     62  C   UNL A   1      46.820  33.053  27.040  1.00  0.00     0.059 A 
ATOM     63  C   UNL A   1      44.625  33.895  27.570  1.00  0.00     0.059 A 
ATOM     64  F   UNL A   1      43.038  32.549  28.531  1.00  0.00    -0.206 F 
ATOM     65  C   UNL A   1      45.926  34.112  27.151  1.00  0.00     0.060 A 
BRANCH  65  66
ATOM     66  S   UNL A   1      46.493  35.788  26.821  1.00  0.00     0.124 S 
ATOM     67  O   UNL A   1      46.784  35.715  25.393  1.00  0.00    -0.237 OA
ATOM     68  O   UNL A   1      45.329  36.583  27.197  1.00  0.00    -0.237 OA
ATOM     69  O   UNL A   1      47.652  35.930  27.698  1.00  0.00    -0.744 OA
ENDBRANCH  65  66
ENDBRANCH  44  58
BRANCH  45  70
ATOM     70  C   UNL A   1      37.508  31.441  31.765  1.00  0.00     0.058 A 
ATOM     71  C   UNL A   1      36.812  31.692  32.963  1.00  0.00     0.135 A 
ATOM     72  C   UNL A   1      37.093  32.197  30.648  1.00  0.00     0.135 A 
ATOM     73  F   UNL A   1      37.138  31.031  34.085  1.00  0.00    -0.206 F 
ATOM     74  C   UNL A   1      35.824  32.680  33.066  1.00  0.00     0.059 A 
ATOM     75  C   UNL A   1      36.097  33.171  30.721  1.00  0.00     0.059 A 
ATOM     76  F   UNL A   1      37.714  32.093  29.466  1.00  0.00    -0.206 F 
ATOM     77  C   UNL A   1      35.493  33.435  31.942  1.00  0.00     0.060 A 
BRANCH  77  78
ATOM     78  S   UNL A   1      34.393  34.860  32.113  1.00  0.00     0.124 S 
ATOM     79  O   UNL A   1      33.277  34.297  32.865  1.00  0.00    -0.237 OA
ATOM     80  O   UNL A   1      35.231  35.813  32.833  1.00  0.00    -0.237 OA
ATOM     81  O   UNL A   1      34.093  35.225  30.730  1.00  0.00    -0.744 OA
ENDBRANCH  77  78
ENDBRANCH  45  70
BRANCH  57  82
ATOM     82  C   UNL A   1      42.985  29.084  33.904  1.00  0.00     0.058 A 
ATOM     83  C   UNL A   1      43.124  29.453  35.255  1.00  0.00     0.135 A 
ATOM     84  C   UNL A   1      42.503  27.790  33.651  1.00  0.00     0.135 A 
ATOM     85  F   UNL A   1      43.462  30.701  35.599  1.00  0.00    -0.206 F 
ATOM     86  C   UNL A   1      42.860  28.564  36.298  1.00  0.00     0.059 A 
ATOM     87  C   UNL A   1      42.196  26.898  34.677  1.00  0.00     0.059 A 
ATOM     88  F   UNL A   1      42.279  27.391  32.388  1.00  0.00    -0.206 F 
ATOM     89  C   UNL A   1      42.399  27.285  36.000  1.00  0.00     0.060 A 
BRANCH  89  90
ATOM     90  S   UNL A   1      41.999  26.159  37.354  1.00  0.00     0.124 S 
ATOM     91  O   UNL A   1      42.142  24.854  36.718  1.00  0.00    -0.237 OA
ATOM     92  O   UNL A   1      43.008  26.490  38.355  1.00  0.00    -0.237 OA
ATOM     93  O   UNL A   1      40.633  26.531  37.715  1.00  0.00    -0.744 OA
ENDBRANCH  89  90
ENDBRANCH  57  82
ENDBRANCH  31  32
ENDBRANCH  23  26
ENDBRANCH  21  22
ENDBRANCH   1  21
TORSDOF 16
ENDMDL
