MODEL 1
REMARK VINA RESULT:     -13.0      0.000      0.000
REMARK SMILES Cc1nc(CC(=O)N2C[C@@H](C(=O)NCCCNC(=O)c3ccc(-c4c5nc(c(-c6c(F)cc(S(=O)(=O)[O-])cc6F)c6ccc([nH]6)c(-c6c(F)cc(S(=O)(=O)[O-])cc6F)c6nc(c(-c7c(F)cc(S(=O)(=O)[O-])cc7F)c7ccc4[nH]7)C=C6)C=C5)cc3)[C@H](c3ccc4c(c3)OCO4)C2)cs1
REMARK SMILES IDX 15 1 14 2 13 3 11 4 12 5 10 7 8 8 9 9 96 10 86 11 6 12 7 13
REMARK SMILES IDX 5 14 4 15 1 16 2 17 3 18 98 19 97 20 87 21 88 22 92 23 89 24
REMARK SMILES IDX 91 25 90 26 93 27 95 28 94 29 16 30 17 31 18 32 19 34 20 35
REMARK SMILES IDX 21 36 85 37 22 38 84 39 23 40 24 41 25 42 78 43 26 44 83 45
REMARK SMILES IDX 77 46 79 47 27 48 82 49 76 50 75 51 28 53 62 54 41 55 61 56
REMARK SMILES IDX 42 57 45 58 60 59 80 60 43 61 44 62 59 64 81 65 46 66 29 67
REMARK SMILES IDX 30 68 39 69 31 70 32 71 38 72 40 73 33 74 34 75 35 76 36 77
REMARK SMILES IDX 37 78 63 79 64 80 73 81 65 82 66 83 72 84 74 85 67 86 68 87
REMARK SMILES IDX 69 88 70 89 71 90 47 91 48 92 57 93 49 94 50 95 56 96 58 97
REMARK SMILES IDX 51 98 52 99 53 100 54 101 55 102
REMARK H PARENT 13 6 17 33 79 52 45 63
REMARK Flexibility Score: inf
ROOT
ATOM      1  C   UNL A   1      38.657  24.469  26.493  1.00  0.00     0.042 C 
ENDROOT
BRANCH   1   2
ATOM      2  C   UNL A   1      37.446  23.694  26.013  1.00  0.00     0.117 C 
BRANCH   2   3
ATOM      3  N   UNL A   1      37.482  23.411  24.586  1.00  0.00    -0.356 N 
ATOM      4  C   UNL A   1      36.452  23.196  23.720  1.00  0.00     0.225 C 
ATOM      5  O   UNL A   1      36.700  23.104  22.518  1.00  0.00    -0.275 OA
ATOM      6  H   UNL A   1      38.382  23.370  24.189  1.00  0.00     0.163 HD
BRANCH   4   7
ATOM      7  C   UNL A   1      35.046  23.103  24.258  1.00  0.00     0.107 C 
ATOM      8  N   UNL A   1      33.186  21.749  24.481  1.00  0.00    -0.341 N 
ATOM      9  C   UNL A   1      34.627  21.660  24.379  1.00  0.00     0.133 C 
ATOM     10  C   UNL A   1      32.701  22.912  23.733  1.00  0.00     0.128 C 
ATOM     11  C   UNL A   1      33.970  23.703  23.327  1.00  0.00     0.053 C 
BRANCH   8  12
ATOM     12  C   UNL A   1      32.332  20.924  25.180  1.00  0.00     0.228 C 
ATOM     13  O   UNL A   1      31.147  21.244  25.329  1.00  0.00    -0.274 OA
BRANCH  12  14
ATOM     14  C   UNL A   1      32.886  19.731  25.954  1.00  0.00     0.157 C 
BRANCH  14  15
ATOM     15  C   UNL A   1      33.074  18.452  25.213  1.00  0.00     0.061 A 
ATOM     16  C   UNL A   1      32.645  14.828  25.500  1.00  0.00     0.079 C 
ATOM     17  C   UNL A   1      32.908  16.234  25.086  1.00  0.00     0.090 A 
ATOM     18  N   UNL A   1      32.602  17.287  25.812  1.00  0.00    -0.246 NA
ATOM     19  S   UNL A   1      33.692  16.582  23.599  1.00  0.00    -0.127 S 
ATOM     20  C   UNL A   1      33.663  18.255  23.980  1.00  0.00     0.091 A 
ENDBRANCH  14  15
ENDBRANCH  12  14
ENDBRANCH   8  12
BRANCH  11  21
ATOM     21  C   UNL A   1      34.007  25.220  23.471  1.00  0.00    -0.038 A 
ATOM     22  C   UNL A   1      33.716  26.097  22.400  1.00  0.00     0.008 A 
ATOM     23  C   UNL A   1      34.072  25.743  24.781  1.00  0.00     0.054 A 
ATOM     24  C   UNL A   1      33.409  27.445  22.633  1.00  0.00     0.051 A 
ATOM     25  C   UNL A   1      33.700  27.056  24.983  1.00  0.00     0.166 A 
ATOM     26  C   UNL A   1      33.361  27.879  23.938  1.00  0.00     0.165 A 
ATOM     27  O   UNL A   1      33.471  27.636  26.194  1.00  0.00    -0.454 OA
ATOM     28  O   UNL A   1      32.894  29.085  24.365  1.00  0.00    -0.454 OA
ATOM     29  C   UNL A   1      32.763  28.827  25.780  1.00  0.00     0.468 C 
ENDBRANCH  11  21
ENDBRANCH   4   7
ENDBRANCH   2   3
ENDBRANCH   1   2
BRANCH   1  30
ATOM     30  C   UNL A   1      39.849  23.582  26.828  1.00  0.00     0.118 C 
BRANCH  30  31
ATOM     31  N   UNL A   1      41.051  23.945  26.086  1.00  0.00    -0.352 N 
ATOM     32  C   UNL A   1      41.883  25.028  26.219  1.00  0.00     0.251 C 
ATOM     33  H   UNL A   1      41.307  23.311  25.376  1.00  0.00     0.163 HD
ATOM     34  O   UNL A   1      42.710  25.260  25.338  1.00  0.00    -0.269 OA
BRANCH  32  35
ATOM     35  C   UNL A   1      41.776  25.914  27.399  1.00  0.00     0.039 A 
ATOM     36  C   UNL A   1      42.496  27.110  27.424  1.00  0.00     0.014 A 
ATOM     37  C   UNL A   1      40.976  25.564  28.489  1.00  0.00     0.014 A 
ATOM     38  C   UNL A   1      42.355  27.982  28.507  1.00  0.00     0.010 A 
ATOM     39  C   UNL A   1      40.753  26.477  29.514  1.00  0.00     0.010 A 
ATOM     40  C   UNL A   1      41.449  27.694  29.543  1.00  0.00    -0.014 A 
BRANCH  40  41
ATOM     41  C   UNL A   1      41.220  28.647  30.661  1.00  0.00     0.031 A 
ATOM     42  C   UNL A   1      42.050  28.562  31.916  1.00  0.00     0.074 A 
ATOM     43  C   UNL A   1      40.220  29.546  30.573  1.00  0.00     0.049 A 
ATOM     44  N   UNL A   1      41.966  29.274  33.011  1.00  0.00    -0.248 NA
ATOM     45  C   UNL A   1      43.089  27.521  31.961  1.00  0.00     0.031 C 
ATOM     46  C   UNL A   1      39.301  29.682  29.441  1.00  0.00     0.029 A 
ATOM     47  N   UNL A   1      39.800  30.511  31.455  1.00  0.00    -0.354 N 
ATOM     48  C   UNL A   1      42.925  28.759  33.875  1.00  0.00     0.074 A 
ATOM     49  C   UNL A   1      43.537  27.634  33.203  1.00  0.00     0.031 C 
ATOM     50  C   UNL A   1      38.449  30.691  29.682  1.00  0.00     0.029 A 
ATOM     51  C   UNL A   1      38.730  31.246  31.002  1.00  0.00     0.049 A 
ATOM     52  H   UNL A   1      40.226  30.663  32.330  1.00  0.00     0.167 HD
ATOM     53  C   UNL A   1      43.284  29.198  35.106  1.00  0.00     0.037 A 
ATOM     54  C   UNL A   1      38.049  32.252  31.584  1.00  0.00     0.037 A 
ATOM     55  C   UNL A   1      42.687  30.334  35.759  1.00  0.00     0.049 A 
ATOM     56  C   UNL A   1      38.476  32.735  32.944  1.00  0.00     0.074 A 
ATOM     57  C   UNL A   1      43.025  30.903  36.975  1.00  0.00     0.029 A 
ATOM     58  N   UNL A   1      41.625  31.073  35.255  1.00  0.00    -0.354 N 
ATOM     59  N   UNL A   1      39.439  32.285  33.713  1.00  0.00    -0.248 NA
ATOM     60  C   UNL A   1      37.732  33.868  33.509  1.00  0.00     0.031 C 
ATOM     61  C   UNL A   1      42.133  31.949  37.231  1.00  0.00     0.029 A 
ATOM     62  C   UNL A   1      41.279  32.075  36.147  1.00  0.00     0.049 A 
ATOM     63  H   UNL A   1      41.182  30.908  34.391  1.00  0.00     0.167 HD
ATOM     64  C   UNL A   1      39.435  33.099  34.842  1.00  0.00     0.074 A 
ATOM     65  C   UNL A   1      38.385  34.077  34.644  1.00  0.00     0.031 C 
ATOM     66  C   UNL A   1      40.229  33.041  35.941  1.00  0.00     0.037 A 
BRANCH  53  67
ATOM     67  C   UNL A   1      44.373  28.448  35.826  1.00  0.00     0.058 A 
ATOM     68  C   UNL A   1      44.090  27.379  36.693  1.00  0.00     0.135 A 
ATOM     69  C   UNL A   1      45.723  28.779  35.620  1.00  0.00     0.135 A 
ATOM     70  F   UNL A   1      42.819  27.027  36.941  1.00  0.00    -0.206 F 
ATOM     71  C   UNL A   1      45.102  26.691  37.357  1.00  0.00     0.059 A 
ATOM     72  C   UNL A   1      46.753  28.082  36.247  1.00  0.00     0.059 A 
ATOM     73  F   UNL A   1      46.055  29.791  34.802  1.00  0.00    -0.206 F 
ATOM     74  C   UNL A   1      46.431  27.050  37.127  1.00  0.00     0.060 A 
BRANCH  74  75
ATOM     75  S   UNL A   1      47.729  26.144  37.993  1.00  0.00     0.124 S 
ATOM     76  O   UNL A   1      48.518  27.234  38.557  1.00  0.00    -0.237 OA
ATOM     77  O   UNL A   1      46.967  25.350  38.952  1.00  0.00    -0.237 OA
ATOM     78  O   UNL A   1      48.380  25.383  36.931  1.00  0.00    -0.744 OA
ENDBRANCH  74  75
ENDBRANCH  53  67
BRANCH  54  79
ATOM     79  C   UNL A   1      36.907  32.886  30.869  1.00  0.00     0.058 A 
ATOM     80  C   UNL A   1      35.582  32.640  31.259  1.00  0.00     0.135 A 
ATOM     81  C   UNL A   1      37.119  33.765  29.796  1.00  0.00     0.135 A 
ATOM     82  F   UNL A   1      35.327  31.804  32.277  1.00  0.00    -0.206 F 
ATOM     83  C   UNL A   1      34.507  33.229  30.601  1.00  0.00     0.059 A 
ATOM     84  C   UNL A   1      36.061  34.388  29.140  1.00  0.00     0.059 A 
ATOM     85  F   UNL A   1      38.368  34.049  29.394  1.00  0.00    -0.206 F 
ATOM     86  C   UNL A   1      34.757  34.106  29.545  1.00  0.00     0.060 A 
BRANCH  86  87
ATOM     87  S   UNL A   1      33.357  34.907  28.734  1.00  0.00     0.124 S 
ATOM     88  O   UNL A   1      33.007  33.927  27.714  1.00  0.00    -0.237 OA
ATOM     89  O   UNL A   1      32.409  35.052  29.835  1.00  0.00    -0.237 OA
ATOM     90  O   UNL A   1      33.925  36.157  28.240  1.00  0.00    -0.744 OA
ENDBRANCH  86  87
ENDBRANCH  54  79
BRANCH  66  91
ATOM     91  C   UNL A   1      40.015  34.089  37.000  1.00  0.00     0.058 A 
ATOM     92  C   UNL A   1      40.557  35.380  36.888  1.00  0.00     0.135 A 
ATOM     93  C   UNL A   1      39.235  33.804  38.133  1.00  0.00     0.135 A 
ATOM     94  F   UNL A   1      41.314  35.706  35.827  1.00  0.00    -0.206 F 
ATOM     95  C   UNL A   1      40.366  36.338  37.879  1.00  0.00     0.059 A 
ATOM     96  C   UNL A   1      39.002  34.757  39.119  1.00  0.00     0.059 A 
ATOM     97  F   UNL A   1      38.680  32.592  38.285  1.00  0.00    -0.206 F 
ATOM     98  C   UNL A   1      39.588  36.015  38.993  1.00  0.00     0.060 A 
BRANCH  98  99
ATOM     99  S   UNL A   1      39.346  37.267  40.270  1.00  0.00     0.124 S 
ATOM    100  O   UNL A   1      40.723  37.606  40.615  1.00  0.00    -0.237 OA
ATOM    101  O   UNL A   1      38.598  38.298  39.559  1.00  0.00    -0.237 OA
ATOM    102  O   UNL A   1      38.596  36.558  41.304  1.00  0.00    -0.744 OA
ENDBRANCH  98  99
ENDBRANCH  66  91
ENDBRANCH  40  41
ENDBRANCH  32  35
ENDBRANCH  30  31
ENDBRANCH   1  30
TORSDOF 17
ENDMDL
MODEL 2
REMARK VINA RESULT:     -12.9      5.974      8.987
REMARK SMILES Cc1nc(CC(=O)N2C[C@@H](C(=O)NCCCNC(=O)c3ccc(-c4c5nc(c(-c6c(F)cc(S(=O)(=O)[O-])cc6F)c6ccc([nH]6)c(-c6c(F)cc(S(=O)(=O)[O-])cc6F)c6nc(c(-c7c(F)cc(S(=O)(=O)[O-])cc7F)c7ccc4[nH]7)C=C6)C=C5)cc3)[C@H](c3ccc4c(c3)OCO4)C2)cs1
REMARK SMILES IDX 15 1 14 2 13 3 11 4 12 5 10 7 8 8 9 9 96 10 86 11 6 12 7 13
REMARK SMILES IDX 5 14 4 15 1 16 2 17 3 18 98 19 97 20 87 21 88 22 92 23 89 24
REMARK SMILES IDX 91 25 90 26 93 27 95 28 94 29 16 30 17 31 18 32 19 34 20 35
REMARK SMILES IDX 21 36 85 37 22 38 84 39 23 40 24 41 25 42 78 43 26 44 83 45
REMARK SMILES IDX 77 46 79 47 27 48 82 49 76 50 75 51 28 53 62 54 41 55 61 56
REMARK SMILES IDX 42 57 45 58 60 59 80 60 43 61 44 62 59 64 81 65 46 66 29 67
REMARK SMILES IDX 30 68 39 69 31 70 32 71 38 72 40 73 33 74 34 75 35 76 36 77
REMARK SMILES IDX 37 78 63 79 64 80 73 81 65 82 66 83 72 84 74 85 67 86 68 87
REMARK SMILES IDX 69 88 70 89 71 90 47 91 48 92 57 93 49 94 50 95 56 96 58 97
REMARK SMILES IDX 51 98 52 99 53 100 54 101 55 102
REMARK H PARENT 13 6 17 33 79 52 45 63
REMARK Flexibility Score: inf
ROOT
ATOM      1  C   UNL A   1      38.090  20.066  25.062  1.00  0.00     0.042 C 
ENDROOT
BRANCH   1   2
ATOM      2  C   UNL A   1      36.988  21.096  24.903  1.00  0.00     0.117 C 
BRANCH   2   3
ATOM      3  N   UNL A   1      36.095  21.152  26.051  1.00  0.00    -0.356 N 
ATOM      4  C   UNL A   1      34.759  21.414  26.095  1.00  0.00     0.225 C 
ATOM      5  O   UNL A   1      34.165  21.280  27.166  1.00  0.00    -0.275 OA
ATOM      6  H   UNL A   1      36.518  20.974  26.922  1.00  0.00     0.163 HD
BRANCH   4   7
ATOM      7  C   UNL A   1      34.049  21.832  24.832  1.00  0.00     0.107 C 
ATOM      8  N   UNL A   1      32.957  23.559  23.752  1.00  0.00    -0.341 N 
ATOM      9  C   UNL A   1      33.996  23.336  24.735  1.00  0.00     0.133 C 
ATOM     10  C   UNL A   1      31.960  22.487  23.822  1.00  0.00     0.128 C 
ATOM     11  C   UNL A   1      32.561  21.424  24.776  1.00  0.00     0.053 C 
BRANCH   8  12
ATOM     12  C   UNL A   1      32.863  24.583  22.835  1.00  0.00     0.228 C 
ATOM     13  O   UNL A   1      33.628  24.618  21.865  1.00  0.00    -0.274 OA
BRANCH  12  14
ATOM     14  C   UNL A   1      31.972  25.788  23.125  1.00  0.00     0.157 C 
BRANCH  14  15
ATOM     15  C   UNL A   1      32.442  26.767  24.144  1.00  0.00     0.061 A 
ATOM     16  C   UNL A   1      31.640  28.159  27.435  1.00  0.00     0.079 C 
ATOM     17  C   UNL A   1      32.226  27.774  26.121  1.00  0.00     0.090 A 
ATOM     18  N   UNL A   1      31.755  26.814  25.356  1.00  0.00    -0.246 NA
ATOM     19  S   UNL A   1      33.580  28.614  25.480  1.00  0.00    -0.127 S 
ATOM     20  C   UNL A   1      33.495  27.657  24.057  1.00  0.00     0.091 A 
ENDBRANCH  14  15
ENDBRANCH  12  14
ENDBRANCH   8  12
BRANCH  11  21
ATOM     21  C   UNL A   1      32.484  19.944  24.420  1.00  0.00    -0.038 A 
ATOM     22  C   UNL A   1      32.499  19.476  23.086  1.00  0.00     0.008 A 
ATOM     23  C   UNL A   1      32.672  19.017  25.469  1.00  0.00     0.054 A 
ATOM     24  C   UNL A   1      32.784  18.134  22.793  1.00  0.00     0.051 A 
ATOM     25  C   UNL A   1      33.015  17.721  25.147  1.00  0.00     0.166 A 
ATOM     26  C   UNL A   1      33.086  17.296  23.843  1.00  0.00     0.165 A 
ATOM     27  O   UNL A   1      33.467  16.781  26.022  1.00  0.00    -0.454 OA
ATOM     28  O   UNL A   1      33.575  16.030  23.742  1.00  0.00    -0.454 OA
ATOM     29  C   UNL A   1      34.014  15.811  25.100  1.00  0.00     0.468 C 
ENDBRANCH  11  21
ENDBRANCH   4   7
ENDBRANCH   2   3
ENDBRANCH   1   2
BRANCH   1  30
ATOM     30  C   UNL A   1      39.302  20.590  25.821  1.00  0.00     0.118 C 
BRANCH  30  31
ATOM     31  N   UNL A   1      40.282  19.549  26.109  1.00  0.00    -0.352 N 
ATOM     32  C   UNL A   1      41.634  19.639  26.328  1.00  0.00     0.251 C 
ATOM     33  H   UNL A   1      39.915  18.636  26.155  1.00  0.00     0.163 HD
ATOM     34  O   UNL A   1      42.312  18.611  26.324  1.00  0.00    -0.269 OA
BRANCH  32  35
ATOM     35  C   UNL A   1      42.271  20.956  26.549  1.00  0.00     0.039 A 
ATOM     36  C   UNL A   1      42.609  21.746  25.448  1.00  0.00     0.014 A 
ATOM     37  C   UNL A   1      42.548  21.411  27.840  1.00  0.00     0.014 A 
ATOM     38  C   UNL A   1      43.155  23.017  25.647  1.00  0.00     0.010 A 
ATOM     39  C   UNL A   1      42.992  22.714  28.040  1.00  0.00     0.010 A 
ATOM     40  C   UNL A   1      43.313  23.530  26.947  1.00  0.00    -0.014 A 
BRANCH  40  41
ATOM     41  C   UNL A   1      43.813  24.911  27.179  1.00  0.00     0.031 A 
ATOM     42  C   UNL A   1      45.268  25.240  26.969  1.00  0.00     0.074 A 
ATOM     43  C   UNL A   1      42.969  25.853  27.645  1.00  0.00     0.049 A 
ATOM     44  N   UNL A   1      45.895  26.372  27.165  1.00  0.00    -0.248 NA
ATOM     45  C   UNL A   1      46.140  24.147  26.510  1.00  0.00     0.031 C 
ATOM     46  C   UNL A   1      41.553  25.643  27.956  1.00  0.00     0.029 A 
ATOM     47  N   UNL A   1      43.178  27.176  27.948  1.00  0.00    -0.354 N 
ATOM     48  C   UNL A   1      47.230  26.123  26.868  1.00  0.00     0.074 A 
ATOM     49  C   UNL A   1      47.336  24.719  26.541  1.00  0.00     0.031 C 
ATOM     50  C   UNL A   1      41.015  26.800  28.374  1.00  0.00     0.029 A 
ATOM     51  C   UNL A   1      42.054  27.824  28.403  1.00  0.00     0.049 A 
ATOM     52  H   UNL A   1      44.053  27.619  27.849  1.00  0.00     0.167 HD
ATOM     53  C   UNL A   1      48.271  26.991  26.845  1.00  0.00     0.037 A 
ATOM     54  C   UNL A   1      41.879  29.099  28.802  1.00  0.00     0.037 A 
ATOM     55  C   UNL A   1      48.155  28.394  27.148  1.00  0.00     0.049 A 
ATOM     56  C   UNL A   1      43.045  30.048  28.751  1.00  0.00     0.074 A 
ATOM     57  C   UNL A   1      49.133  29.371  27.086  1.00  0.00     0.029 A 
ATOM     58  N   UNL A   1      46.992  29.020  27.576  1.00  0.00    -0.354 N 
ATOM     59  N   UNL A   1      44.284  29.814  28.392  1.00  0.00    -0.248 NA
ATOM     60  C   UNL A   1      42.785  31.439  29.147  1.00  0.00     0.031 C 
ATOM     61  C   UNL A   1      48.577  30.576  27.529  1.00  0.00     0.029 A 
ATOM     62  C   UNL A   1      47.236  30.365  27.806  1.00  0.00     0.049 A 
ATOM     63  H   UNL A   1      46.123  28.575  27.698  1.00  0.00     0.167 HD
ATOM     64  C   UNL A   1      44.947  31.033  28.492  1.00  0.00     0.074 A 
ATOM     65  C   UNL A   1      43.964  32.004  28.929  1.00  0.00     0.031 C 
ATOM     66  C   UNL A   1      46.250  31.322  28.244  1.00  0.00     0.037 A 
BRANCH  53  67
ATOM     67  C   UNL A   1      49.627  26.447  26.478  1.00  0.00     0.058 A 
ATOM     68  C   UNL A   1      50.466  25.841  27.427  1.00  0.00     0.135 A 
ATOM     69  C   UNL A   1      50.081  26.502  25.148  1.00  0.00     0.135 A 
ATOM     70  F   UNL A   1      50.093  25.774  28.715  1.00  0.00    -0.206 F 
ATOM     71  C   UNL A   1      51.718  25.342  27.081  1.00  0.00     0.059 A 
ATOM     72  C   UNL A   1      51.315  25.978  24.774  1.00  0.00     0.059 A 
ATOM     73  F   UNL A   1      49.322  27.068  24.197  1.00  0.00    -0.206 F 
ATOM     74  C   UNL A   1      52.134  25.414  25.751  1.00  0.00     0.060 A 
BRANCH  74  75
ATOM     75  S   UNL A   1      53.759  24.759  25.321  1.00  0.00     0.124 S 
ATOM     76  O   UNL A   1      54.504  24.995  26.554  1.00  0.00    -0.237 OA
ATOM     77  O   UNL A   1      53.461  23.363  25.018  1.00  0.00    -0.237 OA
ATOM     78  O   UNL A   1      54.164  25.573  24.179  1.00  0.00    -0.744 OA
ENDBRANCH  74  75
ENDBRANCH  53  67
BRANCH  54  79
ATOM     79  C   UNL A   1      40.538  29.555  29.261  1.00  0.00     0.058 A 
ATOM     80  C   UNL A   1      39.489  29.753  28.351  1.00  0.00     0.135 A 
ATOM     81  C   UNL A   1      40.274  29.782  30.621  1.00  0.00     0.135 A 
ATOM     82  F   UNL A   1      39.693  29.554  27.040  1.00  0.00    -0.206 F 
ATOM     83  C   UNL A   1      38.231  30.176  28.768  1.00  0.00     0.059 A 
ATOM     84  C   UNL A   1      39.016  30.178  31.066  1.00  0.00     0.059 A 
ATOM     85  F   UNL A   1      41.237  29.589  31.536  1.00  0.00    -0.206 F 
ATOM     86  C   UNL A   1      38.003  30.381  30.130  1.00  0.00     0.060 A 
BRANCH  86  87
ATOM     87  S   UNL A   1      36.352  30.877  30.665  1.00  0.00     0.124 S 
ATOM     88  O   UNL A   1      36.604  32.207  31.205  1.00  0.00    -0.237 OA
ATOM     89  O   UNL A   1      35.597  30.825  29.416  1.00  0.00    -0.237 OA
ATOM     90  O   UNL A   1      35.996  29.855  31.645  1.00  0.00    -0.744 OA
ENDBRANCH  86  87
ENDBRANCH  54  79
BRANCH  66  91
ATOM     91  C   UNL A   1      46.680  32.755  28.406  1.00  0.00     0.058 A 
ATOM     92  C   UNL A   1      46.581  33.683  27.357  1.00  0.00     0.135 A 
ATOM     93  C   UNL A   1      47.174  33.213  29.639  1.00  0.00     0.135 A 
ATOM     94  F   UNL A   1      46.118  33.299  26.156  1.00  0.00    -0.206 F 
ATOM     95  C   UNL A   1      46.994  35.003  27.511  1.00  0.00     0.059 A 
ATOM     96  C   UNL A   1      47.561  34.536  29.826  1.00  0.00     0.059 A 
ATOM     97  F   UNL A   1      47.277  32.373  30.680  1.00  0.00    -0.206 F 
ATOM     98  C   UNL A   1      47.486  35.418  28.750  1.00  0.00     0.060 A 
BRANCH  98  99
ATOM     99  S   UNL A   1      48.016  37.134  28.938  1.00  0.00     0.124 S 
ATOM    100  O   UNL A   1      48.124  37.251  30.389  1.00  0.00    -0.237 OA
ATOM    101  O   UNL A   1      49.276  37.154  28.205  1.00  0.00    -0.237 OA
ATOM    102  O   UNL A   1      46.929  37.894  28.327  1.00  0.00    -0.744 OA
ENDBRANCH  98  99
ENDBRANCH  66  91
ENDBRANCH  40  41
ENDBRANCH  32  35
ENDBRANCH  30  31
ENDBRANCH   1  30
TORSDOF 17
ENDMDL
MODEL 3
REMARK VINA RESULT:     -12.8      6.156     11.187
REMARK SMILES Cc1nc(CC(=O)N2C[C@@H](C(=O)NCCCNC(=O)c3ccc(-c4c5nc(c(-c6c(F)cc(S(=O)(=O)[O-])cc6F)c6ccc([nH]6)c(-c6c(F)cc(S(=O)(=O)[O-])cc6F)c6nc(c(-c7c(F)cc(S(=O)(=O)[O-])cc7F)c7ccc4[nH]7)C=C6)C=C5)cc3)[C@H](c3ccc4c(c3)OCO4)C2)cs1
REMARK SMILES IDX 15 1 14 2 13 3 11 4 12 5 10 7 8 8 9 9 96 10 86 11 6 12 7 13
REMARK SMILES IDX 5 14 4 15 1 16 2 17 3 18 98 19 97 20 87 21 88 22 92 23 89 24
REMARK SMILES IDX 91 25 90 26 93 27 95 28 94 29 16 30 17 31 18 32 19 34 20 35
REMARK SMILES IDX 21 36 85 37 22 38 84 39 23 40 24 41 25 42 78 43 26 44 83 45
REMARK SMILES IDX 77 46 79 47 27 48 82 49 76 50 75 51 28 53 62 54 41 55 61 56
REMARK SMILES IDX 42 57 45 58 60 59 80 60 43 61 44 62 59 64 81 65 46 66 29 67
REMARK SMILES IDX 30 68 39 69 31 70 32 71 38 72 40 73 33 74 34 75 35 76 36 77
REMARK SMILES IDX 37 78 63 79 64 80 73 81 65 82 66 83 72 84 74 85 67 86 68 87
REMARK SMILES IDX 69 88 70 89 71 90 47 91 48 92 57 93 49 94 50 95 56 96 58 97
REMARK SMILES IDX 51 98 52 99 53 100 54 101 55 102
REMARK H PARENT 13 6 17 33 79 52 45 63
REMARK Flexibility Score: inf
ROOT
ATOM      1  C   UNL A   1      37.985  19.957  24.999  1.00  0.00     0.042 C 
ENDROOT
BRANCH   1   2
ATOM      2  C   UNL A   1      36.943  21.046  24.832  1.00  0.00     0.117 C 
BRANCH   2   3
ATOM      3  N   UNL A   1      36.023  21.128  25.956  1.00  0.00    -0.356 N 
ATOM      4  C   UNL A   1      34.679  21.351  25.960  1.00  0.00     0.225 C 
ATOM      5  O   UNL A   1      34.066  21.249  27.023  1.00  0.00    -0.275 OA
ATOM      6  H   UNL A   1      36.432  21.005  26.844  1.00  0.00     0.163 HD
BRANCH   4   7
ATOM      7  C   UNL A   1      33.986  21.688  24.664  1.00  0.00     0.107 C 
ATOM      8  N   UNL A   1      32.867  23.329  23.481  1.00  0.00    -0.341 N 
ATOM      9  C   UNL A   1      33.890  23.183  24.496  1.00  0.00     0.133 C 
ATOM     10  C   UNL A   1      31.901  22.230  23.580  1.00  0.00     0.128 C 
ATOM     11  C   UNL A   1      32.512  21.232  24.596  1.00  0.00     0.053 C 
BRANCH   8  12
ATOM     12  C   UNL A   1      32.763  24.305  22.516  1.00  0.00     0.228 C 
ATOM     13  O   UNL A   1      33.625  24.399  21.634  1.00  0.00    -0.274 OA
BRANCH  12  14
ATOM     14  C   UNL A   1      31.714  25.406  22.652  1.00  0.00     0.157 C 
BRANCH  14  15
ATOM     15  C   UNL A   1      31.742  26.239  23.887  1.00  0.00     0.061 A 
ATOM     16  C   UNL A   1      34.009  27.983  26.174  1.00  0.00     0.079 C 
ATOM     17  C   UNL A   1      32.860  27.403  25.424  1.00  0.00     0.090 A 
ATOM     18  N   UNL A   1      32.972  26.761  24.282  1.00  0.00    -0.246 NA
ATOM     19  S   UNL A   1      31.262  27.504  26.045  1.00  0.00    -0.127 S 
ATOM     20  C   UNL A   1      30.691  26.580  24.715  1.00  0.00     0.091 A 
ENDBRANCH  14  15
ENDBRANCH  12  14
ENDBRANCH   8  12
BRANCH  11  21
ATOM     21  C   UNL A   1      32.487  19.735  24.309  1.00  0.00    -0.038 A 
ATOM     22  C   UNL A   1      32.542  19.207  22.998  1.00  0.00     0.008 A 
ATOM     23  C   UNL A   1      32.684  18.864  25.403  1.00  0.00     0.054 A 
ATOM     24  C   UNL A   1      32.875  17.863  22.774  1.00  0.00     0.051 A 
ATOM     25  C   UNL A   1      33.073  17.566  25.148  1.00  0.00     0.166 A 
ATOM     26  C   UNL A   1      33.182  17.084  23.867  1.00  0.00     0.165 A 
ATOM     27  O   UNL A   1      33.538  16.683  26.074  1.00  0.00    -0.454 OA
ATOM     28  O   UNL A   1      33.711  15.830  23.834  1.00  0.00    -0.454 OA
ATOM     29  C   UNL A   1      34.132  15.689  25.208  1.00  0.00     0.468 C 
ENDBRANCH  11  21
ENDBRANCH   4   7
ENDBRANCH   2   3
ENDBRANCH   1   2
BRANCH   1  30
ATOM     30  C   UNL A   1      39.222  20.416  25.758  1.00  0.00     0.118 C 
BRANCH  30  31
ATOM     31  N   UNL A   1      40.188  19.343  25.967  1.00  0.00    -0.352 N 
ATOM     32  C   UNL A   1      41.547  19.395  26.149  1.00  0.00     0.251 C 
ATOM     33  H   UNL A   1      39.803  18.436  25.981  1.00  0.00     0.163 HD
ATOM     34  O   UNL A   1      42.202  18.354  26.077  1.00  0.00    -0.269 OA
BRANCH  32  35
ATOM     35  C   UNL A   1      42.219  20.686  26.412  1.00  0.00     0.039 A 
ATOM     36  C   UNL A   1      42.725  21.425  25.341  1.00  0.00     0.014 A 
ATOM     37  C   UNL A   1      42.363  21.168  27.716  1.00  0.00     0.014 A 
ATOM     38  C   UNL A   1      43.307  22.674  25.573  1.00  0.00     0.010 A 
ATOM     39  C   UNL A   1      42.845  22.454  27.935  1.00  0.00     0.010 A 
ATOM     40  C   UNL A   1      43.335  23.219  26.869  1.00  0.00    -0.014 A 
BRANCH  40  41
ATOM     41  C   UNL A   1      43.872  24.582  27.126  1.00  0.00     0.031 A 
ATOM     42  C   UNL A   1      42.956  25.688  27.580  1.00  0.00     0.074 A 
ATOM     43  C   UNL A   1      45.174  24.839  26.885  1.00  0.00     0.049 A 
ATOM     44  N   UNL A   1      43.233  26.947  27.808  1.00  0.00    -0.248 NA
ATOM     45  C   UNL A   1      41.538  25.346  27.770  1.00  0.00     0.031 C 
ATOM     46  C   UNL A   1      46.148  23.871  26.377  1.00  0.00     0.029 A 
ATOM     47  N   UNL A   1      45.901  25.994  27.027  1.00  0.00    -0.354 N 
ATOM     48  C   UNL A   1      42.026  27.545  28.153  1.00  0.00     0.074 A 
ATOM     49  C   UNL A   1      41.004  26.528  28.043  1.00  0.00     0.031 C 
ATOM     50  C   UNL A   1      47.349  24.462  26.280  1.00  0.00     0.029 A 
ATOM     51  C   UNL A   1      47.225  25.861  26.677  1.00  0.00     0.049 A 
ATOM     52  H   UNL A   1      45.512  26.840  27.349  1.00  0.00     0.167 HD
ATOM     53  C   UNL A   1      41.792  28.819  28.552  1.00  0.00     0.037 A 
ATOM     54  C   UNL A   1      48.225  26.763  26.672  1.00  0.00     0.037 A 
ATOM     55  C   UNL A   1      42.819  29.821  28.684  1.00  0.00     0.049 A 
ATOM     56  C   UNL A   1      47.946  28.167  27.136  1.00  0.00     0.074 A 
ATOM     57  C   UNL A   1      42.698  31.120  29.146  1.00  0.00     0.029 A 
ATOM     58  N   UNL A   1      44.153  29.639  28.349  1.00  0.00    -0.354 N 
ATOM     59  N   UNL A   1      46.813  28.694  27.534  1.00  0.00    -0.248 NA
ATOM     60  C   UNL A   1      49.084  29.096  27.160  1.00  0.00     0.031 C 
ATOM     61  C   UNL A   1      43.947  31.740  29.039  1.00  0.00     0.029 A 
ATOM     62  C   UNL A   1      44.861  30.810  28.569  1.00  0.00     0.049 A 
ATOM     63  H   UNL A   1      44.540  28.802  28.004  1.00  0.00     0.167 HD
ATOM     64  C   UNL A   1      47.107  30.009  27.884  1.00  0.00     0.074 A 
ATOM     65  C   UNL A   1      48.528  30.188  27.665  1.00  0.00     0.031 C 
ATOM     66  C   UNL A   1      46.276  30.978  28.344  1.00  0.00     0.037 A 
BRANCH  53  67
ATOM     67  C   UNL A   1      40.372  29.202  28.876  1.00  0.00     0.058 A 
ATOM     68  C   UNL A   1      39.928  29.353  30.200  1.00  0.00     0.135 A 
ATOM     69  C   UNL A   1      39.449  29.455  27.846  1.00  0.00     0.135 A 
ATOM     70  F   UNL A   1      40.760  29.109  31.225  1.00  0.00    -0.206 F 
ATOM     71  C   UNL A   1      38.614  29.705  30.493  1.00  0.00     0.059 A 
ATOM     72  C   UNL A   1      38.139  29.842  28.116  1.00  0.00     0.059 A 
ATOM     73  F   UNL A   1      39.817  29.328  26.562  1.00  0.00    -0.206 F 
ATOM     74  C   UNL A   1      37.727  29.949  29.443  1.00  0.00     0.060 A 
BRANCH  74  75
ATOM     75  S   UNL A   1      36.028  30.408  29.842  1.00  0.00     0.124 S 
ATOM     76  O   UNL A   1      36.094  31.864  29.764  1.00  0.00    -0.237 OA
ATOM     77  O   UNL A   1      35.270  29.750  28.783  1.00  0.00    -0.237 OA
ATOM     78  O   UNL A   1      35.833  29.861  31.182  1.00  0.00    -0.744 OA
ENDBRANCH  74  75
ENDBRANCH  53  67
BRANCH  54  79
ATOM     79  C   UNL A   1      49.589  26.356  26.236  1.00  0.00     0.058 A 
ATOM     80  C   UNL A   1      50.079  26.706  24.969  1.00  0.00     0.135 A 
ATOM     81  C   UNL A   1      50.436  25.628  27.085  1.00  0.00     0.135 A 
ATOM     82  F   UNL A   1      49.305  27.398  24.119  1.00  0.00    -0.206 F 
ATOM     83  C   UNL A   1      51.353  26.334  24.551  1.00  0.00     0.059 A 
ATOM     84  C   UNL A   1      51.725  25.269  26.701  1.00  0.00     0.059 A 
ATOM     85  F   UNL A   1      50.024  25.284  28.315  1.00  0.00    -0.206 F 
ATOM     86  C   UNL A   1      52.171  25.619  25.427  1.00  0.00     0.060 A 
BRANCH  86  87
ATOM     87  S   UNL A   1      53.842  25.190  24.896  1.00  0.00     0.124 S 
ATOM     88  O   UNL A   1      53.903  25.817  23.581  1.00  0.00    -0.237 OA
ATOM     89  O   UNL A   1      54.660  25.804  25.937  1.00  0.00    -0.237 OA
ATOM     90  O   UNL A   1      53.831  23.730  24.899  1.00  0.00    -0.744 OA
ENDBRANCH  86  87
ENDBRANCH  54  79
BRANCH  66  91
ATOM     91  C   UNL A   1      46.890  32.311  28.677  1.00  0.00     0.058 A 
ATOM     92  C   UNL A   1      46.971  33.348  27.734  1.00  0.00     0.135 A 
ATOM     93  C   UNL A   1      47.382  32.563  29.968  1.00  0.00     0.135 A 
ATOM     94  F   UNL A   1      46.519  33.161  26.483  1.00  0.00    -0.206 F 
ATOM     95  C   UNL A   1      47.554  34.572  28.046  1.00  0.00     0.059 A 
ATOM     96  C   UNL A   1      47.938  33.791  30.313  1.00  0.00     0.059 A 
ATOM     97  F   UNL A   1      47.317  31.613  30.914  1.00  0.00    -0.206 F 
ATOM     98  C   UNL A   1      48.037  34.783  29.339  1.00  0.00     0.060 A 
BRANCH  98  99
ATOM     99  S   UNL A   1      48.787  36.377  29.733  1.00  0.00     0.124 S 
ATOM    100  O   UNL A   1      50.082  35.967  30.268  1.00  0.00    -0.237 OA
ATOM    101  O   UNL A   1      48.819  37.037  28.433  1.00  0.00    -0.237 OA
ATOM    102  O   UNL A   1      47.862  36.958  30.703  1.00  0.00    -0.744 OA
ENDBRANCH  98  99
ENDBRANCH  66  91
ENDBRANCH  40  41
ENDBRANCH  32  35
ENDBRANCH  30  31
ENDBRANCH   1  30
TORSDOF 17
ENDMDL
