MODEL 1
REMARK VINA RESULT:     -11.5      0.000      0.000
REMARK SMILES C#CCN(CC(=O)NCCCNC(=O)c1ccc(-c2c3nc(c(-c4c(F)cc(S(=O)(=O)[O-])cc4F)c4ccc([nH]4)c(-c4c(F)cc(S(=O)(=O)[O-])cc4F)c4nc(c(-c5c(F)cc(S(=O)(=O)[O-])cc5F)c5ccc2[nH]5)C=C4)C=C3)cc1)c1nnc(C)c2ccccc12
REMARK SMILES IDX 10 1 9 2 8 3 6 4 7 5 5 7 4 8 3 9 2 10 1 11 81 12 82 13 91 14
REMARK SMILES IDX 83 15 86 16 90 17 84 18 87 19 89 20 85 21 88 22 11 23 12 24
REMARK SMILES IDX 13 25 14 27 15 28 16 29 80 30 17 31 79 32 18 33 19 34 20 35
REMARK SMILES IDX 73 36 21 37 78 38 72 39 74 40 22 41 77 42 71 43 70 44 23 46
REMARK SMILES IDX 57 47 36 48 56 49 37 50 40 51 55 52 75 53 38 54 39 55 54 57
REMARK SMILES IDX 76 58 41 59 24 60 25 61 34 62 26 63 27 64 33 65 35 66 28 67
REMARK SMILES IDX 29 68 30 69 31 70 32 71 58 72 59 73 68 74 60 75 61 76 67 77
REMARK SMILES IDX 69 78 62 79 63 80 64 81 65 82 66 83 42 84 43 85 52 86 44 87
REMARK SMILES IDX 45 88 51 89 53 90 46 91 47 92 48 93 49 94 50 95
REMARK H PARENT 8 6 12 26 74 45 40 56
REMARK Flexibility Score: inf
ROOT
ATOM      1  C   UNL A   1      38.199  19.544  25.115  1.00  0.00     0.042 C 
ENDROOT
BRANCH   1   2
ATOM      2  C   UNL A   1      37.115  20.521  24.682  1.00  0.00     0.117 C 
BRANCH   2   3
ATOM      3  N   UNL A   1      35.803  20.044  25.060  1.00  0.00    -0.354 N 
ATOM      4  C   UNL A   1      34.634  20.750  25.006  1.00  0.00     0.239 C 
ATOM      5  O   UNL A   1      33.621  20.269  25.514  1.00  0.00    -0.273 OA
ATOM      6  H   UNL A   1      35.746  19.118  25.388  1.00  0.00     0.163 HD
BRANCH   4   7
ATOM      7  C   UNL A   1      34.632  22.074  24.246  1.00  0.00     0.219 C 
BRANCH   7   8
ATOM      8  N   UNL A   1      34.422  23.259  25.139  1.00  0.00    -0.334 N 
BRANCH   8   9
ATOM      9  C   UNL A   1      35.269  23.222  26.419  1.00  0.00     0.208 C 
BRANCH   9  10
ATOM     10  C   UNL A   1      36.721  23.617  26.215  1.00  0.00    -0.085 C 
ATOM     11  C   UNL A   1      37.968  23.957  26.039  1.00  0.00     0.006 C 
ENDBRANCH   9  10
ENDBRANCH   8   9
BRANCH   8  12
ATOM     12  C   UNL A   1      34.433  24.380  24.262  1.00  0.00     0.160 A 
ATOM     13  N   UNL A   1      34.467  24.077  22.934  1.00  0.00    -0.132 NA
ATOM     14  C   UNL A   1      34.086  25.736  24.658  1.00  0.00     0.028 A 
ATOM     15  N   UNL A   1      33.833  24.868  22.037  1.00  0.00    -0.153 NA
ATOM     16  C   UNL A   1      33.899  26.641  23.604  1.00  0.00     0.009 A 
ATOM     17  C   UNL A   1      33.778  26.327  25.925  1.00  0.00     0.013 A 
ATOM     18  C   UNL A   1      33.437  26.092  22.428  1.00  0.00     0.068 A 
ATOM     19  C   UNL A   1      33.849  28.041  23.754  1.00  0.00     0.011 A 
ATOM     20  C   UNL A   1      33.526  27.718  26.076  1.00  0.00     0.001 A 
ATOM     21  C   UNL A   1      31.976  26.428  22.122  1.00  0.00     0.069 C 
ATOM     22  C   UNL A   1      33.663  28.589  25.003  1.00  0.00     0.001 A 
ENDBRANCH   8  12
ENDBRANCH   7   8
ENDBRANCH   4   7
ENDBRANCH   2   3
ENDBRANCH   1   2
BRANCH   1  23
ATOM     23  C   UNL A   1      39.367  20.227  25.807  1.00  0.00     0.118 C 
BRANCH  23  24
ATOM     24  N   UNL A   1      40.451  19.295  26.081  1.00  0.00    -0.352 N 
ATOM     25  C   UNL A   1      41.778  19.533  26.271  1.00  0.00     0.251 C 
ATOM     26  H   UNL A   1      40.183  18.350  26.136  1.00  0.00     0.163 HD
ATOM     27  O   UNL A   1      42.570  18.579  26.220  1.00  0.00    -0.269 OA
BRANCH  25  28
ATOM     28  C   UNL A   1      42.274  20.894  26.536  1.00  0.00     0.039 A 
ATOM     29  C   UNL A   1      42.550  21.732  25.454  1.00  0.00     0.014 A 
ATOM     30  C   UNL A   1      42.516  21.333  27.843  1.00  0.00     0.014 A 
ATOM     31  C   UNL A   1      43.043  23.015  25.684  1.00  0.00     0.010 A 
ATOM     32  C   UNL A   1      42.917  22.644  28.073  1.00  0.00     0.010 A 
ATOM     33  C   UNL A   1      43.211  23.490  26.995  1.00  0.00    -0.014 A 
BRANCH  33  34
ATOM     34  C   UNL A   1      43.723  24.858  27.247  1.00  0.00     0.031 A 
ATOM     35  C   UNL A   1      45.179  25.172  27.029  1.00  0.00     0.074 A 
ATOM     36  C   UNL A   1      42.879  25.807  27.694  1.00  0.00     0.049 A 
ATOM     37  N   UNL A   1      45.813  26.303  27.202  1.00  0.00    -0.248 NA
ATOM     38  C   UNL A   1      46.043  24.066  26.583  1.00  0.00     0.031 C 
ATOM     39  C   UNL A   1      41.459  25.605  27.989  1.00  0.00     0.029 A 
ATOM     40  N   UNL A   1      43.090  27.133  27.978  1.00  0.00    -0.354 N 
ATOM     41  C   UNL A   1      47.143  26.045  26.891  1.00  0.00     0.074 A 
ATOM     42  C   UNL A   1      47.240  24.635  26.584  1.00  0.00     0.031 C 
ATOM     43  C   UNL A   1      40.918  26.771  28.375  1.00  0.00     0.029 A 
ATOM     44  C   UNL A   1      41.959  27.794  28.396  1.00  0.00     0.049 A 
ATOM     45  H   UNL A   1      43.968  27.569  27.891  1.00  0.00     0.167 HD
ATOM     46  C   UNL A   1      48.183  26.910  26.836  1.00  0.00     0.037 A 
ATOM     47  C   UNL A   1      41.784  29.079  28.757  1.00  0.00     0.037 A 
ATOM     48  C   UNL A   1      48.072  28.316  27.124  1.00  0.00     0.049 A 
ATOM     49  C   UNL A   1      42.958  30.017  28.702  1.00  0.00     0.074 A 
ATOM     50  C   UNL A   1      49.052  29.289  27.049  1.00  0.00     0.029 A 
ATOM     51  N   UNL A   1      46.911  28.950  27.543  1.00  0.00    -0.354 N 
ATOM     52  N   UNL A   1      44.195  29.770  28.338  1.00  0.00    -0.248 NA
ATOM     53  C   UNL A   1      42.714  31.410  29.097  1.00  0.00     0.031 C 
ATOM     54  C   UNL A   1      48.497  30.501  27.473  1.00  0.00     0.029 A 
ATOM     55  C   UNL A   1      47.156  30.296  27.756  1.00  0.00     0.049 A 
ATOM     56  H   UNL A   1      46.040  28.507  27.670  1.00  0.00     0.167 HD
ATOM     57  C   UNL A   1      44.869  30.982  28.436  1.00  0.00     0.074 A 
ATOM     58  C   UNL A   1      43.898  31.964  28.874  1.00  0.00     0.031 C 
ATOM     59  C   UNL A   1      46.174  31.260  28.189  1.00  0.00     0.037 A 
BRANCH  46  60
ATOM     60  C   UNL A   1      49.530  26.363  26.442  1.00  0.00     0.058 A 
ATOM     61  C   UNL A   1      50.018  26.478  25.130  1.00  0.00     0.135 A 
ATOM     62  C   UNL A   1      50.361  25.755  27.396  1.00  0.00     0.135 A 
ATOM     63  F   UNL A   1      49.259  27.035  24.173  1.00  0.00    -0.206 F 
ATOM     64  C   UNL A   1      51.268  25.986  24.772  1.00  0.00     0.059 A 
ATOM     65  C   UNL A   1      51.629  25.283  27.067  1.00  0.00     0.059 A 
ATOM     66  F   UNL A   1      49.947  25.616  28.666  1.00  0.00    -0.206 F 
ATOM     67  C   UNL A   1      52.069  25.392  25.748  1.00  0.00     0.060 A 
BRANCH  67  68
ATOM     68  S   UNL A   1      53.694  24.771  25.267  1.00  0.00     0.124 S 
ATOM     69  O   UNL A   1      54.484  25.067  26.458  1.00  0.00    -0.237 OA
ATOM     70  O   UNL A   1      53.425  23.357  25.019  1.00  0.00    -0.237 OA
ATOM     71  O   UNL A   1      54.024  25.561  24.084  1.00  0.00    -0.744 OA
ENDBRANCH  67  68
ENDBRANCH  46  60
BRANCH  47  72
ATOM     72  C   UNL A   1      40.440  29.558  29.181  1.00  0.00     0.058 A 
ATOM     73  C   UNL A   1      40.159  29.821  30.530  1.00  0.00     0.135 A 
ATOM     74  C   UNL A   1      39.412  29.763  28.248  1.00  0.00     0.135 A 
ATOM     75  F   UNL A   1      41.108  29.638  31.461  1.00  0.00    -0.206 F 
ATOM     76  C   UNL A   1      38.900  30.246  30.943  1.00  0.00     0.059 A 
ATOM     77  C   UNL A   1      38.154  30.216  28.633  1.00  0.00     0.059 A 
ATOM     78  F   UNL A   1      39.634  29.545  26.942  1.00  0.00    -0.206 F 
ATOM     79  C   UNL A   1      37.904  30.441  29.986  1.00  0.00     0.060 A 
BRANCH  79  80
ATOM     80  S   UNL A   1      36.284  31.022  30.529  1.00  0.00     0.124 S 
ATOM     81  O   UNL A   1      36.589  32.379  30.967  1.00  0.00    -0.237 OA
ATOM     82  O   UNL A   1      35.493  30.907  29.307  1.00  0.00    -0.237 OA
ATOM     83  O   UNL A   1      35.928  30.082  31.588  1.00  0.00    -0.744 OA
ENDBRANCH  79  80
ENDBRANCH  47  72
BRANCH  59  84
ATOM     84  C   UNL A   1      46.620  32.687  28.356  1.00  0.00     0.058 A 
ATOM     85  C   UNL A   1      47.172  33.153  29.560  1.00  0.00     0.135 A 
ATOM     86  C   UNL A   1      46.535  33.588  27.282  1.00  0.00     0.135 A 
ATOM     87  F   UNL A   1      47.271  32.334  30.620  1.00  0.00    -0.206 F 
ATOM     88  C   UNL A   1      47.595  34.469  29.703  1.00  0.00     0.059 A 
ATOM     89  C   UNL A   1      46.983  34.901  27.393  1.00  0.00     0.059 A 
ATOM     90  F   UNL A   1      46.027  33.192  26.104  1.00  0.00    -0.206 F 
ATOM     91  C   UNL A   1      47.499  35.336  28.612  1.00  0.00     0.060 A 
BRANCH  91  92
ATOM     92  S   UNL A   1      48.077  37.035  28.806  1.00  0.00     0.124 S 
ATOM     93  O   UNL A   1      49.026  37.149  27.704  1.00  0.00    -0.237 OA
ATOM     94  O   UNL A   1      46.844  37.802  28.662  1.00  0.00    -0.237 OA
ATOM     95  O   UNL A   1      48.663  37.044  30.142  1.00  0.00    -0.744 OA
ENDBRANCH  91  92
ENDBRANCH  59  84
ENDBRANCH  33  34
ENDBRANCH  25  28
ENDBRANCH  23  24
ENDBRANCH   1  23
TORSDOF 17
ENDMDL
MODEL 2
REMARK VINA RESULT:     -11.4      0.521      8.307
REMARK SMILES C#CCN(CC(=O)NCCCNC(=O)c1ccc(-c2c3nc(c(-c4c(F)cc(S(=O)(=O)[O-])cc4F)c4ccc([nH]4)c(-c4c(F)cc(S(=O)(=O)[O-])cc4F)c4nc(c(-c5c(F)cc(S(=O)(=O)[O-])cc5F)c5ccc2[nH]5)C=C4)C=C3)cc1)c1nnc(C)c2ccccc12
REMARK SMILES IDX 10 1 9 2 8 3 6 4 7 5 5 7 4 8 3 9 2 10 1 11 81 12 82 13 91 14
REMARK SMILES IDX 83 15 86 16 90 17 84 18 87 19 89 20 85 21 88 22 11 23 12 24
REMARK SMILES IDX 13 25 14 27 15 28 16 29 80 30 17 31 79 32 18 33 19 34 20 35
REMARK SMILES IDX 73 36 21 37 78 38 72 39 74 40 22 41 77 42 71 43 70 44 23 46
REMARK SMILES IDX 57 47 36 48 56 49 37 50 40 51 55 52 75 53 38 54 39 55 54 57
REMARK SMILES IDX 76 58 41 59 24 60 25 61 34 62 26 63 27 64 33 65 35 66 28 67
REMARK SMILES IDX 29 68 30 69 31 70 32 71 58 72 59 73 68 74 60 75 61 76 67 77
REMARK SMILES IDX 69 78 62 79 63 80 64 81 65 82 66 83 42 84 43 85 52 86 44 87
REMARK SMILES IDX 45 88 51 89 53 90 46 91 47 92 48 93 49 94 50 95
REMARK H PARENT 8 6 12 26 74 45 40 56
REMARK Flexibility Score: inf
ROOT
ATOM      1  C   UNL A   1      38.206  19.506  25.076  1.00  0.00     0.042 C 
ENDROOT
BRANCH   1   2
ATOM      2  C   UNL A   1      37.133  20.521  24.705  1.00  0.00     0.117 C 
BRANCH   2   3
ATOM      3  N   UNL A   1      35.817  20.043  25.067  1.00  0.00    -0.354 N 
ATOM      4  C   UNL A   1      34.645  20.743  24.981  1.00  0.00     0.239 C 
ATOM      5  O   UNL A   1      33.626  20.264  25.478  1.00  0.00    -0.273 OA
ATOM      6  H   UNL A   1      35.758  19.122  25.408  1.00  0.00     0.163 HD
BRANCH   4   7
ATOM      7  C   UNL A   1      34.651  22.055  24.200  1.00  0.00     0.219 C 
BRANCH   7   8
ATOM      8  N   UNL A   1      34.394  23.250  25.067  1.00  0.00    -0.334 N 
BRANCH   8   9
ATOM      9  C   UNL A   1      35.222  23.262  26.359  1.00  0.00     0.208 C 
BRANCH   9  10
ATOM     10  C   UNL A   1      36.677  23.649  26.161  1.00  0.00    -0.085 C 
ATOM     11  C   UNL A   1      37.927  23.982  25.991  1.00  0.00     0.006 C 
ENDBRANCH   9  10
ENDBRANCH   8   9
BRANCH   8  12
ATOM     12  C   UNL A   1      34.385  24.353  24.168  1.00  0.00     0.160 A 
ATOM     13  N   UNL A   1      34.394  24.025  22.845  1.00  0.00    -0.132 NA
ATOM     14  C   UNL A   1      34.045  25.717  24.544  1.00  0.00     0.028 A 
ATOM     15  N   UNL A   1      33.740  24.798  21.946  1.00  0.00    -0.153 NA
ATOM     16  C   UNL A   1      33.835  26.601  23.477  1.00  0.00     0.009 A 
ATOM     17  C   UNL A   1      33.762  26.332  25.806  1.00  0.00     0.013 A 
ATOM     18  C   UNL A   1      33.351  26.029  22.322  1.00  0.00     0.068 A 
ATOM     19  C   UNL A   1      33.787  28.003  23.601  1.00  0.00     0.011 A 
ATOM     20  C   UNL A   1      33.511  27.725  25.935  1.00  0.00     0.001 A 
ATOM     21  C   UNL A   1      31.884  26.357  22.039  1.00  0.00     0.069 C 
ATOM     22  C   UNL A   1      33.626  28.576  24.843  1.00  0.00     0.001 A 
ENDBRANCH   8  12
ENDBRANCH   7   8
ENDBRANCH   4   7
ENDBRANCH   2   3
ENDBRANCH   1   2
BRANCH   1  23
ATOM     23  C   UNL A   1      39.376  20.130  25.817  1.00  0.00     0.118 C 
BRANCH  23  24
ATOM     24  N   UNL A   1      40.449  19.170  26.033  1.00  0.00    -0.352 N 
ATOM     25  C   UNL A   1      41.792  19.373  26.133  1.00  0.00     0.251 C 
ATOM     26  H   UNL A   1      40.160  18.233  26.117  1.00  0.00     0.163 HD
ATOM     27  O   UNL A   1      42.553  18.396  26.043  1.00  0.00    -0.269 OA
BRANCH  25  28
ATOM     28  C   UNL A   1      42.341  20.723  26.348  1.00  0.00     0.039 A 
ATOM     29  C   UNL A   1      42.439  21.209  27.653  1.00  0.00     0.014 A 
ATOM     30  C   UNL A   1      42.714  21.531  25.268  1.00  0.00     0.014 A 
ATOM     31  C   UNL A   1      42.934  22.492  27.875  1.00  0.00     0.010 A 
ATOM     32  C   UNL A   1      43.295  22.774  25.497  1.00  0.00     0.010 A 
ATOM     33  C   UNL A   1      43.386  23.278  26.801  1.00  0.00    -0.014 A 
BRANCH  33  34
ATOM     34  C   UNL A   1      43.924  24.640  27.031  1.00  0.00     0.031 A 
ATOM     35  C   UNL A   1      43.006  25.754  27.458  1.00  0.00     0.074 A 
ATOM     36  C   UNL A   1      45.236  24.874  26.832  1.00  0.00     0.049 A 
ATOM     37  N   UNL A   1      43.289  27.008  27.700  1.00  0.00    -0.248 NA
ATOM     38  C   UNL A   1      41.579  25.424  27.610  1.00  0.00     0.031 C 
ATOM     39  C   UNL A   1      46.210  23.883  26.370  1.00  0.00     0.029 A 
ATOM     40  N   UNL A   1      45.977  26.016  26.993  1.00  0.00    -0.354 N 
ATOM     41  C   UNL A   1      42.082  27.614  28.026  1.00  0.00     0.074 A 
ATOM     42  C   UNL A   1      41.052  26.608  27.886  1.00  0.00     0.031 C 
ATOM     43  C   UNL A   1      47.426  24.449  26.322  1.00  0.00     0.029 A 
ATOM     44  C   UNL A   1      47.312  25.853  26.707  1.00  0.00     0.049 A 
ATOM     45  H   UNL A   1      45.589  26.873  27.285  1.00  0.00     0.167 HD
ATOM     46  C   UNL A   1      41.855  28.885  28.434  1.00  0.00     0.037 A 
ATOM     47  C   UNL A   1      48.327  26.735  26.750  1.00  0.00     0.037 A 
ATOM     48  C   UNL A   1      42.891  29.873  28.589  1.00  0.00     0.049 A 
ATOM     49  C   UNL A   1      48.047  28.146  27.193  1.00  0.00     0.074 A 
ATOM     50  C   UNL A   1      42.776  31.174  29.045  1.00  0.00     0.029 A 
ATOM     51  N   UNL A   1      44.230  29.671  28.292  1.00  0.00    -0.354 N 
ATOM     52  N   UNL A   1      46.909  28.683  27.565  1.00  0.00    -0.248 NA
ATOM     53  C   UNL A   1      49.189  29.069  27.231  1.00  0.00     0.031 C 
ATOM     54  C   UNL A   1      44.037  31.774  28.974  1.00  0.00     0.029 A 
ATOM     55  C   UNL A   1      44.949  30.830  28.529  1.00  0.00     0.049 A 
ATOM     56  H   UNL A   1      44.614  28.826  27.960  1.00  0.00     0.167 HD
ATOM     57  C   UNL A   1      47.203  29.998  27.906  1.00  0.00     0.074 A 
ATOM     58  C   UNL A   1      48.630  30.169  27.715  1.00  0.00     0.031 C 
ATOM     59  C   UNL A   1      46.371  30.980  28.336  1.00  0.00     0.037 A 
BRANCH  46  60
ATOM     60  C   UNL A   1      40.436  29.277  28.750  1.00  0.00     0.058 A 
ATOM     61  C   UNL A   1      39.486  29.487  27.738  1.00  0.00     0.135 A 
ATOM     62  C   UNL A   1      40.009  29.404  30.082  1.00  0.00     0.135 A 
ATOM     63  F   UNL A   1      39.842  29.397  26.446  1.00  0.00    -0.206 F 
ATOM     64  C   UNL A   1      38.172  29.836  28.033  1.00  0.00     0.059 A 
ATOM     65  C   UNL A   1      38.691  29.721  30.401  1.00  0.00     0.059 A 
ATOM     66  F   UNL A   1      40.874  29.216  31.091  1.00  0.00    -0.206 F 
ATOM     67  C   UNL A   1      37.783  29.948  29.368  1.00  0.00     0.060 A 
BRANCH  67  68
ATOM     68  S   UNL A   1      36.070  30.388  29.731  1.00  0.00     0.124 S 
ATOM     69  O   UNL A   1      36.115  31.843  29.629  1.00  0.00    -0.237 OA
ATOM     70  O   UNL A   1      35.342  29.700  28.668  1.00  0.00    -0.237 OA
ATOM     71  O   UNL A   1      35.860  29.859  31.075  1.00  0.00    -0.744 OA
ENDBRANCH  67  68
ENDBRANCH  46  60
BRANCH  47  72
ATOM     72  C   UNL A   1      49.705  26.307  26.384  1.00  0.00     0.058 A 
ATOM     73  C   UNL A   1      50.595  25.828  27.356  1.00  0.00     0.135 A 
ATOM     74  C   UNL A   1      50.158  26.368  25.057  1.00  0.00     0.135 A 
ATOM     75  F   UNL A   1      50.211  25.753  28.639  1.00  0.00    -0.206 F 
ATOM     76  C   UNL A   1      51.893  25.448  27.031  1.00  0.00     0.059 A 
ATOM     77  C   UNL A   1      51.441  25.965  24.702  1.00  0.00     0.059 A 
ATOM     78  F   UNL A   1      49.339  26.800  24.085  1.00  0.00    -0.206 F 
ATOM     79  C   UNL A   1      52.307  25.519  25.701  1.00  0.00     0.060 A 
BRANCH  79  80
ATOM     80  S   UNL A   1      53.983  24.994  25.286  1.00  0.00     0.124 S 
ATOM     81  O   UNL A   1      54.672  25.173  26.559  1.00  0.00    -0.237 OA
ATOM     82  O   UNL A   1      53.774  23.612  24.861  1.00  0.00    -0.237 OA
ATOM     83  O   UNL A   1      54.370  25.916  24.223  1.00  0.00    -0.744 OA
ENDBRANCH  79  80
ENDBRANCH  47  72
BRANCH  59  84
ATOM     84  C   UNL A   1      46.985  32.314  28.659  1.00  0.00     0.058 A 
ATOM     85  C   UNL A   1      47.090  33.331  27.698  1.00  0.00     0.135 A 
ATOM     86  C   UNL A   1      47.433  32.594  29.961  1.00  0.00     0.135 A 
ATOM     87  F   UNL A   1      46.681  33.115  26.436  1.00  0.00    -0.206 F 
ATOM     88  C   UNL A   1      47.646  34.568  28.006  1.00  0.00     0.059 A 
ATOM     89  C   UNL A   1      47.962  33.835  30.300  1.00  0.00     0.059 A 
ATOM     90  F   UNL A   1      47.345  31.661  30.922  1.00  0.00    -0.206 F 
ATOM     91  C   UNL A   1      48.077  34.811  29.312  1.00  0.00     0.060 A 
BRANCH  91  92
ATOM     92  S   UNL A   1      48.772  36.431  29.704  1.00  0.00     0.124 S 
ATOM     93  O   UNL A   1      47.568  37.213  29.959  1.00  0.00    -0.237 OA
ATOM     94  O   UNL A   1      49.599  36.140  30.871  1.00  0.00    -0.237 OA
ATOM     95  O   UNL A   1      49.508  36.786  28.495  1.00  0.00    -0.744 OA
ENDBRANCH  91  92
ENDBRANCH  59  84
ENDBRANCH  33  34
ENDBRANCH  25  28
ENDBRANCH  23  24
ENDBRANCH   1  23
TORSDOF 17
ENDMDL
MODEL 3
REMARK VINA RESULT:     -11.3      6.328     11.999
REMARK SMILES C#CCN(CC(=O)NCCCNC(=O)c1ccc(-c2c3nc(c(-c4c(F)cc(S(=O)(=O)[O-])cc4F)c4ccc([nH]4)c(-c4c(F)cc(S(=O)(=O)[O-])cc4F)c4nc(c(-c5c(F)cc(S(=O)(=O)[O-])cc5F)c5ccc2[nH]5)C=C4)C=C3)cc1)c1nnc(C)c2ccccc12
REMARK SMILES IDX 10 1 9 2 8 3 6 4 7 5 5 7 4 8 3 9 2 10 1 11 81 12 82 13 91 14
REMARK SMILES IDX 83 15 86 16 90 17 84 18 87 19 89 20 85 21 88 22 11 23 12 24
REMARK SMILES IDX 13 25 14 27 15 28 16 29 80 30 17 31 79 32 18 33 19 34 20 35
REMARK SMILES IDX 73 36 21 37 78 38 72 39 74 40 22 41 77 42 71 43 70 44 23 46
REMARK SMILES IDX 57 47 36 48 56 49 37 50 40 51 55 52 75 53 38 54 39 55 54 57
REMARK SMILES IDX 76 58 41 59 24 60 25 61 34 62 26 63 27 64 33 65 35 66 28 67
REMARK SMILES IDX 29 68 30 69 31 70 32 71 58 72 59 73 68 74 60 75 61 76 67 77
REMARK SMILES IDX 69 78 62 79 63 80 64 81 65 82 66 83 42 84 43 85 52 86 44 87
REMARK SMILES IDX 45 88 51 89 53 90 46 91 47 92 48 93 49 94 50 95
REMARK H PARENT 8 6 12 26 74 45 40 56
REMARK Flexibility Score: inf
ROOT
ATOM      1  C   UNL A   1      31.620  32.350  26.676  1.00  0.00     0.042 C 
ENDROOT
BRANCH   1   2
ATOM      2  C   UNL A   1      31.601  30.843  26.461  1.00  0.00     0.117 C 
BRANCH   2   3
ATOM      3  N   UNL A   1      31.135  30.513  25.132  1.00  0.00    -0.354 N 
ATOM      4  C   UNL A   1      31.082  29.266  24.574  1.00  0.00     0.239 C 
ATOM      5  O   UNL A   1      30.817  29.157  23.377  1.00  0.00    -0.273 OA
ATOM      6  H   UNL A   1      30.825  31.262  24.572  1.00  0.00     0.163 HD
BRANCH   4   7
ATOM      7  C   UNL A   1      31.281  28.062  25.493  1.00  0.00     0.219 C 
BRANCH   7   8
ATOM      8  N   UNL A   1      32.443  27.206  25.088  1.00  0.00    -0.334 N 
BRANCH   8   9
ATOM      9  C   UNL A   1      33.750  27.990  24.903  1.00  0.00     0.208 C 
BRANCH   9  10
ATOM     10  C   UNL A   1      34.297  28.597  26.183  1.00  0.00    -0.085 C 
ATOM     11  C   UNL A   1      34.767  29.119  27.282  1.00  0.00     0.006 C 
ENDBRANCH   9  10
ENDBRANCH   8   9
BRANCH   8  12
ATOM     12  C   UNL A   1      32.363  26.065  25.935  1.00  0.00     0.160 A 
ATOM     13  N   UNL A   1      31.140  25.840  26.492  1.00  0.00    -0.132 NA
ATOM     14  C   UNL A   1      33.351  24.998  25.970  1.00  0.00     0.028 A 
ATOM     15  N   UNL A   1      30.714  24.574  26.715  1.00  0.00    -0.153 NA
ATOM     16  C   UNL A   1      32.966  23.844  26.666  1.00  0.00     0.009 A 
ATOM     17  C   UNL A   1      34.623  24.833  25.333  1.00  0.00     0.013 A 
ATOM     18  C   UNL A   1      31.615  23.577  26.665  1.00  0.00     0.068 A 
ATOM     19  C   UNL A   1      33.849  22.825  27.072  1.00  0.00     0.011 A 
ATOM     20  C   UNL A   1      35.456  23.707  25.574  1.00  0.00     0.001 A 
ATOM     21  C   UNL A   1      31.220  22.395  25.777  1.00  0.00     0.069 C 
ATOM     22  C   UNL A   1      35.110  22.753  26.524  1.00  0.00     0.001 A 
ENDBRANCH   8  12
ENDBRANCH   7   8
ENDBRANCH   4   7
ENDBRANCH   2   3
ENDBRANCH   1   2
BRANCH   1  23
ATOM     23  C   UNL A   1      32.921  32.841  27.289  1.00  0.00     0.118 C 
BRANCH  23  24
ATOM     24  N   UNL A   1      32.818  34.222  27.736  1.00  0.00    -0.352 N 
ATOM     25  C   UNL A   1      33.419  34.846  28.787  1.00  0.00     0.251 C 
ATOM     26  H   UNL A   1      32.223  34.791  27.196  1.00  0.00     0.163 HD
ATOM     27  O   UNL A   1      32.987  35.950  29.154  1.00  0.00    -0.269 OA
BRANCH  25  28
ATOM     28  C   UNL A   1      34.564  34.230  29.480  1.00  0.00     0.039 A 
ATOM     29  C   UNL A   1      34.318  33.374  30.555  1.00  0.00     0.014 A 
ATOM     30  C   UNL A   1      35.879  34.530  29.109  1.00  0.00     0.014 A 
ATOM     31  C   UNL A   1      35.388  32.801  31.238  1.00  0.00     0.010 A 
ATOM     32  C   UNL A   1      36.942  33.884  29.731  1.00  0.00     0.010 A 
ATOM     33  C   UNL A   1      36.709  33.035  30.819  1.00  0.00    -0.014 A 
BRANCH  33  34
ATOM     34  C   UNL A   1      37.852  32.418  31.534  1.00  0.00     0.031 A 
ATOM     35  C   UNL A   1      38.295  32.966  32.865  1.00  0.00     0.074 A 
ATOM     36  C   UNL A   1      38.501  31.382  30.972  1.00  0.00     0.049 A 
ATOM     37  N   UNL A   1      39.274  32.568  33.635  1.00  0.00    -0.248 NA
ATOM     38  C   UNL A   1      37.560  34.130  33.389  1.00  0.00     0.031 C 
ATOM     39  C   UNL A   1      38.192  30.799  29.664  1.00  0.00     0.029 A 
ATOM     40  N   UNL A   1      39.555  30.631  31.427  1.00  0.00    -0.354 N 
ATOM     41  C   UNL A   1      39.275  33.429  34.726  1.00  0.00     0.074 A 
ATOM     42  C   UNL A   1      38.243  34.414  34.488  1.00  0.00     0.031 C 
ATOM     43  C   UNL A   1      39.011  29.760  29.439  1.00  0.00     0.029 A 
ATOM     44  C   UNL A   1      39.931  29.627  30.565  1.00  0.00     0.049 A 
ATOM     45  H   UNL A   1      40.002  30.796  32.289  1.00  0.00     0.167 HD
ATOM     46  C   UNL A   1      40.044  33.386  35.839  1.00  0.00     0.037 A 
ATOM     47  C   UNL A   1      40.907  28.707  30.671  1.00  0.00     0.037 A 
ATOM     48  C   UNL A   1      41.056  32.389  36.076  1.00  0.00     0.049 A 
ATOM     49  C   UNL A   1      41.758  28.688  31.911  1.00  0.00     0.074 A 
ATOM     50  C   UNL A   1      41.856  32.224  37.192  1.00  0.00     0.029 A 
ATOM     51  N   UNL A   1      41.406  31.388  35.181  1.00  0.00    -0.354 N 
ATOM     52  N   UNL A   1      41.698  29.469  32.965  1.00  0.00    -0.248 NA
ATOM     53  C   UNL A   1      42.804  27.660  31.983  1.00  0.00     0.031 C 
ATOM     54  C   UNL A   1      42.726  31.156  36.951  1.00  0.00     0.029 A 
ATOM     55  C   UNL A   1      42.429  30.618  35.708  1.00  0.00     0.049 A 
ATOM     56  H   UNL A   1      40.989  31.246  34.300  1.00  0.00     0.167 HD
ATOM     57  C   UNL A   1      42.680  29.009  33.835  1.00  0.00     0.074 A 
ATOM     58  C   UNL A   1      43.306  27.870  33.192  1.00  0.00     0.031 C 
ATOM     59  C   UNL A   1      43.037  29.485  35.055  1.00  0.00     0.037 A 
BRANCH  46  60
ATOM     60  C   UNL A   1      39.818  34.440  36.890  1.00  0.00     0.058 A 
ATOM     61  C   UNL A   1      39.019  34.196  38.020  1.00  0.00     0.135 A 
ATOM     62  C   UNL A   1      40.439  35.695  36.789  1.00  0.00     0.135 A 
ATOM     63  F   UNL A   1      38.386  33.020  38.160  1.00  0.00    -0.206 F 
ATOM     64  C   UNL A   1      38.823  35.166  38.997  1.00  0.00     0.059 A 
ATOM     65  C   UNL A   1      40.282  36.670  37.771  1.00  0.00     0.059 A 
ATOM     66  F   UNL A   1      41.212  35.985  35.731  1.00  0.00    -0.206 F 
ATOM     67  C   UNL A   1      39.461  36.400  38.866  1.00  0.00     0.060 A 
BRANCH  67  68
ATOM     68  S   UNL A   1      39.205  37.642  40.150  1.00  0.00     0.124 S 
ATOM     69  O   UNL A   1      40.514  38.285  40.200  1.00  0.00    -0.237 OA
ATOM     70  O   UNL A   1      38.123  38.448  39.592  1.00  0.00    -0.237 OA
ATOM     71  O   UNL A   1      38.852  36.849  41.324  1.00  0.00    -0.744 OA
ENDBRANCH  67  68
ENDBRANCH  46  60
BRANCH  47  72
ATOM     72  C   UNL A   1      41.118  27.714  29.582  1.00  0.00     0.058 A 
ATOM     73  C   UNL A   1      42.216  27.815  28.715  1.00  0.00     0.135 A 
ATOM     74  C   UNL A   1      40.228  26.646  29.388  1.00  0.00     0.135 A 
ATOM     75  F   UNL A   1      43.094  28.820  28.858  1.00  0.00    -0.206 F 
ATOM     76  C   UNL A   1      42.411  26.908  27.678  1.00  0.00     0.059 A 
ATOM     77  C   UNL A   1      40.418  25.710  28.377  1.00  0.00     0.059 A 
ATOM     78  F   UNL A   1      39.172  26.493  30.202  1.00  0.00    -0.206 F 
ATOM     79  C   UNL A   1      41.507  25.858  27.518  1.00  0.00     0.060 A 
BRANCH  79  80
ATOM     80  S   UNL A   1      41.787  24.669  26.189  1.00  0.00     0.124 S 
ATOM     81  O   UNL A   1      40.543  23.909  26.207  1.00  0.00    -0.237 OA
ATOM     82  O   UNL A   1      41.987  25.543  25.036  1.00  0.00    -0.237 OA
ATOM     83  O   UNL A   1      42.975  23.946  26.630  1.00  0.00    -0.744 OA
ENDBRANCH  79  80
ENDBRANCH  47  72
BRANCH  59  84
ATOM     84  C   UNL A   1      44.131  28.757  35.787  1.00  0.00     0.058 A 
ATOM     85  C   UNL A   1      45.482  29.104  35.631  1.00  0.00     0.135 A 
ATOM     86  C   UNL A   1      43.818  27.728  36.692  1.00  0.00     0.135 A 
ATOM     87  F   UNL A   1      45.836  30.077  34.775  1.00  0.00    -0.206 F 
ATOM     88  C   UNL A   1      46.488  28.437  36.322  1.00  0.00     0.059 A 
ATOM     89  C   UNL A   1      44.806  27.071  37.418  1.00  0.00     0.059 A 
ATOM     90  F   UNL A   1      42.541  27.365  36.889  1.00  0.00    -0.206 F 
ATOM     91  C   UNL A   1      46.139  27.422  37.215  1.00  0.00     0.060 A 
BRANCH  91  92
ATOM     92  S   UNL A   1      47.453  26.584  38.125  1.00  0.00     0.124 S 
ATOM     93  O   UNL A   1      48.059  25.767  37.080  1.00  0.00    -0.237 OA
ATOM     94  O   UNL A   1      48.261  27.701  38.605  1.00  0.00    -0.237 OA
ATOM     95  O   UNL A   1      46.734  25.848  39.160  1.00  0.00    -0.744 OA
ENDBRANCH  91  92
ENDBRANCH  59  84
ENDBRANCH  33  34
ENDBRANCH  25  28
ENDBRANCH  23  24
ENDBRANCH   1  23
TORSDOF 17
ENDMDL
