MODEL 1
REMARK VINA RESULT:     -12.1      0.000      0.000
REMARK SMILES COc1ccc(-c2cnc(N)c(C(=O)NCCCNC(=O)c3ccc(-c4c5nc(c(-c6c(F)cc(S(=O)(=O)[O-])cc6F)c6ccc([nH]6)c(-c6c(F)cc(S(=O)(=O)[O-])cc6F)c6nc(c(-c7c(F)cc(S(=O)(=O)[O-])cc7F)c7ccc4[nH]7)C=C6)C=C5)cc3)c2)c(C)c1
REMARK SMILES IDX 17 1 16 2 15 3 13 4 14 5 12 7 7 8 8 9 88 10 9 11 10 12 6 13
REMARK SMILES IDX 3 14 4 15 91 16 5 17 89 18 90 19 2 20 1 21 11 22 18 25 19 26
REMARK SMILES IDX 20 27 21 29 22 30 23 31 87 32 24 33 86 34 25 35 26 36 27 37
REMARK SMILES IDX 80 38 28 39 85 40 79 41 81 42 29 43 84 44 78 45 77 46 30 48
REMARK SMILES IDX 64 49 43 50 63 51 44 52 47 53 62 54 82 55 45 56 46 57 61 59
REMARK SMILES IDX 83 60 48 61 31 62 32 63 41 64 33 65 34 66 40 67 42 68 35 69
REMARK SMILES IDX 36 70 37 71 38 72 39 73 65 74 66 75 75 76 67 77 68 78 74 79
REMARK SMILES IDX 76 80 69 81 70 82 71 83 72 84 73 85 49 86 50 87 59 88 51 89
REMARK SMILES IDX 52 90 58 91 60 92 53 93 54 94 55 95 56 96 57 97
REMARK H PARENT 15 6 11 23 11 24 19 28 81 47 47 58
REMARK Flexibility Score: inf
ROOT
ATOM      1  C   UNL A   1      33.031  29.183  25.660  1.00  0.00     0.042 C 
ENDROOT
BRANCH   1   2
ATOM      2  C   UNL A   1      31.789  28.380  26.003  1.00  0.00     0.118 C 
BRANCH   2   3
ATOM      3  N   UNL A   1      31.076  27.868  24.838  1.00  0.00    -0.352 N 
ATOM      4  C   UNL A   1      30.761  26.575  24.514  1.00  0.00     0.255 C 
ATOM      5  O   UNL A   1      30.137  26.340  23.481  1.00  0.00    -0.269 OA
ATOM      6  H   UNL A   1      30.779  28.549  24.192  1.00  0.00     0.163 HD
BRANCH   4   7
ATOM      7  C   UNL A   1      31.246  25.455  25.337  1.00  0.00     0.082 A 
ATOM      8  C   UNL A   1      33.107  24.022  25.897  1.00  0.00     0.001 A 
ATOM      9  C   UNL A   1      32.321  23.589  26.965  1.00  0.00     0.122 A 
ATOM     10  C   UNL A   1      32.558  25.026  25.104  1.00  0.00     0.028 A 
ATOM     11  N   UNL A   1      31.026  23.920  27.158  1.00  0.00    -0.238 NA
ATOM     12  C   UNL A   1      30.473  24.778  26.282  1.00  0.00     0.136 A 
BRANCH   8  13
ATOM     13  C   UNL A   1      34.321  23.286  25.518  1.00  0.00    -0.014 A 
ATOM     14  C   UNL A   1      36.808  22.013  25.109  1.00  0.00     0.119 A 
ATOM     15  C   UNL A   1      36.770  23.259  25.712  1.00  0.00     0.047 A 
ATOM     16  C   UNL A   1      35.625  21.423  24.660  1.00  0.00     0.050 A 
ATOM     17  C   UNL A   1      35.543  23.873  25.924  1.00  0.00     0.013 A 
ATOM     18  C   UNL A   1      34.370  22.042  24.860  1.00  0.00    -0.040 A 
ATOM     19  C   UNL A   1      33.153  21.295  24.381  1.00  0.00     0.045 C 
BRANCH  14  20
ATOM     20  O   UNL A   1      37.970  21.321  24.894  1.00  0.00    -0.497 OA
ATOM     21  C   UNL A   1      37.778  19.907  24.855  1.00  0.00     0.278 C 
ENDBRANCH  14  20
ENDBRANCH   8  13
BRANCH  12  22
ATOM     22  N   UNL A   1      29.114  24.939  26.435  1.00  0.00    -0.383 N 
ATOM     23  H   UNL A   1      28.506  24.182  26.274  1.00  0.00     0.158 HD
ATOM     24  H   UNL A   1      28.751  25.814  26.707  1.00  0.00     0.158 HD
ENDBRANCH  12  22
ENDBRANCH   4   7
ENDBRANCH   2   3
ENDBRANCH   1   2
BRANCH   1  25
ATOM     25  C   UNL A   1      33.621  29.891  26.866  1.00  0.00     0.118 C 
BRANCH  25  26
ATOM     26  N   UNL A   1      34.708  29.106  27.438  1.00  0.00    -0.352 N 
ATOM     27  C   UNL A   1      35.986  29.581  27.738  1.00  0.00     0.251 C 
ATOM     28  H   UNL A   1      34.526  28.157  27.628  1.00  0.00     0.163 HD
ATOM     29  O   UNL A   1      36.950  29.070  27.210  1.00  0.00    -0.269 OA
BRANCH  27  30
ATOM     30  C   UNL A   1      36.105  30.550  28.883  1.00  0.00     0.039 A 
ATOM     31  C   UNL A   1      36.901  31.644  28.523  1.00  0.00     0.014 A 
ATOM     32  C   UNL A   1      36.280  29.972  30.132  1.00  0.00     0.014 A 
ATOM     33  C   UNL A   1      38.171  31.739  29.058  1.00  0.00     0.010 A 
ATOM     34  C   UNL A   1      37.560  30.014  30.648  1.00  0.00     0.010 A 
ATOM     35  C   UNL A   1      38.531  30.780  29.989  1.00  0.00    -0.014 A 
BRANCH  35  36
ATOM     36  C   UNL A   1      39.910  30.363  30.183  1.00  0.00     0.031 A 
ATOM     37  C   UNL A   1      40.286  29.013  29.761  1.00  0.00     0.074 A 
ATOM     38  C   UNL A   1      40.792  31.268  30.660  1.00  0.00     0.049 A 
ATOM     39  N   UNL A   1      41.391  28.427  30.046  1.00  0.00    -0.248 NA
ATOM     40  C   UNL A   1      39.349  28.173  29.025  1.00  0.00     0.031 C 
ATOM     41  C   UNL A   1      42.251  31.211  30.692  1.00  0.00     0.029 A 
ATOM     42  N   UNL A   1      40.476  32.370  31.462  1.00  0.00    -0.354 N 
ATOM     43  C   UNL A   1      41.425  27.244  29.339  1.00  0.00     0.074 A 
ATOM     44  C   UNL A   1      40.096  27.092  28.811  1.00  0.00     0.031 C 
ATOM     45  C   UNL A   1      42.697  32.047  31.649  1.00  0.00     0.029 A 
ATOM     46  C   UNL A   1      41.524  32.514  32.381  1.00  0.00     0.049 A 
ATOM     47  H   UNL A   1      39.672  32.935  31.393  1.00  0.00     0.167 HD
ATOM     48  C   UNL A   1      42.628  26.624  29.185  1.00  0.00     0.037 A 
ATOM     49  C   UNL A   1      41.296  32.245  33.703  1.00  0.00     0.037 A 
ATOM     50  C   UNL A   1      43.586  27.181  30.148  1.00  0.00     0.049 A 
ATOM     51  C   UNL A   1      42.128  31.070  34.195  1.00  0.00     0.074 A 
ATOM     52  C   UNL A   1      44.557  28.164  30.048  1.00  0.00     0.029 A 
ATOM     53  N   UNL A   1      43.339  27.014  31.513  1.00  0.00    -0.354 N 
ATOM     54  N   UNL A   1      42.514  30.068  33.447  1.00  0.00    -0.248 NA
ATOM     55  C   UNL A   1      42.630  30.976  35.563  1.00  0.00     0.031 C 
ATOM     56  C   UNL A   1      44.781  28.686  31.353  1.00  0.00     0.029 A 
ATOM     57  C   UNL A   1      43.987  27.990  32.251  1.00  0.00     0.049 A 
ATOM     58  H   UNL A   1      42.781  26.300  31.897  1.00  0.00     0.167 HD
ATOM     59  C   UNL A   1      43.286  29.213  34.195  1.00  0.00     0.074 A 
ATOM     60  C   UNL A   1      43.335  29.833  35.509  1.00  0.00     0.031 C 
ATOM     61  C   UNL A   1      43.837  28.063  33.700  1.00  0.00     0.037 A 
BRANCH  48  62
ATOM     62  C   UNL A   1      42.995  25.771  27.975  1.00  0.00     0.058 A 
ATOM     63  C   UNL A   1      42.715  24.386  27.972  1.00  0.00     0.135 A 
ATOM     64  C   UNL A   1      43.727  26.203  26.845  1.00  0.00     0.135 A 
ATOM     65  F   UNL A   1      41.987  23.822  28.947  1.00  0.00    -0.206 F 
ATOM     66  C   UNL A   1      43.185  23.507  26.986  1.00  0.00     0.059 A 
ATOM     67  C   UNL A   1      44.230  25.344  25.865  1.00  0.00     0.059 A 
ATOM     68  F   UNL A   1      43.985  27.487  26.599  1.00  0.00    -0.206 F 
ATOM     69  C   UNL A   1      43.963  23.992  25.945  1.00  0.00     0.060 A 
BRANCH  69  70
ATOM     70  S   UNL A   1      44.603  22.862  24.698  1.00  0.00     0.124 S 
ATOM     71  O   UNL A   1      45.076  21.746  25.511  1.00  0.00    -0.237 OA
ATOM     72  O   UNL A   1      43.419  22.604  23.886  1.00  0.00    -0.237 OA
ATOM     73  O   UNL A   1      45.653  23.636  24.040  1.00  0.00    -0.744 OA
ENDBRANCH  69  70
ENDBRANCH  48  62
BRANCH  49  74
ATOM     74  C   UNL A   1      39.908  32.580  34.169  1.00  0.00     0.058 A 
ATOM     75  C   UNL A   1      39.595  33.917  34.511  1.00  0.00     0.135 A 
ATOM     76  C   UNL A   1      38.823  31.705  34.032  1.00  0.00     0.135 A 
ATOM     77  F   UNL A   1      40.585  34.813  34.674  1.00  0.00    -0.206 F 
ATOM     78  C   UNL A   1      38.281  34.380  34.626  1.00  0.00     0.059 A 
ATOM     79  C   UNL A   1      37.495  32.145  34.157  1.00  0.00     0.059 A 
ATOM     80  F   UNL A   1      39.027  30.422  33.702  1.00  0.00    -0.206 F 
ATOM     81  C   UNL A   1      37.230  33.491  34.421  1.00  0.00     0.060 A 
BRANCH  81  82
ATOM     82  S   UNL A   1      35.516  34.076  34.588  1.00  0.00     0.124 S 
ATOM     83  O   UNL A   1      35.335  34.125  36.036  1.00  0.00    -0.237 OA
ATOM     84  O   UNL A   1      35.542  35.366  33.913  1.00  0.00    -0.237 OA
ATOM     85  O   UNL A   1      34.753  33.038  33.902  1.00  0.00    -0.744 OA
ENDBRANCH  81  82
ENDBRANCH  49  74
BRANCH  61  86
ATOM     86  C   UNL A   1      44.378  26.936  34.556  1.00  0.00     0.058 A 
ATOM     87  C   UNL A   1      45.746  26.751  34.826  1.00  0.00     0.135 A 
ATOM     88  C   UNL A   1      43.500  26.086  35.272  1.00  0.00     0.135 A 
ATOM     89  F   UNL A   1      46.677  27.570  34.318  1.00  0.00    -0.206 F 
ATOM     90  C   UNL A   1      46.218  25.743  35.667  1.00  0.00     0.059 A 
ATOM     91  C   UNL A   1      43.947  25.116  36.168  1.00  0.00     0.059 A 
ATOM     92  F   UNL A   1      42.169  26.182  35.141  1.00  0.00    -0.206 F 
ATOM     93  C   UNL A   1      45.310  24.927  36.332  1.00  0.00     0.060 A 
BRANCH  93  94
ATOM     94  S   UNL A   1      45.917  23.655  37.454  1.00  0.00     0.124 S 
ATOM     95  O   UNL A   1      45.075  23.878  38.626  1.00  0.00    -0.237 OA
ATOM     96  O   UNL A   1      45.658  22.422  36.716  1.00  0.00    -0.237 OA
ATOM     97  O   UNL A   1      47.328  23.994  37.615  1.00  0.00    -0.744 OA
ENDBRANCH  93  94
ENDBRANCH  61  86
ENDBRANCH  35  36
ENDBRANCH  27  30
ENDBRANCH  25  26
ENDBRANCH   1  25
TORSDOF 16
ENDMDL
MODEL 2
REMARK VINA RESULT:     -12.0      1.530      2.270
REMARK SMILES COc1ccc(-c2cnc(N)c(C(=O)NCCCNC(=O)c3ccc(-c4c5nc(c(-c6c(F)cc(S(=O)(=O)[O-])cc6F)c6ccc([nH]6)c(-c6c(F)cc(S(=O)(=O)[O-])cc6F)c6nc(c(-c7c(F)cc(S(=O)(=O)[O-])cc7F)c7ccc4[nH]7)C=C6)C=C5)cc3)c2)c(C)c1
REMARK SMILES IDX 17 1 16 2 15 3 13 4 14 5 12 7 7 8 8 9 88 10 9 11 10 12 6 13
REMARK SMILES IDX 3 14 4 15 91 16 5 17 89 18 90 19 2 20 1 21 11 22 18 25 19 26
REMARK SMILES IDX 20 27 21 29 22 30 23 31 87 32 24 33 86 34 25 35 26 36 27 37
REMARK SMILES IDX 80 38 28 39 85 40 79 41 81 42 29 43 84 44 78 45 77 46 30 48
REMARK SMILES IDX 64 49 43 50 63 51 44 52 47 53 62 54 82 55 45 56 46 57 61 59
REMARK SMILES IDX 83 60 48 61 31 62 32 63 41 64 33 65 34 66 40 67 42 68 35 69
REMARK SMILES IDX 36 70 37 71 38 72 39 73 65 74 66 75 75 76 67 77 68 78 74 79
REMARK SMILES IDX 76 80 69 81 70 82 71 83 72 84 73 85 49 86 50 87 59 88 51 89
REMARK SMILES IDX 52 90 58 91 60 92 53 93 54 94 55 95 56 96 57 97
REMARK H PARENT 15 6 11 23 11 24 19 28 81 47 47 58
REMARK Flexibility Score: inf
ROOT
ATOM      1  C   UNL A   1      33.103  29.271  25.487  1.00  0.00     0.042 C 
ENDROOT
BRANCH   1   2
ATOM      2  C   UNL A   1      31.908  28.334  25.479  1.00  0.00     0.118 C 
BRANCH   2   3
ATOM      3  N   UNL A   1      30.994  28.552  24.364  1.00  0.00    -0.352 N 
ATOM      4  C   UNL A   1      30.871  27.850  23.195  1.00  0.00     0.255 C 
ATOM      5  O   UNL A   1      30.022  28.183  22.370  1.00  0.00    -0.269 OA
ATOM      6  H   UNL A   1      30.376  29.312  24.467  1.00  0.00     0.163 HD
BRANCH   4   7
ATOM      7  C   UNL A   1      31.810  26.764  22.868  1.00  0.00     0.082 A 
ATOM      8  C   UNL A   1      32.261  24.393  22.960  1.00  0.00     0.001 A 
ATOM      9  C   UNL A   1      33.322  24.665  22.095  1.00  0.00     0.122 A 
ATOM     10  C   UNL A   1      31.459  25.479  23.300  1.00  0.00     0.028 A 
ATOM     11  N   UNL A   1      33.732  25.901  21.737  1.00  0.00    -0.238 NA
ATOM     12  C   UNL A   1      33.026  26.944  22.208  1.00  0.00     0.136 A 
BRANCH   8  13
ATOM     13  C   UNL A   1      32.166  23.093  23.637  1.00  0.00    -0.014 A 
ATOM     14  C   UNL A   1      32.200  20.459  24.655  1.00  0.00     0.119 A 
ATOM     15  C   UNL A   1      32.212  20.662  23.285  1.00  0.00     0.047 A 
ATOM     16  C   UNL A   1      32.116  21.554  25.517  1.00  0.00     0.050 A 
ATOM     17  C   UNL A   1      32.210  21.959  22.791  1.00  0.00     0.013 A 
ATOM     18  C   UNL A   1      32.102  22.880  25.027  1.00  0.00    -0.040 A 
ATOM     19  C   UNL A   1      32.061  23.988  26.047  1.00  0.00     0.045 C 
BRANCH  14  20
ATOM     20  O   UNL A   1      32.236  19.216  25.228  1.00  0.00    -0.497 OA
ATOM     21  C   UNL A   1      33.375  18.452  24.832  1.00  0.00     0.278 C 
ENDBRANCH  14  20
ENDBRANCH   8  13
BRANCH  12  22
ATOM     22  N   UNL A   1      33.594  28.171  21.947  1.00  0.00    -0.383 N 
ATOM     23  H   UNL A   1      34.109  28.635  22.645  1.00  0.00     0.158 HD
ATOM     24  H   UNL A   1      33.485  28.584  21.059  1.00  0.00     0.158 HD
ENDBRANCH  12  22
ENDBRANCH   4   7
ENDBRANCH   2   3
ENDBRANCH   1   2
BRANCH   1  25
ATOM     25  C   UNL A   1      33.484  29.720  26.886  1.00  0.00     0.118 C 
BRANCH  25  26
ATOM     26  N   UNL A   1      34.702  29.049  27.324  1.00  0.00    -0.352 N 
ATOM     27  C   UNL A   1      35.931  29.667  27.563  1.00  0.00     0.251 C 
ATOM     28  H   UNL A   1      34.655  28.076  27.461  1.00  0.00     0.163 HD
ATOM     29  O   UNL A   1      36.906  29.316  26.933  1.00  0.00    -0.269 OA
BRANCH  27  30
ATOM     30  C   UNL A   1      36.020  30.574  28.761  1.00  0.00     0.039 A 
ATOM     31  C   UNL A   1      36.819  31.688  28.476  1.00  0.00     0.014 A 
ATOM     32  C   UNL A   1      36.171  29.931  29.980  1.00  0.00     0.014 A 
ATOM     33  C   UNL A   1      38.076  31.760  29.044  1.00  0.00     0.010 A 
ATOM     34  C   UNL A   1      37.438  29.951  30.526  1.00  0.00     0.010 A 
ATOM     35  C   UNL A   1      38.420  30.754  29.931  1.00  0.00    -0.014 A 
BRANCH  35  36
ATOM     36  C   UNL A   1      39.796  30.332  30.133  1.00  0.00     0.031 A 
ATOM     37  C   UNL A   1      40.164  28.972  29.738  1.00  0.00     0.074 A 
ATOM     38  C   UNL A   1      40.684  31.242  30.592  1.00  0.00     0.049 A 
ATOM     39  N   UNL A   1      41.265  28.385  30.035  1.00  0.00    -0.248 NA
ATOM     40  C   UNL A   1      39.222  28.123  29.020  1.00  0.00     0.031 C 
ATOM     41  C   UNL A   1      42.143  31.176  30.624  1.00  0.00     0.029 A 
ATOM     42  N   UNL A   1      40.375  32.361  31.371  1.00  0.00    -0.354 N 
ATOM     43  C   UNL A   1      41.291  27.187  29.353  1.00  0.00     0.074 A 
ATOM     44  C   UNL A   1      39.962  27.033  28.828  1.00  0.00     0.031 C 
ATOM     45  C   UNL A   1      42.594  32.029  31.565  1.00  0.00     0.029 A 
ATOM     46  C   UNL A   1      41.424  32.518  32.287  1.00  0.00     0.049 A 
ATOM     47  H   UNL A   1      39.575  32.930  31.291  1.00  0.00     0.167 HD
ATOM     48  C   UNL A   1      42.491  26.557  29.211  1.00  0.00     0.037 A 
ATOM     49  C   UNL A   1      41.194  32.277  33.614  1.00  0.00     0.037 A 
ATOM     50  C   UNL A   1      43.453  27.128  30.163  1.00  0.00     0.049 A 
ATOM     51  C   UNL A   1      42.019  31.108  34.130  1.00  0.00     0.074 A 
ATOM     52  C   UNL A   1      44.430  28.102  30.043  1.00  0.00     0.029 A 
ATOM     53  N   UNL A   1      43.205  26.990  31.530  1.00  0.00    -0.354 N 
ATOM     54  N   UNL A   1      42.399  30.088  33.402  1.00  0.00    -0.248 NA
ATOM     55  C   UNL A   1      42.521  31.038  35.500  1.00  0.00     0.031 C 
ATOM     56  C   UNL A   1      44.657  28.650  31.337  1.00  0.00     0.029 A 
ATOM     57  C   UNL A   1      43.859  27.977  32.248  1.00  0.00     0.049 A 
ATOM     58  H   UNL A   1      42.642  26.287  31.929  1.00  0.00     0.167 HD
ATOM     59  C   UNL A   1      43.166  29.244  34.167  1.00  0.00     0.074 A 
ATOM     60  C   UNL A   1      43.219  29.890  35.468  1.00  0.00     0.031 C 
ATOM     61  C   UNL A   1      43.710  28.080  33.696  1.00  0.00     0.037 A 
BRANCH  48  62
ATOM     62  C   UNL A   1      42.852  25.678  28.018  1.00  0.00     0.058 A 
ATOM     63  C   UNL A   1      43.086  24.296  28.202  1.00  0.00     0.135 A 
ATOM     64  C   UNL A   1      43.111  26.126  26.703  1.00  0.00     0.135 A 
ATOM     65  F   UNL A   1      42.843  23.699  29.378  1.00  0.00    -0.206 F 
ATOM     66  C   UNL A   1      43.600  23.463  27.198  1.00  0.00     0.059 A 
ATOM     67  C   UNL A   1      43.649  25.324  25.695  1.00  0.00     0.059 A 
ATOM     68  F   UNL A   1      42.836  27.365  26.296  1.00  0.00    -0.206 F 
ATOM     69  C   UNL A   1      43.902  23.991  25.951  1.00  0.00     0.060 A 
BRANCH  69  70
ATOM     70  S   UNL A   1      44.601  22.934  24.672  1.00  0.00     0.124 S 
ATOM     71  O   UNL A   1      45.164  21.838  25.454  1.00  0.00    -0.237 OA
ATOM     72  O   UNL A   1      43.426  22.610  23.870  1.00  0.00    -0.237 OA
ATOM     73  O   UNL A   1      45.584  23.794  24.017  1.00  0.00    -0.744 OA
ENDBRANCH  69  70
ENDBRANCH  48  62
BRANCH  49  74
ATOM     74  C   UNL A   1      39.809  32.631  34.073  1.00  0.00     0.058 A 
ATOM     75  C   UNL A   1      39.485  33.985  34.323  1.00  0.00     0.135 A 
ATOM     76  C   UNL A   1      38.732  31.737  34.014  1.00  0.00     0.135 A 
ATOM     77  F   UNL A   1      40.467  34.901  34.408  1.00  0.00    -0.206 F 
ATOM     78  C   UNL A   1      38.168  34.442  34.421  1.00  0.00     0.059 A 
ATOM     79  C   UNL A   1      37.401  32.171  34.124  1.00  0.00     0.059 A 
ATOM     80  F   UNL A   1      38.947  30.435  33.773  1.00  0.00    -0.206 F 
ATOM     81  C   UNL A   1      37.124  33.529  34.295  1.00  0.00     0.060 A 
BRANCH  81  82
ATOM     82  S   UNL A   1      35.406  34.107  34.442  1.00  0.00     0.124 S 
ATOM     83  O   UNL A   1      35.439  35.387  33.741  1.00  0.00    -0.237 OA
ATOM     84  O   UNL A   1      34.647  33.051  33.788  1.00  0.00    -0.237 OA
ATOM     85  O   UNL A   1      35.219  34.196  35.887  1.00  0.00    -0.744 OA
ENDBRANCH  81  82
ENDBRANCH  49  74
BRANCH  61  86
ATOM     86  C   UNL A   1      44.243  26.968  34.575  1.00  0.00     0.058 A 
ATOM     87  C   UNL A   1      43.433  25.969  35.146  1.00  0.00     0.135 A 
ATOM     88  C   UNL A   1      45.638  26.782  34.742  1.00  0.00     0.135 A 
ATOM     89  F   UNL A   1      42.106  25.951  34.954  1.00  0.00    -0.206 F 
ATOM     90  C   UNL A   1      43.952  24.919  35.902  1.00  0.00     0.059 A 
ATOM     91  C   UNL A   1      46.182  25.704  35.437  1.00  0.00     0.059 A 
ATOM     92  F   UNL A   1      46.526  27.637  34.213  1.00  0.00    -0.206 F 
ATOM     93  C   UNL A   1      45.329  24.795  36.045  1.00  0.00     0.060 A 
BRANCH  93  94
ATOM     94  S   UNL A   1      46.003  23.413  36.983  1.00  0.00     0.124 S 
ATOM     95  O   UNL A   1      47.434  23.697  36.927  1.00  0.00    -0.237 OA
ATOM     96  O   UNL A   1      45.379  23.575  38.293  1.00  0.00    -0.237 OA
ATOM     97  O   UNL A   1      45.560  22.246  36.227  1.00  0.00    -0.744 OA
ENDBRANCH  93  94
ENDBRANCH  61  86
ENDBRANCH  35  36
ENDBRANCH  27  30
ENDBRANCH  25  26
ENDBRANCH   1  25
TORSDOF 16
ENDMDL
MODEL 3
REMARK VINA RESULT:     -12.0      4.839     11.865
REMARK SMILES COc1ccc(-c2cnc(N)c(C(=O)NCCCNC(=O)c3ccc(-c4c5nc(c(-c6c(F)cc(S(=O)(=O)[O-])cc6F)c6ccc([nH]6)c(-c6c(F)cc(S(=O)(=O)[O-])cc6F)c6nc(c(-c7c(F)cc(S(=O)(=O)[O-])cc7F)c7ccc4[nH]7)C=C6)C=C5)cc3)c2)c(C)c1
REMARK SMILES IDX 17 1 16 2 15 3 13 4 14 5 12 7 7 8 8 9 88 10 9 11 10 12 6 13
REMARK SMILES IDX 3 14 4 15 91 16 5 17 89 18 90 19 2 20 1 21 11 22 18 25 19 26
REMARK SMILES IDX 20 27 21 29 22 30 23 31 87 32 24 33 86 34 25 35 26 36 27 37
REMARK SMILES IDX 80 38 28 39 85 40 79 41 81 42 29 43 84 44 78 45 77 46 30 48
REMARK SMILES IDX 64 49 43 50 63 51 44 52 47 53 62 54 82 55 45 56 46 57 61 59
REMARK SMILES IDX 83 60 48 61 31 62 32 63 41 64 33 65 34 66 40 67 42 68 35 69
REMARK SMILES IDX 36 70 37 71 38 72 39 73 65 74 66 75 75 76 67 77 68 78 74 79
REMARK SMILES IDX 76 80 69 81 70 82 71 83 72 84 73 85 49 86 50 87 59 88 51 89
REMARK SMILES IDX 52 90 58 91 60 92 53 93 54 94 55 95 56 96 57 97
REMARK H PARENT 15 6 11 23 11 24 19 28 81 47 47 58
REMARK Flexibility Score: inf
ROOT
ATOM      1  C   UNL A   1      39.829  23.010  26.825  1.00  0.00     0.042 C 
ENDROOT
BRANCH   1   2
ATOM      2  C   UNL A   1      41.178  23.002  26.128  1.00  0.00     0.118 C 
BRANCH   2   3
ATOM      3  N   UNL A   1      41.599  21.682  25.673  1.00  0.00    -0.352 N 
ATOM      4  C   UNL A   1      42.865  21.195  25.481  1.00  0.00     0.255 C 
ATOM      5  O   UNL A   1      43.022  20.037  25.099  1.00  0.00    -0.269 OA
ATOM      6  H   UNL A   1      40.870  21.050  25.477  1.00  0.00     0.163 HD
BRANCH   4   7
ATOM      7  C   UNL A   1      44.038  22.073  25.628  1.00  0.00     0.082 A 
ATOM      8  C   UNL A   1      45.452  23.312  27.144  1.00  0.00     0.001 A 
ATOM      9  C   UNL A   1      46.310  23.468  26.054  1.00  0.00     0.122 A 
ATOM     10  C   UNL A   1      44.315  22.541  26.919  1.00  0.00     0.028 A 
ATOM     11  N   UNL A   1      46.024  23.104  24.785  1.00  0.00    -0.238 NA
ATOM     12  C   UNL A   1      44.845  22.495  24.570  1.00  0.00     0.136 A 
BRANCH   8  13
ATOM     13  C   UNL A   1      45.639  24.114  28.361  1.00  0.00    -0.014 A 
ATOM     14  C   UNL A   1      46.093  25.941  30.465  1.00  0.00     0.119 A 
ATOM     15  C   UNL A   1      46.867  26.014  29.318  1.00  0.00     0.047 A 
ATOM     16  C   UNL A   1      45.135  24.933  30.592  1.00  0.00     0.050 A 
ATOM     17  C   UNL A   1      46.628  25.123  28.281  1.00  0.00     0.013 A 
ATOM     18  C   UNL A   1      44.890  24.012  29.548  1.00  0.00    -0.040 A 
ATOM     19  C   UNL A   1      43.800  22.997  29.771  1.00  0.00     0.045 C 
BRANCH  14  20
ATOM     20  O   UNL A   1      46.236  26.801  31.520  1.00  0.00    -0.497 OA
ATOM     21  C   UNL A   1      45.287  26.571  32.561  1.00  0.00     0.278 C 
ENDBRANCH  14  20
ENDBRANCH   8  13
BRANCH  12  22
ATOM     22  N   UNL A   1      44.544  22.306  23.240  1.00  0.00    -0.383 N 
ATOM     23  H   UNL A   1      44.472  23.080  22.636  1.00  0.00     0.158 HD
ATOM     24  H   UNL A   1      44.402  21.395  22.893  1.00  0.00     0.158 HD
ENDBRANCH  12  22
ENDBRANCH   4   7
ENDBRANCH   2   3
ENDBRANCH   1   2
BRANCH   1  25
ATOM     25  C   UNL A   1      39.237  24.403  26.937  1.00  0.00     0.118 C 
BRANCH  25  26
ATOM     26  N   UNL A   1      40.032  25.358  26.174  1.00  0.00    -0.352 N 
ATOM     27  C   UNL A   1      40.809  26.386  26.712  1.00  0.00     0.251 C 
ATOM     28  H   UNL A   1      40.019  25.272  25.193  1.00  0.00     0.163 HD
ATOM     29  O   UNL A   1      40.575  27.534  26.401  1.00  0.00    -0.269 OA
BRANCH  27  30
ATOM     30  C   UNL A   1      42.046  25.985  27.470  1.00  0.00     0.039 A 
ATOM     31  C   UNL A   1      41.766  25.843  28.833  1.00  0.00     0.014 A 
ATOM     32  C   UNL A   1      43.211  26.634  27.085  1.00  0.00     0.014 A 
ATOM     33  C   UNL A   1      42.235  26.804  29.707  1.00  0.00     0.010 A 
ATOM     34  C   UNL A   1      43.655  27.635  27.925  1.00  0.00     0.010 A 
ATOM     35  C   UNL A   1      43.032  27.801  29.169  1.00  0.00    -0.014 A 
BRANCH  35  36
ATOM     36  C   UNL A   1      43.100  29.136  29.742  1.00  0.00     0.031 A 
ATOM     37  C   UNL A   1      41.869  29.926  29.792  1.00  0.00     0.074 A 
ATOM     38  C   UNL A   1      44.271  29.545  30.276  1.00  0.00     0.049 A 
ATOM     39  N   UNL A   1      41.800  31.176  30.071  1.00  0.00    -0.248 NA
ATOM     40  C   UNL A   1      40.588  29.335  29.428  1.00  0.00     0.031 C 
ATOM     41  C   UNL A   1      44.545  30.691  31.139  1.00  0.00     0.029 A 
ATOM     42  N   UNL A   1      45.540  29.084  29.909  1.00  0.00    -0.354 N 
ATOM     43  C   UNL A   1      40.465  31.505  30.166  1.00  0.00     0.074 A 
ATOM     44  C   UNL A   1      39.765  30.356  29.658  1.00  0.00     0.031 C 
ATOM     45  C   UNL A   1      45.851  31.004  31.042  1.00  0.00     0.029 A 
ATOM     46  C   UNL A   1      46.402  30.186  29.967  1.00  0.00     0.049 A 
ATOM     47  H   UNL A   1      45.780  28.162  29.659  1.00  0.00     0.167 HD
ATOM     48  C   UNL A   1      40.134  32.664  30.802  1.00  0.00     0.037 A 
ATOM     49  C   UNL A   1      46.912  30.698  28.806  1.00  0.00     0.037 A 
ATOM     50  C   UNL A   1      41.330  33.509  30.920  1.00  0.00     0.049 A 
ATOM     51  C   UNL A   1      46.445  32.125  28.562  1.00  0.00     0.074 A 
ATOM     52  C   UNL A   1      42.246  33.706  31.940  1.00  0.00     0.029 A 
ATOM     53  N   UNL A   1      41.941  33.973  29.753  1.00  0.00    -0.354 N 
ATOM     54  N   UNL A   1      45.300  32.612  28.969  1.00  0.00    -0.248 NA
ATOM     55  C   UNL A   1      47.269  33.121  27.882  1.00  0.00     0.031 C 
ATOM     56  C   UNL A   1      43.462  34.155  31.352  1.00  0.00     0.029 A 
ATOM     57  C   UNL A   1      43.271  34.278  29.984  1.00  0.00     0.049 A 
ATOM     58  H   UNL A   1      41.487  34.071  28.885  1.00  0.00     0.167 HD
ATOM     59  C   UNL A   1      45.220  33.938  28.622  1.00  0.00     0.074 A 
ATOM     60  C   UNL A   1      46.482  34.209  27.953  1.00  0.00     0.031 C 
ATOM     61  C   UNL A   1      44.140  34.730  28.903  1.00  0.00     0.037 A 
BRANCH  48  62
ATOM     62  C   UNL A   1      38.836  32.869  31.574  1.00  0.00     0.058 A 
ATOM     63  C   UNL A   1      37.863  33.777  31.097  1.00  0.00     0.135 A 
ATOM     64  C   UNL A   1      38.524  32.318  32.838  1.00  0.00     0.135 A 
ATOM     65  F   UNL A   1      37.980  34.353  29.891  1.00  0.00    -0.206 F 
ATOM     66  C   UNL A   1      36.736  34.158  31.839  1.00  0.00     0.059 A 
ATOM     67  C   UNL A   1      37.424  32.701  33.608  1.00  0.00     0.059 A 
ATOM     68  F   UNL A   1      39.249  31.353  33.403  1.00  0.00    -0.206 F 
ATOM     69  C   UNL A   1      36.535  33.631  33.107  1.00  0.00     0.060 A 
BRANCH  69  70
ATOM     70  S   UNL A   1      35.111  34.147  34.080  1.00  0.00     0.124 S 
ATOM     71  O   UNL A   1      34.036  33.350  33.496  1.00  0.00    -0.237 OA
ATOM     72  O   UNL A   1      35.517  33.778  35.432  1.00  0.00    -0.237 OA
ATOM     73  O   UNL A   1      35.025  35.583  33.826  1.00  0.00    -0.744 OA
ENDBRANCH  69  70
ENDBRANCH  48  62
BRANCH  49  74
ATOM     74  C   UNL A   1      47.162  29.672  27.738  1.00  0.00     0.058 A 
ATOM     75  C   UNL A   1      46.302  29.617  26.616  1.00  0.00     0.135 A 
ATOM     76  C   UNL A   1      48.351  28.938  27.645  1.00  0.00     0.135 A 
ATOM     77  F   UNL A   1      45.134  30.285  26.636  1.00  0.00    -0.206 F 
ATOM     78  C   UNL A   1      46.639  28.945  25.437  1.00  0.00     0.059 A 
ATOM     79  C   UNL A   1      48.704  28.244  26.476  1.00  0.00     0.059 A 
ATOM     80  F   UNL A   1      49.228  28.940  28.659  1.00  0.00    -0.206 F 
ATOM     81  C   UNL A   1      47.859  28.279  25.364  1.00  0.00     0.060 A 
BRANCH  81  82
ATOM     82  S   UNL A   1      48.301  27.384  23.843  1.00  0.00     0.124 S 
ATOM     83  O   UNL A   1      49.668  27.832  23.596  1.00  0.00    -0.237 OA
ATOM     84  O   UNL A   1      48.157  25.988  24.230  1.00  0.00    -0.237 OA
ATOM     85  O   UNL A   1      47.309  27.864  22.886  1.00  0.00    -0.744 OA
ENDBRANCH  81  82
ENDBRANCH  49  74
BRANCH  61  86
ATOM     86  C   UNL A   1      43.862  36.063  28.240  1.00  0.00     0.058 A 
ATOM     87  C   UNL A   1      42.961  36.229  27.172  1.00  0.00     0.135 A 
ATOM     88  C   UNL A   1      44.390  37.263  28.777  1.00  0.00     0.135 A 
ATOM     89  F   UNL A   1      42.290  35.191  26.655  1.00  0.00    -0.206 F 
ATOM     90  C   UNL A   1      42.673  37.476  26.617  1.00  0.00     0.059 A 
ATOM     91  C   UNL A   1      44.065  38.524  28.280  1.00  0.00     0.059 A 
ATOM     92  F   UNL A   1      45.229  37.253  29.824  1.00  0.00    -0.206 F 
ATOM     93  C   UNL A   1      43.233  38.619  27.175  1.00  0.00     0.060 A 
BRANCH  93  94
ATOM     94  S   UNL A   1      42.826  40.233  26.487  1.00  0.00     0.124 S 
ATOM     95  O   UNL A   1      41.500  39.983  25.929  1.00  0.00    -0.237 OA
ATOM     96  O   UNL A   1      42.863  41.103  27.659  1.00  0.00    -0.237 OA
ATOM     97  O   UNL A   1      43.890  40.461  25.514  1.00  0.00    -0.744 OA
ENDBRANCH  93  94
ENDBRANCH  61  86
ENDBRANCH  35  36
ENDBRANCH  27  30
ENDBRANCH  25  26
ENDBRANCH   1  25
TORSDOF 16
ENDMDL
