MODEL 1
REMARK VINA RESULT:     -11.6      0.000      0.000
REMARK SMILES O=C(NCCCNC(=O)[C@@H]1C=C[C@@H]([NH+]2CC3(CCOCC3)C2)C1)c1ccc(-c2c3nc(c(-c4c(F)cc(S(=O)(=O)[O-])cc4F)c4ccc([nH]4)c(-c4c(F)cc(S(=O)(=O)[O-])cc4F)c4nc(c(-c5c(F)cc(S(=O)(=O)[O-])cc5F)c5ccc2[nH]5)C=C4)C=C3)cc1
REMARK SMILES IDX 4 1 3 2 1 3 2 4 24 6 25 7 89 8 26 9 88 10 27 11 28 12 29 13
REMARK SMILES IDX 82 14 30 15 87 16 81 17 83 18 31 19 86 20 80 21 79 22 32 24
REMARK SMILES IDX 66 25 45 26 65 27 46 28 49 29 64 30 84 31 47 32 48 33 63 35
REMARK SMILES IDX 85 36 50 37 33 38 34 39 43 40 35 41 36 42 42 43 44 44 37 45
REMARK SMILES IDX 38 46 39 47 40 48 41 49 67 50 68 51 77 52 69 53 70 54 76 55
REMARK SMILES IDX 78 56 71 57 72 58 73 59 74 60 75 61 51 62 52 63 61 64 53 65
REMARK SMILES IDX 54 66 60 67 62 68 55 69 56 70 57 71 58 72 59 73 5 74 6 75
REMARK SMILES IDX 7 76 8 77 9 79 10 80 11 81 23 82 12 83 13 84 14 85 15 86
REMARK SMILES IDX 22 87 16 89 17 90 21 91 18 92 20 93 19 94
REMARK H PARENT 3 5 83 23 49 34 7 78 14 88
REMARK Flexibility Score: inf
ROOT
ATOM      1  C   UNL A   1      33.753  28.153  27.019  1.00  0.00     0.118 C 
ENDROOT
BRANCH   1   2
ATOM      2  N   UNL A   1      33.565  29.561  27.336  1.00  0.00    -0.352 N 
ATOM      3  O   UNL A   1      33.953  31.510  28.379  1.00  0.00    -0.269 OA
ATOM      4  C   UNL A   1      34.393  30.430  27.999  1.00  0.00     0.251 C 
ATOM      5  H   UNL A   1      32.714  29.948  27.027  1.00  0.00     0.163 HD
BRANCH   4   6
ATOM      6  C   UNL A   1      35.800  30.064  28.262  1.00  0.00     0.039 A 
ATOM      7  C   UNL A   1      36.779  30.213  27.273  1.00  0.00     0.014 A 
ATOM      8  C   UNL A   1      36.153  29.611  29.535  1.00  0.00     0.014 A 
ATOM      9  C   UNL A   1      38.084  29.798  27.519  1.00  0.00     0.010 A 
ATOM     10  C   UNL A   1      37.479  29.266  29.803  1.00  0.00     0.010 A 
ATOM     11  C   UNL A   1      38.449  29.335  28.791  1.00  0.00    -0.014 A 
BRANCH  11  12
ATOM     12  C   UNL A   1      39.858  28.970  29.082  1.00  0.00     0.031 A 
ATOM     13  C   UNL A   1      40.814  29.993  29.625  1.00  0.00     0.074 A 
ATOM     14  C   UNL A   1      40.281  27.720  28.812  1.00  0.00     0.049 A 
ATOM     15  N   UNL A   1      42.100  29.890  29.838  1.00  0.00    -0.248 NA
ATOM     16  C   UNL A   1      40.252  31.309  29.961  1.00  0.00     0.031 C 
ATOM     17  C   UNL A   1      39.440  26.644  28.282  1.00  0.00     0.029 A 
ATOM     18  N   UNL A   1      41.522  27.148  28.925  1.00  0.00    -0.354 N 
ATOM     19  C   UNL A   1      42.508  31.132  30.308  1.00  0.00     0.074 A 
ATOM     20  C   UNL A   1      41.336  31.981  30.325  1.00  0.00     0.031 C 
ATOM     21  C   UNL A   1      40.188  25.545  28.117  1.00  0.00     0.029 A 
ATOM     22  C   UNL A   1      41.571  25.854  28.467  1.00  0.00     0.049 A 
ATOM     23  H   UNL A   1      42.302  27.620  29.299  1.00  0.00     0.167 HD
ATOM     24  C   UNL A   1      43.749  31.524  30.688  1.00  0.00     0.037 A 
ATOM     25  C   UNL A   1      42.616  25.019  28.305  1.00  0.00     0.037 A 
ATOM     26  C   UNL A   1      44.905  30.666  30.662  1.00  0.00     0.049 A 
ATOM     27  C   UNL A   1      43.988  25.483  28.697  1.00  0.00     0.074 A 
ATOM     28  C   UNL A   1      46.199  30.954  31.058  1.00  0.00     0.029 A 
ATOM     29  N   UNL A   1      44.911  29.356  30.199  1.00  0.00    -0.354 N 
ATOM     30  N   UNL A   1      44.356  26.650  29.170  1.00  0.00    -0.248 NA
ATOM     31  C   UNL A   1      45.088  24.523  28.537  1.00  0.00     0.031 C 
ATOM     32  C   UNL A   1      46.998  29.838  30.784  1.00  0.00     0.029 A 
ATOM     33  C   UNL A   1      46.191  28.831  30.277  1.00  0.00     0.049 A 
ATOM     34  H   UNL A   1      44.122  28.871  29.866  1.00  0.00     0.167 HD
ATOM     35  C   UNL A   1      45.724  26.555  29.395  1.00  0.00     0.074 A 
ATOM     36  C   UNL A   1      46.119  25.219  29.001  1.00  0.00     0.031 C 
ATOM     37  C   UNL A   1      46.570  27.491  29.893  1.00  0.00     0.037 A 
BRANCH  24  38
ATOM     38  C   UNL A   1      43.921  32.956  31.122  1.00  0.00     0.058 A 
ATOM     39  C   UNL A   1      43.682  33.369  32.443  1.00  0.00     0.135 A 
ATOM     40  C   UNL A   1      44.330  33.933  30.199  1.00  0.00     0.135 A 
ATOM     41  F   UNL A   1      43.280  32.481  33.367  1.00  0.00    -0.206 F 
ATOM     42  C   UNL A   1      43.788  34.704  32.820  1.00  0.00     0.059 A 
ATOM     43  C   UNL A   1      44.473  35.270  30.561  1.00  0.00     0.059 A 
ATOM     44  F   UNL A   1      44.581  33.597  28.924  1.00  0.00    -0.206 F 
ATOM     45  C   UNL A   1      44.173  35.649  31.868  1.00  0.00     0.060 A 
BRANCH  45  46
ATOM     46  S   UNL A   1      44.253  37.385  32.357  1.00  0.00     0.124 S 
ATOM     47  O   UNL A   1      43.841  38.052  31.125  1.00  0.00    -0.237 OA
ATOM     48  O   UNL A   1      43.298  37.446  33.459  1.00  0.00    -0.237 OA
ATOM     49  O   UNL A   1      45.651  37.569  32.733  1.00  0.00    -0.744 OA
ENDBRANCH  45  46
ENDBRANCH  24  38
BRANCH  25  50
ATOM     50  C   UNL A   1      42.375  23.668  27.737  1.00  0.00     0.058 A 
ATOM     51  C   UNL A   1      42.352  23.458  26.353  1.00  0.00     0.135 A 
ATOM     52  C   UNL A   1      42.257  22.544  28.573  1.00  0.00     0.135 A 
ATOM     53  F   UNL A   1      42.457  24.500  25.514  1.00  0.00    -0.206 F 
ATOM     54  C   UNL A   1      42.230  22.181  25.813  1.00  0.00     0.059 A 
ATOM     55  C   UNL A   1      42.159  21.256  28.058  1.00  0.00     0.059 A 
ATOM     56  F   UNL A   1      42.293  22.692  29.907  1.00  0.00    -0.206 F 
ATOM     57  C   UNL A   1      42.148  21.086  26.675  1.00  0.00     0.060 A 
BRANCH  57  58
ATOM     58  S   UNL A   1      42.092  19.427  25.962  1.00  0.00     0.124 S 
ATOM     59  O   UNL A   1      40.669  19.277  25.678  1.00  0.00    -0.237 OA
ATOM     60  O   UNL A   1      42.964  19.567  24.800  1.00  0.00    -0.237 OA
ATOM     61  O   UNL A   1      42.616  18.583  27.031  1.00  0.00    -0.744 OA
ENDBRANCH  57  58
ENDBRANCH  25  50
BRANCH  37  62
ATOM     62  C   UNL A   1      48.006  27.100  30.096  1.00  0.00     0.058 A 
ATOM     63  C   UNL A   1      48.992  27.363  29.134  1.00  0.00     0.135 A 
ATOM     64  C   UNL A   1      48.415  26.547  31.322  1.00  0.00     0.135 A 
ATOM     65  F   UNL A   1      48.653  27.880  27.942  1.00  0.00    -0.206 F 
ATOM     66  C   UNL A   1      50.336  27.095  29.381  1.00  0.00     0.059 A 
ATOM     67  C   UNL A   1      49.754  26.294  31.599  1.00  0.00     0.059 A 
ATOM     68  F   UNL A   1      47.510  26.280  32.277  1.00  0.00    -0.206 F 
ATOM     69  C   UNL A   1      50.708  26.572  30.621  1.00  0.00     0.060 A 
BRANCH  69  70
ATOM     70  S   UNL A   1      52.462  26.310  30.960  1.00  0.00     0.124 S 
ATOM     71  O   UNL A   1      52.436  25.049  31.694  1.00  0.00    -0.237 OA
ATOM     72  O   UNL A   1      53.033  26.251  29.618  1.00  0.00    -0.237 OA
ATOM     73  O   UNL A   1      52.836  27.485  31.743  1.00  0.00    -0.744 OA
ENDBRANCH  69  70
ENDBRANCH  37  62
ENDBRANCH  11  12
ENDBRANCH   4   6
ENDBRANCH   1   2
BRANCH   1  74
ATOM     74  C   UNL A   1      33.851  27.916  25.514  1.00  0.00     0.042 C 
BRANCH  74  75
ATOM     75  C   UNL A   1      32.486  27.744  24.855  1.00  0.00     0.117 C 
BRANCH  75  76
ATOM     76  N   UNL A   1      31.504  27.255  25.810  1.00  0.00    -0.356 N 
ATOM     77  C   UNL A   1      31.036  25.978  25.972  1.00  0.00     0.227 C 
ATOM     78  H   UNL A   1      31.128  27.930  26.420  1.00  0.00     0.163 HD
ATOM     79  O   UNL A   1      30.077  25.789  26.720  1.00  0.00    -0.274 OA
BRANCH  77  80
ATOM     80  C   UNL A   1      31.816  24.842  25.318  1.00  0.00     0.107 C 
ATOM     81  C   UNL A   1      31.045  23.770  24.629  1.00  0.00    -0.012 C 
ATOM     82  C   UNL A   1      32.564  24.098  26.426  1.00  0.00     0.087 C 
ATOM     83  C   UNL A   1      31.255  22.567  25.175  1.00  0.00     0.033 C 
ATOM     84  C   UNL A   1      32.080  22.635  26.427  1.00  0.00     0.208 C 
BRANCH  84  85
ATOM     85  N   UNL A   1      33.048  21.536  26.542  1.00  0.00    -0.328 N 
ATOM     86  C   UNL A   1      34.443  22.000  26.624  1.00  0.00     0.275 C 
ATOM     87  C   UNL A   1      33.320  20.795  25.307  1.00  0.00     0.275 C 
ATOM     88  H   UNL A   1      32.621  21.035  27.320  1.00  0.00     0.348 HD
ATOM     89  C   UNL A   1      34.726  21.471  25.190  1.00  0.00     0.073 C 
ATOM     90  C   UNL A   1      35.816  20.401  25.022  1.00  0.00     0.047 C 
ATOM     91  C   UNL A   1      34.915  22.572  24.133  1.00  0.00     0.047 C 
ATOM     92  C   UNL A   1      37.191  21.048  24.960  1.00  0.00     0.161 C 
ATOM     93  C   UNL A   1      36.354  23.065  24.102  1.00  0.00     0.161 C 
ATOM     94  O   UNL A   1      37.250  21.981  23.882  1.00  0.00    -0.381 OA
ENDBRANCH  84  85
ENDBRANCH  77  80
ENDBRANCH  75  76
ENDBRANCH  74  75
ENDBRANCH   1  74
TORSDOF 14
ENDMDL
MODEL 2
REMARK VINA RESULT:     -11.4      4.827     10.669
REMARK SMILES O=C(NCCCNC(=O)[C@@H]1C=C[C@@H]([NH+]2CC3(CCOCC3)C2)C1)c1ccc(-c2c3nc(c(-c4c(F)cc(S(=O)(=O)[O-])cc4F)c4ccc([nH]4)c(-c4c(F)cc(S(=O)(=O)[O-])cc4F)c4nc(c(-c5c(F)cc(S(=O)(=O)[O-])cc5F)c5ccc2[nH]5)C=C4)C=C3)cc1
REMARK SMILES IDX 4 1 3 2 1 3 2 4 24 6 25 7 89 8 26 9 88 10 27 11 28 12 29 13
REMARK SMILES IDX 82 14 30 15 87 16 81 17 83 18 31 19 86 20 80 21 79 22 32 24
REMARK SMILES IDX 66 25 45 26 65 27 46 28 49 29 64 30 84 31 47 32 48 33 63 35
REMARK SMILES IDX 85 36 50 37 33 38 34 39 43 40 35 41 36 42 42 43 44 44 37 45
REMARK SMILES IDX 38 46 39 47 40 48 41 49 67 50 68 51 77 52 69 53 70 54 76 55
REMARK SMILES IDX 78 56 71 57 72 58 73 59 74 60 75 61 51 62 52 63 61 64 53 65
REMARK SMILES IDX 54 66 60 67 62 68 55 69 56 70 57 71 58 72 59 73 5 74 6 75
REMARK SMILES IDX 7 76 8 77 9 79 10 80 11 81 23 82 12 83 13 84 14 85 15 86
REMARK SMILES IDX 22 87 16 89 17 90 21 91 18 92 20 93 19 94
REMARK H PARENT 3 5 83 23 49 34 7 78 14 88
REMARK Flexibility Score: inf
ROOT
ATOM      1  C   UNL A   1      38.543  24.086  26.473  1.00  0.00     0.118 C 
ENDROOT
BRANCH   1   2
ATOM      2  N   UNL A   1      39.940  23.882  26.115  1.00  0.00    -0.352 N 
ATOM      3  O   UNL A   1      42.102  24.424  25.855  1.00  0.00    -0.269 OA
ATOM      4  C   UNL A   1      41.048  24.616  26.452  1.00  0.00     0.251 C 
ATOM      5  H   UNL A   1      40.114  23.098  25.546  1.00  0.00     0.163 HD
BRANCH   4   6
ATOM      6  C   UNL A   1      40.970  25.635  27.519  1.00  0.00     0.039 A 
ATOM      7  C   UNL A   1      39.977  25.573  28.503  1.00  0.00     0.014 A 
ATOM      8  C   UNL A   1      41.939  26.641  27.563  1.00  0.00     0.014 A 
ATOM      9  C   UNL A   1      39.882  26.580  29.458  1.00  0.00     0.010 A 
ATOM     10  C   UNL A   1      41.886  27.609  28.567  1.00  0.00     0.010 A 
ATOM     11  C   UNL A   1      40.843  27.599  29.508  1.00  0.00    -0.014 A 
BRANCH  11  12
ATOM     12  C   UNL A   1      40.793  28.629  30.576  1.00  0.00     0.031 A 
ATOM     13  C   UNL A   1      41.700  28.536  31.768  1.00  0.00     0.074 A 
ATOM     14  C   UNL A   1      39.891  29.625  30.484  1.00  0.00     0.049 A 
ATOM     15  N   UNL A   1      41.727  29.276  32.845  1.00  0.00    -0.248 NA
ATOM     16  C   UNL A   1      42.704  27.461  31.752  1.00  0.00     0.031 C 
ATOM     17  C   UNL A   1      38.958  29.815  29.370  1.00  0.00     0.029 A 
ATOM     18  N   UNL A   1      39.597  30.651  31.344  1.00  0.00    -0.354 N 
ATOM     19  C   UNL A   1      42.728  28.743  33.649  1.00  0.00     0.074 A 
ATOM     20  C   UNL A   1      43.269  27.602  32.943  1.00  0.00     0.031 C 
ATOM     21  C   UNL A   1      38.196  30.890  29.616  1.00  0.00     0.029 A 
ATOM     22  C   UNL A   1      38.542  31.427  30.929  1.00  0.00     0.049 A 
ATOM     23  H   UNL A   1      40.093  30.816  32.179  1.00  0.00     0.167 HD
ATOM     24  C   UNL A   1      43.152  29.171  34.863  1.00  0.00     0.037 A 
ATOM     25  C   UNL A   1      37.893  32.432  31.548  1.00  0.00     0.037 A 
ATOM     26  C   UNL A   1      42.599  30.310  35.552  1.00  0.00     0.049 A 
ATOM     27  C   UNL A   1      38.353  32.868  32.908  1.00  0.00     0.074 A 
ATOM     28  C   UNL A   1      42.980  30.847  36.768  1.00  0.00     0.029 A 
ATOM     29  N   UNL A   1      41.536  31.076  35.092  1.00  0.00    -0.354 N 
ATOM     30  N   UNL A   1      39.323  32.378  33.643  1.00  0.00    -0.248 NA
ATOM     31  C   UNL A   1      37.639  33.993  33.526  1.00  0.00     0.031 C 
ATOM     32  C   UNL A   1      42.113  31.902  37.070  1.00  0.00     0.029 A 
ATOM     33  C   UNL A   1      41.231  32.066  36.012  1.00  0.00     0.049 A 
ATOM     34  H   UNL A   1      41.068  30.937  34.237  1.00  0.00     0.167 HD
ATOM     35  C   UNL A   1      39.356  33.152  34.796  1.00  0.00     0.074 A 
ATOM     36  C   UNL A   1      38.306  34.141  34.664  1.00  0.00     0.031 C 
ATOM     37  C   UNL A   1      40.190  33.055  35.861  1.00  0.00     0.037 A 
BRANCH  24  38
ATOM     38  C   UNL A   1      44.238  28.376  35.537  1.00  0.00     0.058 A 
ATOM     39  C   UNL A   1      45.601  28.635  35.314  1.00  0.00     0.135 A 
ATOM     40  C   UNL A   1      43.910  27.334  36.422  1.00  0.00     0.135 A 
ATOM     41  F   UNL A   1      45.975  29.612  34.472  1.00  0.00    -0.206 F 
ATOM     42  C   UNL A   1      46.596  27.855  35.897  1.00  0.00     0.059 A 
ATOM     43  C   UNL A   1      44.890  26.563  37.041  1.00  0.00     0.059 A 
ATOM     44  F   UNL A   1      42.626  27.046  36.681  1.00  0.00    -0.206 F 
ATOM     45  C   UNL A   1      46.229  26.814  36.751  1.00  0.00     0.060 A 
BRANCH  45  46
ATOM     46  S   UNL A   1      47.528  25.778  37.457  1.00  0.00     0.124 S 
ATOM     47  O   UNL A   1      48.192  26.719  38.354  1.00  0.00    -0.237 OA
ATOM     48  O   UNL A   1      46.765  24.717  38.106  1.00  0.00    -0.237 OA
ATOM     49  O   UNL A   1      48.306  25.366  36.294  1.00  0.00    -0.744 OA
ENDBRANCH  45  46
ENDBRANCH  24  38
BRANCH  25  50
ATOM     50  C   UNL A   1      36.739  33.072  30.867  1.00  0.00     0.058 A 
ATOM     51  C   UNL A   1      35.426  32.848  31.301  1.00  0.00     0.135 A 
ATOM     52  C   UNL A   1      36.936  33.993  29.824  1.00  0.00     0.135 A 
ATOM     53  F   UNL A   1      35.187  31.974  32.291  1.00  0.00    -0.206 F 
ATOM     54  C   UNL A   1      34.348  33.521  30.736  1.00  0.00     0.059 A 
ATOM     55  C   UNL A   1      35.877  34.697  29.260  1.00  0.00     0.059 A 
ATOM     56  F   UNL A   1      38.177  34.256  29.385  1.00  0.00    -0.206 F 
ATOM     57  C   UNL A   1      34.587  34.454  29.725  1.00  0.00     0.060 A 
BRANCH  57  58
ATOM     58  S   UNL A   1      33.190  35.395  29.070  1.00  0.00     0.124 S 
ATOM     59  O   UNL A   1      33.869  36.475  28.363  1.00  0.00    -0.237 OA
ATOM     60  O   UNL A   1      32.523  34.403  28.232  1.00  0.00    -0.237 OA
ATOM     61  O   UNL A   1      32.456  35.787  30.268  1.00  0.00    -0.744 OA
ENDBRANCH  57  58
ENDBRANCH  25  50
BRANCH  37  62
ATOM     62  C   UNL A   1      40.049  34.074  36.957  1.00  0.00     0.058 A 
ATOM     63  C   UNL A   1      40.699  35.315  36.906  1.00  0.00     0.135 A 
ATOM     64  C   UNL A   1      39.164  33.839  38.023  1.00  0.00     0.135 A 
ATOM     65  F   UNL A   1      41.564  35.585  35.915  1.00  0.00    -0.206 F 
ATOM     66  C   UNL A   1      40.474  36.292  37.872  1.00  0.00     0.059 A 
ATOM     67  C   UNL A   1      38.905  34.809  38.985  1.00  0.00     0.059 A 
ATOM     68  F   UNL A   1      38.514  32.668  38.116  1.00  0.00    -0.206 F 
ATOM     69  C   UNL A   1      39.566  36.034  38.901  1.00  0.00     0.060 A 
BRANCH  69  70
ATOM     70  S   UNL A   1      39.218  37.341  40.097  1.00  0.00     0.124 S 
ATOM     71  O   UNL A   1      38.576  36.592  41.173  1.00  0.00    -0.237 OA
ATOM     72  O   UNL A   1      40.551  37.857  40.391  1.00  0.00    -0.237 OA
ATOM     73  O   UNL A   1      38.347  38.253  39.361  1.00  0.00    -0.744 OA
ENDBRANCH  69  70
ENDBRANCH  37  62
ENDBRANCH  11  12
ENDBRANCH   4   6
ENDBRANCH   1   2
BRANCH   1  74
ATOM     74  C   UNL A   1      37.597  23.542  25.406  1.00  0.00     0.042 C 
BRANCH  74  75
ATOM     75  C   UNL A   1      36.128  23.695  25.789  1.00  0.00     0.117 C 
BRANCH  75  76
ATOM     76  N   UNL A   1      35.277  23.674  24.609  1.00  0.00    -0.356 N 
ATOM     77  C   UNL A   1      34.058  24.271  24.427  1.00  0.00     0.227 C 
ATOM     78  H   UNL A   1      35.624  23.166  23.841  1.00  0.00     0.163 HD
ATOM     79  O   UNL A   1      33.409  23.997  23.418  1.00  0.00    -0.274 OA
BRANCH  77  80
ATOM     80  C   UNL A   1      33.632  25.345  25.423  1.00  0.00     0.107 C 
ATOM     81  C   UNL A   1      32.268  25.247  26.015  1.00  0.00    -0.012 C 
ATOM     82  C   UNL A   1      33.611  26.682  24.680  1.00  0.00     0.087 C 
ATOM     83  C   UNL A   1      31.514  26.313  25.723  1.00  0.00     0.033 C 
ATOM     84  C   UNL A   1      32.179  27.243  24.751  1.00  0.00     0.208 C 
BRANCH  84  85
ATOM     85  N   UNL A   1      31.954  28.661  25.062  1.00  0.00    -0.328 N 
ATOM     86  C   UNL A   1      33.202  29.438  25.152  1.00  0.00     0.275 C 
ATOM     87  C   UNL A   1      31.614  28.961  26.456  1.00  0.00     0.275 C 
ATOM     88  H   UNL A   1      31.263  28.870  24.342  1.00  0.00     0.348 HD
ATOM     89  C   UNL A   1      33.040  29.560  26.694  1.00  0.00     0.073 C 
ATOM     90  C   UNL A   1      32.928  30.970  27.294  1.00  0.00     0.047 C 
ATOM     91  C   UNL A   1      34.048  28.731  27.506  1.00  0.00     0.047 C 
ATOM     92  C   UNL A   1      34.309  31.580  27.478  1.00  0.00     0.161 C 
ATOM     93  C   UNL A   1      35.351  29.490  27.707  1.00  0.00     0.161 C 
ATOM     94  O   UNL A   1      35.107  30.750  28.321  1.00  0.00    -0.381 OA
ENDBRANCH  84  85
ENDBRANCH  77  80
ENDBRANCH  75  76
ENDBRANCH  74  75
ENDBRANCH   1  74
TORSDOF 14
ENDMDL
MODEL 3
REMARK VINA RESULT:     -11.4      5.233      9.877
REMARK SMILES O=C(NCCCNC(=O)[C@@H]1C=C[C@@H]([NH+]2CC3(CCOCC3)C2)C1)c1ccc(-c2c3nc(c(-c4c(F)cc(S(=O)(=O)[O-])cc4F)c4ccc([nH]4)c(-c4c(F)cc(S(=O)(=O)[O-])cc4F)c4nc(c(-c5c(F)cc(S(=O)(=O)[O-])cc5F)c5ccc2[nH]5)C=C4)C=C3)cc1
REMARK SMILES IDX 4 1 3 2 1 3 2 4 24 6 25 7 89 8 26 9 88 10 27 11 28 12 29 13
REMARK SMILES IDX 82 14 30 15 87 16 81 17 83 18 31 19 86 20 80 21 79 22 32 24
REMARK SMILES IDX 66 25 45 26 65 27 46 28 49 29 64 30 84 31 47 32 48 33 63 35
REMARK SMILES IDX 85 36 50 37 33 38 34 39 43 40 35 41 36 42 42 43 44 44 37 45
REMARK SMILES IDX 38 46 39 47 40 48 41 49 67 50 68 51 77 52 69 53 70 54 76 55
REMARK SMILES IDX 78 56 71 57 72 58 73 59 74 60 75 61 51 62 52 63 61 64 53 65
REMARK SMILES IDX 54 66 60 67 62 68 55 69 56 70 57 71 58 72 59 73 5 74 6 75
REMARK SMILES IDX 7 76 8 77 9 79 10 80 11 81 23 82 12 83 13 84 14 85 15 86
REMARK SMILES IDX 22 87 16 89 17 90 21 91 18 92 20 93 19 94
REMARK H PARENT 3 5 83 23 49 34 7 78 14 88
REMARK Flexibility Score: inf
ROOT
ATOM      1  C   UNL A   1      40.424  23.256  27.248  1.00  0.00     0.118 C 
ENDROOT
BRANCH   1   2
ATOM      2  N   UNL A   1      40.990  24.059  26.173  1.00  0.00    -0.352 N 
ATOM      3  O   UNL A   1      41.431  25.923  25.004  1.00  0.00    -0.269 OA
ATOM      4  C   UNL A   1      41.159  25.417  26.088  1.00  0.00     0.251 C 
ATOM      5  H   UNL A   1      41.299  23.549  25.390  1.00  0.00     0.163 HD
BRANCH   4   6
ATOM      6  C   UNL A   1      41.007  26.263  27.290  1.00  0.00     0.039 A 
ATOM      7  C   UNL A   1      41.898  27.310  27.550  1.00  0.00     0.014 A 
ATOM      8  C   UNL A   1      39.923  26.035  28.142  1.00  0.00     0.014 A 
ATOM      9  C   UNL A   1      41.775  28.050  28.722  1.00  0.00     0.010 A 
ATOM     10  C   UNL A   1      39.759  26.829  29.279  1.00  0.00     0.010 A 
ATOM     11  C   UNL A   1      40.698  27.827  29.589  1.00  0.00    -0.014 A 
BRANCH  11  12
ATOM     12  C   UNL A   1      40.516  28.670  30.797  1.00  0.00     0.031 A 
ATOM     13  C   UNL A   1      39.477  29.752  30.823  1.00  0.00     0.074 A 
ATOM     14  C   UNL A   1      41.328  28.481  31.855  1.00  0.00     0.049 A 
ATOM     15  N   UNL A   1      39.246  30.653  31.742  1.00  0.00    -0.248 NA
ATOM     16  C   UNL A   1      38.586  29.840  29.656  1.00  0.00     0.031 C 
ATOM     17  C   UNL A   1      42.374  27.459  31.942  1.00  0.00     0.029 A 
ATOM     18  N   UNL A   1      41.415  29.149  33.050  1.00  0.00    -0.354 N 
ATOM     19  C   UNL A   1      38.203  31.434  31.256  1.00  0.00     0.074 A 
ATOM     20  C   UNL A   1      37.863  30.912  29.949  1.00  0.00     0.031 C 
ATOM     21  C   UNL A   1      42.997  27.569  33.124  1.00  0.00     0.029 A 
ATOM     22  C   UNL A   1      42.439  28.705  33.851  1.00  0.00     0.049 A 
ATOM     23  H   UNL A   1      40.803  29.876  33.308  1.00  0.00     0.167 HD
ATOM     24  C   UNL A   1      37.590  32.487  31.849  1.00  0.00     0.037 A 
ATOM     25  C   UNL A   1      42.909  29.180  35.020  1.00  0.00     0.037 A 
ATOM     26  C   UNL A   1      37.944  32.993  33.151  1.00  0.00     0.049 A 
ATOM     27  C   UNL A   1      42.241  30.370  35.645  1.00  0.00     0.074 A 
ATOM     28  C   UNL A   1      37.364  34.032  33.856  1.00  0.00     0.029 A 
ATOM     29  N   UNL A   1      38.983  32.508  33.935  1.00  0.00    -0.354 N 
ATOM     30  N   UNL A   1      41.235  31.079  35.191  1.00  0.00    -0.248 NA
ATOM     31  C   UNL A   1      42.765  30.827  36.939  1.00  0.00     0.031 C 
ATOM     32  C   UNL A   1      38.085  34.211  35.041  1.00  0.00     0.029 A 
ATOM     33  C   UNL A   1      39.076  33.243  35.107  1.00  0.00     0.049 A 
ATOM     34  H   UNL A   1      39.567  31.754  33.695  1.00  0.00     0.167 HD
ATOM     35  C   UNL A   1      40.984  32.046  36.156  1.00  0.00     0.074 A 
ATOM     36  C   UNL A   1      41.947  31.835  37.217  1.00  0.00     0.031 C 
ATOM     37  C   UNL A   1      40.033  33.013  36.163  1.00  0.00     0.037 A 
BRANCH  24  38
ATOM     38  C   UNL A   1      36.504  33.184  31.073  1.00  0.00     0.058 A 
ATOM     39  C   UNL A   1      36.783  33.991  29.959  1.00  0.00     0.135 A 
ATOM     40  C   UNL A   1      35.158  33.042  31.453  1.00  0.00     0.135 A 
ATOM     41  F   UNL A   1      38.052  34.172  29.555  1.00  0.00    -0.206 F 
ATOM     42  C   UNL A   1      35.777  34.677  29.285  1.00  0.00     0.059 A 
ATOM     43  C   UNL A   1      34.132  33.692  30.774  1.00  0.00     0.059 A 
ATOM     44  F   UNL A   1      34.829  32.276  32.505  1.00  0.00    -0.206 F 
ATOM     45  C   UNL A   1      34.455  34.530  29.707  1.00  0.00     0.060 A 
BRANCH  45  46
ATOM     46  S   UNL A   1      33.167  35.467  28.858  1.00  0.00     0.124 S 
ATOM     47  O   UNL A   1      32.422  36.020  29.984  1.00  0.00    -0.237 OA
ATOM     48  O   UNL A   1      33.941  36.428  28.078  1.00  0.00    -0.237 OA
ATOM     49  O   UNL A   1      32.465  34.452  28.079  1.00  0.00    -0.744 OA
ENDBRANCH  45  46
ENDBRANCH  24  38
BRANCH  25  50
ATOM     50  C   UNL A   1      44.077  28.515  35.651  1.00  0.00     0.058 A 
ATOM     51  C   UNL A   1      43.908  27.463  36.561  1.00  0.00     0.135 A 
ATOM     52  C   UNL A   1      45.389  28.858  35.283  1.00  0.00     0.135 A 
ATOM     53  F   UNL A   1      42.675  27.102  36.946  1.00  0.00    -0.206 F 
ATOM     54  C   UNL A   1      44.996  26.767  37.078  1.00  0.00     0.059 A 
ATOM     55  C   UNL A   1      46.491  28.161  35.767  1.00  0.00     0.059 A 
ATOM     56  F   UNL A   1      45.602  29.847  34.400  1.00  0.00    -0.206 F 
ATOM     57  C   UNL A   1      46.283  27.115  36.663  1.00  0.00     0.060 A 
BRANCH  57  58
ATOM     58  S   UNL A   1      47.679  26.138  37.264  1.00  0.00     0.124 S 
ATOM     59  O   UNL A   1      48.689  26.414  36.249  1.00  0.00    -0.237 OA
ATOM     60  O   UNL A   1      47.917  26.725  38.579  1.00  0.00    -0.237 OA
ATOM     61  O   UNL A   1      47.155  24.776  37.280  1.00  0.00    -0.744 OA
ENDBRANCH  57  58
ENDBRANCH  25  50
BRANCH  37  62
ATOM     62  C   UNL A   1      39.939  33.895  37.376  1.00  0.00     0.058 A 
ATOM     63  C   UNL A   1      40.592  35.135  37.446  1.00  0.00     0.135 A 
ATOM     64  C   UNL A   1      39.096  33.536  38.441  1.00  0.00     0.135 A 
ATOM     65  F   UNL A   1      41.419  35.520  36.461  1.00  0.00    -0.206 F 
ATOM     66  C   UNL A   1      40.410  35.990  38.529  1.00  0.00     0.059 A 
ATOM     67  C   UNL A   1      38.879  34.385  39.520  1.00  0.00     0.059 A 
ATOM     68  F   UNL A   1      38.445  32.362  38.420  1.00  0.00    -0.206 F 
ATOM     69  C   UNL A   1      39.541  35.612  39.555  1.00  0.00     0.060 A 
BRANCH  69  70
ATOM     70  S   UNL A   1      39.246  36.768  40.911  1.00  0.00     0.124 S 
ATOM     71  O   UNL A   1      38.431  35.961  41.814  1.00  0.00    -0.237 OA
ATOM     72  O   UNL A   1      40.599  37.062  41.370  1.00  0.00    -0.237 OA
ATOM     73  O   UNL A   1      38.553  37.879  40.265  1.00  0.00    -0.744 OA
ENDBRANCH  69  70
ENDBRANCH  37  62
ENDBRANCH  11  12
ENDBRANCH   4   6
ENDBRANCH   1   2
BRANCH   1  74
ATOM     74  C   UNL A   1      40.067  21.848  26.779  1.00  0.00     0.042 C 
BRANCH  74  75
ATOM     75  C   UNL A   1      38.819  21.817  25.901  1.00  0.00     0.117 C 
BRANCH  75  76
ATOM     76  N   UNL A   1      37.881  22.857  26.294  1.00  0.00    -0.356 N 
ATOM     77  C   UNL A   1      36.588  23.038  25.879  1.00  0.00     0.227 C 
ATOM     78  H   UNL A   1      38.219  23.515  26.943  1.00  0.00     0.163 HD
ATOM     79  O   UNL A   1      36.006  24.076  26.192  1.00  0.00    -0.274 OA
BRANCH  77  80
ATOM     80  C   UNL A   1      35.897  21.881  25.165  1.00  0.00     0.107 C 
ATOM     81  C   UNL A   1      35.151  22.179  23.911  1.00  0.00    -0.012 C 
ATOM     82  C   UNL A   1      34.824  21.332  26.107  1.00  0.00     0.087 C 
ATOM     83  C   UNL A   1      33.852  21.877  24.013  1.00  0.00     0.033 C 
ATOM     84  C   UNL A   1      33.459  21.470  25.404  1.00  0.00     0.208 C 
BRANCH  84  85
ATOM     85  N   UNL A   1      32.497  20.362  25.433  1.00  0.00    -0.328 N 
ATOM     86  C   UNL A   1      33.010  19.168  26.126  1.00  0.00     0.275 C 
ATOM     87  C   UNL A   1      32.341  19.621  24.177  1.00  0.00     0.275 C 
ATOM     88  H   UNL A   1      31.689  20.866  25.797  1.00  0.00     0.348 HD
ATOM     89  C   UNL A   1      33.129  18.408  24.775  1.00  0.00     0.073 C 
ATOM     90  C   UNL A   1      32.317  17.114  24.606  1.00  0.00     0.047 C 
ATOM     91  C   UNL A   1      34.574  18.178  24.301  1.00  0.00     0.047 C 
ATOM     92  C   UNL A   1      33.053  15.939  25.231  1.00  0.00     0.161 C 
ATOM     93  C   UNL A   1      35.163  16.919  24.920  1.00  0.00     0.161 C 
ATOM     94  O   UNL A   1      34.342  15.791  24.638  1.00  0.00    -0.381 OA
ENDBRANCH  84  85
ENDBRANCH  77  80
ENDBRANCH  75  76
ENDBRANCH  74  75
ENDBRANCH   1  74
TORSDOF 14
ENDMDL
