MODEL 1
REMARK VINA RESULT:      -9.6      0.000      0.000
REMARK SMILES O=C(NCCCNC(=O)c1cc(Cl)c2c(c1)[C@H]1C=CC[C@H]1[C@H](c1ccc(S(=O)(=O)N3CCOCC3)cc1)N2)c1ccc(-c2c3nc(c(-c4c(F)cc(S(=O)(=O)[O-])cc4F)c4ccc([nH]4)c(-c4c(F)cc(S(=O)(=O)[O-])cc4F)c4nc(c(-c5c(F)cc(S(=O)(=O)[O-])cc5F)c5ccc2[nH]5)C=C4)C=C3)cc1
REMARK SMILES IDX 5 1 4 2 3 3 1 4 2 5 39 7 40 8 104 9 41 10 103 11 42 12 43 13
REMARK SMILES IDX 44 14 97 15 45 16 102 17 96 18 98 19 46 20 101 21 95 22
REMARK SMILES IDX 94 23 47 25 81 26 60 27 80 28 61 29 64 30 79 31 99 32 62 33
REMARK SMILES IDX 63 34 78 36 100 37 65 38 48 39 49 40 58 41 50 42 51 43 57 44
REMARK SMILES IDX 59 45 52 46 53 47 54 48 55 49 56 50 82 51 83 52 92 53 84 54
REMARK SMILES IDX 85 55 91 56 93 57 86 58 87 59 88 60 89 61 90 62 66 63 67 64
REMARK SMILES IDX 76 65 68 66 69 67 75 68 77 69 70 70 71 71 72 72 73 73 74 74
REMARK SMILES IDX 6 75 7 76 8 77 9 79 10 80 11 81 16 82 12 83 15 84 13 85
REMARK SMILES IDX 14 86 17 87 38 88 18 89 21 90 22 91 19 93 20 94 23 95 24 96
REMARK SMILES IDX 37 97 25 98 36 99 26 100 27 101 28 102 29 103 30 104 31 105
REMARK SMILES IDX 35 106 32 107 34 108 33 109
REMARK H PARENT 3 6 98 24 64 35 7 78 38 92
REMARK Flexibility Score: inf
ROOT
ATOM      1  C   UNL A   1      43.503  23.586  25.989  1.00  0.00     0.042 C 
ENDROOT
BRANCH   1   2
ATOM      2  C   UNL A   1      42.517  24.632  26.492  1.00  0.00     0.118 C 
BRANCH   2   3
ATOM      3  N   UNL A   1      41.175  24.425  25.967  1.00  0.00    -0.352 N 
ATOM      4  O   UNL A   1      38.928  24.366  26.003  1.00  0.00    -0.269 OA
ATOM      5  C   UNL A   1      39.964  24.830  26.467  1.00  0.00     0.251 C 
ATOM      6  H   UNL A   1      41.130  23.917  25.124  1.00  0.00     0.163 HD
BRANCH   5   7
ATOM      7  C   UNL A   1      39.912  25.810  27.570  1.00  0.00     0.039 A 
ATOM      8  C   UNL A   1      40.435  27.096  27.407  1.00  0.00     0.014 A 
ATOM      9  C   UNL A   1      39.299  25.446  28.773  1.00  0.00     0.014 A 
ATOM     10  C   UNL A   1      40.453  27.977  28.483  1.00  0.00     0.010 A 
ATOM     11  C   UNL A   1      39.260  26.354  29.833  1.00  0.00     0.010 A 
ATOM     12  C   UNL A   1      39.860  27.615  29.702  1.00  0.00    -0.014 A 
BRANCH  12  13
ATOM     13  C   UNL A   1      39.825  28.592  30.814  1.00  0.00     0.031 A 
ATOM     14  C   UNL A   1      40.776  28.479  31.968  1.00  0.00     0.074 A 
ATOM     15  C   UNL A   1      38.941  29.606  30.753  1.00  0.00     0.049 A 
ATOM     16  N   UNL A   1      40.901  29.260  33.010  1.00  0.00    -0.248 NA
ATOM     17  C   UNL A   1      41.710  27.343  31.949  1.00  0.00     0.031 C 
ATOM     18  C   UNL A   1      37.985  29.822  29.666  1.00  0.00     0.029 A 
ATOM     19  N   UNL A   1      38.717  30.651  31.610  1.00  0.00    -0.354 N 
ATOM     20  C   UNL A   1      41.933  28.721  33.767  1.00  0.00     0.074 A 
ATOM     21  C   UNL A   1      42.372  27.520  33.085  1.00  0.00     0.031 C 
ATOM     22  C   UNL A   1      37.303  30.952  29.901  1.00  0.00     0.029 A 
ATOM     23  C   UNL A   1      37.741  31.515  31.174  1.00  0.00     0.049 A 
ATOM     24  H   UNL A   1      39.208  30.772  32.455  1.00  0.00     0.167 HD
ATOM     25  C   UNL A   1      42.473  29.193  34.916  1.00  0.00     0.037 A 
ATOM     26  C   UNL A   1      37.251  32.633  31.740  1.00  0.00     0.037 A 
ATOM     27  C   UNL A   1      42.012  30.374  35.600  1.00  0.00     0.049 A 
ATOM     28  C   UNL A   1      37.810  33.093  33.054  1.00  0.00     0.074 A 
ATOM     29  C   UNL A   1      42.475  30.923  36.784  1.00  0.00     0.029 A 
ATOM     30  N   UNL A   1      40.976  31.188  35.163  1.00  0.00    -0.354 N 
ATOM     31  N   UNL A   1      38.779  32.566  33.764  1.00  0.00    -0.248 NA
ATOM     32  C   UNL A   1      37.209  34.295  33.645  1.00  0.00     0.031 C 
ATOM     33  C   UNL A   1      41.695  32.049  37.079  1.00  0.00     0.029 A 
ATOM     34  C   UNL A   1      40.774  32.226  36.059  1.00  0.00     0.049 A 
ATOM     35  H   UNL A   1      40.458  31.048  34.337  1.00  0.00     0.167 HD
ATOM     36  C   UNL A   1      38.919  33.383  34.878  1.00  0.00     0.074 A 
ATOM     37  C   UNL A   1      37.937  34.442  34.745  1.00  0.00     0.031 C 
ATOM     38  C   UNL A   1      39.786  33.268  35.914  1.00  0.00     0.037 A 
BRANCH  25  39
ATOM     39  C   UNL A   1      43.615  28.414  35.509  1.00  0.00     0.058 A 
ATOM     40  C   UNL A   1      44.941  28.635  35.101  1.00  0.00     0.135 A 
ATOM     41  C   UNL A   1      43.388  27.440  36.494  1.00  0.00     0.135 A 
ATOM     42  F   UNL A   1      45.212  29.544  34.150  1.00  0.00    -0.206 F 
ATOM     43  C   UNL A   1      45.996  27.894  35.621  1.00  0.00     0.059 A 
ATOM     44  C   UNL A   1      44.433  26.702  37.046  1.00  0.00     0.059 A 
ATOM     45  F   UNL A   1      42.141  27.188  36.922  1.00  0.00    -0.206 F 
ATOM     46  C   UNL A   1      45.731  26.923  36.588  1.00  0.00     0.060 A 
BRANCH  46  47
ATOM     47  S   UNL A   1      47.107  25.943  37.226  1.00  0.00     0.124 S 
ATOM     48  O   UNL A   1      47.441  26.672  38.446  1.00  0.00    -0.237 OA
ATOM     49  O   UNL A   1      46.495  24.632  37.421  1.00  0.00    -0.237 OA
ATOM     50  O   UNL A   1      48.099  26.016  36.160  1.00  0.00    -0.744 OA
ENDBRANCH  46  47
ENDBRANCH  25  39
BRANCH  26  51
ATOM     51  C   UNL A   1      36.196  33.399  31.030  1.00  0.00     0.058 A 
ATOM     52  C   UNL A   1      34.893  33.457  31.541  1.00  0.00     0.135 A 
ATOM     53  C   UNL A   1      36.490  34.156  29.885  1.00  0.00     0.135 A 
ATOM     54  F   UNL A   1      34.566  32.746  32.630  1.00  0.00    -0.206 F 
ATOM     55  C   UNL A   1      33.918  34.252  30.950  1.00  0.00     0.059 A 
ATOM     56  C   UNL A   1      35.537  34.975  29.289  1.00  0.00     0.059 A 
ATOM     57  F   UNL A   1      37.730  34.142  29.370  1.00  0.00    -0.206 F 
ATOM     58  C   UNL A   1      34.254  35.019  29.832  1.00  0.00     0.060 A 
BRANCH  58  59
ATOM     59  S   UNL A   1      33.007  36.128  29.140  1.00  0.00     0.124 S 
ATOM     60  O   UNL A   1      32.321  36.586  30.342  1.00  0.00    -0.237 OA
ATOM     61  O   UNL A   1      33.830  37.120  28.455  1.00  0.00    -0.237 OA
ATOM     62  O   UNL A   1      32.231  35.255  28.264  1.00  0.00    -0.744 OA
ENDBRANCH  58  59
ENDBRANCH  26  51
BRANCH  38  63
ATOM     63  C   UNL A   1      39.728  34.327  36.978  1.00  0.00     0.058 A 
ATOM     64  C   UNL A   1      40.400  35.551  36.834  1.00  0.00     0.135 A 
ATOM     65  C   UNL A   1      38.952  34.135  38.132  1.00  0.00     0.135 A 
ATOM     66  F   UNL A   1      41.162  35.781  35.753  1.00  0.00    -0.206 F 
ATOM     67  C   UNL A   1      40.318  36.541  37.807  1.00  0.00     0.059 A 
ATOM     68  C   UNL A   1      38.838  35.119  39.107  1.00  0.00     0.059 A 
ATOM     69  F   UNL A   1      38.284  32.983  38.312  1.00  0.00    -0.206 F 
ATOM     70  C   UNL A   1      39.533  36.317  38.941  1.00  0.00     0.060 A 
BRANCH  70  71
ATOM     71  S   UNL A   1      39.406  37.624  40.179  1.00  0.00     0.124 S 
ATOM     72  O   UNL A   1      40.777  38.121  40.224  1.00  0.00    -0.237 OA
ATOM     73  O   UNL A   1      38.425  38.525  39.583  1.00  0.00    -0.237 OA
ATOM     74  O   UNL A   1      38.954  36.917  41.374  1.00  0.00    -0.744 OA
ENDBRANCH  70  71
ENDBRANCH  38  63
ENDBRANCH  12  13
ENDBRANCH   5   7
ENDBRANCH   2   3
ENDBRANCH   1   2
BRANCH   1  75
ATOM     75  C   UNL A   1      44.231  22.835  27.095  1.00  0.00     0.118 C 
BRANCH  75  76
ATOM     76  N   UNL A   1      45.680  22.956  26.993  1.00  0.00    -0.352 N 
ATOM     77  C   UNL A   1      46.492  24.009  27.322  1.00  0.00     0.251 C 
ATOM     78  H   UNL A   1      46.143  22.165  26.635  1.00  0.00     0.163 HD
ATOM     79  O   UNL A   1      47.677  24.006  27.007  1.00  0.00    -0.269 OA
BRANCH  77  80
ATOM     80  C   UNL A   1      45.931  25.161  28.047  1.00  0.00     0.041 A 
ATOM     81  C   UNL A   1      45.877  25.171  29.439  1.00  0.00     0.036 A 
ATOM     82  C   UNL A   1      45.493  26.264  27.316  1.00  0.00     0.020 A 
ATOM     83  C   UNL A   1      45.266  26.240  30.085  1.00  0.00     0.065 A 
ATOM     84  C   UNL A   1      44.925  27.365  27.973  1.00  0.00    -0.015 A 
ATOM     85  Cl  UNL A   1      45.145  26.183  31.812  1.00  0.00    -0.082 Cl
ATOM     86  C   UNL A   1      44.746  27.331  29.363  1.00  0.00     0.057 A 
ATOM     87  C   UNL A   1      44.567  28.585  27.178  1.00  0.00     0.049 C 
ATOM     88  N   UNL A   1      44.162  28.398  30.024  1.00  0.00    -0.376 N 
ATOM     89  C   UNL A   1      43.341  28.460  26.314  1.00  0.00    -0.023 C 
ATOM     90  C   UNL A   1      44.245  29.842  28.017  1.00  0.00     0.031 C 
ATOM     91  C   UNL A   1      43.465  29.451  29.301  1.00  0.00     0.114 C 
ATOM     92  H   UNL A   1      44.219  28.447  31.006  1.00  0.00     0.161 HD
ATOM     93  C   UNL A   1      42.717  29.640  26.211  1.00  0.00    -0.030 C 
ATOM     94  C   UNL A   1      43.433  30.684  27.008  1.00  0.00     0.034 C 
BRANCH  91  95
ATOM     95  C   UNL A   1      43.258  30.629  30.250  1.00  0.00    -0.025 A 
ATOM     96  C   UNL A   1      42.163  31.516  30.165  1.00  0.00     0.007 A 
ATOM     97  C   UNL A   1      44.204  30.854  31.252  1.00  0.00     0.007 A 
ATOM     98  C   UNL A   1      42.026  32.587  31.058  1.00  0.00     0.022 A 
ATOM     99  C   UNL A   1      44.034  31.876  32.174  1.00  0.00     0.022 A 
ATOM    100  C   UNL A   1      42.964  32.755  32.075  1.00  0.00     0.082 A 
BRANCH 100 101
ATOM    101  S   UNL A   1      42.770  34.097  33.225  1.00  0.00     0.243 S 
ATOM    102  O   UNL A   1      41.439  34.631  33.008  1.00  0.00    -0.207 OA
ATOM    103  O   UNL A   1      43.187  33.598  34.515  1.00  0.00    -0.207 OA
BRANCH 101 104
ATOM    104  N   UNL A   1      43.878  35.259  32.740  1.00  0.00    -0.193 NA
ATOM    105  C   UNL A   1      44.599  36.119  33.704  1.00  0.00     0.131 C 
ATOM    106  C   UNL A   1      44.145  35.531  31.316  1.00  0.00     0.131 C 
ATOM    107  C   UNL A   1      44.593  37.596  33.272  1.00  0.00     0.177 C 
ATOM    108  C   UNL A   1      44.063  37.030  31.032  1.00  0.00     0.177 C 
ATOM    109  O   UNL A   1      44.938  37.772  31.892  1.00  0.00    -0.379 OA
ENDBRANCH 101 104
ENDBRANCH 100 101
ENDBRANCH  91  95
ENDBRANCH  77  80
ENDBRANCH  75  76
ENDBRANCH   1  75
TORSDOF 16
ENDMDL
MODEL 2
REMARK VINA RESULT:      -9.6      1.803      8.159
REMARK SMILES O=C(NCCCNC(=O)c1cc(Cl)c2c(c1)[C@H]1C=CC[C@H]1[C@H](c1ccc(S(=O)(=O)N3CCOCC3)cc1)N2)c1ccc(-c2c3nc(c(-c4c(F)cc(S(=O)(=O)[O-])cc4F)c4ccc([nH]4)c(-c4c(F)cc(S(=O)(=O)[O-])cc4F)c4nc(c(-c5c(F)cc(S(=O)(=O)[O-])cc5F)c5ccc2[nH]5)C=C4)C=C3)cc1
REMARK SMILES IDX 5 1 4 2 3 3 1 4 2 5 39 7 40 8 104 9 41 10 103 11 42 12 43 13
REMARK SMILES IDX 44 14 97 15 45 16 102 17 96 18 98 19 46 20 101 21 95 22
REMARK SMILES IDX 94 23 47 25 81 26 60 27 80 28 61 29 64 30 79 31 99 32 62 33
REMARK SMILES IDX 63 34 78 36 100 37 65 38 48 39 49 40 58 41 50 42 51 43 57 44
REMARK SMILES IDX 59 45 52 46 53 47 54 48 55 49 56 50 82 51 83 52 92 53 84 54
REMARK SMILES IDX 85 55 91 56 93 57 86 58 87 59 88 60 89 61 90 62 66 63 67 64
REMARK SMILES IDX 76 65 68 66 69 67 75 68 77 69 70 70 71 71 72 72 73 73 74 74
REMARK SMILES IDX 6 75 7 76 8 77 9 79 10 80 11 81 16 82 12 83 15 84 13 85
REMARK SMILES IDX 14 86 17 87 38 88 18 89 21 90 22 91 19 93 20 94 23 95 24 96
REMARK SMILES IDX 37 97 25 98 36 99 26 100 27 101 28 102 29 103 30 104 31 105
REMARK SMILES IDX 35 106 32 107 34 108 33 109
REMARK H PARENT 3 6 98 24 64 35 7 78 38 92
REMARK Flexibility Score: inf
ROOT
ATOM      1  C   UNL A   1      42.378  21.584  27.478  1.00  0.00     0.042 C 
ENDROOT
BRANCH   1   2
ATOM      2  C   UNL A   1      41.557  22.785  27.923  1.00  0.00     0.118 C 
BRANCH   2   3
ATOM      3  N   UNL A   1      40.604  23.211  26.907  1.00  0.00    -0.352 N 
ATOM      4  O   UNL A   1      38.888  24.378  26.043  1.00  0.00    -0.269 OA
ATOM      5  C   UNL A   1      39.783  24.309  26.879  1.00  0.00     0.251 C 
ATOM      6  H   UNL A   1      40.540  22.620  26.122  1.00  0.00     0.163 HD
BRANCH   5   7
ATOM      7  C   UNL A   1      39.970  25.397  27.860  1.00  0.00     0.039 A 
ATOM      8  C   UNL A   1      39.126  25.510  28.968  1.00  0.00     0.014 A 
ATOM      9  C   UNL A   1      41.028  26.293  27.685  1.00  0.00     0.014 A 
ATOM     10  C   UNL A   1      39.264  26.589  29.835  1.00  0.00     0.010 A 
ATOM     11  C   UNL A   1      41.206  27.339  28.593  1.00  0.00     0.010 A 
ATOM     12  C   UNL A   1      40.309  27.508  29.658  1.00  0.00    -0.014 A 
BRANCH  12  13
ATOM     13  C   UNL A   1      40.485  28.609  30.633  1.00  0.00     0.031 A 
ATOM     14  C   UNL A   1      39.549  29.781  30.645  1.00  0.00     0.074 A 
ATOM     15  C   UNL A   1      41.484  28.522  31.530  1.00  0.00     0.049 A 
ATOM     16  N   UNL A   1      39.540  30.817  31.443  1.00  0.00    -0.248 NA
ATOM     17  C   UNL A   1      38.483  29.791  29.631  1.00  0.00     0.031 C 
ATOM     18  C   UNL A   1      42.438  27.415  31.619  1.00  0.00     0.029 A 
ATOM     19  N   UNL A   1      41.850  29.364  32.547  1.00  0.00    -0.354 N 
ATOM     20  C   UNL A   1      38.465  31.598  31.040  1.00  0.00     0.074 A 
ATOM     21  C   UNL A   1      37.870  30.937  29.897  1.00  0.00     0.031 C 
ATOM     22  C   UNL A   1      43.256  27.626  32.660  1.00  0.00     0.029 A 
ATOM     23  C   UNL A   1      42.915  28.902  33.282  1.00  0.00     0.049 A 
ATOM     24  H   UNL A   1      41.394  30.216  32.733  1.00  0.00     0.167 HD
ATOM     25  C   UNL A   1      38.009  32.753  31.584  1.00  0.00     0.037 A 
ATOM     26  C   UNL A   1      43.549  29.447  34.336  1.00  0.00     0.037 A 
ATOM     27  C   UNL A   1      38.624  33.416  32.705  1.00  0.00     0.049 A 
ATOM     28  C   UNL A   1      43.075  30.766  34.871  1.00  0.00     0.074 A 
ATOM     29  C   UNL A   1      38.254  34.602  33.316  1.00  0.00     0.029 A 
ATOM     30  N   UNL A   1      39.743  32.952  33.383  1.00  0.00    -0.354 N 
ATOM     31  N   UNL A   1      42.063  31.499  34.472  1.00  0.00    -0.248 NA
ATOM     32  C   UNL A   1      43.830  31.334  35.996  1.00  0.00     0.031 C 
ATOM     33  C   UNL A   1      39.171  34.872  34.341  1.00  0.00     0.029 A 
ATOM     34  C   UNL A   1      40.086  33.833  34.396  1.00  0.00     0.049 A 
ATOM     35  H   UNL A   1      40.223  32.118  33.175  1.00  0.00     0.167 HD
ATOM     36  C   UNL A   1      42.046  32.607  35.309  1.00  0.00     0.074 A 
ATOM     37  C   UNL A   1      43.146  32.445  36.239  1.00  0.00     0.031 C 
ATOM     38  C   UNL A   1      41.191  33.660  35.308  1.00  0.00     0.037 A 
BRANCH  25  39
ATOM     39  C   UNL A   1      36.792  33.375  30.955  1.00  0.00     0.058 A 
ATOM     40  C   UNL A   1      35.530  33.290  31.565  1.00  0.00     0.135 A 
ATOM     41  C   UNL A   1      36.884  34.062  29.735  1.00  0.00     0.135 A 
ATOM     42  F   UNL A   1      35.383  32.629  32.725  1.00  0.00    -0.206 F 
ATOM     43  C   UNL A   1      34.396  33.832  30.971  1.00  0.00     0.059 A 
ATOM     44  C   UNL A   1      35.765  34.634  29.132  1.00  0.00     0.059 A 
ATOM     45  F   UNL A   1      38.066  34.174  29.108  1.00  0.00    -0.206 F 
ATOM     46  C   UNL A   1      34.523  34.497  29.749  1.00  0.00     0.060 A 
BRANCH  46  47
ATOM     47  S   UNL A   1      33.035  35.163  28.972  1.00  0.00     0.124 S 
ATOM     48  O   UNL A   1      32.158  35.336  30.126  1.00  0.00    -0.237 OA
ATOM     49  O   UNL A   1      33.526  36.395  28.362  1.00  0.00    -0.237 OA
ATOM     50  O   UNL A   1      32.643  34.117  28.036  1.00  0.00    -0.744 OA
ENDBRANCH  46  47
ENDBRANCH  25  39
BRANCH  26  51
ATOM     51  C   UNL A   1      44.675  28.710  34.962  1.00  0.00     0.058 A 
ATOM     52  C   UNL A   1      44.451  27.861  36.054  1.00  0.00     0.135 A 
ATOM     53  C   UNL A   1      45.972  28.768  34.427  1.00  0.00     0.135 A 
ATOM     54  F   UNL A   1      43.228  27.777  36.599  1.00  0.00    -0.206 F 
ATOM     55  C   UNL A   1      45.471  27.082  36.588  1.00  0.00     0.059 A 
ATOM     56  C   UNL A   1      47.003  27.983  34.931  1.00  0.00     0.059 A 
ATOM     57  F   UNL A   1      46.228  29.556  33.371  1.00  0.00    -0.206 F 
ATOM     58  C   UNL A   1      46.741  27.140  36.010  1.00  0.00     0.060 A 
BRANCH  58  59
ATOM     59  S   UNL A   1      48.028  26.043  36.647  1.00  0.00     0.124 S 
ATOM     60  O   UNL A   1      49.011  26.090  35.572  1.00  0.00    -0.237 OA
ATOM     61  O   UNL A   1      48.406  26.708  37.890  1.00  0.00    -0.237 OA
ATOM     62  O   UNL A   1      47.332  24.770  36.812  1.00  0.00    -0.744 OA
ENDBRANCH  58  59
ENDBRANCH  26  51
BRANCH  38  63
ATOM     63  C   UNL A   1      41.398  34.712  36.361  1.00  0.00     0.058 A 
ATOM     64  C   UNL A   1      40.751  34.644  37.605  1.00  0.00     0.135 A 
ATOM     65  C   UNL A   1      42.291  35.772  36.141  1.00  0.00     0.135 A 
ATOM     66  F   UNL A   1      39.882  33.655  37.862  1.00  0.00    -0.206 F 
ATOM     67  C   UNL A   1      40.971  35.603  38.588  1.00  0.00     0.059 A 
ATOM     68  C   UNL A   1      42.542  36.729  37.117  1.00  0.00     0.059 A 
ATOM     69  F   UNL A   1      42.940  35.876  34.969  1.00  0.00    -0.206 F 
ATOM     70  C   UNL A   1      41.869  36.643  38.336  1.00  0.00     0.060 A 
BRANCH  70  71
ATOM     71  S   UNL A   1      42.172  37.861  39.634  1.00  0.00     0.124 S 
ATOM     72  O   UNL A   1      40.838  38.420  39.828  1.00  0.00    -0.237 OA
ATOM     73  O   UNL A   1      42.677  37.034  40.725  1.00  0.00    -0.237 OA
ATOM     74  O   UNL A   1      43.150  38.761  39.032  1.00  0.00    -0.744 OA
ENDBRANCH  70  71
ENDBRANCH  38  63
ENDBRANCH  12  13
ENDBRANCH   5   7
ENDBRANCH   2   3
ENDBRANCH   1   2
BRANCH   1  75
ATOM     75  C   UNL A   1      42.697  21.564  25.990  1.00  0.00     0.118 C 
BRANCH  75  76
ATOM     76  N   UNL A   1      44.106  21.300  25.724  1.00  0.00    -0.352 N 
ATOM     77  C   UNL A   1      45.171  22.161  25.732  1.00  0.00     0.251 C 
ATOM     78  H   UNL A   1      44.324  20.365  25.508  1.00  0.00     0.163 HD
ATOM     79  O   UNL A   1      46.267  21.803  25.313  1.00  0.00    -0.269 OA
BRANCH  77  80
ATOM     80  C   UNL A   1      44.993  23.534  26.234  1.00  0.00     0.041 A 
ATOM     81  C   UNL A   1      44.263  24.471  25.506  1.00  0.00     0.036 A 
ATOM     82  C   UNL A   1      45.535  23.869  27.474  1.00  0.00     0.020 A 
ATOM     83  C   UNL A   1      44.187  25.779  25.972  1.00  0.00     0.065 A 
ATOM     84  C   UNL A   1      45.412  25.176  27.966  1.00  0.00    -0.015 A 
ATOM     85  Cl  UNL A   1      43.338  26.937  25.003  1.00  0.00    -0.082 Cl
ATOM     86  C   UNL A   1      44.792  26.161  27.184  1.00  0.00     0.057 A 
ATOM     87  C   UNL A   1      45.901  25.484  29.350  1.00  0.00     0.049 C 
ATOM     88  N   UNL A   1      44.686  27.463  27.644  1.00  0.00    -0.376 N 
ATOM     89  C   UNL A   1      47.396  25.559  29.509  1.00  0.00    -0.023 C 
ATOM     90  C   UNL A   1      45.447  26.848  29.916  1.00  0.00     0.031 C 
ATOM     91  C   UNL A   1      45.442  27.925  28.798  1.00  0.00     0.114 C 
ATOM     92  H   UNL A   1      44.086  28.090  27.181  1.00  0.00     0.161 HD
ATOM     93  C   UNL A   1      47.725  26.445  30.456  1.00  0.00    -0.030 C 
ATOM     94  C   UNL A   1      46.497  27.084  31.025  1.00  0.00     0.034 C 
BRANCH  91  95
ATOM     95  C   UNL A   1      44.851  29.255  29.259  1.00  0.00    -0.025 A 
ATOM     96  C   UNL A   1      43.559  29.699  28.907  1.00  0.00     0.007 A 
ATOM     97  C   UNL A   1      45.630  30.086  30.066  1.00  0.00     0.007 A 
ATOM     98  C   UNL A   1      43.069  30.933  29.352  1.00  0.00     0.022 A 
ATOM     99  C   UNL A   1      45.121  31.278  30.559  1.00  0.00     0.022 A 
ATOM    100  C   UNL A   1      43.855  31.718  30.195  1.00  0.00     0.082 A 
BRANCH 100 101
ATOM    101  S   UNL A   1      43.219  33.271  30.783  1.00  0.00     0.243 S 
ATOM    102  O   UNL A   1      41.788  33.091  30.941  1.00  0.00    -0.207 OA
ATOM    103  O   UNL A   1      44.060  33.669  31.888  1.00  0.00    -0.207 OA
BRANCH 101 104
ATOM    104  N   UNL A   1      43.468  34.355  29.528  1.00  0.00    -0.193 NA
ATOM    105  C   UNL A   1      42.621  35.552  29.335  1.00  0.00     0.131 C 
ATOM    106  C   UNL A   1      44.508  34.136  28.508  1.00  0.00     0.131 C 
ATOM    107  C   UNL A   1      42.192  35.721  27.866  1.00  0.00     0.177 C 
ATOM    108  C   UNL A   1      43.925  34.295  27.104  1.00  0.00     0.177 C 
ATOM    109  O   UNL A   1      43.281  35.567  26.948  1.00  0.00    -0.379 OA
ENDBRANCH 101 104
ENDBRANCH 100 101
ENDBRANCH  91  95
ENDBRANCH  77  80
ENDBRANCH  75  76
ENDBRANCH   1  75
TORSDOF 16
ENDMDL
MODEL 3
REMARK VINA RESULT:      -9.3      2.838      8.467
REMARK SMILES O=C(NCCCNC(=O)c1cc(Cl)c2c(c1)[C@H]1C=CC[C@H]1[C@H](c1ccc(S(=O)(=O)N3CCOCC3)cc1)N2)c1ccc(-c2c3nc(c(-c4c(F)cc(S(=O)(=O)[O-])cc4F)c4ccc([nH]4)c(-c4c(F)cc(S(=O)(=O)[O-])cc4F)c4nc(c(-c5c(F)cc(S(=O)(=O)[O-])cc5F)c5ccc2[nH]5)C=C4)C=C3)cc1
REMARK SMILES IDX 5 1 4 2 3 3 1 4 2 5 39 7 40 8 104 9 41 10 103 11 42 12 43 13
REMARK SMILES IDX 44 14 97 15 45 16 102 17 96 18 98 19 46 20 101 21 95 22
REMARK SMILES IDX 94 23 47 25 81 26 60 27 80 28 61 29 64 30 79 31 99 32 62 33
REMARK SMILES IDX 63 34 78 36 100 37 65 38 48 39 49 40 58 41 50 42 51 43 57 44
REMARK SMILES IDX 59 45 52 46 53 47 54 48 55 49 56 50 82 51 83 52 92 53 84 54
REMARK SMILES IDX 85 55 91 56 93 57 86 58 87 59 88 60 89 61 90 62 66 63 67 64
REMARK SMILES IDX 76 65 68 66 69 67 75 68 77 69 70 70 71 71 72 72 73 73 74 74
REMARK SMILES IDX 6 75 7 76 8 77 9 79 10 80 11 81 16 82 12 83 15 84 13 85
REMARK SMILES IDX 14 86 17 87 38 88 18 89 21 90 22 91 19 93 20 94 23 95 24 96
REMARK SMILES IDX 37 97 25 98 36 99 26 100 27 101 28 102 29 103 30 104 31 105
REMARK SMILES IDX 35 106 32 107 34 108 33 109
REMARK H PARENT 3 6 98 24 64 35 7 78 38 92
REMARK Flexibility Score: inf
ROOT
ATOM      1  C   UNL A   1      42.136  22.434  26.223  1.00  0.00     0.042 C 
ENDROOT
BRANCH   1   2
ATOM      2  C   UNL A   1      40.811  22.075  26.879  1.00  0.00     0.118 C 
BRANCH   2   3
ATOM      3  N   UNL A   1      39.667  22.459  26.064  1.00  0.00    -0.352 N 
ATOM      4  O   UNL A   1      37.826  23.621  25.503  1.00  0.00    -0.269 OA
ATOM      5  C   UNL A   1      38.881  23.581  26.127  1.00  0.00     0.251 C 
ATOM      6  H   UNL A   1      39.421  21.815  25.361  1.00  0.00     0.163 HD
BRANCH   5   7
ATOM      7  C   UNL A   1      39.300  24.731  26.954  1.00  0.00     0.039 A 
ATOM      8  C   UNL A   1      40.130  25.723  26.427  1.00  0.00     0.014 A 
ATOM      9  C   UNL A   1      38.825  24.831  28.265  1.00  0.00     0.014 A 
ATOM     10  C   UNL A   1      40.583  26.753  27.246  1.00  0.00     0.010 A 
ATOM     11  C   UNL A   1      39.228  25.900  29.067  1.00  0.00     0.010 A 
ATOM     12  C   UNL A   1      40.130  26.853  28.570  1.00  0.00    -0.014 A 
BRANCH  12  13
ATOM     13  C   UNL A   1      40.566  27.996  29.405  1.00  0.00     0.031 A 
ATOM     14  C   UNL A   1      39.697  29.208  29.563  1.00  0.00     0.074 A 
ATOM     15  C   UNL A   1      41.746  27.912  30.047  1.00  0.00     0.049 A 
ATOM     16  N   UNL A   1      39.909  30.284  30.275  1.00  0.00    -0.248 NA
ATOM     17  C   UNL A   1      38.422  29.211  28.829  1.00  0.00     0.031 C 
ATOM     18  C   UNL A   1      42.659  26.769  29.979  1.00  0.00     0.029 A 
ATOM     19  N   UNL A   1      42.369  28.790  30.895  1.00  0.00    -0.354 N 
ATOM     20  C   UNL A   1      38.794  31.090  30.088  1.00  0.00     0.074 A 
ATOM     21  C   UNL A   1      37.925  30.396  29.159  1.00  0.00     0.031 C 
ATOM     22  C   UNL A   1      43.707  26.999  30.783  1.00  0.00     0.029 A 
ATOM     23  C   UNL A   1      43.562  28.320  31.387  1.00  0.00     0.049 A 
ATOM     24  H   UNL A   1      41.996  29.670  31.129  1.00  0.00     0.167 HD
ATOM     25  C   UNL A   1      38.515  32.291  30.650  1.00  0.00     0.037 A 
ATOM     26  C   UNL A   1      44.444  28.892  32.226  1.00  0.00     0.037 A 
ATOM     27  C   UNL A   1      39.398  32.985  31.552  1.00  0.00     0.049 A 
ATOM     28  C   UNL A   1      44.152  30.257  32.775  1.00  0.00     0.074 A 
ATOM     29  C   UNL A   1      39.221  34.218  32.157  1.00  0.00     0.029 A 
ATOM     30  N   UNL A   1      40.631  32.508  31.976  1.00  0.00    -0.354 N 
ATOM     31  N   UNL A   1      43.097  31.013  32.579  1.00  0.00    -0.248 NA
ATOM     32  C   UNL A   1      45.169  30.851  33.652  1.00  0.00     0.031 C 
ATOM     33  C   UNL A   1      40.362  34.501  32.919  1.00  0.00     0.029 A 
ATOM     34  C   UNL A   1      41.232  33.426  32.823  1.00  0.00     0.049 A 
ATOM     35  H   UNL A   1      41.022  31.643  31.713  1.00  0.00     0.167 HD
ATOM     36  C   UNL A   1      43.313  32.164  33.326  1.00  0.00     0.074 A 
ATOM     37  C   UNL A   1      44.597  32.003  33.980  1.00  0.00     0.031 C 
ATOM     38  C   UNL A   1      42.515  33.252  33.460  1.00  0.00     0.037 A 
BRANCH  25  39
ATOM     39  C   UNL A   1      37.204  32.932  30.286  1.00  0.00     0.058 A 
ATOM     40  C   UNL A   1      37.055  33.672  29.102  1.00  0.00     0.135 A 
ATOM     41  C   UNL A   1      36.085  32.808  31.124  1.00  0.00     0.135 A 
ATOM     42  F   UNL A   1      38.099  33.837  28.273  1.00  0.00    -0.206 F 
ATOM     43  C   UNL A   1      35.856  34.296  28.779  1.00  0.00     0.059 A 
ATOM     44  C   UNL A   1      34.866  33.405  30.810  1.00  0.00     0.059 A 
ATOM     45  F   UNL A   1      36.170  32.111  32.269  1.00  0.00    -0.206 F 
ATOM     46  C   UNL A   1      34.767  34.163  29.644  1.00  0.00     0.060 A 
BRANCH  46  47
ATOM     47  S   UNL A   1      33.228  35.010  29.229  1.00  0.00     0.124 S 
ATOM     48  O   UNL A   1      33.721  36.318  28.811  1.00  0.00    -0.237 OA
ATOM     49  O   UNL A   1      32.685  34.170  28.166  1.00  0.00    -0.237 OA
ATOM     50  O   UNL A   1      32.481  34.991  30.481  1.00  0.00    -0.744 OA
ENDBRANCH  46  47
ENDBRANCH  25  39
BRANCH  26  51
ATOM     51  C   UNL A   1      45.663  28.139  32.615  1.00  0.00     0.058 A 
ATOM     52  C   UNL A   1      45.578  27.053  33.497  1.00  0.00     0.135 A 
ATOM     53  C   UNL A   1      46.913  28.431  32.047  1.00  0.00     0.135 A 
ATOM     54  F   UNL A   1      44.405  26.741  34.066  1.00  0.00    -0.206 F 
ATOM     55  C   UNL A   1      46.689  26.271  33.792  1.00  0.00     0.059 A 
ATOM     56  C   UNL A   1      48.033  27.651  32.311  1.00  0.00     0.059 A 
ATOM     57  F   UNL A   1      47.037  29.453  31.186  1.00  0.00    -0.206 F 
ATOM     58  C   UNL A   1      47.909  26.570  33.183  1.00  0.00     0.060 A 
BRANCH  58  59
ATOM     59  S   UNL A   1      49.317  25.481  33.493  1.00  0.00     0.124 S 
ATOM     60  O   UNL A   1      50.227  26.371  34.203  1.00  0.00    -0.237 OA
ATOM     61  O   UNL A   1      48.709  24.419  34.290  1.00  0.00    -0.237 OA
ATOM     62  O   UNL A   1      49.737  25.085  32.152  1.00  0.00    -0.744 OA
ENDBRANCH  58  59
ENDBRANCH  26  51
BRANCH  38  63
ATOM     63  C   UNL A   1      42.999  34.349  34.366  1.00  0.00     0.058 A 
ATOM     64  C   UNL A   1      43.815  35.388  33.892  1.00  0.00     0.135 A 
ATOM     65  C   UNL A   1      42.602  34.386  35.712  1.00  0.00     0.135 A 
ATOM     66  F   UNL A   1      44.229  35.393  32.615  1.00  0.00    -0.206 F 
ATOM     67  C   UNL A   1      44.234  36.418  34.727  1.00  0.00     0.059 A 
ATOM     68  C   UNL A   1      42.991  35.418  36.559  1.00  0.00     0.059 A 
ATOM     69  F   UNL A   1      41.815  33.419  36.210  1.00  0.00    -0.206 F 
ATOM     70  C   UNL A   1      43.816  36.425  36.060  1.00  0.00     0.060 A 
BRANCH  70  71
ATOM     71  S   UNL A   1      44.338  37.787  37.124  1.00  0.00     0.124 S 
ATOM     72  O   UNL A   1      45.695  37.381  37.476  1.00  0.00    -0.237 OA
ATOM     73  O   UNL A   1      44.233  38.938  36.233  1.00  0.00    -0.237 OA
ATOM     74  O   UNL A   1      43.369  37.756  38.215  1.00  0.00    -0.744 OA
ENDBRANCH  70  71
ENDBRANCH  38  63
ENDBRANCH  12  13
ENDBRANCH   5   7
ENDBRANCH   2   3
ENDBRANCH   1   2
BRANCH   1  75
ATOM     75  C   UNL A   1      43.353  22.206  27.109  1.00  0.00     0.118 C 
BRANCH  75  76
ATOM     76  N   UNL A   1      44.527  21.796  26.350  1.00  0.00    -0.352 N 
ATOM     77  C   UNL A   1      45.487  22.564  25.747  1.00  0.00     0.251 C 
ATOM     78  H   UNL A   1      44.649  20.824  26.258  1.00  0.00     0.163 HD
ATOM     79  O   UNL A   1      46.316  22.057  24.998  1.00  0.00    -0.269 OA
BRANCH  77  80
ATOM     80  C   UNL A   1      45.514  24.017  25.987  1.00  0.00     0.041 A 
ATOM     81  C   UNL A   1      44.504  24.841  25.494  1.00  0.00     0.036 A 
ATOM     82  C   UNL A   1      46.548  24.550  26.754  1.00  0.00     0.020 A 
ATOM     83  C   UNL A   1      44.606  26.216  25.670  1.00  0.00     0.065 A 
ATOM     84  C   UNL A   1      46.622  25.933  26.975  1.00  0.00    -0.015 A 
ATOM     85  Cl  UNL A   1      43.374  27.217  24.978  1.00  0.00    -0.082 Cl
ATOM     86  C   UNL A   1      45.683  26.786  26.376  1.00  0.00     0.057 A 
ATOM     87  C   UNL A   1      47.675  26.470  27.897  1.00  0.00     0.049 C 
ATOM     88  N   UNL A   1      45.757  28.156  26.562  1.00  0.00    -0.376 N 
ATOM     89  C   UNL A   1      49.076  26.478  27.346  1.00  0.00    -0.023 C 
ATOM     90  C   UNL A   1      47.485  27.944  28.319  1.00  0.00     0.031 C 
ATOM     91  C   UNL A   1      46.939  28.782  27.132  1.00  0.00     0.114 C 
ATOM     92  H   UNL A   1      44.993  28.719  26.303  1.00  0.00     0.161 HD
ATOM     93  C   UNL A   1      49.771  27.508  27.845  1.00  0.00    -0.030 C 
ATOM     94  C   UNL A   1      48.916  28.322  28.764  1.00  0.00     0.034 C 
BRANCH  91  95
ATOM     95  C   UNL A   1      46.581  30.212  27.532  1.00  0.00    -0.025 A 
ATOM     96  C   UNL A   1      45.888  30.540  28.717  1.00  0.00     0.007 A 
ATOM     97  C   UNL A   1      46.947  31.254  26.679  1.00  0.00     0.007 A 
ATOM     98  C   UNL A   1      45.578  31.870  29.031  1.00  0.00     0.022 A 
ATOM     99  C   UNL A   1      46.695  32.575  27.021  1.00  0.00     0.022 A 
ATOM    100  C   UNL A   1      45.998  32.891  28.180  1.00  0.00     0.082 A 
BRANCH 100 101
ATOM    101  S   UNL A   1      45.629  34.579  28.597  1.00  0.00     0.243 S 
ATOM    102  O   UNL A   1      45.640  34.653  30.045  1.00  0.00    -0.207 OA
ATOM    103  O   UNL A   1      46.498  35.403  27.789  1.00  0.00    -0.207 OA
BRANCH 101 104
ATOM    104  N   UNL A   1      44.054  34.829  28.078  1.00  0.00    -0.193 NA
ATOM    105  C   UNL A   1      43.705  34.984  26.649  1.00  0.00     0.131 C 
ATOM    106  C   UNL A   1      42.936  34.973  29.028  1.00  0.00     0.131 C 
ATOM    107  C   UNL A   1      42.752  36.169  26.416  1.00  0.00     0.177 C 
ATOM    108  C   UNL A   1      42.107  36.213  28.697  1.00  0.00     0.177 C 
ATOM    109  O   UNL A   1      41.653  36.187  27.336  1.00  0.00    -0.379 OA
ENDBRANCH 101 104
ENDBRANCH 100 101
ENDBRANCH  91  95
ENDBRANCH  77  80
ENDBRANCH  75  76
ENDBRANCH   1  75
TORSDOF 16
ENDMDL
