MODEL 1
REMARK VINA RESULT:     -12.7      0.000      0.000
REMARK SMILES Cc1cc(/C=C2/C(=O)NC(=S)[NH+]=C2NCCCNC(=O)c2ccc(-c3c4nc(c(-c5c(F)cc(S(=O)(=O)[O-])cc5F)c5ccc([nH]5)c(-c5c(F)cc(S(=O)(=O)[O-])cc5F)c5nc(c(-c6c(F)cc(S(=O)(=O)[O-])cc6F)c6ccc3[nH]6)C=C5)C=C4)cc2)c(C)n1-c1cccc(C(=O)[O-])c1
REMARK SMILES IDX 16 1 15 2 14 3 5 4 6 5 7 6 13 7 8 8 9 9 12 10 10 11 11 15
REMARK SMILES IDX 4 16 1 17 2 18 3 19 89 20 87 21 88 22 90 23 91 24 98 25
REMARK SMILES IDX 92 26 94 27 93 28 95 29 96 30 97 31 17 32 18 33 19 34 20 36
REMARK SMILES IDX 21 37 22 38 86 39 23 40 85 41 24 42 25 43 26 44 79 45 27 46
REMARK SMILES IDX 84 47 78 48 80 49 28 50 83 51 77 52 76 53 29 55 63 56 42 57
REMARK SMILES IDX 62 58 43 59 46 60 61 61 81 62 44 63 45 64 60 66 82 67 47 68
REMARK SMILES IDX 30 69 31 70 40 71 32 72 33 73 39 74 41 75 34 76 35 77 36 78
REMARK SMILES IDX 37 79 38 80 64 81 65 82 74 83 66 84 67 85 73 86 75 87 68 88
REMARK SMILES IDX 69 89 70 90 71 91 72 92 48 93 49 94 58 95 50 96 51 97 57 98
REMARK SMILES IDX 59 99 52 100 53 101 54 102 55 103 56 104
REMARK H PARENT 9 12 12 13 14 14 18 35 80 54 46 65
REMARK Flexibility Score: inf
ROOT
ATOM      1  C   UNL A   1      45.694  19.799  35.834  1.00  0.00     0.059 C 
ENDROOT
BRANCH   1   2
ATOM      2  C   UNL A   1      46.326  19.731  37.166  1.00  0.00     0.195 C 
BRANCH   2   3
ATOM      3  N   UNL A   1      47.647  19.248  37.017  1.00  0.00    -0.305 N 
ATOM      4  C   UNL A   1      48.294  20.961  39.617  1.00  0.00     0.032 C 
ATOM      5  C   UNL A   1      48.795  21.053  38.351  1.00  0.00     0.128 C 
ATOM      6  C   UNL A   1      49.502  22.325  37.992  1.00  0.00     0.319 C 
ATOM      7  C   UNL A   1      48.633  20.154  37.163  1.00  0.00     0.234 C 
ATOM      8  O   UNL A   1      49.531  23.319  38.712  1.00  0.00    -0.250 OA
ATOM      9  N   UNL A   1      50.069  22.350  36.742  1.00  0.00    -0.229 N 
ATOM     10  N   UNL A   1      49.296  20.258  36.050  1.00  0.00    -0.236 N 
ATOM     11  C   UNL A   1      50.059  21.349  35.812  1.00  0.00     0.295 C 
ATOM     12  H   UNL A   1      50.534  23.179  36.487  1.00  0.00     0.268 HD
ATOM     13  H   UNL A   1      49.243  19.540  35.380  1.00  0.00     0.268 HD
ATOM     14  H   UNL A   1      47.835  18.303  36.819  1.00  0.00     0.256 HD
ATOM     15  S   UNL A   1      50.873  21.580  34.366  1.00  0.00    -0.005 S 
BRANCH   4  16
ATOM     16  C   UNL A   1      47.340  20.081  40.284  1.00  0.00    -0.003 A 
ATOM     17  C   UNL A   1      44.290  19.395  42.334  1.00  0.00     0.065 C 
ATOM     18  C   UNL A   1      45.440  19.419  41.393  1.00  0.00     0.020 A 
ATOM     19  C   UNL A   1      46.093  20.515  40.833  1.00  0.00     0.031 A 
ATOM     20  N   UNL A   1      46.098  18.292  40.892  1.00  0.00    -0.318 N 
ATOM     21  C   UNL A   1      47.451  18.791  40.803  1.00  0.00     0.027 A 
ATOM     22  C   UNL A   1      48.688  18.211  41.419  1.00  0.00     0.065 C 
BRANCH  20  23
ATOM     23  C   UNL A   1      45.545  16.878  40.861  1.00  0.00     0.046 A 
ATOM     24  C   UNL A   1      44.677  16.689  39.339  1.00  0.00     0.026 A 
ATOM     25  C   UNL A   1      44.810  16.129  42.401  1.00  0.00     0.036 A 
ATOM     26  C   UNL A   1      43.100  15.918  39.235  1.00  0.00     0.003 A 
ATOM     27  C   UNL A   1      43.020  15.362  42.315  1.00  0.00    -0.001 A 
ATOM     28  C   UNL A   1      42.266  15.297  40.652  1.00  0.00     0.010 A 
BRANCH  27  29
ATOM     29  C   UNL A   1      42.159  14.338  42.995  1.00  0.00     0.072 C 
ATOM     30  O   UNL A   1      41.171  14.659  43.641  1.00  0.00    -0.545 OA
ATOM     31  O   UNL A   1      42.486  13.060  42.887  1.00  0.00    -0.545 OA
ENDBRANCH  27  29
ENDBRANCH  20  23
ENDBRANCH   4  16
ENDBRANCH   2   3
ENDBRANCH   1   2
BRANCH   1  32
ATOM     32  C   UNL A   1      45.387  21.157  34.978  1.00  0.00     0.119 C 
BRANCH  32  33
ATOM     33  N   UNL A   1      46.724  22.367  34.761  1.00  0.00    -0.352 N 
ATOM     34  C   UNL A   1      46.704  24.189  33.948  1.00  0.00     0.251 C 
ATOM     35  H   UNL A   1      47.601  22.077  35.101  1.00  0.00     0.163 HD
ATOM     36  O   UNL A   1      47.667  24.926  33.647  1.00  0.00    -0.269 OA
BRANCH  34  37
ATOM     37  C   UNL A   1      45.007  25.082  33.512  1.00  0.00     0.039 A 
ATOM     38  C   UNL A   1      44.665  25.542  32.258  1.00  0.00     0.014 A 
ATOM     39  C   UNL A   1      44.028  25.906  34.429  1.00  0.00     0.014 A 
ATOM     40  C   UNL A   1      43.627  26.712  32.062  1.00  0.00     0.010 A 
ATOM     41  C   UNL A   1      42.999  27.027  34.224  1.00  0.00     0.010 A 
ATOM     42  C   UNL A   1      42.761  27.562  32.992  1.00  0.00    -0.014 A 
BRANCH  42  43
ATOM     43  C   UNL A   1      41.580  28.818  32.531  1.00  0.00     0.031 A 
ATOM     44  C   UNL A   1      42.552  29.866  32.249  1.00  0.00     0.074 A 
ATOM     45  C   UNL A   1      40.253  29.454  32.488  1.00  0.00     0.049 A 
ATOM     46  N   UNL A   1      43.075  30.383  33.310  1.00  0.00    -0.248 NA
ATOM     47  C   UNL A   1      43.334  29.975  31.029  1.00  0.00     0.031 C 
ATOM     48  C   UNL A   1      38.973  29.110  33.184  1.00  0.00     0.029 A 
ATOM     49  N   UNL A   1      39.727  30.721  31.837  1.00  0.00    -0.354 N 
ATOM     50  C   UNL A   1      44.242  30.984  32.934  1.00  0.00     0.074 A 
ATOM     51  C   UNL A   1      44.386  30.656  31.510  1.00  0.00     0.031 C 
ATOM     52  C   UNL A   1      37.897  29.909  32.841  1.00  0.00     0.029 A 
ATOM     53  C   UNL A   1      38.232  30.979  31.881  1.00  0.00     0.049 A 
ATOM     54  H   UNL A   1      40.337  31.357  31.398  1.00  0.00     0.167 HD
ATOM     55  C   UNL A   1      44.490  32.116  33.631  1.00  0.00     0.037 A 
ATOM     56  C   UNL A   1      37.392  32.020  31.325  1.00  0.00     0.037 A 
ATOM     57  C   UNL A   1      43.729  33.172  33.015  1.00  0.00     0.049 A 
ATOM     58  C   UNL A   1      38.204  33.219  31.538  1.00  0.00     0.074 A 
ATOM     59  C   UNL A   1      43.478  33.443  31.680  1.00  0.00     0.029 A 
ATOM     60  N   UNL A   1      42.695  33.713  33.739  1.00  0.00    -0.354 N 
ATOM     61  N   UNL A   1      38.295  33.786  32.699  1.00  0.00    -0.248 NA
ATOM     62  C   UNL A   1      38.825  33.921  30.426  1.00  0.00     0.031 C 
ATOM     63  C   UNL A   1      42.092  33.653  31.625  1.00  0.00     0.029 A 
ATOM     64  C   UNL A   1      41.648  33.994  32.894  1.00  0.00     0.049 A 
ATOM     65  H   UNL A   1      42.701  33.873  34.710  1.00  0.00     0.167 HD
ATOM     66  C   UNL A   1      39.384  34.586  32.562  1.00  0.00     0.074 A 
ATOM     67  C   UNL A   1      39.514  34.822  31.128  1.00  0.00     0.031 C 
ATOM     68  C   UNL A   1      40.371  34.342  33.455  1.00  0.00     0.037 A 
BRANCH  55  69
ATOM     69  C   UNL A   1      44.537  31.832  35.132  1.00  0.00     0.058 A 
ATOM     70  C   UNL A   1      45.768  31.976  35.779  1.00  0.00     0.135 A 
ATOM     71  C   UNL A   1      43.469  31.312  35.914  1.00  0.00     0.135 A 
ATOM     72  F   UNL A   1      46.829  32.439  35.100  1.00  0.00    -0.206 F 
ATOM     73  C   UNL A   1      45.937  31.648  37.126  1.00  0.00     0.059 A 
ATOM     74  C   UNL A   1      43.629  30.932  37.248  1.00  0.00     0.059 A 
ATOM     75  F   UNL A   1      42.237  31.173  35.400  1.00  0.00    -0.206 F 
ATOM     76  C   UNL A   1      44.864  31.126  37.851  1.00  0.00     0.060 A 
BRANCH  76  77
ATOM     77  S   UNL A   1      45.110  30.744  39.601  1.00  0.00     0.124 S 
ATOM     78  O   UNL A   1      44.158  31.636  40.256  1.00  0.00    -0.237 OA
ATOM     79  O   UNL A   1      44.763  29.327  39.641  1.00  0.00    -0.237 OA
ATOM     80  O   UNL A   1      46.515  31.068  39.833  1.00  0.00    -0.744 OA
ENDBRANCH  76  77
ENDBRANCH  55  69
BRANCH  56  81
ATOM     81  C   UNL A   1      35.905  32.676  30.855  1.00  0.00     0.058 A 
ATOM     82  C   UNL A   1      34.976  33.309  31.798  1.00  0.00     0.135 A 
ATOM     83  C   UNL A   1      35.625  33.121  29.546  1.00  0.00     0.135 A 
ATOM     84  F   UNL A   1      34.971  32.987  33.099  1.00  0.00    -0.206 F 
ATOM     85  C   UNL A   1      34.035  34.346  31.503  1.00  0.00     0.059 A 
ATOM     86  C   UNL A   1      34.652  34.147  29.221  1.00  0.00     0.059 A 
ATOM     87  F   UNL A   1      36.332  32.629  28.521  1.00  0.00    -0.206 F 
ATOM     88  C   UNL A   1      33.904  34.799  30.207  1.00  0.00     0.060 A 
BRANCH  88  89
ATOM     89  S   UNL A   1      32.891  36.300  29.870  1.00  0.00     0.124 S 
ATOM     90  O   UNL A   1      32.153  35.942  28.664  1.00  0.00    -0.237 OA
ATOM     91  O   UNL A   1      32.084  36.422  31.083  1.00  0.00    -0.237 OA
ATOM     92  O   UNL A   1      33.890  37.352  29.697  1.00  0.00    -0.744 OA
ENDBRANCH  88  89
ENDBRANCH  56  81
BRANCH  68  93
ATOM     93  C   UNL A   1      40.013  34.328  34.928  1.00  0.00     0.058 A 
ATOM     94  C   UNL A   1      39.968  35.429  35.815  1.00  0.00     0.135 A 
ATOM     95  C   UNL A   1      39.761  33.068  35.499  1.00  0.00     0.135 A 
ATOM     96  F   UNL A   1      40.074  36.697  35.390  1.00  0.00    -0.206 F 
ATOM     97  C   UNL A   1      39.782  35.264  37.190  1.00  0.00     0.059 A 
ATOM     98  C   UNL A   1      39.510  32.888  36.853  1.00  0.00     0.059 A 
ATOM     99  F   UNL A   1      39.756  31.970  34.723  1.00  0.00    -0.206 F 
ATOM    100  C   UNL A   1      39.568  33.987  37.702  1.00  0.00     0.060 A 
BRANCH 100 101
ATOM    101  S   UNL A   1      39.378  33.769  39.482  1.00  0.00     0.124 S 
ATOM    102  O   UNL A   1      37.926  33.703  39.622  1.00  0.00    -0.237 OA
ATOM    103  O   UNL A   1      40.092  32.522  39.728  1.00  0.00    -0.237 OA
ATOM    104  O   UNL A   1      39.995  34.972  40.036  1.00  0.00    -0.744 OA
ENDBRANCH 100 101
ENDBRANCH  68  93
ENDBRANCH  42  43
ENDBRANCH  34  37
ENDBRANCH  32  33
ENDBRANCH   1  32
TORSDOF 15
ENDMDL
MODEL 2
REMARK VINA RESULT:     -12.6      9.894     19.883
REMARK SMILES Cc1cc(/C=C2/C(=O)NC(=S)[NH+]=C2NCCCNC(=O)c2ccc(-c3c4nc(c(-c5c(F)cc(S(=O)(=O)[O-])cc5F)c5ccc([nH]5)c(-c5c(F)cc(S(=O)(=O)[O-])cc5F)c5nc(c(-c6c(F)cc(S(=O)(=O)[O-])cc6F)c6ccc3[nH]6)C=C5)C=C4)cc2)c(C)n1-c1cccc(C(=O)[O-])c1
REMARK SMILES IDX 16 1 15 2 14 3 5 4 6 5 7 6 13 7 8 8 9 9 12 10 10 11 11 15
REMARK SMILES IDX 4 16 1 17 2 18 3 19 89 20 87 21 88 22 90 23 91 24 98 25
REMARK SMILES IDX 92 26 94 27 93 28 95 29 96 30 97 31 17 32 18 33 19 34 20 36
REMARK SMILES IDX 21 37 22 38 86 39 23 40 85 41 24 42 25 43 26 44 79 45 27 46
REMARK SMILES IDX 84 47 78 48 80 49 28 50 83 51 77 52 76 53 29 55 63 56 42 57
REMARK SMILES IDX 62 58 43 59 46 60 61 61 81 62 44 63 45 64 60 66 82 67 47 68
REMARK SMILES IDX 30 69 31 70 40 71 32 72 33 73 39 74 41 75 34 76 35 77 36 78
REMARK SMILES IDX 37 79 38 80 64 81 65 82 74 83 66 84 67 85 73 86 75 87 68 88
REMARK SMILES IDX 69 89 70 90 71 91 72 92 48 93 49 94 58 95 50 96 51 97 57 98
REMARK SMILES IDX 59 99 52 100 53 101 54 102 55 103 56 104
REMARK H PARENT 9 12 12 13 14 14 18 35 80 54 46 65
REMARK Flexibility Score: inf
ROOT
ATOM      1  C   UNL A   1      45.891  39.964  25.944  1.00  0.00     0.059 C 
ENDROOT
BRANCH   1   2
ATOM      2  C   UNL A   1      45.489  41.334  25.568  1.00  0.00     0.195 C 
BRANCH   2   3
ATOM      3  N   UNL A   1      44.544  41.804  26.510  1.00  0.00    -0.305 N 
ATOM      4  C   UNL A   1      45.115  44.674  25.265  1.00  0.00     0.032 C 
ATOM      5  C   UNL A   1      45.296  44.210  26.536  1.00  0.00     0.128 C 
ATOM      6  C   UNL A   1      46.193  45.012  27.429  1.00  0.00     0.319 C 
ATOM      7  C   UNL A   1      44.878  42.924  27.180  1.00  0.00     0.234 C 
ATOM      8  O   UNL A   1      46.866  45.965  27.047  1.00  0.00    -0.250 OA
ATOM      9  N   UNL A   1      46.284  44.566  28.724  1.00  0.00    -0.229 N 
ATOM     10  N   UNL A   1      44.964  42.661  28.450  1.00  0.00    -0.236 N 
ATOM     11  C   UNL A   1      45.649  43.488  29.272  1.00  0.00     0.295 C 
ATOM     12  H   UNL A   1      46.872  45.080  29.325  1.00  0.00     0.268 HD
ATOM     13  H   UNL A   1      44.528  41.858  28.814  1.00  0.00     0.268 HD
ATOM     14  H   UNL A   1      43.691  41.340  26.666  1.00  0.00     0.256 HD
ATOM     15  S   UNL A   1      45.864  43.164  30.901  1.00  0.00    -0.005 S 
BRANCH   4  16
ATOM     16  C   UNL A   1      44.588  44.106  24.028  1.00  0.00    -0.003 A 
ATOM     17  C   UNL A   1      42.064  42.206  22.030  1.00  0.00     0.065 C 
ATOM     18  C   UNL A   1      43.107  43.108  22.583  1.00  0.00     0.020 A 
ATOM     19  C   UNL A   1      43.273  43.561  23.890  1.00  0.00     0.031 A 
ATOM     20  N   UNL A   1      44.154  43.677  21.851  1.00  0.00    -0.318 N 
ATOM     21  C   UNL A   1      45.200  43.687  22.848  1.00  0.00     0.027 A 
ATOM     22  C   UNL A   1      46.568  43.082  22.751  1.00  0.00     0.065 C 
BRANCH  20  23
ATOM     23  C   UNL A   1      44.203  43.835  20.342  1.00  0.00     0.046 A 
ATOM     24  C   UNL A   1      45.697  44.687  19.954  1.00  0.00     0.026 A 
ATOM     25  C   UNL A   1      42.658  44.278  19.398  1.00  0.00     0.036 A 
ATOM     26  C   UNL A   1      45.763  46.006  18.793  1.00  0.00     0.003 A 
ATOM     27  C   UNL A   1      42.699  45.802  18.183  1.00  0.00    -0.001 A 
ATOM     28  C   UNL A   1      44.334  46.582  17.948  1.00  0.00     0.010 A 
BRANCH  27  29
ATOM     29  C   UNL A   1      42.016  46.329  16.955  1.00  0.00     0.072 C 
ATOM     30  O   UNL A   1      41.614  47.483  16.892  1.00  0.00    -0.545 OA
ATOM     31  O   UNL A   1      41.849  45.518  15.923  1.00  0.00    -0.545 OA
ENDBRANCH  27  29
ENDBRANCH  20  23
ENDBRANCH   4  16
ENDBRANCH   2   3
ENDBRANCH   1   2
BRANCH   1  32
ATOM     32  C   UNL A   1      44.957  38.856  26.699  1.00  0.00     0.119 C 
BRANCH  32  33
ATOM     33  N   UNL A   1      44.871  38.884  28.513  1.00  0.00    -0.352 N 
ATOM     34  C   UNL A   1      44.071  37.579  29.794  1.00  0.00     0.251 C 
ATOM     35  H   UNL A   1      45.288  39.670  28.934  1.00  0.00     0.163 HD
ATOM     36  O   UNL A   1      43.864  37.706  31.019  1.00  0.00    -0.269 OA
BRANCH  34  37
ATOM     37  C   UNL A   1      43.485  35.801  29.190  1.00  0.00     0.039 A 
ATOM     38  C   UNL A   1      42.897  34.855  30.002  1.00  0.00     0.014 A 
ATOM     39  C   UNL A   1      43.994  34.918  27.991  1.00  0.00     0.014 A 
ATOM     40  C   UNL A   1      42.974  33.316  29.667  1.00  0.00     0.010 A 
ATOM     41  C   UNL A   1      44.040  33.418  27.662  1.00  0.00     0.010 A 
ATOM     42  C   UNL A   1      43.568  32.481  28.532  1.00  0.00    -0.014 A 
BRANCH  42  43
ATOM     43  C   UNL A   1      43.476  30.711  28.323  1.00  0.00     0.031 A 
ATOM     44  C   UNL A   1      44.410  30.368  29.386  1.00  0.00     0.074 A 
ATOM     45  C   UNL A   1      43.195  29.464  27.592  1.00  0.00     0.049 A 
ATOM     46  N   UNL A   1      45.644  30.598  29.082  1.00  0.00    -0.248 NA
ATOM     47  C   UNL A   1      44.091  30.343  30.804  1.00  0.00     0.031 C 
ATOM     48  C   UNL A   1      42.801  29.224  26.168  1.00  0.00     0.029 A 
ATOM     49  N   UNL A   1      43.308  27.994  27.959  1.00  0.00    -0.354 N 
ATOM     50  C   UNL A   1      46.341  30.678  30.254  1.00  0.00     0.074 A 
ATOM     51  C   UNL A   1      45.318  30.565  31.301  1.00  0.00     0.031 C 
ATOM     52  C   UNL A   1      42.554  27.899  25.852  1.00  0.00     0.029 A 
ATOM     53  C   UNL A   1      42.770  26.970  26.978  1.00  0.00     0.049 A 
ATOM     54  H   UNL A   1      43.718  27.715  28.810  1.00  0.00     0.167 HD
ATOM     55  C   UNL A   1      47.590  30.169  30.149  1.00  0.00     0.037 A 
ATOM     56  C   UNL A   1      42.652  25.527  27.022  1.00  0.00     0.037 A 
ATOM     57  C   UNL A   1      47.482  28.740  30.292  1.00  0.00     0.049 A 
ATOM     58  C   UNL A   1      43.912  25.133  27.655  1.00  0.00     0.074 A 
ATOM     59  C   UNL A   1      46.690  27.974  31.132  1.00  0.00     0.029 A 
ATOM     60  N   UNL A   1      47.765  27.971  29.190  1.00  0.00    -0.354 N 
ATOM     61  N   UNL A   1      45.029  25.113  27.000  1.00  0.00    -0.248 NA
ATOM     62  C   UNL A   1      43.946  24.597  29.006  1.00  0.00     0.031 C 
ATOM     63  C   UNL A   1      46.114  27.016  30.285  1.00  0.00     0.029 A 
ATOM     64  C   UNL A   1      46.901  26.902  29.149  1.00  0.00     0.049 A 
ATOM     65  H   UNL A   1      48.474  28.155  28.533  1.00  0.00     0.167 HD
ATOM     66  C   UNL A   1      45.960  25.070  27.989  1.00  0.00     0.074 A 
ATOM     67  C   UNL A   1      45.269  24.515  29.147  1.00  0.00     0.031 C 
ATOM     68  C   UNL A   1      46.848  26.092  27.962  1.00  0.00     0.037 A 
BRANCH  55  69
ATOM     69  C   UNL A   1      48.378  30.882  29.051  1.00  0.00     0.058 A 
ATOM     70  C   UNL A   1      49.475  31.656  29.441  1.00  0.00     0.135 A 
ATOM     71  C   UNL A   1      48.025  30.934  27.675  1.00  0.00     0.135 A 
ATOM     72  F   UNL A   1      49.854  31.676  30.729  1.00  0.00    -0.206 F 
ATOM     73  C   UNL A   1      50.200  32.422  28.527  1.00  0.00     0.059 A 
ATOM     74  C   UNL A   1      48.707  31.731  26.753  1.00  0.00     0.059 A 
ATOM     75  F   UNL A   1      47.013  30.197  27.189  1.00  0.00    -0.206 F 
ATOM     76  C   UNL A   1      49.809  32.456  27.186  1.00  0.00     0.060 A 
BRANCH  76  77
ATOM     77  S   UNL A   1      50.791  33.432  26.025  1.00  0.00     0.124 S 
ATOM     78  O   UNL A   1      51.466  34.383  26.904  1.00  0.00    -0.237 OA
ATOM     79  O   UNL A   1      51.652  32.409  25.441  1.00  0.00    -0.237 OA
ATOM     80  O   UNL A   1      49.795  34.019  25.135  1.00  0.00    -0.744 OA
ENDBRANCH  76  77
ENDBRANCH  55  69
BRANCH  56  81
ATOM     81  C   UNL A   1      42.039  24.041  26.493  1.00  0.00     0.058 A 
ATOM     82  C   UNL A   1      42.711  23.211  25.486  1.00  0.00     0.135 A 
ATOM     83  C   UNL A   1      41.162  23.241  27.255  1.00  0.00     0.135 A 
ATOM     84  F   UNL A   1      43.532  23.747  24.572  1.00  0.00    -0.206 F 
ATOM     85  C   UNL A   1      42.645  21.786  25.372  1.00  0.00     0.059 A 
ATOM     86  C   UNL A   1      41.055  21.799  27.132  1.00  0.00     0.059 A 
ATOM     87  F   UNL A   1      40.413  23.812  28.206  1.00  0.00    -0.206 F 
ATOM     88  C   UNL A   1      41.841  21.070  26.233  1.00  0.00     0.060 A 
BRANCH  88  89
ATOM     89  S   UNL A   1      41.953  19.231  26.260  1.00  0.00     0.124 S 
ATOM     90  O   UNL A   1      40.635  18.809  25.798  1.00  0.00    -0.237 OA
ATOM     91  O   UNL A   1      43.053  18.964  25.335  1.00  0.00    -0.237 OA
ATOM     92  O   UNL A   1      42.247  18.929  27.658  1.00  0.00    -0.744 OA
ENDBRANCH  88  89
ENDBRANCH  56  81
BRANCH  68  93
ATOM     93  C   UNL A   1      47.587  26.362  26.668  1.00  0.00     0.058 A 
ATOM     94  C   UNL A   1      48.813  25.799  26.242  1.00  0.00     0.135 A 
ATOM     95  C   UNL A   1      47.028  27.333  25.818  1.00  0.00     0.135 A 
ATOM     96  F   UNL A   1      49.401  24.784  26.892  1.00  0.00    -0.206 F 
ATOM     97  C   UNL A   1      49.477  26.252  25.098  1.00  0.00     0.059 A 
ATOM     98  C   UNL A   1      47.639  27.750  24.642  1.00  0.00     0.059 A 
ATOM     99  F   UNL A   1      45.850  27.899  26.131  1.00  0.00    -0.206 F 
ATOM    100  C   UNL A   1      48.887  27.238  24.312  1.00  0.00     0.060 A 
BRANCH 100 101
ATOM    101  S   UNL A   1      49.768  27.856  22.864  1.00  0.00     0.124 S 
ATOM    102  O   UNL A   1      48.697  28.516  22.122  1.00  0.00    -0.237 OA
ATOM    103  O   UNL A   1      50.765  28.742  23.453  1.00  0.00    -0.237 OA
ATOM    104  O   UNL A   1      50.289  26.641  22.242  1.00  0.00    -0.744 OA
ENDBRANCH 100 101
ENDBRANCH  68  93
ENDBRANCH  42  43
ENDBRANCH  34  37
ENDBRANCH  32  33
ENDBRANCH   1  32
TORSDOF 15
ENDMDL
MODEL 3
REMARK VINA RESULT:     -12.5      8.900     13.690
REMARK SMILES Cc1cc(/C=C2/C(=O)NC(=S)[NH+]=C2NCCCNC(=O)c2ccc(-c3c4nc(c(-c5c(F)cc(S(=O)(=O)[O-])cc5F)c5ccc([nH]5)c(-c5c(F)cc(S(=O)(=O)[O-])cc5F)c5nc(c(-c6c(F)cc(S(=O)(=O)[O-])cc6F)c6ccc3[nH]6)C=C5)C=C4)cc2)c(C)n1-c1cccc(C(=O)[O-])c1
REMARK SMILES IDX 16 1 15 2 14 3 5 4 6 5 7 6 13 7 8 8 9 9 12 10 10 11 11 15
REMARK SMILES IDX 4 16 1 17 2 18 3 19 89 20 87 21 88 22 90 23 91 24 98 25
REMARK SMILES IDX 92 26 94 27 93 28 95 29 96 30 97 31 17 32 18 33 19 34 20 36
REMARK SMILES IDX 21 37 22 38 86 39 23 40 85 41 24 42 25 43 26 44 79 45 27 46
REMARK SMILES IDX 84 47 78 48 80 49 28 50 83 51 77 52 76 53 29 55 63 56 42 57
REMARK SMILES IDX 62 58 43 59 46 60 61 61 81 62 44 63 45 64 60 66 82 67 47 68
REMARK SMILES IDX 30 69 31 70 40 71 32 72 33 73 39 74 41 75 34 76 35 77 36 78
REMARK SMILES IDX 37 79 38 80 64 81 65 82 74 83 66 84 67 85 73 86 75 87 68 88
REMARK SMILES IDX 69 89 70 90 71 91 72 92 48 93 49 94 58 95 50 96 51 97 57 98
REMARK SMILES IDX 59 99 52 100 53 101 54 102 55 103 56 104
REMARK H PARENT 9 12 12 13 14 14 18 35 80 54 46 65
REMARK Flexibility Score: inf
ROOT
ATOM      1  C   UNL A   1      38.632  32.389  33.185  1.00  0.00     0.059 C 
ENDROOT
BRANCH   1   2
ATOM      2  C   UNL A   1      37.694  32.756  32.105  1.00  0.00     0.195 C 
BRANCH   2   3
ATOM      3  N   UNL A   1      36.372  32.557  32.565  1.00  0.00    -0.305 N 
ATOM      4  C   UNL A   1      35.823  31.340  29.680  1.00  0.00     0.032 C 
ATOM      5  C   UNL A   1      35.268  32.419  30.304  1.00  0.00     0.128 C 
ATOM      6  C   UNL A   1      34.538  33.401  29.438  1.00  0.00     0.319 C 
ATOM      7  C   UNL A   1      35.386  32.905  31.716  1.00  0.00     0.234 C 
ATOM      8  O   UNL A   1      34.531  33.360  28.211  1.00  0.00    -0.250 OA
ATOM      9  N   UNL A   1      33.918  34.427  30.107  1.00  0.00    -0.229 N 
ATOM     10  N   UNL A   1      34.676  33.859  32.240  1.00  0.00    -0.236 N 
ATOM     11  C   UNL A   1      33.896  34.637  31.457  1.00  0.00     0.295 C 
ATOM     12  H   UNL A   1      33.436  35.084  29.554  1.00  0.00     0.268 HD
ATOM     13  H   UNL A   1      34.706  34.013  33.212  1.00  0.00     0.268 HD
ATOM     14  H   UNL A   1      36.182  32.185  33.456  1.00  0.00     0.256 HD
ATOM     15  S   UNL A   1      33.020  35.931  32.060  1.00  0.00    -0.005 S 
BRANCH   4  16
ATOM     16  C   UNL A   1      36.811  30.332  30.053  1.00  0.00    -0.003 A 
ATOM     17  C   UNL A   1      38.232  27.720  32.317  1.00  0.00     0.065 C 
ATOM     18  C   UNL A   1      37.781  28.600  31.209  1.00  0.00     0.020 A 
ATOM     19  C   UNL A   1      36.652  29.413  31.138  1.00  0.00     0.031 A 
ATOM     20  N   UNL A   1      38.450  28.775  29.993  1.00  0.00    -0.318 N 
ATOM     21  C   UNL A   1      38.156  30.165  29.726  1.00  0.00     0.027 A 
ATOM     22  C   UNL A   1      39.128  31.277  29.467  1.00  0.00     0.065 C 
BRANCH  20  23
ATOM     23  C   UNL A   1      39.488  27.838  29.404  1.00  0.00     0.046 A 
ATOM     24  C   UNL A   1      41.010  28.154  30.235  1.00  0.00     0.026 A 
ATOM     25  C   UNL A   1      39.529  27.524  27.567  1.00  0.00     0.036 A 
ATOM     26  C   UNL A   1      42.544  28.291  29.387  1.00  0.00     0.003 A 
ATOM     27  C   UNL A   1      41.206  27.772  26.605  1.00  0.00    -0.001 A 
ATOM     28  C   UNL A   1      42.665  28.141  27.640  1.00  0.00     0.010 A 
BRANCH  27  29
ATOM     29  C   UNL A   1      41.917  27.308  25.367  1.00  0.00     0.072 C 
ATOM     30  O   UNL A   1      41.922  26.130  25.035  1.00  0.00    -0.545 OA
ATOM     31  O   UNL A   1      42.548  28.203  24.624  1.00  0.00    -0.545 OA
ENDBRANCH  27  29
ENDBRANCH  20  23
ENDBRANCH   4  16
ENDBRANCH   2   3
ENDBRANCH   1   2
BRANCH   1  32
ATOM     32  C   UNL A   1      38.903  30.884  33.759  1.00  0.00     0.119 C 
BRANCH  32  33
ATOM     33  N   UNL A   1      40.591  30.218  33.686  1.00  0.00    -0.352 N 
ATOM     34  C   UNL A   1      42.093  30.626  32.437  1.00  0.00     0.251 C 
ATOM     35  H   UNL A   1      40.800  29.546  34.375  1.00  0.00     0.163 HD
ATOM     36  O   UNL A   1      43.180  30.028  32.292  1.00  0.00    -0.269 OA
BRANCH  34  37
ATOM     37  C   UNL A   1      41.996  32.157  31.207  1.00  0.00     0.039 A 
ATOM     38  C   UNL A   1      42.710  32.263  30.032  1.00  0.00     0.014 A 
ATOM     39  C   UNL A   1      41.619  33.660  31.485  1.00  0.00     0.014 A 
ATOM     40  C   UNL A   1      43.055  33.665  29.399  1.00  0.00     0.010 A 
ATOM     41  C   UNL A   1      41.939  35.019  30.844  1.00  0.00     0.010 A 
ATOM     42  C   UNL A   1      42.751  35.121  29.754  1.00  0.00    -0.014 A 
BRANCH  42  43
ATOM     43  C   UNL A   1      43.202  36.581  28.831  1.00  0.00     0.031 A 
ATOM     44  C   UNL A   1      44.630  36.520  29.108  1.00  0.00     0.074 A 
ATOM     45  C   UNL A   1      42.957  37.874  28.173  1.00  0.00     0.049 A 
ATOM     46  N   UNL A   1      44.938  36.872  30.312  1.00  0.00    -0.248 NA
ATOM     47  C   UNL A   1      45.577  35.648  28.432  1.00  0.00     0.031 C 
ATOM     48  C   UNL A   1      41.741  38.747  28.138  1.00  0.00     0.029 A 
ATOM     49  N   UNL A   1      43.846  38.838  27.406  1.00  0.00    -0.354 N 
ATOM     50  C   UNL A   1      46.173  36.354  30.582  1.00  0.00     0.074 A 
ATOM     51  C   UNL A   1      46.505  35.553  29.397  1.00  0.00     0.031 C 
ATOM     52  C   UNL A   1      41.863  39.877  27.349  1.00  0.00     0.029 A 
ATOM     53  C   UNL A   1      43.193  40.025  26.725  1.00  0.00     0.049 A 
ATOM     54  H   UNL A   1      44.819  38.694  27.351  1.00  0.00     0.167 HD
ATOM     55  C   UNL A   1      46.918  37.170  31.361  1.00  0.00     0.037 A 
ATOM     56  C   UNL A   1      43.704  41.082  25.877  1.00  0.00     0.037 A 
ATOM     57  C   UNL A   1      47.506  38.163  30.500  1.00  0.00     0.049 A 
ATOM     58  C   UNL A   1      44.984  41.398  26.513  1.00  0.00     0.074 A 
ATOM     59  C   UNL A   1      48.039  38.052  29.226  1.00  0.00     0.029 A 
ATOM     60  N   UNL A   1      47.082  39.461  30.649  1.00  0.00    -0.354 N 
ATOM     61  N   UNL A   1      45.053  42.107  27.595  1.00  0.00    -0.248 NA
ATOM     62  C   UNL A   1      46.248  41.061  25.880  1.00  0.00     0.031 C 
ATOM     63  C   UNL A   1      47.444  39.102  28.511  1.00  0.00     0.029 A 
ATOM     64  C   UNL A   1      47.008  40.060  29.414  1.00  0.00     0.049 A 
ATOM     65  H   UNL A   1      46.865  39.895  31.506  1.00  0.00     0.167 HD
ATOM     66  C   UNL A   1      46.310  41.855  28.044  1.00  0.00     0.074 A 
ATOM     67  C   UNL A   1      47.063  41.431  26.869  1.00  0.00     0.031 C 
ATOM     68  C   UNL A   1      46.361  41.338  29.294  1.00  0.00     0.037 A 
BRANCH  55  69
ATOM     69  C   UNL A   1      46.202  37.467  32.679  1.00  0.00     0.058 A 
ATOM     70  C   UNL A   1      46.684  36.838  33.832  1.00  0.00     0.135 A 
ATOM     71  C   UNL A   1      45.010  38.228  32.825  1.00  0.00     0.135 A 
ATOM     72  F   UNL A   1      47.791  36.083  33.767  1.00  0.00    -0.206 F 
ATOM     73  C   UNL A   1      46.042  36.968  35.065  1.00  0.00     0.059 A 
ATOM     74  C   UNL A   1      44.327  38.330  34.038  1.00  0.00     0.059 A 
ATOM     75  F   UNL A   1      44.487  38.904  31.789  1.00  0.00    -0.206 F 
ATOM     76  C   UNL A   1      44.865  37.713  35.159  1.00  0.00     0.060 A 
BRANCH  76  77
ATOM     77  S   UNL A   1      44.081  37.886  36.779  1.00  0.00     0.124 S 
ATOM     78  O   UNL A   1      44.952  37.088  37.638  1.00  0.00    -0.237 OA
ATOM     79  O   UNL A   1      44.157  39.328  36.986  1.00  0.00    -0.237 OA
ATOM     80  O   UNL A   1      42.744  37.335  36.578  1.00  0.00    -0.744 OA
ENDBRANCH  76  77
ENDBRANCH  55  69
BRANCH  56  81
ATOM     81  C   UNL A   1      43.535  42.351  24.770  1.00  0.00     0.058 A 
ATOM     82  C   UNL A   1      44.494  43.457  24.668  1.00  0.00     0.135 A 
ATOM     83  C   UNL A   1      42.804  42.248  23.568  1.00  0.00     0.135 A 
ATOM     84  F   UNL A   1      45.252  43.825  25.710  1.00  0.00    -0.206 F 
ATOM     85  C   UNL A   1      44.792  44.223  23.496  1.00  0.00     0.059 A 
ATOM     86  C   UNL A   1      43.067  43.038  22.380  1.00  0.00     0.059 A 
ATOM     87  F   UNL A   1      41.840  41.324  23.464  1.00  0.00    -0.206 F 
ATOM     88  C   UNL A   1      44.100  43.979  22.329  1.00  0.00     0.060 A 
BRANCH  88  89
ATOM     89  S   UNL A   1      44.656  44.776  20.763  1.00  0.00     0.124 S 
ATOM     90  O   UNL A   1      43.516  44.593  19.871  1.00  0.00    -0.237 OA
ATOM     91  O   UNL A   1      44.909  46.155  21.178  1.00  0.00    -0.237 OA
ATOM     92  O   UNL A   1      45.853  44.020  20.404  1.00  0.00    -0.744 OA
ENDBRANCH  88  89
ENDBRANCH  56  81
BRANCH  68  93
ATOM     93  C   UNL A   1      45.634  42.074  30.401  1.00  0.00     0.058 A 
ATOM     94  C   UNL A   1      44.252  42.034  30.699  1.00  0.00     0.135 A 
ATOM     95  C   UNL A   1      46.406  42.951  31.183  1.00  0.00     0.135 A 
ATOM     96  F   UNL A   1      43.416  41.163  30.114  1.00  0.00    -0.206 F 
ATOM     97  C   UNL A   1      43.674  42.885  31.645  1.00  0.00     0.059 A 
ATOM     98  C   UNL A   1      45.862  43.759  32.173  1.00  0.00     0.059 A 
ATOM     99  F   UNL A   1      47.733  43.031  30.987  1.00  0.00    -0.206 F 
ATOM    100  C   UNL A   1      44.487  43.755  32.368  1.00  0.00     0.060 A 
BRANCH 100 101
ATOM    101  S   UNL A   1      43.733  44.887  33.552  1.00  0.00     0.124 S 
ATOM    102  O   UNL A   1      44.905  45.422  34.240  1.00  0.00    -0.237 OA
ATOM    103  O   UNL A   1      43.027  45.827  32.688  1.00  0.00    -0.237 OA
ATOM    104  O   UNL A   1      42.888  44.015  34.363  1.00  0.00    -0.744 OA
ENDBRANCH 100 101
ENDBRANCH  68  93
ENDBRANCH  42  43
ENDBRANCH  34  37
ENDBRANCH  32  33
ENDBRANCH   1  32
TORSDOF 15
ENDMDL
