MODEL 1
REMARK VINA RESULT:     -13.2      0.000      0.000
REMARK SMILES CS(=O)(=O)c1ccc(-n2nc(C(F)(F)F)cc2-c2ccc(CC(=O)NCCCNC(=O)c3ccc(-c4c5nc(c(-c6c(F)cc(S(=O)(=O)[O-])cc6F)c6ccc([nH]6)c(-c6c(F)cc(S(=O)(=O)[O-])cc6F)c6nc(c(-c7c(F)cc(S(=O)(=O)[O-])cc7F)c7ccc4[nH]7)C=C6)C=C5)cc3)cc2)cc1
REMARK SMILES IDX 26 1 25 2 23 3 24 4 22 6 21 7 18 8 19 9 99 10 20 11 98 12
REMARK SMILES IDX 17 13 9 14 10 15 11 16 16 17 8 18 5 19 6 20 101 21 7 22
REMARK SMILES IDX 100 23 2 24 1 25 3 26 4 27 12 28 13 29 14 30 15 31 27 32
REMARK SMILES IDX 28 33 29 34 30 35 31 37 32 38 33 39 97 40 34 41 96 42 35 43
REMARK SMILES IDX 36 44 37 45 90 46 38 47 95 48 89 49 91 50 39 51 94 52 88 53
REMARK SMILES IDX 87 54 40 56 74 57 53 58 73 59 54 60 57 61 72 62 92 63 55 64
REMARK SMILES IDX 56 65 71 67 93 68 58 69 41 70 42 71 51 72 43 73 44 74 50 75
REMARK SMILES IDX 52 76 45 77 46 78 47 79 48 80 49 81 75 82 76 83 85 84 77 85
REMARK SMILES IDX 78 86 84 87 86 88 79 89 80 90 81 91 82 92 83 93 59 94 60 95
REMARK SMILES IDX 69 96 61 97 62 98 68 99 70 100 63 101 64 102 65 103 66 104
REMARK SMILES IDX 67 105
REMARK H PARENT 25 5 29 36 91 55 57 66
REMARK Flexibility Score: inf
ROOT
ATOM      1  C   UNL A   1      40.804  20.428  27.154  1.00  0.00     0.117 C 
ENDROOT
BRANCH   1   2
ATOM      2  N   UNL A   1      40.537  21.852  27.047  1.00  0.00    -0.356 N 
ATOM      3  C   UNL A   1      39.526  22.494  26.392  1.00  0.00     0.224 C 
ATOM      4  O   UNL A   1      39.441  23.719  26.492  1.00  0.00    -0.275 OA
ATOM      5  H   UNL A   1      41.179  22.437  27.513  1.00  0.00     0.163 HD
BRANCH   3   6
ATOM      6  C   UNL A   1      38.496  21.698  25.609  1.00  0.00     0.135 C 
BRANCH   6   7
ATOM      7  C   UNL A   1      37.285  22.500  25.200  1.00  0.00    -0.039 A 
ATOM      8  C   UNL A   1      34.930  23.862  24.451  1.00  0.00     0.000 A 
ATOM      9  C   UNL A   1      35.756  23.268  23.485  1.00  0.00     0.010 A 
ATOM     10  C   UNL A   1      35.331  23.821  25.790  1.00  0.00     0.010 A 
ATOM     11  C   UNL A   1      36.910  22.577  23.855  1.00  0.00     0.005 A 
ATOM     12  C   UNL A   1      36.504  23.160  26.158  1.00  0.00     0.005 A 
BRANCH   8  13
ATOM     13  C   UNL A   1      33.681  24.537  24.077  1.00  0.00     0.075 A 
ATOM     14  N   UNL A   1      32.504  23.912  23.666  1.00  0.00    -0.233 N 
ATOM     15  N   UNL A   1      31.618  24.790  23.135  1.00  0.00    -0.163 NA
ATOM     16  C   UNL A   1      32.144  26.005  23.381  1.00  0.00     0.167 A 
ATOM     17  C   UNL A   1      33.435  25.889  23.950  1.00  0.00     0.064 A 
BRANCH  14  18
ATOM     18  C   UNL A   1      32.223  22.525  23.689  1.00  0.00     0.065 A 
ATOM     19  C   UNL A   1      32.310  19.760  23.706  1.00  0.00     0.067 A 
ATOM     20  C   UNL A   1      32.227  20.457  24.918  1.00  0.00     0.022 A 
ATOM     21  C   UNL A   1      32.228  20.430  22.484  1.00  0.00     0.022 A 
ATOM     22  C   UNL A   1      32.200  21.846  24.913  1.00  0.00     0.030 A 
ATOM     23  C   UNL A   1      32.155  21.827  22.475  1.00  0.00     0.030 A 
BRANCH  19  24
ATOM     24  S   UNL A   1      32.637  18.016  23.822  1.00  0.00     0.175 S 
ATOM     25  C   UNL A   1      34.349  17.808  24.215  1.00  0.00     0.163 C 
ATOM     26  O   UNL A   1      32.401  17.502  22.499  1.00  0.00    -0.224 OA
ATOM     27  O   UNL A   1      31.834  17.558  24.948  1.00  0.00    -0.224 OA
ENDBRANCH  19  24
ENDBRANCH  14  18
BRANCH  16  28
ATOM     28  C   UNL A   1      31.435  27.290  23.052  1.00  0.00     0.435 C 
ATOM     29  F   UNL A   1      30.450  27.604  23.932  1.00  0.00    -0.164 F 
ATOM     30  F   UNL A   1      32.288  28.349  23.008  1.00  0.00    -0.164 F 
ATOM     31  F   UNL A   1      30.845  27.234  21.824  1.00  0.00    -0.164 F 
ENDBRANCH  16  28
ENDBRANCH   8  13
ENDBRANCH   6   7
ENDBRANCH   3   6
ENDBRANCH   1   2
BRANCH   1  32
ATOM     32  C   UNL A   1      41.416  19.827  25.886  1.00  0.00     0.042 C 
BRANCH  32  33
ATOM     33  C   UNL A   1      42.865  19.422  26.079  1.00  0.00     0.118 C 
BRANCH  33  34
ATOM     34  N   UNL A   1      43.726  19.818  24.959  1.00  0.00    -0.352 N 
ATOM     35  C   UNL A   1      44.075  21.097  24.561  1.00  0.00     0.251 C 
ATOM     36  H   UNL A   1      44.102  19.082  24.423  1.00  0.00     0.163 HD
ATOM     37  O   UNL A   1      44.507  21.301  23.432  1.00  0.00    -0.269 OA
BRANCH  35  38
ATOM     38  C   UNL A   1      43.915  22.205  25.518  1.00  0.00     0.039 A 
ATOM     39  C   UNL A   1      44.665  22.291  26.695  1.00  0.00     0.014 A 
ATOM     40  C   UNL A   1      43.008  23.202  25.186  1.00  0.00     0.014 A 
ATOM     41  C   UNL A   1      44.536  23.428  27.492  1.00  0.00     0.010 A 
ATOM     42  C   UNL A   1      43.068  24.404  25.831  1.00  0.00     0.010 A 
ATOM     43  C   UNL A   1      43.746  24.494  27.041  1.00  0.00    -0.014 A 
BRANCH  43  44
ATOM     44  C   UNL A   1      43.672  25.768  27.756  1.00  0.00     0.031 A 
ATOM     45  C   UNL A   1      44.752  26.757  27.417  1.00  0.00     0.074 A 
ATOM     46  C   UNL A   1      42.552  26.080  28.461  1.00  0.00     0.049 A 
ATOM     47  N   UNL A   1      45.396  27.536  28.222  1.00  0.00    -0.248 NA
ATOM     48  C   UNL A   1      45.241  26.854  26.026  1.00  0.00     0.031 C 
ATOM     49  C   UNL A   1      41.332  25.272  28.639  1.00  0.00     0.029 A 
ATOM     50  N   UNL A   1      42.188  27.248  29.058  1.00  0.00    -0.354 N 
ATOM     51  C   UNL A   1      46.198  28.358  27.431  1.00  0.00     0.074 A 
ATOM     52  C   UNL A   1      46.102  27.871  26.084  1.00  0.00     0.031 C 
ATOM     53  C   UNL A   1      40.305  26.059  29.025  1.00  0.00     0.029 A 
ATOM     54  C   UNL A   1      40.818  27.385  29.297  1.00  0.00     0.049 A 
ATOM     55  H   UNL A   1      42.841  27.944  29.301  1.00  0.00     0.167 HD
ATOM     56  C   UNL A   1      46.758  29.488  27.938  1.00  0.00     0.037 A 
ATOM     57  C   UNL A   1      40.153  28.517  29.654  1.00  0.00     0.037 A 
ATOM     58  C   UNL A   1      46.924  29.375  29.362  1.00  0.00     0.049 A 
ATOM     59  C   UNL A   1      41.182  29.448  30.195  1.00  0.00     0.074 A 
ATOM     60  C   UNL A   1      47.575  28.443  30.153  1.00  0.00     0.029 A 
ATOM     61  N   UNL A   1      46.017  29.997  30.186  1.00  0.00    -0.354 N 
ATOM     62  N   UNL A   1      41.854  29.223  31.293  1.00  0.00    -0.248 NA
ATOM     63  C   UNL A   1      41.821  30.347  29.243  1.00  0.00     0.031 C 
ATOM     64  C   UNL A   1      46.656  28.168  31.204  1.00  0.00     0.029 A 
ATOM     65  C   UNL A   1      45.573  29.037  31.066  1.00  0.00     0.049 A 
ATOM     66  H   UNL A   1      45.739  30.940  30.153  1.00  0.00     0.167 HD
ATOM     67  C   UNL A   1      43.159  29.582  30.989  1.00  0.00     0.074 A 
ATOM     68  C   UNL A   1      43.066  30.317  29.725  1.00  0.00     0.031 C 
ATOM     69  C   UNL A   1      44.234  29.008  31.608  1.00  0.00     0.037 A 
BRANCH  56  70
ATOM     70  C   UNL A   1      46.820  30.797  27.201  1.00  0.00     0.058 A 
ATOM     71  C   UNL A   1      48.038  31.503  27.147  1.00  0.00     0.135 A 
ATOM     72  C   UNL A   1      45.665  31.526  26.834  1.00  0.00     0.135 A 
ATOM     73  F   UNL A   1      49.192  30.899  27.471  1.00  0.00    -0.206 F 
ATOM     74  C   UNL A   1      48.097  32.862  26.842  1.00  0.00     0.059 A 
ATOM     75  C   UNL A   1      45.708  32.872  26.491  1.00  0.00     0.059 A 
ATOM     76  F   UNL A   1      44.439  30.989  26.884  1.00  0.00    -0.206 F 
ATOM     77  C   UNL A   1      46.922  33.542  26.538  1.00  0.00     0.060 A 
BRANCH  77  78
ATOM     78  S   UNL A   1      46.985  35.321  26.260  1.00  0.00     0.124 S 
ATOM     79  O   UNL A   1      48.070  35.427  25.291  1.00  0.00    -0.237 OA
ATOM     80  O   UNL A   1      45.644  35.594  25.754  1.00  0.00    -0.237 OA
ATOM     81  O   UNL A   1      47.270  35.856  27.588  1.00  0.00    -0.744 OA
ENDBRANCH  77  78
ENDBRANCH  56  70
BRANCH  57  82
ATOM     82  C   UNL A   1      38.789  28.965  29.236  1.00  0.00     0.058 A 
ATOM     83  C   UNL A   1      37.750  29.132  30.174  1.00  0.00     0.135 A 
ATOM     84  C   UNL A   1      38.543  29.509  27.957  1.00  0.00     0.135 A 
ATOM     85  F   UNL A   1      37.888  28.660  31.422  1.00  0.00    -0.206 F 
ATOM     86  C   UNL A   1      36.576  29.844  29.882  1.00  0.00     0.059 A 
ATOM     87  C   UNL A   1      37.378  30.213  27.640  1.00  0.00     0.059 A 
ATOM     88  F   UNL A   1      39.470  29.454  26.991  1.00  0.00    -0.206 F 
ATOM     89  C   UNL A   1      36.411  30.405  28.617  1.00  0.00     0.060 A 
BRANCH  89  90
ATOM     90  S   UNL A   1      35.001  31.496  28.295  1.00  0.00     0.124 S 
ATOM     91  O   UNL A   1      35.594  32.521  27.443  1.00  0.00    -0.237 OA
ATOM     92  O   UNL A   1      34.055  30.595  27.644  1.00  0.00    -0.237 OA
ATOM     93  O   UNL A   1      34.606  31.945  29.628  1.00  0.00    -0.744 OA
ENDBRANCH  89  90
ENDBRANCH  57  82
BRANCH  69  94
ATOM     94  C   UNL A   1      44.020  28.111  32.804  1.00  0.00     0.058 A 
ATOM     95  C   UNL A   1      43.765  28.553  34.116  1.00  0.00     0.135 A 
ATOM     96  C   UNL A   1      43.870  26.735  32.563  1.00  0.00     0.135 A 
ATOM     97  F   UNL A   1      43.770  29.858  34.421  1.00  0.00    -0.206 F 
ATOM     98  C   UNL A   1      43.424  27.667  35.143  1.00  0.00     0.059 A 
ATOM     99  C   UNL A   1      43.494  25.841  33.559  1.00  0.00     0.059 A 
ATOM    100  F   UNL A   1      44.032  26.248  31.320  1.00  0.00    -0.206 F 
ATOM    101  C   UNL A   1      43.291  26.310  34.853  1.00  0.00     0.060 A 
BRANCH 101 102
ATOM    102  S   UNL A   1      42.804  25.166  36.162  1.00  0.00     0.124 S 
ATOM    103  O   UNL A   1      43.878  25.339  37.134  1.00  0.00    -0.237 OA
ATOM    104  O   UNL A   1      41.496  25.676  36.563  1.00  0.00    -0.237 OA
ATOM    105  O   UNL A   1      42.776  23.869  35.489  1.00  0.00    -0.744 OA
ENDBRANCH 101 102
ENDBRANCH  69  94
ENDBRANCH  43  44
ENDBRANCH  35  38
ENDBRANCH  33  34
ENDBRANCH  32  33
ENDBRANCH   1  32
TORSDOF 18
ENDMDL
MODEL 2
REMARK VINA RESULT:     -12.9      3.472      9.624
REMARK SMILES CS(=O)(=O)c1ccc(-n2nc(C(F)(F)F)cc2-c2ccc(CC(=O)NCCCNC(=O)c3ccc(-c4c5nc(c(-c6c(F)cc(S(=O)(=O)[O-])cc6F)c6ccc([nH]6)c(-c6c(F)cc(S(=O)(=O)[O-])cc6F)c6nc(c(-c7c(F)cc(S(=O)(=O)[O-])cc7F)c7ccc4[nH]7)C=C6)C=C5)cc3)cc2)cc1
REMARK SMILES IDX 26 1 25 2 23 3 24 4 22 6 21 7 18 8 19 9 99 10 20 11 98 12
REMARK SMILES IDX 17 13 9 14 10 15 11 16 16 17 8 18 5 19 6 20 101 21 7 22
REMARK SMILES IDX 100 23 2 24 1 25 3 26 4 27 12 28 13 29 14 30 15 31 27 32
REMARK SMILES IDX 28 33 29 34 30 35 31 37 32 38 33 39 97 40 34 41 96 42 35 43
REMARK SMILES IDX 36 44 37 45 90 46 38 47 95 48 89 49 91 50 39 51 94 52 88 53
REMARK SMILES IDX 87 54 40 56 74 57 53 58 73 59 54 60 57 61 72 62 92 63 55 64
REMARK SMILES IDX 56 65 71 67 93 68 58 69 41 70 42 71 51 72 43 73 44 74 50 75
REMARK SMILES IDX 52 76 45 77 46 78 47 79 48 80 49 81 75 82 76 83 85 84 77 85
REMARK SMILES IDX 78 86 84 87 86 88 79 89 80 90 81 91 82 92 83 93 59 94 60 95
REMARK SMILES IDX 69 96 61 97 62 98 68 99 70 100 63 101 64 102 65 103 66 104
REMARK SMILES IDX 67 105
REMARK H PARENT 25 5 29 36 91 55 57 66
REMARK Flexibility Score: inf
ROOT
ATOM      1  C   UNL A   1      34.982  33.325  27.878  1.00  0.00     0.117 C 
ENDROOT
BRANCH   1   2
ATOM      2  N   UNL A   1      35.595  32.024  28.084  1.00  0.00    -0.356 N 
ATOM      3  C   UNL A   1      35.039  30.782  27.974  1.00  0.00     0.224 C 
ATOM      4  O   UNL A   1      35.764  29.796  28.120  1.00  0.00    -0.275 OA
ATOM      5  H   UNL A   1      36.546  32.042  28.340  1.00  0.00     0.163 HD
BRANCH   3   6
ATOM      6  C   UNL A   1      33.571  30.630  27.619  1.00  0.00     0.135 C 
BRANCH   6   7
ATOM      7  C   UNL A   1      33.237  29.323  26.943  1.00  0.00    -0.039 A 
ATOM      8  C   UNL A   1      32.720  26.804  25.781  1.00  0.00     0.000 A 
ATOM      9  C   UNL A   1      33.727  27.637  25.272  1.00  0.00     0.010 A 
ATOM     10  C   UNL A   1      31.934  27.273  26.837  1.00  0.00     0.010 A 
ATOM     11  C   UNL A   1      33.998  28.875  25.858  1.00  0.00     0.005 A 
ATOM     12  C   UNL A   1      32.180  28.527  27.402  1.00  0.00     0.005 A 
BRANCH   8  13
ATOM     13  C   UNL A   1      32.470  25.474  25.212  1.00  0.00     0.075 A 
ATOM     14  N   UNL A   1      31.437  25.140  24.337  1.00  0.00    -0.233 N 
ATOM     15  N   UNL A   1      31.300  23.798  24.197  1.00  0.00    -0.163 NA
ATOM     16  C   UNL A   1      32.367  23.273  24.828  1.00  0.00     0.167 A 
ATOM     17  C   UNL A   1      33.109  24.282  25.487  1.00  0.00     0.064 A 
BRANCH  14  18
ATOM     18  C   UNL A   1      30.541  26.028  23.697  1.00  0.00     0.065 A 
ATOM     19  C   UNL A   1      28.932  28.148  22.939  1.00  0.00     0.067 A 
ATOM     20  C   UNL A   1      30.220  28.030  22.401  1.00  0.00     0.022 A 
ATOM     21  C   UNL A   1      28.400  27.150  23.758  1.00  0.00     0.022 A 
ATOM     22  C   UNL A   1      31.035  26.976  22.793  1.00  0.00     0.030 A 
ATOM     23  C   UNL A   1      29.204  26.063  24.119  1.00  0.00     0.030 A 
BRANCH  19  24
ATOM     24  S   UNL A   1      28.080  29.674  22.613  1.00  0.00     0.175 S 
ATOM     25  C   UNL A   1      28.922  30.965  23.481  1.00  0.00     0.163 C 
ATOM     26  O   UNL A   1      26.774  29.505  23.190  1.00  0.00    -0.224 OA
ATOM     27  O   UNL A   1      28.232  29.889  21.180  1.00  0.00    -0.224 OA
ENDBRANCH  19  24
ENDBRANCH  14  18
BRANCH  16  28
ATOM     28  C   UNL A   1      32.677  21.801  24.835  1.00  0.00     0.435 C 
ATOM     29  F   UNL A   1      33.633  21.456  25.735  1.00  0.00    -0.164 F 
ATOM     30  F   UNL A   1      31.578  21.047  25.105  1.00  0.00    -0.164 F 
ATOM     31  F   UNL A   1      33.130  21.381  23.619  1.00  0.00    -0.164 F 
ENDBRANCH  16  28
ENDBRANCH   8  13
ENDBRANCH   6   7
ENDBRANCH   3   6
ENDBRANCH   1   2
BRANCH   1  32
ATOM     32  C   UNL A   1      33.843  33.622  28.856  1.00  0.00     0.042 C 
BRANCH  32  33
ATOM     33  C   UNL A   1      34.198  34.719  29.842  1.00  0.00     0.118 C 
BRANCH  33  34
ATOM     34  N   UNL A   1      33.840  34.386  31.225  1.00  0.00    -0.352 N 
ATOM     35  C   UNL A   1      34.403  33.423  32.045  1.00  0.00     0.251 C 
ATOM     36  H   UNL A   1      33.108  34.914  31.620  1.00  0.00     0.163 HD
ATOM     37  O   UNL A   1      33.800  33.018  33.032  1.00  0.00    -0.269 OA
BRANCH  35  38
ATOM     38  C   UNL A   1      35.734  32.893  31.704  1.00  0.00     0.039 A 
ATOM     39  C   UNL A   1      36.876  33.700  31.684  1.00  0.00     0.014 A 
ATOM     40  C   UNL A   1      35.827  31.534  31.441  1.00  0.00     0.014 A 
ATOM     41  C   UNL A   1      38.116  33.102  31.463  1.00  0.00     0.010 A 
ATOM     42  C   UNL A   1      37.050  30.928  31.470  1.00  0.00     0.010 A 
ATOM     43  C   UNL A   1      38.198  31.706  31.376  1.00  0.00    -0.014 A 
BRANCH  43  44
ATOM     44  C   UNL A   1      39.477  31.002  31.282  1.00  0.00     0.031 A 
ATOM     45  C   UNL A   1      40.185  30.782  32.588  1.00  0.00     0.074 A 
ATOM     46  C   UNL A   1      39.823  30.389  30.118  1.00  0.00     0.049 A 
ATOM     47  N   UNL A   1      41.450  30.887  32.833  1.00  0.00    -0.248 NA
ATOM     48  C   UNL A   1      39.399  30.479  33.802  1.00  0.00     0.031 C 
ATOM     49  C   UNL A   1      39.066  30.337  28.854  1.00  0.00     0.029 A 
ATOM     50  N   UNL A   1      40.860  29.551  29.843  1.00  0.00    -0.354 N 
ATOM     51  C   UNL A   1      41.642  30.459  34.147  1.00  0.00     0.074 A 
ATOM     52  C   UNL A   1      40.341  30.258  34.719  1.00  0.00     0.031 C 
ATOM     53  C   UNL A   1      39.506  29.315  28.090  1.00  0.00     0.029 A 
ATOM     54  C   UNL A   1      40.684  28.749  28.712  1.00  0.00     0.049 A 
ATOM     55  H   UNL A   1      41.672  29.513  30.399  1.00  0.00     0.167 HD
ATOM     56  C   UNL A   1      42.883  30.150  34.607  1.00  0.00     0.037 A 
ATOM     57  C   UNL A   1      41.431  27.674  28.341  1.00  0.00     0.037 A 
ATOM     58  C   UNL A   1      43.890  30.856  33.862  1.00  0.00     0.049 A 
ATOM     59  C   UNL A   1      42.721  27.792  29.076  1.00  0.00     0.074 A 
ATOM     60  C   UNL A   1      44.088  32.203  33.609  1.00  0.00     0.029 A 
ATOM     61  N   UNL A   1      44.581  30.185  32.882  1.00  0.00    -0.354 N 
ATOM     62  N   UNL A   1      43.584  28.752  28.869  1.00  0.00    -0.248 NA
ATOM     63  C   UNL A   1      42.794  27.155  30.384  1.00  0.00     0.031 C 
ATOM     64  C   UNL A   1      44.385  32.262  32.219  1.00  0.00     0.029 A 
ATOM     65  C   UNL A   1      44.480  30.952  31.745  1.00  0.00     0.049 A 
ATOM     66  H   UNL A   1      45.053  29.327  32.974  1.00  0.00     0.167 HD
ATOM     67  C   UNL A   1      43.999  29.132  30.137  1.00  0.00     0.074 A 
ATOM     68  C   UNL A   1      43.515  28.076  31.029  1.00  0.00     0.031 C 
ATOM     69  C   UNL A   1      44.430  30.401  30.410  1.00  0.00     0.037 A 
BRANCH  56  70
ATOM     70  C   UNL A   1      43.181  28.961  35.478  1.00  0.00     0.058 A 
ATOM     71  C   UNL A   1      43.998  29.124  36.614  1.00  0.00     0.135 A 
ATOM     72  C   UNL A   1      42.966  27.629  35.057  1.00  0.00     0.135 A 
ATOM     73  F   UNL A   1      44.259  30.349  37.098  1.00  0.00    -0.206 F 
ATOM     74  C   UNL A   1      44.634  28.050  37.234  1.00  0.00     0.059 A 
ATOM     75  C   UNL A   1      43.561  26.540  35.684  1.00  0.00     0.059 A 
ATOM     76  F   UNL A   1      42.247  27.334  33.965  1.00  0.00    -0.206 F 
ATOM     77  C   UNL A   1      44.426  26.763  36.746  1.00  0.00     0.060 A 
BRANCH  77  78
ATOM     78  S   UNL A   1      45.339  25.390  37.473  1.00  0.00     0.124 S 
ATOM     79  O   UNL A   1      45.349  24.431  36.374  1.00  0.00    -0.237 OA
ATOM     80  O   UNL A   1      46.619  26.016  37.788  1.00  0.00    -0.237 OA
ATOM     81  O   UNL A   1      44.525  25.023  38.627  1.00  0.00    -0.744 OA
ENDBRANCH  77  78
ENDBRANCH  56  70
BRANCH  57  82
ATOM     82  C   UNL A   1      40.976  26.404  27.694  1.00  0.00     0.058 A 
ATOM     83  C   UNL A   1      41.718  25.800  26.659  1.00  0.00     0.135 A 
ATOM     84  C   UNL A   1      39.960  25.603  28.258  1.00  0.00     0.135 A 
ATOM     85  F   UNL A   1      42.714  26.474  26.062  1.00  0.00    -0.206 F 
ATOM     86  C   UNL A   1      41.507  24.473  26.254  1.00  0.00     0.059 A 
ATOM     87  C   UNL A   1      39.725  24.283  27.864  1.00  0.00     0.059 A 
ATOM     88  F   UNL A   1      39.215  26.047  29.279  1.00  0.00    -0.206 F 
ATOM     89  C   UNL A   1      40.523  23.712  26.883  1.00  0.00     0.060 A 
BRANCH  89  90
ATOM     90  S   UNL A   1      40.383  21.944  26.515  1.00  0.00     0.124 S 
ATOM     91  O   UNL A   1      40.496  21.344  27.840  1.00  0.00    -0.237 OA
ATOM     92  O   UNL A   1      39.067  21.862  25.889  1.00  0.00    -0.237 OA
ATOM     93  O   UNL A   1      41.508  21.691  25.618  1.00  0.00    -0.744 OA
ENDBRANCH  89  90
ENDBRANCH  57  82
BRANCH  69  94
ATOM     94  C   UNL A   1      44.668  31.373  29.279  1.00  0.00     0.058 A 
ATOM     95  C   UNL A   1      43.721  32.287  28.781  1.00  0.00     0.135 A 
ATOM     96  C   UNL A   1      45.987  31.516  28.816  1.00  0.00     0.135 A 
ATOM     97  F   UNL A   1      42.464  32.305  29.245  1.00  0.00    -0.206 F 
ATOM     98  C   UNL A   1      44.059  33.262  27.837  1.00  0.00     0.059 A 
ATOM     99  C   UNL A   1      46.354  32.503  27.908  1.00  0.00     0.059 A 
ATOM    100  F   UNL A   1      46.959  30.723  29.297  1.00  0.00    -0.206 F 
ATOM    101  C   UNL A   1      45.380  33.362  27.407  1.00  0.00     0.060 A 
BRANCH 101 102
ATOM    102  S   UNL A   1      45.835  34.649  26.225  1.00  0.00     0.124 S 
ATOM    103  O   UNL A   1      44.963  35.749  26.621  1.00  0.00    -0.237 OA
ATOM    104  O   UNL A   1      47.258  34.839  26.489  1.00  0.00    -0.237 OA
ATOM    105  O   UNL A   1      45.527  34.046  24.929  1.00  0.00    -0.744 OA
ENDBRANCH 101 102
ENDBRANCH  69  94
ENDBRANCH  43  44
ENDBRANCH  35  38
ENDBRANCH  33  34
ENDBRANCH  32  33
ENDBRANCH   1  32
TORSDOF 18
ENDMDL
MODEL 3
REMARK VINA RESULT:     -12.7      1.808      2.419
REMARK SMILES CS(=O)(=O)c1ccc(-n2nc(C(F)(F)F)cc2-c2ccc(CC(=O)NCCCNC(=O)c3ccc(-c4c5nc(c(-c6c(F)cc(S(=O)(=O)[O-])cc6F)c6ccc([nH]6)c(-c6c(F)cc(S(=O)(=O)[O-])cc6F)c6nc(c(-c7c(F)cc(S(=O)(=O)[O-])cc7F)c7ccc4[nH]7)C=C6)C=C5)cc3)cc2)cc1
REMARK SMILES IDX 26 1 25 2 23 3 24 4 22 6 21 7 18 8 19 9 99 10 20 11 98 12
REMARK SMILES IDX 17 13 9 14 10 15 11 16 16 17 8 18 5 19 6 20 101 21 7 22
REMARK SMILES IDX 100 23 2 24 1 25 3 26 4 27 12 28 13 29 14 30 15 31 27 32
REMARK SMILES IDX 28 33 29 34 30 35 31 37 32 38 33 39 97 40 34 41 96 42 35 43
REMARK SMILES IDX 36 44 37 45 90 46 38 47 95 48 89 49 91 50 39 51 94 52 88 53
REMARK SMILES IDX 87 54 40 56 74 57 53 58 73 59 54 60 57 61 72 62 92 63 55 64
REMARK SMILES IDX 56 65 71 67 93 68 58 69 41 70 42 71 51 72 43 73 44 74 50 75
REMARK SMILES IDX 52 76 45 77 46 78 47 79 48 80 49 81 75 82 76 83 85 84 77 85
REMARK SMILES IDX 78 86 84 87 86 88 79 89 80 90 81 91 82 92 83 93 59 94 60 95
REMARK SMILES IDX 69 96 61 97 62 98 68 99 70 100 63 101 64 102 65 103 66 104
REMARK SMILES IDX 67 105
REMARK H PARENT 25 5 29 36 91 55 57 66
REMARK Flexibility Score: inf
ROOT
ATOM      1  C   UNL A   1      40.258  21.229  26.805  1.00  0.00     0.117 C 
ENDROOT
BRANCH   1   2
ATOM      2  N   UNL A   1      39.744  22.514  27.245  1.00  0.00    -0.356 N 
ATOM      3  C   UNL A   1      38.924  23.386  26.589  1.00  0.00     0.224 C 
ATOM      4  O   UNL A   1      38.543  24.398  27.180  1.00  0.00    -0.275 OA
ATOM      5  H   UNL A   1      40.029  22.796  28.145  1.00  0.00     0.163 HD
BRANCH   3   6
ATOM      6  C   UNL A   1      38.448  23.075  25.181  1.00  0.00     0.135 C 
BRANCH   6   7
ATOM      7  C   UNL A   1      36.977  23.333  24.962  1.00  0.00    -0.039 A 
ATOM      8  C   UNL A   1      34.261  23.978  24.545  1.00  0.00     0.000 A 
ATOM      9  C   UNL A   1      34.786  23.877  25.843  1.00  0.00     0.010 A 
ATOM     10  C   UNL A   1      35.097  23.690  23.462  1.00  0.00     0.010 A 
ATOM     11  C   UNL A   1      36.133  23.578  26.050  1.00  0.00     0.005 A 
ATOM     12  C   UNL A   1      36.437  23.356  23.670  1.00  0.00     0.005 A 
BRANCH   8  13
ATOM     13  C   UNL A   1      32.861  24.354  24.315  1.00  0.00     0.075 A 
ATOM     14  N   UNL A   1      31.825  23.484  23.978  1.00  0.00    -0.233 N 
ATOM     15  N   UNL A   1      30.714  24.146  23.569  1.00  0.00    -0.163 NA
ATOM     16  C   UNL A   1      30.969  25.442  23.828  1.00  0.00     0.167 A 
ATOM     17  C   UNL A   1      32.301  25.615  24.275  1.00  0.00     0.064 A 
BRANCH  14  18
ATOM     18  C   UNL A   1      31.873  22.070  23.958  1.00  0.00     0.065 A 
ATOM     19  C   UNL A   1      32.596  19.400  23.880  1.00  0.00     0.067 A 
ATOM     20  C   UNL A   1      32.383  20.023  25.116  1.00  0.00     0.022 A 
ATOM     21  C   UNL A   1      32.334  20.069  22.682  1.00  0.00     0.022 A 
ATOM     22  C   UNL A   1      32.035  21.367  25.158  1.00  0.00     0.030 A 
ATOM     23  C   UNL A   1      31.940  21.411  22.722  1.00  0.00     0.030 A 
BRANCH  19  24
ATOM     24  S   UNL A   1      33.321  17.777  23.931  1.00  0.00     0.175 S 
ATOM     25  C   UNL A   1      32.609  16.906  25.296  1.00  0.00     0.163 C 
ATOM     26  O   UNL A   1      34.716  17.998  24.201  1.00  0.00    -0.224 OA
ATOM     27  O   UNL A   1      32.899  17.140  22.690  1.00  0.00    -0.224 OA
ENDBRANCH  19  24
ENDBRANCH  14  18
BRANCH  16  28
ATOM     28  C   UNL A   1      29.957  26.536  23.624  1.00  0.00     0.435 C 
ATOM     29  F   UNL A   1      28.679  26.083  23.561  1.00  0.00    -0.164 F 
ATOM     30  F   UNL A   1      30.005  27.469  24.613  1.00  0.00    -0.164 F 
ATOM     31  F   UNL A   1      30.180  27.212  22.460  1.00  0.00    -0.164 F 
ENDBRANCH  16  28
ENDBRANCH   8  13
ENDBRANCH   6   7
ENDBRANCH   3   6
ENDBRANCH   1   2
BRANCH   1  32
ATOM     32  C   UNL A   1      41.417  20.712  27.661  1.00  0.00     0.042 C 
BRANCH  32  33
ATOM     33  C   UNL A   1      42.644  21.601  27.572  1.00  0.00     0.118 C 
BRANCH  33  34
ATOM     34  N   UNL A   1      43.157  21.737  26.204  1.00  0.00    -0.352 N 
ATOM     35  C   UNL A   1      43.178  22.869  25.409  1.00  0.00     0.251 C 
ATOM     36  H   UNL A   1      43.533  20.920  25.802  1.00  0.00     0.163 HD
ATOM     37  O   UNL A   1      43.311  22.772  24.194  1.00  0.00    -0.269 OA
BRANCH  35  38
ATOM     38  C   UNL A   1      43.032  24.188  26.048  1.00  0.00     0.039 A 
ATOM     39  C   UNL A   1      41.983  25.058  25.736  1.00  0.00     0.014 A 
ATOM     40  C   UNL A   1      43.964  24.527  27.020  1.00  0.00     0.014 A 
ATOM     41  C   UNL A   1      41.851  26.238  26.466  1.00  0.00     0.010 A 
ATOM     42  C   UNL A   1      43.690  25.548  27.883  1.00  0.00     0.010 A 
ATOM     43  C   UNL A   1      42.700  26.468  27.557  1.00  0.00    -0.014 A 
BRANCH  43  44
ATOM     44  C   UNL A   1      42.534  27.616  28.449  1.00  0.00     0.031 A 
ATOM     45  C   UNL A   1      43.633  28.638  28.389  1.00  0.00     0.074 A 
ATOM     46  C   UNL A   1      41.339  27.821  29.066  1.00  0.00     0.049 A 
ATOM     47  N   UNL A   1      44.176  29.278  29.372  1.00  0.00    -0.248 NA
ATOM     48  C   UNL A   1      44.271  28.948  27.093  1.00  0.00     0.031 C 
ATOM     49  C   UNL A   1      40.116  27.002  28.980  1.00  0.00     0.029 A 
ATOM     50  N   UNL A   1      40.899  28.884  29.793  1.00  0.00    -0.354 N 
ATOM     51  C   UNL A   1      45.050  30.209  28.812  1.00  0.00     0.074 A 
ATOM     52  C   UNL A   1      45.108  29.938  27.403  1.00  0.00     0.031 C 
ATOM     53  C   UNL A   1      39.044  27.725  29.367  1.00  0.00     0.029 A 
ATOM     54  C   UNL A   1      39.509  28.989  29.898  1.00  0.00     0.049 A 
ATOM     55  H   UNL A   1      41.512  29.529  30.213  1.00  0.00     0.167 HD
ATOM     56  C   UNL A   1      45.538  31.242  29.547  1.00  0.00     0.037 A 
ATOM     57  C   UNL A   1      38.796  30.056  30.351  1.00  0.00     0.037 A 
ATOM     58  C   UNL A   1      45.548  30.908  30.946  1.00  0.00     0.049 A 
ATOM     59  C   UNL A   1      39.749  30.886  31.140  1.00  0.00     0.074 A 
ATOM     60  C   UNL A   1      46.118  29.860  31.649  1.00  0.00     0.029 A 
ATOM     61  N   UNL A   1      44.548  31.399  31.752  1.00  0.00    -0.354 N 
ATOM     62  N   UNL A   1      40.299  30.488  32.258  1.00  0.00    -0.248 NA
ATOM     63  C   UNL A   1      40.479  31.918  30.417  1.00  0.00     0.031 C 
ATOM     64  C   UNL A   1      45.093  29.430  32.537  1.00  0.00     0.029 A 
ATOM     65  C   UNL A   1      44.021  30.317  32.416  1.00  0.00     0.049 A 
ATOM     66  H   UNL A   1      44.266  32.338  31.835  1.00  0.00     0.167 HD
ATOM     67  C   UNL A   1      41.625  30.882  32.159  1.00  0.00     0.074 A 
ATOM     68  C   UNL A   1      41.664  31.805  31.023  1.00  0.00     0.031 C 
ATOM     69  C   UNL A   1      42.631  30.211  32.797  1.00  0.00     0.037 A 
BRANCH  56  70
ATOM     70  C   UNL A   1      45.666  32.650  29.034  1.00  0.00     0.058 A 
ATOM     71  C   UNL A   1      46.859  33.364  29.264  1.00  0.00     0.135 A 
ATOM     72  C   UNL A   1      44.555  33.419  28.619  1.00  0.00     0.135 A 
ATOM     73  F   UNL A   1      47.973  32.725  29.656  1.00  0.00    -0.206 F 
ATOM     74  C   UNL A   1      46.922  34.754  29.181  1.00  0.00     0.059 A 
ATOM     75  C   UNL A   1      44.607  34.803  28.495  1.00  0.00     0.059 A 
ATOM     76  F   UNL A   1      43.349  32.873  28.410  1.00  0.00    -0.206 F 
ATOM     77  C   UNL A   1      45.782  35.466  28.818  1.00  0.00     0.060 A 
BRANCH  77  78
ATOM     78  S   UNL A   1      45.833  37.267  28.826  1.00  0.00     0.124 S 
ATOM     79  O   UNL A   1      47.052  37.521  29.586  1.00  0.00    -0.237 OA
ATOM     80  O   UNL A   1      45.892  37.571  27.400  1.00  0.00    -0.237 OA
ATOM     81  O   UNL A   1      44.586  37.632  29.490  1.00  0.00    -0.744 OA
ENDBRANCH  77  78
ENDBRANCH  56  70
BRANCH  57  82
ATOM     82  C   UNL A   1      37.481  30.573  29.860  1.00  0.00     0.058 A 
ATOM     83  C   UNL A   1      36.563  31.191  30.731  1.00  0.00     0.135 A 
ATOM     84  C   UNL A   1      37.209  30.727  28.483  1.00  0.00     0.135 A 
ATOM     85  F   UNL A   1      36.736  31.113  32.060  1.00  0.00    -0.206 F 
ATOM     86  C   UNL A   1      35.484  31.962  30.269  1.00  0.00     0.059 A 
ATOM     87  C   UNL A   1      36.136  31.481  28.000  1.00  0.00     0.059 A 
ATOM     88  F   UNL A   1      38.032  30.223  27.554  1.00  0.00    -0.206 F 
ATOM     89  C   UNL A   1      35.295  32.123  28.897  1.00  0.00     0.060 A 
BRANCH  89  90
ATOM     90  S   UNL A   1      34.037  33.279  28.294  1.00  0.00     0.124 S 
ATOM     91  O   UNL A   1      34.830  34.203  27.491  1.00  0.00    -0.237 OA
ATOM     92  O   UNL A   1      33.139  32.399  27.553  1.00  0.00    -0.237 OA
ATOM     93  O   UNL A   1      33.475  33.842  29.519  1.00  0.00    -0.744 OA
ENDBRANCH  89  90
ENDBRANCH  57  82
BRANCH  69  94
ATOM     94  C   UNL A   1      42.297  29.141  33.807  1.00  0.00     0.058 A 
ATOM     95  C   UNL A   1      42.207  27.763  33.531  1.00  0.00     0.135 A 
ATOM     96  C   UNL A   1      42.265  29.515  35.161  1.00  0.00     0.135 A 
ATOM     97  F   UNL A   1      42.341  27.296  32.283  1.00  0.00    -0.206 F 
ATOM     98  C   UNL A   1      42.046  26.814  34.546  1.00  0.00     0.059 A 
ATOM     99  C   UNL A   1      42.145  28.586  36.188  1.00  0.00     0.059 A 
ATOM    100  F   UNL A   1      42.413  30.806  35.505  1.00  0.00    -0.206 F 
ATOM    101  C   UNL A   1      42.017  27.237  35.873  1.00  0.00     0.060 A 
BRANCH 101 102
ATOM    102  S   UNL A   1      41.859  26.014  37.191  1.00  0.00     0.124 S 
ATOM    103  O   UNL A   1      42.928  26.406  38.103  1.00  0.00    -0.237 OA
ATOM    104  O   UNL A   1      40.499  26.236  37.674  1.00  0.00    -0.237 OA
ATOM    105  O   UNL A   1      42.064  24.741  36.503  1.00  0.00    -0.744 OA
ENDBRANCH 101 102
ENDBRANCH  69  94
ENDBRANCH  43  44
ENDBRANCH  35  38
ENDBRANCH  33  34
ENDBRANCH  32  33
ENDBRANCH   1  32
TORSDOF 18
ENDMDL
