MODEL 1
REMARK VINA RESULT:     -13.0      0.000      0.000
REMARK SMILES C[C@H]1Oc2ccccc2C=C1/C=C/C(=O)N[C@H](C(=O)NCCCNC(=O)c1ccc(-c2c3nc(c(-c4c(F)cc(S(=O)(=O)[O-])cc4F)c4ccc([nH]4)c(-c4c(F)cc(S(=O)(=O)[O-])cc4F)c4nc(c(-c5c(F)cc(S(=O)(=O)[O-])cc5F)c5ccc2[nH]5)C=C4)C=C3)cc1)c1ccccc1
REMARK SMILES IDX 22 1 21 2 20 3 18 4 19 5 17 7 16 8 14 9 15 10 13 12 12 13
REMARK SMILES IDX 11 14 1 15 2 16 3 17 4 18 10 19 5 20 9 21 6 22 8 23 7 24
REMARK SMILES IDX 93 25 94 26 98 27 95 28 97 29 96 30 23 31 24 32 25 33 26 35
REMARK SMILES IDX 27 36 28 37 92 38 29 39 91 40 30 41 31 42 32 43 85 44 33 45
REMARK SMILES IDX 90 46 84 47 86 48 34 49 89 50 83 51 82 52 35 54 69 55 48 56
REMARK SMILES IDX 68 57 49 58 52 59 67 60 87 61 50 62 51 63 66 65 88 66 53 67
REMARK SMILES IDX 36 68 37 69 46 70 38 71 39 72 45 73 47 74 40 75 41 76 42 77
REMARK SMILES IDX 43 78 44 79 70 80 71 81 80 82 72 83 73 84 79 85 81 86 74 87
REMARK SMILES IDX 75 88 76 89 77 90 78 91 54 92 55 93 64 94 56 95 57 96 63 97
REMARK SMILES IDX 65 98 58 99 59 100 60 101 61 102 62 103
REMARK H PARENT 20 6 16 11 24 34 86 53 52 64
REMARK Flexibility Score: inf
ROOT
ATOM      1  C   UNL A   1      37.289  23.009  25.248  1.00  0.00     0.042 C 
ENDROOT
BRANCH   1   2
ATOM      2  C   UNL A   1      35.783  22.984  25.494  1.00  0.00     0.117 C 
BRANCH   2   3
ATOM      3  N   UNL A   1      34.934  22.850  24.322  1.00  0.00    -0.354 N 
ATOM      4  C   UNL A   1      33.766  22.147  24.163  1.00  0.00     0.247 C 
ATOM      5  O   UNL A   1      33.061  22.423  23.185  1.00  0.00    -0.272 OA
ATOM      6  H   UNL A   1      35.244  23.335  23.523  1.00  0.00     0.163 HD
BRANCH   4   7
ATOM      7  C   UNL A   1      33.410  20.990  25.133  1.00  0.00     0.202 C 
BRANCH   7   8
ATOM      8  N   UNL A   1      32.029  21.192  25.567  1.00  0.00    -0.337 N 
ATOM      9  C   UNL A   1      31.351  22.284  25.996  1.00  0.00     0.244 C 
ATOM     10  O   UNL A   1      30.142  22.190  26.210  1.00  0.00    -0.270 OA
ATOM     11  H   UNL A   1      31.482  20.373  25.543  1.00  0.00     0.164 HD
BRANCH   9  12
ATOM     12  C   UNL A   1      31.986  23.619  26.167  1.00  0.00     0.071 C 
ATOM     13  C   UNL A   1      31.546  24.799  25.709  1.00  0.00     0.013 C 
BRANCH  13  14
ATOM     14  C   UNL A   1      32.210  26.081  25.873  1.00  0.00    -0.007 C 
ATOM     15  C   UNL A   1      33.985  26.007  24.087  1.00  0.00     0.058 C 
ATOM     16  C   UNL A   1      33.706  26.092  25.588  1.00  0.00     0.200 C 
ATOM     17  O   UNL A   1      34.451  27.208  26.094  1.00  0.00    -0.485 OA
ATOM     18  C   UNL A   1      33.759  28.316  26.490  1.00  0.00     0.127 A 
ATOM     19  C   UNL A   1      31.580  27.159  26.359  1.00  0.00     0.019 C 
ATOM     20  C   UNL A   1      34.531  29.435  26.804  1.00  0.00     0.047 A 
ATOM     21  C   UNL A   1      32.369  28.356  26.624  1.00  0.00     0.017 A 
ATOM     22  C   UNL A   1      33.918  30.605  27.249  1.00  0.00     0.004 A 
ATOM     23  C   UNL A   1      31.758  29.532  27.074  1.00  0.00     0.012 A 
ATOM     24  C   UNL A   1      32.531  30.653  27.384  1.00  0.00     0.001 A 
ENDBRANCH  13  14
ENDBRANCH   9  12
ENDBRANCH   7   8
BRANCH   7  25
ATOM     25  C   UNL A   1      33.575  19.607  24.489  1.00  0.00    -0.016 A 
ATOM     26  C   UNL A   1      34.714  18.812  24.697  1.00  0.00     0.006 A 
ATOM     27  C   UNL A   1      32.545  19.062  23.698  1.00  0.00     0.006 A 
ATOM     28  C   UNL A   1      34.805  17.520  24.167  1.00  0.00     0.000 A 
ATOM     29  C   UNL A   1      32.626  17.766  23.184  1.00  0.00     0.000 A 
ATOM     30  C   UNL A   1      33.755  16.992  23.423  1.00  0.00     0.000 A 
ENDBRANCH   7  25
ENDBRANCH   4   7
ENDBRANCH   2   3
ENDBRANCH   1   2
BRANCH   1  31
ATOM     31  C   UNL A   1      38.106  23.871  26.204  1.00  0.00     0.118 C 
BRANCH  31  32
ATOM     32  N   UNL A   1      39.540  23.653  26.111  1.00  0.00    -0.352 N 
ATOM     33  C   UNL A   1      40.600  24.340  26.664  1.00  0.00     0.251 C 
ATOM     34  H   UNL A   1      39.800  22.882  25.559  1.00  0.00     0.163 HD
ATOM     35  O   UNL A   1      41.739  24.006  26.363  1.00  0.00    -0.269 OA
BRANCH  33  36
ATOM     36  C   UNL A   1      40.387  25.496  27.573  1.00  0.00     0.039 A 
ATOM     37  C   UNL A   1      41.065  26.706  27.412  1.00  0.00     0.014 A 
ATOM     38  C   UNL A   1      39.457  25.364  28.611  1.00  0.00     0.014 A 
ATOM     39  C   UNL A   1      40.954  27.703  28.384  1.00  0.00     0.010 A 
ATOM     40  C   UNL A   1      39.288  26.395  29.542  1.00  0.00     0.010 A 
ATOM     41  C   UNL A   1      40.080  27.551  29.471  1.00  0.00    -0.014 A 
BRANCH  41  42
ATOM     42  C   UNL A   1      40.041  28.573  30.555  1.00  0.00     0.031 A 
ATOM     43  C   UNL A   1      41.023  28.499  31.698  1.00  0.00     0.074 A 
ATOM     44  C   UNL A   1      39.164  29.595  30.495  1.00  0.00     0.049 A 
ATOM     45  N   UNL A   1      41.120  29.263  32.758  1.00  0.00    -0.248 NA
ATOM     46  C   UNL A   1      42.029  27.425  31.646  1.00  0.00     0.031 C 
ATOM     47  C   UNL A   1      38.179  29.804  29.432  1.00  0.00     0.029 A 
ATOM     48  N   UNL A   1      38.966  30.658  31.342  1.00  0.00    -0.354 N 
ATOM     49  C   UNL A   1      42.182  28.758  33.499  1.00  0.00     0.074 A 
ATOM     50  C   UNL A   1      42.680  27.601  32.787  1.00  0.00     0.031 C 
ATOM     51  C   UNL A   1      37.508  30.942  29.672  1.00  0.00     0.029 A 
ATOM     52  C   UNL A   1      37.973  31.515  30.930  1.00  0.00     0.049 A 
ATOM     53  H   UNL A   1      39.488  30.793  32.166  1.00  0.00     0.167 HD
ATOM     54  C   UNL A   1      42.708  29.222  34.659  1.00  0.00     0.037 A 
ATOM     55  C   UNL A   1      37.478  32.627  31.509  1.00  0.00     0.037 A 
ATOM     56  C   UNL A   1      42.231  30.388  35.358  1.00  0.00     0.049 A 
ATOM     57  C   UNL A   1      38.042  33.087  32.828  1.00  0.00     0.074 A 
ATOM     58  C   UNL A   1      42.701  30.933  36.541  1.00  0.00     0.029 A 
ATOM     59  N   UNL A   1      41.190  31.197  34.933  1.00  0.00    -0.354 N 
ATOM     60  N   UNL A   1      39.025  32.576  33.528  1.00  0.00    -0.248 NA
ATOM     61  C   UNL A   1      37.417  34.270  33.438  1.00  0.00     0.031 C 
ATOM     62  C   UNL A   1      41.923  32.055  36.847  1.00  0.00     0.029 A 
ATOM     63  C   UNL A   1      40.995  32.231  35.834  1.00  0.00     0.049 A 
ATOM     64  H   UNL A   1      40.666  31.058  34.111  1.00  0.00     0.167 HD
ATOM     65  C   UNL A   1      39.146  33.381  34.654  1.00  0.00     0.074 A 
ATOM     66  C   UNL A   1      38.149  34.426  34.533  1.00  0.00     0.031 C 
ATOM     67  C   UNL A   1      40.001  33.264  35.700  1.00  0.00     0.037 A 
BRANCH  54  68
ATOM     68  C   UNL A   1      43.870  28.476  35.253  1.00  0.00     0.058 A 
ATOM     69  C   UNL A   1      45.194  28.811  34.931  1.00  0.00     0.135 A 
ATOM     70  C   UNL A   1      43.662  27.469  36.208  1.00  0.00     0.135 A 
ATOM     71  F   UNL A   1      45.449  29.754  34.010  1.00  0.00    -0.206 F 
ATOM     72  C   UNL A   1      46.273  28.169  35.531  1.00  0.00     0.059 A 
ATOM     73  C   UNL A   1      44.726  26.828  36.838  1.00  0.00     0.059 A 
ATOM     74  F   UNL A   1      42.415  27.108  36.549  1.00  0.00    -0.206 F 
ATOM     75  C   UNL A   1      46.029  27.182  36.488  1.00  0.00     0.060 A 
BRANCH  75  76
ATOM     76  S   UNL A   1      47.443  26.384  37.277  1.00  0.00     0.124 S 
ATOM     77  O   UNL A   1      48.288  27.532  37.594  1.00  0.00    -0.237 OA
ATOM     78  O   UNL A   1      46.826  25.718  38.420  1.00  0.00    -0.237 OA
ATOM     79  O   UNL A   1      47.957  25.496  36.239  1.00  0.00    -0.744 OA
ENDBRANCH  75  76
ENDBRANCH  54  68
BRANCH  55  80
ATOM     80  C   UNL A   1      36.375  33.381  30.859  1.00  0.00     0.058 A 
ATOM     81  C   UNL A   1      35.065  33.314  31.354  1.00  0.00     0.135 A 
ATOM     82  C   UNL A   1      36.606  34.176  29.725  1.00  0.00     0.135 A 
ATOM     83  F   UNL A   1      34.793  32.558  32.428  1.00  0.00    -0.206 F 
ATOM     84  C   UNL A   1      34.018  33.991  30.737  1.00  0.00     0.059 A 
ATOM     85  C   UNL A   1      35.582  34.883  29.107  1.00  0.00     0.059 A 
ATOM     86  F   UNL A   1      37.845  34.282  29.219  1.00  0.00    -0.206 F 
ATOM     87  C   UNL A   1      34.287  34.775  29.614  1.00  0.00     0.060 A 
BRANCH  87  88
ATOM     88  S   UNL A   1      32.929  35.681  28.843  1.00  0.00     0.124 S 
ATOM     89  O   UNL A   1      32.323  34.649  28.010  1.00  0.00    -0.237 OA
ATOM     90  O   UNL A   1      32.148  36.108  30.000  1.00  0.00    -0.237 OA
ATOM     91  O   UNL A   1      33.608  36.755  28.126  1.00  0.00    -0.744 OA
ENDBRANCH  87  88
ENDBRANCH  55  80
BRANCH  67  92
ATOM     92  C   UNL A   1      39.909  34.298  36.787  1.00  0.00     0.058 A 
ATOM     93  C   UNL A   1      40.629  35.500  36.716  1.00  0.00     0.135 A 
ATOM     94  C   UNL A   1      39.065  34.100  37.891  1.00  0.00     0.135 A 
ATOM     95  F   UNL A   1      41.455  35.734  35.684  1.00  0.00    -0.206 F 
ATOM     96  C   UNL A   1      40.534  36.463  37.716  1.00  0.00     0.059 A 
ATOM     97  C   UNL A   1      38.935  35.060  38.891  1.00  0.00     0.059 A 
ATOM     98  F   UNL A   1      38.348  32.970  38.000  1.00  0.00    -0.206 F 
ATOM     99  C   UNL A   1      39.684  36.233  38.800  1.00  0.00     0.060 A 
BRANCH  99 100
ATOM    100  S   UNL A   1      39.552  37.500  40.078  1.00  0.00     0.124 S 
ATOM    101  O   UNL A   1      40.901  38.059  40.077  1.00  0.00    -0.237 OA
ATOM    102  O   UNL A   1      38.505  38.370  39.552  1.00  0.00    -0.237 OA
ATOM    103  O   UNL A   1      39.188  36.742  41.273  1.00  0.00    -0.744 OA
ENDBRANCH  99 100
ENDBRANCH  67  92
ENDBRANCH  41  42
ENDBRANCH  33  36
ENDBRANCH  31  32
ENDBRANCH   1  31
TORSDOF 17
ENDMDL
MODEL 2
REMARK VINA RESULT:     -12.9      1.365      8.169
REMARK SMILES C[C@H]1Oc2ccccc2C=C1/C=C/C(=O)N[C@H](C(=O)NCCCNC(=O)c1ccc(-c2c3nc(c(-c4c(F)cc(S(=O)(=O)[O-])cc4F)c4ccc([nH]4)c(-c4c(F)cc(S(=O)(=O)[O-])cc4F)c4nc(c(-c5c(F)cc(S(=O)(=O)[O-])cc5F)c5ccc2[nH]5)C=C4)C=C3)cc1)c1ccccc1
REMARK SMILES IDX 22 1 21 2 20 3 18 4 19 5 17 7 16 8 14 9 15 10 13 12 12 13
REMARK SMILES IDX 11 14 1 15 2 16 3 17 4 18 10 19 5 20 9 21 6 22 8 23 7 24
REMARK SMILES IDX 93 25 94 26 98 27 95 28 97 29 96 30 23 31 24 32 25 33 26 35
REMARK SMILES IDX 27 36 28 37 92 38 29 39 91 40 30 41 31 42 32 43 85 44 33 45
REMARK SMILES IDX 90 46 84 47 86 48 34 49 89 50 83 51 82 52 35 54 69 55 48 56
REMARK SMILES IDX 68 57 49 58 52 59 67 60 87 61 50 62 51 63 66 65 88 66 53 67
REMARK SMILES IDX 36 68 37 69 46 70 38 71 39 72 45 73 47 74 40 75 41 76 42 77
REMARK SMILES IDX 43 78 44 79 70 80 71 81 80 82 72 83 73 84 79 85 81 86 74 87
REMARK SMILES IDX 75 88 76 89 77 90 78 91 54 92 55 93 64 94 56 95 57 96 63 97
REMARK SMILES IDX 65 98 58 99 59 100 60 101 61 102 62 103
REMARK H PARENT 20 6 16 11 24 34 86 53 52 64
REMARK Flexibility Score: inf
ROOT
ATOM      1  C   UNL A   1      37.923  24.462  26.750  1.00  0.00     0.042 C 
ENDROOT
BRANCH   1   2
ATOM      2  C   UNL A   1      36.837  23.630  26.073  1.00  0.00     0.117 C 
BRANCH   2   3
ATOM      3  N   UNL A   1      37.105  23.193  24.713  1.00  0.00    -0.354 N 
ATOM      4  C   UNL A   1      36.249  23.073  23.647  1.00  0.00     0.247 C 
ATOM      5  O   UNL A   1      36.749  22.980  22.520  1.00  0.00    -0.272 OA
ATOM      6  H   UNL A   1      38.040  22.944  24.530  1.00  0.00     0.163 HD
BRANCH   4   7
ATOM      7  C   UNL A   1      34.719  22.966  23.879  1.00  0.00     0.202 C 
BRANCH   7   8
ATOM      8  N   UNL A   1      34.058  23.467  22.676  1.00  0.00    -0.337 N 
ATOM      9  C   UNL A   1      33.570  24.684  22.334  1.00  0.00     0.244 C 
ATOM     10  O   UNL A   1      33.141  24.856  21.193  1.00  0.00    -0.270 OA
ATOM     11  H   UNL A   1      33.943  22.785  21.974  1.00  0.00     0.164 HD
BRANCH   9  12
ATOM     12  C   UNL A   1      33.583  25.852  23.256  1.00  0.00     0.071 C 
ATOM     13  C   UNL A   1      33.178  25.891  24.533  1.00  0.00     0.013 C 
BRANCH  13  14
ATOM     14  C   UNL A   1      33.181  27.062  25.395  1.00  0.00    -0.007 C 
ATOM     15  C   UNL A   1      30.872  27.003  26.400  1.00  0.00     0.058 C 
ATOM     16  C   UNL A   1      31.850  27.790  25.527  1.00  0.00     0.200 C 
ATOM     17  O   UNL A   1      31.895  29.128  26.040  1.00  0.00    -0.485 OA
ATOM     18  C   UNL A   1      33.033  29.535  26.673  1.00  0.00     0.127 A 
ATOM     19  C   UNL A   1      34.303  27.544  25.945  1.00  0.00     0.019 C 
ATOM     20  C   UNL A   1      32.965  30.775  27.310  1.00  0.00     0.047 A 
ATOM     21  C   UNL A   1      34.225  28.806  26.672  1.00  0.00     0.017 A 
ATOM     22  C   UNL A   1      34.086  31.292  27.956  1.00  0.00     0.004 A 
ATOM     23  C   UNL A   1      35.350  29.330  27.321  1.00  0.00     0.012 A 
ATOM     24  C   UNL A   1      35.279  30.569  27.961  1.00  0.00     0.001 A 
ENDBRANCH  13  14
ENDBRANCH   9  12
ENDBRANCH   7   8
BRANCH   7  25
ATOM     25  C   UNL A   1      34.266  21.533  24.186  1.00  0.00    -0.016 A 
ATOM     26  C   UNL A   1      32.971  21.073  23.891  1.00  0.00     0.006 A 
ATOM     27  C   UNL A   1      35.170  20.602  24.733  1.00  0.00     0.006 A 
ATOM     28  C   UNL A   1      32.609  19.738  24.103  1.00  0.00     0.000 A 
ATOM     29  C   UNL A   1      34.816  19.266  24.928  1.00  0.00     0.000 A 
ATOM     30  C   UNL A   1      33.535  18.832  24.607  1.00  0.00     0.000 A 
ENDBRANCH   7  25
ENDBRANCH   4   7
ENDBRANCH   2   3
ENDBRANCH   1   2
BRANCH   1  31
ATOM     31  C   UNL A   1      39.333  23.884  26.702  1.00  0.00     0.118 C 
BRANCH  31  32
ATOM     32  N   UNL A   1      40.226  24.587  25.797  1.00  0.00    -0.352 N 
ATOM     33  C   UNL A   1      40.972  25.734  25.968  1.00  0.00     0.251 C 
ATOM     34  H   UNL A   1      40.315  24.174  24.909  1.00  0.00     0.163 HD
ATOM     35  O   UNL A   1      41.590  26.182  25.011  1.00  0.00    -0.269 OA
BRANCH  33  36
ATOM     36  C   UNL A   1      41.002  26.455  27.267  1.00  0.00     0.039 A 
ATOM     37  C   UNL A   1      40.261  26.033  28.373  1.00  0.00     0.014 A 
ATOM     38  C   UNL A   1      41.820  27.586  27.382  1.00  0.00     0.014 A 
ATOM     39  C   UNL A   1      40.194  26.833  29.515  1.00  0.00     0.010 A 
ATOM     40  C   UNL A   1      41.813  28.346  28.557  1.00  0.00     0.010 A 
ATOM     41  C   UNL A   1      40.953  28.009  29.614  1.00  0.00    -0.014 A 
BRANCH  41  42
ATOM     42  C   UNL A   1      40.801  28.907  30.793  1.00  0.00     0.031 A 
ATOM     43  C   UNL A   1      39.736  29.976  30.795  1.00  0.00     0.074 A 
ATOM     44  C   UNL A   1      41.579  28.740  31.881  1.00  0.00     0.049 A 
ATOM     45  N   UNL A   1      39.475  30.885  31.701  1.00  0.00    -0.248 NA
ATOM     46  C   UNL A   1      38.845  30.033  29.623  1.00  0.00     0.031 C 
ATOM     47  C   UNL A   1      42.628  27.728  32.024  1.00  0.00     0.029 A 
ATOM     48  N   UNL A   1      41.600  29.410  33.079  1.00  0.00    -0.354 N 
ATOM     49  C   UNL A   1      38.406  31.624  31.208  1.00  0.00     0.074 A 
ATOM     50  C   UNL A   1      38.083  31.081  29.907  1.00  0.00     0.031 C 
ATOM     51  C   UNL A   1      43.163  27.821  33.251  1.00  0.00     0.029 A 
ATOM     52  C   UNL A   1      42.539  28.932  33.963  1.00  0.00     0.049 A 
ATOM     53  H   UNL A   1      40.998  30.161  33.286  1.00  0.00     0.167 HD
ATOM     54  C   UNL A   1      37.740  32.651  31.791  1.00  0.00     0.037 A 
ATOM     55  C   UNL A   1      42.874  29.351  35.199  1.00  0.00     0.037 A 
ATOM     56  C   UNL A   1      38.042  33.177  33.097  1.00  0.00     0.049 A 
ATOM     57  C   UNL A   1      42.157  30.532  35.799  1.00  0.00     0.074 A 
ATOM     58  C   UNL A   1      37.422  34.218  33.769  1.00  0.00     0.029 A 
ATOM     59  N   UNL A   1      39.034  32.697  33.937  1.00  0.00    -0.354 N 
ATOM     60  N   UNL A   1      41.170  31.237  35.302  1.00  0.00    -0.248 NA
ATOM     61  C   UNL A   1      42.611  30.979  37.124  1.00  0.00     0.031 C 
ATOM     62  C   UNL A   1      38.060  34.386  35.002  1.00  0.00     0.029 A 
ATOM     63  C   UNL A   1      39.050  33.425  35.115  1.00  0.00     0.049 A 
ATOM     64  H   UNL A   1      39.638  31.948  33.727  1.00  0.00     0.167 HD
ATOM     65  C   UNL A   1      40.877  32.203  36.257  1.00  0.00     0.074 A 
ATOM     66  C   UNL A   1      41.776  31.979  37.371  1.00  0.00     0.031 C 
ATOM     67  C   UNL A   1      39.950  33.191  36.215  1.00  0.00     0.037 A 
BRANCH  54  68
ATOM     68  C   UNL A   1      36.607  33.278  31.027  1.00  0.00     0.058 A 
ATOM     69  C   UNL A   1      35.271  33.080  31.408  1.00  0.00     0.135 A 
ATOM     70  C   UNL A   1      36.861  34.145  29.953  1.00  0.00     0.135 A 
ATOM     71  F   UNL A   1      34.972  32.246  32.417  1.00  0.00    -0.206 F 
ATOM     72  C   UNL A   1      34.225  33.713  30.746  1.00  0.00     0.059 A 
ATOM     73  C   UNL A   1      35.831  34.808  29.290  1.00  0.00     0.059 A 
ATOM     74  F   UNL A   1      38.121  34.367  29.547  1.00  0.00    -0.206 F 
ATOM     75  C   UNL A   1      34.515  34.581  29.691  1.00  0.00     0.060 A 
BRANCH  75  76
ATOM     76  S   UNL A   1      33.144  35.417  28.866  1.00  0.00     0.124 S 
ATOM     77  O   UNL A   1      32.517  34.311  28.148  1.00  0.00    -0.237 OA
ATOM     78  O   UNL A   1      32.384  35.951  29.991  1.00  0.00    -0.237 OA
ATOM     79  O   UNL A   1      33.805  36.413  28.029  1.00  0.00    -0.744 OA
ENDBRANCH  75  76
ENDBRANCH  54  68
BRANCH  55  80
ATOM     80  C   UNL A   1      43.952  28.662  35.956  1.00  0.00     0.058 A 
ATOM     81  C   UNL A   1      43.660  27.601  36.824  1.00  0.00     0.135 A 
ATOM     82  C   UNL A   1      45.293  29.058  35.834  1.00  0.00     0.135 A 
ATOM     83  F   UNL A   1      42.391  27.195  36.982  1.00  0.00    -0.206 F 
ATOM     84  C   UNL A   1      44.655  26.967  37.560  1.00  0.00     0.059 A 
ATOM     85  C   UNL A   1      46.309  28.423  36.539  1.00  0.00     0.059 A 
ATOM     86  F   UNL A   1      45.627  30.062  35.008  1.00  0.00    -0.206 F 
ATOM     87  C   UNL A   1      45.979  27.384  37.409  1.00  0.00     0.060 A 
BRANCH  87  88
ATOM     88  S   UNL A   1      47.268  26.531  38.340  1.00  0.00     0.124 S 
ATOM     89  O   UNL A   1      47.712  25.530  37.377  1.00  0.00    -0.237 OA
ATOM     90  O   UNL A   1      48.210  27.609  38.621  1.00  0.00    -0.237 OA
ATOM     91  O   UNL A   1      46.554  26.015  39.504  1.00  0.00    -0.744 OA
ENDBRANCH  87  88
ENDBRANCH  55  80
BRANCH  67  92
ATOM     92  C   UNL A   1      39.848  34.095  37.412  1.00  0.00     0.058 A 
ATOM     93  C   UNL A   1      40.469  35.352  37.434  1.00  0.00     0.135 A 
ATOM     94  C   UNL A   1      39.090  33.715  38.531  1.00  0.00     0.135 A 
ATOM     95  F   UNL A   1      41.210  35.759  36.391  1.00  0.00    -0.206 F 
ATOM     96  C   UNL A   1      40.364  36.195  38.536  1.00  0.00     0.059 A 
ATOM     97  C   UNL A   1      38.951  34.551  39.635  1.00  0.00     0.059 A 
ATOM     98  F   UNL A   1      38.469  32.525  38.555  1.00  0.00    -0.206 F 
ATOM     99  C   UNL A   1      39.603  35.785  39.633  1.00  0.00     0.060 A 
BRANCH  99 100
ATOM    100  S   UNL A   1      39.455  36.896  41.047  1.00  0.00     0.124 S 
ATOM    101  O   UNL A   1      38.605  36.119  41.944  1.00  0.00    -0.237 OA
ATOM    102  O   UNL A   1      40.843  37.056  41.468  1.00  0.00    -0.237 OA
ATOM    103  O   UNL A   1      38.839  38.092  40.477  1.00  0.00    -0.744 OA
ENDBRANCH  99 100
ENDBRANCH  67  92
ENDBRANCH  41  42
ENDBRANCH  33  36
ENDBRANCH  31  32
ENDBRANCH   1  31
TORSDOF 17
ENDMDL
MODEL 3
REMARK VINA RESULT:     -12.7      0.508      8.014
REMARK SMILES C[C@H]1Oc2ccccc2C=C1/C=C/C(=O)N[C@H](C(=O)NCCCNC(=O)c1ccc(-c2c3nc(c(-c4c(F)cc(S(=O)(=O)[O-])cc4F)c4ccc([nH]4)c(-c4c(F)cc(S(=O)(=O)[O-])cc4F)c4nc(c(-c5c(F)cc(S(=O)(=O)[O-])cc5F)c5ccc2[nH]5)C=C4)C=C3)cc1)c1ccccc1
REMARK SMILES IDX 22 1 21 2 20 3 18 4 19 5 17 7 16 8 14 9 15 10 13 12 12 13
REMARK SMILES IDX 11 14 1 15 2 16 3 17 4 18 10 19 5 20 9 21 6 22 8 23 7 24
REMARK SMILES IDX 93 25 94 26 98 27 95 28 97 29 96 30 23 31 24 32 25 33 26 35
REMARK SMILES IDX 27 36 28 37 92 38 29 39 91 40 30 41 31 42 32 43 85 44 33 45
REMARK SMILES IDX 90 46 84 47 86 48 34 49 89 50 83 51 82 52 35 54 69 55 48 56
REMARK SMILES IDX 68 57 49 58 52 59 67 60 87 61 50 62 51 63 66 65 88 66 53 67
REMARK SMILES IDX 36 68 37 69 46 70 38 71 39 72 45 73 47 74 40 75 41 76 42 77
REMARK SMILES IDX 43 78 44 79 70 80 71 81 80 82 72 83 73 84 79 85 81 86 74 87
REMARK SMILES IDX 75 88 76 89 77 90 78 91 54 92 55 93 64 94 56 95 57 96 63 97
REMARK SMILES IDX 65 98 58 99 59 100 60 101 61 102 62 103
REMARK H PARENT 20 6 16 11 24 34 86 53 52 64
REMARK Flexibility Score: inf
ROOT
ATOM      1  C   UNL A   1      36.974  23.651  25.049  1.00  0.00     0.042 C 
ENDROOT
BRANCH   1   2
ATOM      2  C   UNL A   1      35.776  22.756  25.355  1.00  0.00     0.117 C 
BRANCH   2   3
ATOM      3  N   UNL A   1      34.927  22.398  24.230  1.00  0.00    -0.354 N 
ATOM      4  C   UNL A   1      33.732  21.722  24.215  1.00  0.00     0.247 C 
ATOM      5  O   UNL A   1      33.043  21.801  23.192  1.00  0.00    -0.272 OA
ATOM      6  H   UNL A   1      35.259  22.683  23.348  1.00  0.00     0.163 HD
BRANCH   4   7
ATOM      7  C   UNL A   1      33.327  20.822  25.412  1.00  0.00     0.202 C 
BRANCH   7   8
ATOM      8  N   UNL A   1      31.924  21.100  25.712  1.00  0.00    -0.337 N 
ATOM      9  C   UNL A   1      31.258  22.239  26.019  1.00  0.00     0.244 C 
ATOM     10  O   UNL A   1      30.032  22.203  26.132  1.00  0.00    -0.270 OA
ATOM     11  H   UNL A   1      31.348  20.302  25.689  1.00  0.00     0.164 HD
BRANCH   9  12
ATOM     12  C   UNL A   1      31.931  23.559  26.166  1.00  0.00     0.071 C 
ATOM     13  C   UNL A   1      31.464  24.761  25.801  1.00  0.00     0.013 C 
BRANCH  13  14
ATOM     14  C   UNL A   1      32.165  26.027  25.937  1.00  0.00    -0.007 C 
ATOM     15  C   UNL A   1      34.013  25.811  24.239  1.00  0.00     0.058 C 
ATOM     16  C   UNL A   1      33.672  25.976  25.721  1.00  0.00     0.200 C 
ATOM     17  O   UNL A   1      34.431  27.089  26.210  1.00  0.00    -0.485 OA
ATOM     18  C   UNL A   1      33.761  28.237  26.522  1.00  0.00     0.127 A 
ATOM     19  C   UNL A   1      31.551  27.146  26.344  1.00  0.00     0.019 C 
ATOM     20  C   UNL A   1      34.557  29.344  26.821  1.00  0.00     0.047 A 
ATOM     21  C   UNL A   1      32.368  28.328  26.591  1.00  0.00     0.017 A 
ATOM     22  C   UNL A   1      33.965  30.552  27.184  1.00  0.00     0.004 A 
ATOM     23  C   UNL A   1      31.779  29.543  26.958  1.00  0.00     0.012 A 
ATOM     24  C   UNL A   1      32.577  30.652  27.253  1.00  0.00     0.001 A 
ENDBRANCH  13  14
ENDBRANCH   9  12
ENDBRANCH   7   8
BRANCH   7  25
ATOM     25  C   UNL A   1      33.531  19.329  25.125  1.00  0.00    -0.016 A 
ATOM     26  C   UNL A   1      34.733  18.820  24.607  1.00  0.00     0.006 A 
ATOM     27  C   UNL A   1      32.516  18.400  25.428  1.00  0.00     0.006 A 
ATOM     28  C   UNL A   1      34.924  17.444  24.432  1.00  0.00     0.000 A 
ATOM     29  C   UNL A   1      32.712  17.027  25.272  1.00  0.00     0.000 A 
ATOM     30  C   UNL A   1      33.919  16.548  24.778  1.00  0.00     0.000 A 
ENDBRANCH   7  25
ENDBRANCH   4   7
ENDBRANCH   2   3
ENDBRANCH   1   2
BRANCH   1  31
ATOM     31  C   UNL A   1      37.807  24.083  26.250  1.00  0.00     0.118 C 
BRANCH  31  32
ATOM     32  N   UNL A   1      39.221  23.773  26.126  1.00  0.00    -0.352 N 
ATOM     33  C   UNL A   1      40.334  24.379  26.669  1.00  0.00     0.251 C 
ATOM     34  H   UNL A   1      39.419  22.997  25.555  1.00  0.00     0.163 HD
ATOM     35  O   UNL A   1      41.443  23.977  26.340  1.00  0.00    -0.269 OA
BRANCH  33  36
ATOM     36  C   UNL A   1      40.215  25.530  27.602  1.00  0.00     0.039 A 
ATOM     37  C   UNL A   1      40.986  26.684  27.464  1.00  0.00     0.014 A 
ATOM     38  C   UNL A   1      39.278  25.450  28.640  1.00  0.00     0.014 A 
ATOM     39  C   UNL A   1      40.956  27.667  28.457  1.00  0.00     0.010 A 
ATOM     40  C   UNL A   1      39.192  26.472  29.592  1.00  0.00     0.010 A 
ATOM     41  C   UNL A   1      40.073  27.563  29.543  1.00  0.00    -0.014 A 
BRANCH  41  42
ATOM     42  C   UNL A   1      40.117  28.563  30.647  1.00  0.00     0.031 A 
ATOM     43  C   UNL A   1      39.156  29.727  30.650  1.00  0.00     0.074 A 
ATOM     44  C   UNL A   1      40.979  28.408  31.672  1.00  0.00     0.049 A 
ATOM     45  N   UNL A   1      39.067  30.725  31.493  1.00  0.00    -0.248 NA
ATOM     46  C   UNL A   1      38.164  29.777  29.563  1.00  0.00     0.031 C 
ATOM     47  C   UNL A   1      41.942  27.313  31.809  1.00  0.00     0.029 A 
ATOM     48  N   UNL A   1      41.176  29.165  32.800  1.00  0.00    -0.354 N 
ATOM     49  C   UNL A   1      38.026  31.524  31.034  1.00  0.00     0.074 A 
ATOM     50  C   UNL A   1      37.531  30.913  29.819  1.00  0.00     0.031 C 
ATOM     51  C   UNL A   1      42.600  27.451  32.971  1.00  0.00     0.029 A 
ATOM     52  C   UNL A   1      42.150  28.670  33.635  1.00  0.00     0.049 A 
ATOM     53  H   UNL A   1      40.667  29.985  32.993  1.00  0.00     0.167 HD
ATOM     54  C   UNL A   1      37.514  32.653  31.581  1.00  0.00     0.037 A 
ATOM     55  C   UNL A   1      42.639  29.151  34.794  1.00  0.00     0.037 A 
ATOM     56  C   UNL A   1      37.986  33.250  32.804  1.00  0.00     0.049 A 
ATOM     57  C   UNL A   1      42.093  30.440  35.349  1.00  0.00     0.074 A 
ATOM     58  C   UNL A   1      37.530  34.395  33.434  1.00  0.00     0.029 A 
ATOM     59  N   UNL A   1      39.008  32.744  33.590  1.00  0.00    -0.354 N 
ATOM     60  N   UNL A   1      41.129  31.196  34.883  1.00  0.00    -0.248 NA
ATOM     61  C   UNL A   1      42.711  30.945  36.584  1.00  0.00     0.031 C 
ATOM     62  C   UNL A   1      38.297  34.598  34.586  1.00  0.00     0.029 A 
ATOM     63  C   UNL A   1      39.204  33.558  34.694  1.00  0.00     0.049 A 
ATOM     64  H   UNL A   1      39.520  31.925  33.394  1.00  0.00     0.167 HD
ATOM     65  C   UNL A   1      41.017  32.258  35.771  1.00  0.00     0.074 A 
ATOM     66  C   UNL A   1      41.996  32.037  36.816  1.00  0.00     0.031 C 
ATOM     67  C   UNL A   1      40.182  33.325  35.725  1.00  0.00     0.037 A 
BRANCH  54  68
ATOM     68  C   UNL A   1      36.372  33.325  30.870  1.00  0.00     0.058 A 
ATOM     69  C   UNL A   1      35.073  33.311  31.398  1.00  0.00     0.135 A 
ATOM     70  C   UNL A   1      36.593  34.052  29.689  1.00  0.00     0.135 A 
ATOM     71  F   UNL A   1      34.803  32.615  32.514  1.00  0.00    -0.206 F 
ATOM     72  C   UNL A   1      34.029  33.989  30.778  1.00  0.00     0.059 A 
ATOM     73  C   UNL A   1      35.568  34.757  29.063  1.00  0.00     0.059 A 
ATOM     74  F   UNL A   1      37.817  34.094  29.141  1.00  0.00    -0.206 F 
ATOM     75  C   UNL A   1      34.287  34.715  29.613  1.00  0.00     0.060 A 
BRANCH  75  76
ATOM     76  S   UNL A   1      32.924  35.614  28.842  1.00  0.00     0.124 S 
ATOM     77  O   UNL A   1      32.154  36.035  30.009  1.00  0.00    -0.237 OA
ATOM     78  O   UNL A   1      33.620  36.679  28.127  1.00  0.00    -0.237 OA
ATOM     79  O   UNL A   1      32.286  34.608  27.999  1.00  0.00    -0.744 OA
ENDBRANCH  75  76
ENDBRANCH  54  68
BRANCH  55  80
ATOM     80  C   UNL A   1      43.721  28.423  35.509  1.00  0.00     0.058 A 
ATOM     81  C   UNL A   1      45.070  28.663  35.214  1.00  0.00     0.135 A 
ATOM     82  C   UNL A   1      43.426  27.467  36.494  1.00  0.00     0.135 A 
ATOM     83  F   UNL A   1      45.400  29.560  34.272  1.00  0.00    -0.206 F 
ATOM     84  C   UNL A   1      46.090  27.969  35.854  1.00  0.00     0.059 A 
ATOM     85  C   UNL A   1      44.429  26.778  37.166  1.00  0.00     0.059 A 
ATOM     86  F   UNL A   1      42.150  27.208  36.821  1.00  0.00    -0.206 F 
ATOM     87  C   UNL A   1      45.760  27.028  36.831  1.00  0.00     0.060 A 
BRANCH  87  88
ATOM     88  S   UNL A   1      47.092  26.158  37.684  1.00  0.00     0.124 S 
ATOM     89  O   UNL A   1      46.721  26.349  39.081  1.00  0.00    -0.237 OA
ATOM     90  O   UNL A   1      46.955  24.801  37.165  1.00  0.00    -0.237 OA
ATOM     91  O   UNL A   1      48.289  26.869  37.244  1.00  0.00    -0.744 OA
ENDBRANCH  87  88
ENDBRANCH  55  80
BRANCH  67  92
ATOM     92  C   UNL A   1      40.278  34.326  36.842  1.00  0.00     0.058 A 
ATOM     93  C   UNL A   1      41.076  35.474  36.729  1.00  0.00     0.135 A 
ATOM     94  C   UNL A   1      39.535  34.155  38.021  1.00  0.00     0.135 A 
ATOM     95  F   UNL A   1      41.811  35.681  35.624  1.00  0.00    -0.206 F 
ATOM     96  C   UNL A   1      41.155  36.409  37.757  1.00  0.00     0.059 A 
ATOM     97  C   UNL A   1      39.579  35.088  39.053  1.00  0.00     0.059 A 
ATOM     98  F   UNL A   1      38.749  33.078  38.174  1.00  0.00    -0.206 F 
ATOM     99  C   UNL A   1      40.403  36.206  38.916  1.00  0.00     0.060 A 
BRANCH  99 100
ATOM    100  S   UNL A   1      40.495  37.437  40.233  1.00  0.00     0.124 S 
ATOM    101  O   UNL A   1      39.351  38.287  39.921  1.00  0.00    -0.237 OA
ATOM    102  O   UNL A   1      40.370  36.620  41.436  1.00  0.00    -0.237 OA
ATOM    103  O   UNL A   1      41.806  38.050  40.034  1.00  0.00    -0.744 OA
ENDBRANCH  99 100
ENDBRANCH  67  92
ENDBRANCH  41  42
ENDBRANCH  33  36
ENDBRANCH  31  32
ENDBRANCH   1  31
TORSDOF 17
ENDMDL
