MODEL 1
REMARK VINA RESULT:     -12.2      0.000      0.000
REMARK SMILES CCOC(=O)c1c(NC(=O)[C@@H]2[C@@H]3CC[C@@H](C3)[C@@H]2C(=O)NCCCNC(=O)c2ccc(-c3c4nc(c(-c5c(F)cc(S(=O)(=O)[O-])cc5F)c5ccc([nH]5)c(-c5c(F)cc(S(=O)(=O)[O-])cc5F)c5nc(c(-c6c(F)cc(S(=O)(=O)[O-])cc6F)c6ccc3[nH]6)C=C5)C=C4)cc2)sc2c1CCCC2
REMARK SMILES IDX 21 1 20 2 18 3 19 4 17 6 11 7 12 8 13 9 16 10 15 11 14 12
REMARK SMILES IDX 9 13 8 14 10 16 7 17 6 18 95 19 93 20 94 21 96 22 99 23
REMARK SMILES IDX 97 24 98 25 4 26 5 27 3 28 2 29 1 30 22 31 23 32 24 33 25 34
REMARK SMILES IDX 26 36 27 37 28 38 92 39 29 40 91 41 30 42 31 43 32 44 85 45
REMARK SMILES IDX 33 46 90 47 84 48 86 49 34 50 89 51 83 52 82 53 35 55 69 56
REMARK SMILES IDX 48 57 68 58 49 59 52 60 67 61 87 62 50 63 51 64 66 66 88 67
REMARK SMILES IDX 53 68 36 69 37 70 46 71 38 72 39 73 45 74 47 75 40 76 41 77
REMARK SMILES IDX 42 78 43 79 44 80 70 81 71 82 80 83 72 84 73 85 79 86 81 87
REMARK SMILES IDX 74 88 75 89 76 90 77 91 78 92 54 93 55 94 64 95 56 96 57 97
REMARK SMILES IDX 63 98 65 99 58 100 59 101 60 102 61 103 62 104
REMARK H PARENT 20 5 8 15 24 35 86 54 52 65
REMARK Flexibility Score: inf
ROOT
ATOM      1  C   UNL A   1      33.863  28.948  26.501  1.00  0.00     0.117 C 
ENDROOT
BRANCH   1   2
ATOM      2  N   UNL A   1      32.654  29.353  25.780  1.00  0.00    -0.356 N 
ATOM      3  C   UNL A   1      31.677  28.542  25.235  1.00  0.00     0.224 C 
ATOM      4  O   UNL A   1      30.737  29.035  24.626  1.00  0.00    -0.275 OA
ATOM      5  H   UNL A   1      32.520  30.323  25.671  1.00  0.00     0.163 HD
BRANCH   3   6
ATOM      6  C   UNL A   1      31.803  27.087  25.620  1.00  0.00     0.094 C 
ATOM      7  C   UNL A   1      32.524  25.944  24.842  1.00  0.00     0.094 C 
ATOM      8  C   UNL A   1      31.345  24.993  24.633  1.00  0.00     0.002 C 
ATOM      9  C   UNL A   1      30.409  25.561  23.569  1.00  0.00     0.005 C 
ATOM     10  C   UNL A   1      30.578  25.092  25.941  1.00  0.00     0.009 C 
ATOM     11  C   UNL A   1      30.325  26.557  25.735  1.00  0.00     0.002 C 
ATOM     12  C   UNL A   1      29.612  26.574  24.372  1.00  0.00     0.005 C 
BRANCH   7  13
ATOM     13  C   UNL A   1      33.489  26.202  23.690  1.00  0.00     0.229 C 
ATOM     14  N   UNL A   1      34.404  25.286  23.228  1.00  0.00    -0.317 N 
ATOM     15  H   UNL A   1      35.108  25.669  22.658  1.00  0.00     0.170 HD
ATOM     16  O   UNL A   1      33.562  27.331  23.188  1.00  0.00    -0.274 OA
BRANCH  14  17
ATOM     17  C   UNL A   1      34.511  23.923  23.424  1.00  0.00     0.110 A 
ATOM     18  C   UNL A   1      35.219  23.008  24.196  1.00  0.00     0.098 A 
ATOM     19  C   UNL A   1      34.388  21.801  24.332  1.00  0.00    -0.017 A 
ATOM     20  S   UNL A   1      33.396  23.121  22.388  1.00  0.00    -0.122 S 
ATOM     21  C   UNL A   1      33.365  21.767  23.405  1.00  0.00     0.011 A 
ATOM     22  C   UNL A   1      34.482  20.743  25.406  1.00  0.00     0.038 C 
ATOM     23  C   UNL A   1      32.340  20.684  23.266  1.00  0.00     0.047 C 
ATOM     24  C   UNL A   1      33.702  19.473  25.043  1.00  0.00     0.005 C 
ATOM     25  C   UNL A   1      32.299  19.794  24.517  1.00  0.00     0.006 C 
BRANCH  18  26
ATOM     26  C   UNL A   1      36.462  23.202  24.980  1.00  0.00     0.341 C 
ATOM     27  O   UNL A   1      36.559  24.060  25.843  1.00  0.00    -0.246 OA
BRANCH  26  28
ATOM     28  O   UNL A   1      37.534  22.441  24.582  1.00  0.00    -0.462 OA
BRANCH  28  29
ATOM     29  C   UNL A   1      38.050  21.632  25.657  1.00  0.00     0.230 C 
ATOM     30  C   UNL A   1      39.352  22.209  26.180  1.00  0.00     0.049 C 
ENDBRANCH  28  29
ENDBRANCH  26  28
ENDBRANCH  18  26
ENDBRANCH  14  17
ENDBRANCH   7  13
ENDBRANCH   3   6
ENDBRANCH   1   2
BRANCH   1  31
ATOM     31  C   UNL A   1      34.463  30.096  27.279  1.00  0.00     0.042 C 
BRANCH  31  32
ATOM     32  C   UNL A   1      35.646  29.649  28.107  1.00  0.00     0.118 C 
BRANCH  32  33
ATOM     33  N   UNL A   1      35.537  30.094  29.494  1.00  0.00    -0.352 N 
ATOM     34  C   UNL A   1      36.482  30.056  30.483  1.00  0.00     0.251 C 
ATOM     35  H   UNL A   1      34.664  30.472  29.751  1.00  0.00     0.163 HD
ATOM     36  O   UNL A   1      36.161  30.227  31.654  1.00  0.00    -0.269 OA
BRANCH  34  37
ATOM     37  C   UNL A   1      37.879  29.796  30.104  1.00  0.00     0.039 A 
ATOM     38  C   UNL A   1      38.751  29.242  31.040  1.00  0.00     0.014 A 
ATOM     39  C   UNL A   1      38.303  30.066  28.799  1.00  0.00     0.014 A 
ATOM     40  C   UNL A   1      40.043  28.909  30.643  1.00  0.00     0.010 A 
ATOM     41  C   UNL A   1      39.545  29.629  28.379  1.00  0.00     0.010 A 
ATOM     42  C   UNL A   1      40.436  29.069  29.303  1.00  0.00    -0.014 A 
BRANCH  42  43
ATOM     43  C   UNL A   1      41.789  28.684  28.846  1.00  0.00     0.031 A 
ATOM     44  C   UNL A   1      42.867  29.729  28.765  1.00  0.00     0.074 A 
ATOM     45  C   UNL A   1      42.019  27.418  28.451  1.00  0.00     0.049 A 
ATOM     46  N   UNL A   1      44.096  29.611  28.334  1.00  0.00    -0.248 NA
ATOM     47  C   UNL A   1      42.509  31.093  29.192  1.00  0.00     0.031 C 
ATOM     48  C   UNL A   1      41.025  26.342  28.434  1.00  0.00     0.029 A 
ATOM     49  N   UNL A   1      43.159  26.823  27.977  1.00  0.00    -0.354 N 
ATOM     50  C   UNL A   1      44.650  30.882  28.429  1.00  0.00     0.074 A 
ATOM     51  C   UNL A   1      43.606  31.770  28.889  1.00  0.00     0.031 C 
ATOM     52  C   UNL A   1      41.608  25.211  28.007  1.00  0.00     0.029 A 
ATOM     53  C   UNL A   1      43.001  25.492  27.675  1.00  0.00     0.049 A 
ATOM     54  H   UNL A   1      44.010  27.304  27.865  1.00  0.00     0.167 HD
ATOM     55  C   UNL A   1      45.924  31.266  28.184  1.00  0.00     0.037 A 
ATOM     56  C   UNL A   1      43.883  24.602  27.179  1.00  0.00     0.037 A 
ATOM     57  C   UNL A   1      46.955  30.365  27.746  1.00  0.00     0.049 A 
ATOM     58  C   UNL A   1      45.290  25.056  26.905  1.00  0.00     0.074 A 
ATOM     59  C   UNL A   1      48.293  30.634  27.518  1.00  0.00     0.029 A 
ATOM     60  N   UNL A   1      46.764  29.020  27.465  1.00  0.00    -0.354 N 
ATOM     61  N   UNL A   1      45.820  26.246  27.067  1.00  0.00    -0.248 NA
ATOM     62  C   UNL A   1      46.224  24.047  26.389  1.00  0.00     0.031 C 
ATOM     63  C   UNL A   1      48.898  29.465  27.049  1.00  0.00     0.029 A 
ATOM     64  C   UNL A   1      47.953  28.450  27.044  1.00  0.00     0.049 A 
ATOM     65  H   UNL A   1      45.909  28.540  27.553  1.00  0.00     0.167 HD
ATOM     66  C   UNL A   1      47.155  26.122  26.702  1.00  0.00     0.074 A 
ATOM     67  C   UNL A   1      47.354  24.737  26.324  1.00  0.00     0.031 C 
ATOM     68  C   UNL A   1      48.130  27.065  26.681  1.00  0.00     0.037 A 
BRANCH  55  69
ATOM     69  C   UNL A   1      46.268  32.716  28.390  1.00  0.00     0.058 A 
ATOM     70  C   UNL A   1      46.628  33.218  29.651  1.00  0.00     0.135 A 
ATOM     71  C   UNL A   1      46.267  33.611  27.307  1.00  0.00     0.135 A 
ATOM     72  F   UNL A   1      46.627  32.414  30.725  1.00  0.00    -0.206 F 
ATOM     73  C   UNL A   1      46.947  34.560  29.837  1.00  0.00     0.059 A 
ATOM     74  C   UNL A   1      46.615  34.949  27.463  1.00  0.00     0.059 A 
ATOM     75  F   UNL A   1      45.927  33.187  26.080  1.00  0.00    -0.206 F 
ATOM     76  C   UNL A   1      46.941  35.416  28.736  1.00  0.00     0.060 A 
BRANCH  76  77
ATOM     77  S   UNL A   1      47.374  37.150  28.995  1.00  0.00     0.124 S 
ATOM     78  O   UNL A   1      47.255  37.266  30.445  1.00  0.00    -0.237 OA
ATOM     79  O   UNL A   1      48.731  37.214  28.464  1.00  0.00    -0.237 OA
ATOM     80  O   UNL A   1      46.366  37.872  28.224  1.00  0.00    -0.744 OA
ENDBRANCH  76  77
ENDBRANCH  55  69
BRANCH  56  81
ATOM     81  C   UNL A   1      43.463  23.197  26.935  1.00  0.00     0.058 A 
ATOM     82  C   UNL A   1      43.301  22.707  25.631  1.00  0.00     0.135 A 
ATOM     83  C   UNL A   1      43.229  22.311  27.999  1.00  0.00     0.135 A 
ATOM     84  F   UNL A   1      43.511  23.516  24.581  1.00  0.00    -0.206 F 
ATOM     85  C   UNL A   1      42.900  21.398  25.388  1.00  0.00     0.059 A 
ATOM     86  C   UNL A   1      42.855  20.988  27.781  1.00  0.00     0.059 A 
ATOM     87  F   UNL A   1      43.390  22.722  29.266  1.00  0.00    -0.206 F 
ATOM     88  C   UNL A   1      42.682  20.544  26.471  1.00  0.00     0.060 A 
BRANCH  88  89
ATOM     89  S   UNL A   1      42.202  18.836  26.142  1.00  0.00     0.124 S 
ATOM     90  O   UNL A   1      43.139  18.464  25.091  1.00  0.00    -0.237 OA
ATOM     91  O   UNL A   1      42.413  18.203  27.441  1.00  0.00    -0.237 OA
ATOM     92  O   UNL A   1      40.805  18.954  25.731  1.00  0.00    -0.744 OA
ENDBRANCH  88  89
ENDBRANCH  56  81
BRANCH  68  93
ATOM     93  C   UNL A   1      49.508  26.625  26.273  1.00  0.00     0.058 A 
ATOM     94  C   UNL A   1      49.989  26.809  24.968  1.00  0.00     0.135 A 
ATOM     95  C   UNL A   1      50.380  26.061  27.220  1.00  0.00     0.135 A 
ATOM     96  F   UNL A   1      49.196  27.337  24.022  1.00  0.00    -0.206 F 
ATOM     97  C   UNL A   1      51.277  26.425  24.608  1.00  0.00     0.059 A 
ATOM     98  C   UNL A   1      51.681  25.701  26.891  1.00  0.00     0.059 A 
ATOM     99  F   UNL A   1      49.973  25.875  28.486  1.00  0.00    -0.206 F 
ATOM    100  C   UNL A   1      52.117  25.874  25.579  1.00  0.00     0.060 A 
BRANCH 100 101
ATOM    101  S   UNL A   1      53.796  25.413  25.106  1.00  0.00     0.124 S 
ATOM    102  O   UNL A   1      54.585  26.090  26.129  1.00  0.00    -0.237 OA
ATOM    103  O   UNL A   1      53.756  23.956  25.197  1.00  0.00    -0.237 OA
ATOM    104  O   UNL A   1      53.928  25.947  23.754  1.00  0.00    -0.744 OA
ENDBRANCH 100 101
ENDBRANCH  68  93
ENDBRANCH  42  43
ENDBRANCH  34  37
ENDBRANCH  32  33
ENDBRANCH  31  32
ENDBRANCH   1  31
TORSDOF 18
ENDMDL
MODEL 2
REMARK VINA RESULT:     -12.2      1.263      2.097
REMARK SMILES CCOC(=O)c1c(NC(=O)[C@@H]2[C@@H]3CC[C@@H](C3)[C@@H]2C(=O)NCCCNC(=O)c2ccc(-c3c4nc(c(-c5c(F)cc(S(=O)(=O)[O-])cc5F)c5ccc([nH]5)c(-c5c(F)cc(S(=O)(=O)[O-])cc5F)c5nc(c(-c6c(F)cc(S(=O)(=O)[O-])cc6F)c6ccc3[nH]6)C=C5)C=C4)cc2)sc2c1CCCC2
REMARK SMILES IDX 21 1 20 2 18 3 19 4 17 6 11 7 12 8 13 9 16 10 15 11 14 12
REMARK SMILES IDX 9 13 8 14 10 16 7 17 6 18 95 19 93 20 94 21 96 22 99 23
REMARK SMILES IDX 97 24 98 25 4 26 5 27 3 28 2 29 1 30 22 31 23 32 24 33 25 34
REMARK SMILES IDX 26 36 27 37 28 38 92 39 29 40 91 41 30 42 31 43 32 44 85 45
REMARK SMILES IDX 33 46 90 47 84 48 86 49 34 50 89 51 83 52 82 53 35 55 69 56
REMARK SMILES IDX 48 57 68 58 49 59 52 60 67 61 87 62 50 63 51 64 66 66 88 67
REMARK SMILES IDX 53 68 36 69 37 70 46 71 38 72 39 73 45 74 47 75 40 76 41 77
REMARK SMILES IDX 42 78 43 79 44 80 70 81 71 82 80 83 72 84 73 85 79 86 81 87
REMARK SMILES IDX 74 88 75 89 76 90 77 91 78 92 54 93 55 94 64 95 56 96 57 97
REMARK SMILES IDX 63 98 65 99 58 100 59 101 60 102 61 103 62 104
REMARK H PARENT 20 5 8 15 24 35 86 54 52 65
REMARK Flexibility Score: inf
ROOT
ATOM      1  C   UNL A   1      33.103  29.631  26.526  1.00  0.00     0.117 C 
ENDROOT
BRANCH   1   2
ATOM      2  N   UNL A   1      33.694  29.732  25.190  1.00  0.00    -0.356 N 
ATOM      3  C   UNL A   1      33.551  28.858  24.129  1.00  0.00     0.224 C 
ATOM      4  O   UNL A   1      34.143  29.065  23.078  1.00  0.00    -0.275 OA
ATOM      5  H   UNL A   1      34.262  30.520  25.027  1.00  0.00     0.163 HD
BRANCH   3   6
ATOM      6  C   UNL A   1      32.500  27.796  24.347  1.00  0.00     0.094 C 
ATOM      7  C   UNL A   1      32.305  26.460  23.565  1.00  0.00     0.094 C 
ATOM      8  C   UNL A   1      30.883  26.673  23.045  1.00  0.00     0.002 C 
ATOM      9  C   UNL A   1      30.899  27.703  21.917  1.00  0.00     0.005 C 
ATOM     10  C   UNL A   1      30.183  27.357  24.207  1.00  0.00     0.009 C 
ATOM     11  C   UNL A   1      31.120  28.527  24.145  1.00  0.00     0.002 C 
ATOM     12  C   UNL A   1      30.944  29.006  22.693  1.00  0.00     0.005 C 
BRANCH   7  13
ATOM     13  C   UNL A   1      33.363  25.880  22.633  1.00  0.00     0.229 C 
ATOM     14  N   UNL A   1      34.021  24.694  22.855  1.00  0.00    -0.317 N 
ATOM     15  H   UNL A   1      34.831  24.573  22.311  1.00  0.00     0.170 HD
ATOM     16  O   UNL A   1      33.763  26.541  21.667  1.00  0.00    -0.274 OA
BRANCH  14  17
ATOM     17  C   UNL A   1      33.748  23.642  23.707  1.00  0.00     0.110 A 
ATOM     18  C   UNL A   1      32.661  22.960  24.246  1.00  0.00     0.098 A 
ATOM     19  C   UNL A   1      33.103  21.591  24.556  1.00  0.00    -0.017 A 
ATOM     20  S   UNL A   1      35.232  22.964  24.252  1.00  0.00    -0.122 S 
ATOM     21  C   UNL A   1      34.480  21.481  24.576  1.00  0.00     0.011 A 
ATOM     22  C   UNL A   1      32.236  20.365  24.714  1.00  0.00     0.038 C 
ATOM     23  C   UNL A   1      35.258  20.233  24.857  1.00  0.00     0.047 C 
ATOM     24  C   UNL A   1      32.989  19.198  25.367  1.00  0.00     0.005 C 
ATOM     25  C   UNL A   1      34.370  18.985  24.738  1.00  0.00     0.006 C 
BRANCH  18  26
ATOM     26  C   UNL A   1      31.236  23.362  24.309  1.00  0.00     0.341 C 
ATOM     27  O   UNL A   1      30.472  23.199  23.370  1.00  0.00    -0.246 OA
BRANCH  26  28
ATOM     28  O   UNL A   1      30.866  24.043  25.443  1.00  0.00    -0.462 OA
BRANCH  28  29
ATOM     29  C   UNL A   1      30.963  23.222  26.622  1.00  0.00     0.230 C 
ATOM     30  C   UNL A   1      29.587  22.766  27.069  1.00  0.00     0.049 C 
ENDBRANCH  28  29
ENDBRANCH  26  28
ENDBRANCH  18  26
ENDBRANCH  14  17
ENDBRANCH   7  13
ENDBRANCH   3   6
ENDBRANCH   1   2
BRANCH   1  31
ATOM     31  C   UNL A   1      34.000  28.879  27.482  1.00  0.00     0.042 C 
BRANCH  31  32
ATOM     32  C   UNL A   1      35.329  29.576  27.663  1.00  0.00     0.118 C 
BRANCH  32  33
ATOM     33  N   UNL A   1      35.398  30.289  28.936  1.00  0.00    -0.352 N 
ATOM     34  C   UNL A   1      36.413  30.307  29.854  1.00  0.00     0.251 C 
ATOM     35  H   UNL A   1      34.606  30.829  29.163  1.00  0.00     0.163 HD
ATOM     36  O   UNL A   1      36.219  30.743  30.983  1.00  0.00    -0.269 OA
BRANCH  34  37
ATOM     37  C   UNL A   1      37.727  29.784  29.453  1.00  0.00     0.039 A 
ATOM     38  C   UNL A   1      38.106  29.840  28.113  1.00  0.00     0.014 A 
ATOM     39  C   UNL A   1      38.597  29.281  30.425  1.00  0.00     0.014 A 
ATOM     40  C   UNL A   1      39.389  29.433  27.757  1.00  0.00     0.010 A 
ATOM     41  C   UNL A   1      39.906  28.989  30.087  1.00  0.00     0.010 A 
ATOM     42  C   UNL A   1      40.307  29.038  28.747  1.00  0.00    -0.014 A 
BRANCH  42  43
ATOM     43  C   UNL A   1      41.689  28.642  28.401  1.00  0.00     0.031 A 
ATOM     44  C   UNL A   1      42.770  29.687  28.363  1.00  0.00     0.074 A 
ATOM     45  C   UNL A   1      41.947  27.365  28.065  1.00  0.00     0.049 A 
ATOM     46  N   UNL A   1      44.026  29.559  28.026  1.00  0.00    -0.248 NA
ATOM     47  C   UNL A   1      42.382  31.063  28.718  1.00  0.00     0.031 C 
ATOM     48  C   UNL A   1      40.958  26.285  28.013  1.00  0.00     0.029 A 
ATOM     49  N   UNL A   1      43.118  26.758  27.695  1.00  0.00    -0.354 N 
ATOM     50  C   UNL A   1      44.572  30.833  28.119  1.00  0.00     0.074 A 
ATOM     51  C   UNL A   1      43.497  31.733  28.473  1.00  0.00     0.031 C 
ATOM     52  C   UNL A   1      41.571  25.143  27.666  1.00  0.00     0.029 A 
ATOM     53  C   UNL A   1      42.984  25.417  27.426  1.00  0.00     0.049 A 
ATOM     54  H   UNL A   1      43.976  27.237  27.628  1.00  0.00     0.167 HD
ATOM     55  C   UNL A   1      45.860  31.212  27.953  1.00  0.00     0.037 A 
ATOM     56  C   UNL A   1      43.899  24.514  27.024  1.00  0.00     0.037 A 
ATOM     57  C   UNL A   1      46.920  30.301  27.620  1.00  0.00     0.049 A 
ATOM     58  C   UNL A   1      45.323  24.963  26.838  1.00  0.00     0.074 A 
ATOM     59  C   UNL A   1      48.271  30.566  27.481  1.00  0.00     0.029 A 
ATOM     60  N   UNL A   1      46.751  28.946  27.371  1.00  0.00    -0.354 N 
ATOM     61  N   UNL A   1      45.839  26.158  26.998  1.00  0.00    -0.248 NA
ATOM     62  C   UNL A   1      46.291  23.940  26.424  1.00  0.00     0.031 C 
ATOM     63  C   UNL A   1      48.908  29.383  27.095  1.00  0.00     0.029 A 
ATOM     64  C   UNL A   1      47.967  28.366  27.055  1.00  0.00     0.049 A 
ATOM     65  H   UNL A   1      45.891  28.467  27.413  1.00  0.00     0.167 HD
ATOM     66  C   UNL A   1      47.197  26.026  26.734  1.00  0.00     0.074 A 
ATOM     67  C   UNL A   1      47.423  24.630  26.417  1.00  0.00     0.031 C 
ATOM     68  C   UNL A   1      48.170  26.971  26.752  1.00  0.00     0.037 A 
BRANCH  55  69
ATOM     69  C   UNL A   1      46.188  32.670  28.135  1.00  0.00     0.058 A 
ATOM     70  C   UNL A   1      46.621  33.181  29.370  1.00  0.00     0.135 A 
ATOM     71  C   UNL A   1      46.097  33.562  27.055  1.00  0.00     0.135 A 
ATOM     72  F   UNL A   1      46.706  32.378  30.442  1.00  0.00    -0.206 F 
ATOM     73  C   UNL A   1      46.924  34.529  29.534  1.00  0.00     0.059 A 
ATOM     74  C   UNL A   1      46.428  34.908  27.187  1.00  0.00     0.059 A 
ATOM     75  F   UNL A   1      45.684  33.130  25.853  1.00  0.00    -0.206 F 
ATOM     76  C   UNL A   1      46.827  35.383  28.436  1.00  0.00     0.060 A 
BRANCH  76  77
ATOM     77  S   UNL A   1      47.242  37.126  28.665  1.00  0.00     0.124 S 
ATOM     78  O   UNL A   1      47.584  37.159  30.083  1.00  0.00    -0.237 OA
ATOM     79  O   UNL A   1      48.356  37.304  27.740  1.00  0.00    -0.237 OA
ATOM     80  O   UNL A   1      46.010  37.820  28.300  1.00  0.00    -0.744 OA
ENDBRANCH  76  77
ENDBRANCH  55  69
BRANCH  56  81
ATOM     81  C   UNL A   1      43.499  23.100  26.797  1.00  0.00     0.058 A 
ATOM     82  C   UNL A   1      43.444  22.563  25.503  1.00  0.00     0.135 A 
ATOM     83  C   UNL A   1      43.176  22.253  27.869  1.00  0.00     0.135 A 
ATOM     84  F   UNL A   1      43.743  23.334  24.445  1.00  0.00    -0.206 F 
ATOM     85  C   UNL A   1      43.063  21.245  25.275  1.00  0.00     0.059 A 
ATOM     86  C   UNL A   1      42.819  20.923  27.669  1.00  0.00     0.059 A 
ATOM     87  F   UNL A   1      43.232  22.710  29.130  1.00  0.00    -0.206 F 
ATOM     88  C   UNL A   1      42.754  20.431  26.366  1.00  0.00     0.060 A 
BRANCH  88  89
ATOM     89  S   UNL A   1      42.300  18.712  26.060  1.00  0.00     0.124 S 
ATOM     90  O   UNL A   1      43.216  18.352  24.986  1.00  0.00    -0.237 OA
ATOM     91  O   UNL A   1      42.559  18.091  27.357  1.00  0.00    -0.237 OA
ATOM     92  O   UNL A   1      40.890  18.799  25.687  1.00  0.00    -0.744 OA
ENDBRANCH  88  89
ENDBRANCH  56  81
BRANCH  68  93
ATOM     93  C   UNL A   1      49.575  26.522  26.458  1.00  0.00     0.058 A 
ATOM     94  C   UNL A   1      50.118  26.584  25.167  1.00  0.00     0.135 A 
ATOM     95  C   UNL A   1      50.405  26.074  27.499  1.00  0.00     0.135 A 
ATOM     96  F   UNL A   1      49.366  26.998  24.135  1.00  0.00    -0.206 F 
ATOM     97  C   UNL A   1      51.429  26.193  24.912  1.00  0.00     0.059 A 
ATOM     98  C   UNL A   1      51.728  25.710  27.273  1.00  0.00     0.059 A 
ATOM     99  F   UNL A   1      49.938  26.006  28.757  1.00  0.00    -0.206 F 
ATOM    100  C   UNL A   1      52.227  25.760  25.973  1.00  0.00     0.060 A 
BRANCH 100 101
ATOM    101  S   UNL A   1      53.935  25.289  25.633  1.00  0.00     0.124 S 
ATOM    102  O   UNL A   1      53.861  23.835  25.718  1.00  0.00    -0.237 OA
ATOM    103  O   UNL A   1      54.149  25.837  24.296  1.00  0.00    -0.237 OA
ATOM    104  O   UNL A   1      54.688  25.944  26.699  1.00  0.00    -0.744 OA
ENDBRANCH 100 101
ENDBRANCH  68  93
ENDBRANCH  42  43
ENDBRANCH  34  37
ENDBRANCH  32  33
ENDBRANCH  31  32
ENDBRANCH   1  31
TORSDOF 18
ENDMDL
MODEL 3
REMARK VINA RESULT:     -11.8      4.556      9.797
REMARK SMILES CCOC(=O)c1c(NC(=O)[C@@H]2[C@@H]3CC[C@@H](C3)[C@@H]2C(=O)NCCCNC(=O)c2ccc(-c3c4nc(c(-c5c(F)cc(S(=O)(=O)[O-])cc5F)c5ccc([nH]5)c(-c5c(F)cc(S(=O)(=O)[O-])cc5F)c5nc(c(-c6c(F)cc(S(=O)(=O)[O-])cc6F)c6ccc3[nH]6)C=C5)C=C4)cc2)sc2c1CCCC2
REMARK SMILES IDX 21 1 20 2 18 3 19 4 17 6 11 7 12 8 13 9 16 10 15 11 14 12
REMARK SMILES IDX 9 13 8 14 10 16 7 17 6 18 95 19 93 20 94 21 96 22 99 23
REMARK SMILES IDX 97 24 98 25 4 26 5 27 3 28 2 29 1 30 22 31 23 32 24 33 25 34
REMARK SMILES IDX 26 36 27 37 28 38 92 39 29 40 91 41 30 42 31 43 32 44 85 45
REMARK SMILES IDX 33 46 90 47 84 48 86 49 34 50 89 51 83 52 82 53 35 55 69 56
REMARK SMILES IDX 48 57 68 58 49 59 52 60 67 61 87 62 50 63 51 64 66 66 88 67
REMARK SMILES IDX 53 68 36 69 37 70 46 71 38 72 39 73 45 74 47 75 40 76 41 77
REMARK SMILES IDX 42 78 43 79 44 80 70 81 71 82 80 83 72 84 73 85 79 86 81 87
REMARK SMILES IDX 74 88 75 89 76 90 77 91 78 92 54 93 55 94 64 95 56 96 57 97
REMARK SMILES IDX 63 98 65 99 58 100 59 101 60 102 61 103 62 104
REMARK H PARENT 20 5 8 15 24 35 86 54 52 65
REMARK Flexibility Score: inf
ROOT
ATOM      1  C   UNL A   1      34.753  24.163  24.445  1.00  0.00     0.117 C 
ENDROOT
BRANCH   1   2
ATOM      2  N   UNL A   1      34.356  25.104  23.395  1.00  0.00    -0.356 N 
ATOM      3  C   UNL A   1      33.414  26.112  23.469  1.00  0.00     0.224 C 
ATOM      4  O   UNL A   1      33.169  26.798  22.485  1.00  0.00    -0.275 OA
ATOM      5  H   UNL A   1      34.818  25.007  22.531  1.00  0.00     0.163 HD
BRANCH   3   6
ATOM      6  C   UNL A   1      32.900  26.371  24.865  1.00  0.00     0.094 C 
ATOM      7  C   UNL A   1      31.423  26.347  25.367  1.00  0.00     0.094 C 
ATOM      8  C   UNL A   1      31.306  27.780  25.886  1.00  0.00     0.002 C 
ATOM      9  C   UNL A   1      31.227  28.748  24.707  1.00  0.00     0.005 C 
ATOM     10  C   UNL A   1      32.661  28.034  26.526  1.00  0.00     0.009 C 
ATOM     11  C   UNL A   1      33.368  27.831  25.219  1.00  0.00     0.002 C 
ATOM     12  C   UNL A   1      32.688  28.875  24.317  1.00  0.00     0.005 C 
BRANCH   7  13
ATOM     13  C   UNL A   1      30.279  25.750  24.556  1.00  0.00     0.229 C 
ATOM     14  N   UNL A   1      30.312  24.506  23.973  1.00  0.00    -0.317 N 
ATOM     15  H   UNL A   1      29.617  24.359  23.292  1.00  0.00     0.170 HD
ATOM     16  O   UNL A   1      29.287  26.440  24.288  1.00  0.00    -0.274 OA
BRANCH  14  17
ATOM     17  C   UNL A   1      31.148  23.425  24.172  1.00  0.00     0.110 A 
ATOM     18  C   UNL A   1      31.646  22.636  25.204  1.00  0.00     0.098 A 
ATOM     19  C   UNL A   1      31.963  21.314  24.642  1.00  0.00    -0.017 A 
ATOM     20  S   UNL A   1      31.740  22.889  22.648  1.00  0.00    -0.122 S 
ATOM     21  C   UNL A   1      32.030  21.337  23.263  1.00  0.00     0.011 A 
ATOM     22  C   UNL A   1      32.085  20.008  25.391  1.00  0.00     0.038 C 
ATOM     23  C   UNL A   1      32.331  20.168  22.377  1.00  0.00     0.047 C 
ATOM     24  C   UNL A   1      32.756  18.914  24.551  1.00  0.00     0.005 C 
ATOM     25  C   UNL A   1      32.175  18.841  23.136  1.00  0.00     0.006 C 
BRANCH  18  26
ATOM     26  C   UNL A   1      31.662  22.898  26.663  1.00  0.00     0.341 C 
ATOM     27  O   UNL A   1      30.646  22.870  27.340  1.00  0.00    -0.246 OA
BRANCH  26  28
ATOM     28  O   UNL A   1      32.871  23.298  27.176  1.00  0.00    -0.462 OA
BRANCH  28  29
ATOM     29  C   UNL A   1      33.502  22.257  27.947  1.00  0.00     0.230 C 
ATOM     30  C   UNL A   1      34.701  21.696  27.205  1.00  0.00     0.049 C 
ENDBRANCH  28  29
ENDBRANCH  26  28
ENDBRANCH  18  26
ENDBRANCH  14  17
ENDBRANCH   7  13
ENDBRANCH   3   6
ENDBRANCH   1   2
BRANCH   1  31
ATOM     31  C   UNL A   1      36.171  23.677  24.258  1.00  0.00     0.042 C 
BRANCH  31  32
ATOM     32  C   UNL A   1      37.034  24.002  25.455  1.00  0.00     0.118 C 
BRANCH  32  33
ATOM     33  N   UNL A   1      38.109  23.028  25.629  1.00  0.00    -0.352 N 
ATOM     34  C   UNL A   1      39.351  23.212  26.174  1.00  0.00     0.251 C 
ATOM     35  H   UNL A   1      37.912  22.118  25.311  1.00  0.00     0.163 HD
ATOM     36  O   UNL A   1      40.227  22.369  26.017  1.00  0.00    -0.269 OA
BRANCH  34  37
ATOM     37  C   UNL A   1      39.603  24.442  26.939  1.00  0.00     0.039 A 
ATOM     38  C   UNL A   1      39.116  24.553  28.240  1.00  0.00     0.014 A 
ATOM     39  C   UNL A   1      40.367  25.466  26.368  1.00  0.00     0.014 A 
ATOM     40  C   UNL A   1      39.444  25.679  28.989  1.00  0.00     0.010 A 
ATOM     41  C   UNL A   1      40.786  26.525  27.152  1.00  0.00     0.010 A 
ATOM     42  C   UNL A   1      40.308  26.655  28.461  1.00  0.00    -0.014 A 
BRANCH  42  43
ATOM     43  C   UNL A   1      40.706  27.840  29.252  1.00  0.00     0.031 A 
ATOM     44  C   UNL A   1      42.033  27.845  29.959  1.00  0.00     0.074 A 
ATOM     45  C   UNL A   1      39.849  28.870  29.377  1.00  0.00     0.049 A 
ATOM     46  N   UNL A   1      42.540  28.755  30.748  1.00  0.00    -0.248 NA
ATOM     47  C   UNL A   1      42.888  26.658  29.785  1.00  0.00     0.031 C 
ATOM     48  C   UNL A   1      38.513  28.939  28.779  1.00  0.00     0.029 A 
ATOM     49  N   UNL A   1      39.969  30.054  30.056  1.00  0.00    -0.354 N 
ATOM     50  C   UNL A   1      43.763  28.247  31.169  1.00  0.00     0.074 A 
ATOM     51  C   UNL A   1      43.891  26.921  30.609  1.00  0.00     0.031 C 
ATOM     52  C   UNL A   1      37.953  30.118  29.090  1.00  0.00     0.029 A 
ATOM     53  C   UNL A   1      38.866  30.867  29.945  1.00  0.00     0.049 A 
ATOM     54  H   UNL A   1      40.770  30.299  30.573  1.00  0.00     0.167 HD
ATOM     55  C   UNL A   1      44.707  28.846  31.931  1.00  0.00     0.037 A 
ATOM     56  C   UNL A   1      38.622  32.078  30.482  1.00  0.00     0.037 A 
ATOM     57  C   UNL A   1      44.573  30.174  32.464  1.00  0.00     0.049 A 
ATOM     58  C   UNL A   1      39.684  32.719  31.333  1.00  0.00     0.074 A 
ATOM     59  C   UNL A   1      45.489  30.901  33.203  1.00  0.00     0.029 A 
ATOM     60  N   UNL A   1      43.449  30.976  32.319  1.00  0.00    -0.354 N 
ATOM     61  N   UNL A   1      40.866  32.256  31.665  1.00  0.00    -0.248 NA
ATOM     62  C   UNL A   1      39.384  34.050  31.876  1.00  0.00     0.031 C 
ATOM     63  C   UNL A   1      44.898  32.120  33.550  1.00  0.00     0.029 A 
ATOM     64  C   UNL A   1      43.639  32.181  32.975  1.00  0.00     0.049 A 
ATOM     65  H   UNL A   1      42.637  30.725  31.822  1.00  0.00     0.167 HD
ATOM     66  C   UNL A   1      41.464  33.251  32.431  1.00  0.00     0.074 A 
ATOM     67  C   UNL A   1      40.516  34.345  32.499  1.00  0.00     0.031 C 
ATOM     68  C   UNL A   1      42.683  33.260  33.023  1.00  0.00     0.037 A 
BRANCH  55  69
ATOM     69  C   UNL A   1      45.964  28.072  32.223  1.00  0.00     0.058 A 
ATOM     70  C   UNL A   1      46.078  27.248  33.355  1.00  0.00     0.135 A 
ATOM     71  C   UNL A   1      47.058  28.129  31.344  1.00  0.00     0.135 A 
ATOM     72  F   UNL A   1      45.072  27.170  34.240  1.00  0.00    -0.206 F 
ATOM     73  C   UNL A   1      47.241  26.532  33.620  1.00  0.00     0.059 A 
ATOM     74  C   UNL A   1      48.218  27.395  31.572  1.00  0.00     0.059 A 
ATOM     75  F   UNL A   1      47.006  28.903  30.249  1.00  0.00    -0.206 F 
ATOM     76  C   UNL A   1      48.305  26.610  32.721  1.00  0.00     0.060 A 
BRANCH  76  77
ATOM     77  S   UNL A   1      49.799  25.660  33.074  1.00  0.00     0.124 S 
ATOM     78  O   UNL A   1      49.927  24.859  31.861  1.00  0.00    -0.237 OA
ATOM     79  O   UNL A   1      50.799  26.708  33.249  1.00  0.00    -0.237 OA
ATOM     80  O   UNL A   1      49.454  24.918  34.282  1.00  0.00    -0.744 OA
ENDBRANCH  76  77
ENDBRANCH  55  69
BRANCH  56  81
ATOM     81  C   UNL A   1      37.332  32.765  30.209  1.00  0.00     0.058 A 
ATOM     82  C   UNL A   1      37.198  33.652  29.131  1.00  0.00     0.135 A 
ATOM     83  C   UNL A   1      36.202  32.540  31.012  1.00  0.00     0.135 A 
ATOM     84  F   UNL A   1      38.249  33.901  28.335  1.00  0.00    -0.206 F 
ATOM     85  C   UNL A   1      36.000  34.308  28.870  1.00  0.00     0.059 A 
ATOM     86  C   UNL A   1      34.985  33.162  30.754  1.00  0.00     0.059 A 
ATOM     87  F   UNL A   1      36.269  31.685  32.045  1.00  0.00    -0.206 F 
ATOM     88  C   UNL A   1      34.897  34.054  29.687  1.00  0.00     0.060 A 
BRANCH  88  89
ATOM     89  S   UNL A   1      33.337  34.881  29.313  1.00  0.00     0.124 S 
ATOM     90  O   UNL A   1      32.702  34.918  30.625  1.00  0.00    -0.237 OA
ATOM     91  O   UNL A   1      33.789  36.165  28.785  1.00  0.00    -0.237 OA
ATOM     92  O   UNL A   1      32.713  33.994  28.334  1.00  0.00    -0.744 OA
ENDBRANCH  88  89
ENDBRANCH  56  81
BRANCH  68  93
ATOM     93  C   UNL A   1      43.082  34.506  33.764  1.00  0.00     0.058 A 
ATOM     94  C   UNL A   1      42.977  34.604  35.160  1.00  0.00     0.135 A 
ATOM     95  C   UNL A   1      43.629  35.598  33.069  1.00  0.00     0.135 A 
ATOM     96  F   UNL A   1      42.455  33.592  35.871  1.00  0.00    -0.206 F 
ATOM     97  C   UNL A   1      43.376  35.750  35.838  1.00  0.00     0.059 A 
ATOM     98  C   UNL A   1      44.065  36.740  33.730  1.00  0.00     0.059 A 
ATOM     99  F   UNL A   1      43.763  35.551  31.733  1.00  0.00    -0.206 F 
ATOM    100  C   UNL A   1      43.922  36.813  35.114  1.00  0.00     0.060 A 
BRANCH 100 101
ATOM    101  S   UNL A   1      44.467  38.280  36.012  1.00  0.00     0.124 S 
ATOM    102  O   UNL A   1      44.152  39.340  35.061  1.00  0.00    -0.237 OA
ATOM    103  O   UNL A   1      43.636  38.237  37.212  1.00  0.00    -0.237 OA
ATOM    104  O   UNL A   1      45.890  38.036  36.233  1.00  0.00    -0.744 OA
ENDBRANCH 100 101
ENDBRANCH  68  93
ENDBRANCH  42  43
ENDBRANCH  34  37
ENDBRANCH  32  33
ENDBRANCH  31  32
ENDBRANCH   1  31
TORSDOF 18
ENDMDL
