MODEL 1
REMARK VINA RESULT:     -10.0      0.000      0.000
REMARK SMILES CC(C)OCCS(=O)(=O)N1CCC[C@H](C(=O)OCCOC(=O)c2ccc(-c3c4nc(c(-c5c(F)cc(S(=O)(=O)[O-])cc5F)c5ccc([nH]5)c(-c5c(F)cc(S(=O)(=O)[O-])cc5F)c5nc(c(-c6c(F)cc(S(=O)(=O)[O-])cc6F)c6ccc3[nH]6)C=C5)C=C4)cc2)C1
REMARK SMILES IDX 18 1 17 2 15 3 16 4 14 5 10 6 11 7 89 8 12 9 13 10 7 11 8 12
REMARK SMILES IDX 9 13 6 14 5 15 4 16 2 17 1 18 3 19 19 20 20 21 21 22 22 23
REMARK SMILES IDX 23 24 24 25 88 26 25 27 87 28 26 29 27 30 28 31 81 32 29 33
REMARK SMILES IDX 86 34 80 35 82 36 30 37 85 38 79 39 78 40 31 42 65 43 44 44
REMARK SMILES IDX 64 45 45 46 48 47 63 48 83 49 46 50 47 51 62 53 84 54 49 55
REMARK SMILES IDX 32 56 33 57 42 58 34 59 35 60 41 61 43 62 36 63 37 64 38 65
REMARK SMILES IDX 39 66 40 67 66 68 67 69 76 70 68 71 69 72 75 73 77 74 70 75
REMARK SMILES IDX 71 76 72 77 73 78 74 79 50 80 51 81 60 82 52 83 53 84 59 85
REMARK SMILES IDX 61 86 54 87 55 88 56 89 57 90 58 91
REMARK H PARENT 82 41 48 52
REMARK Flexibility Score: inf
ROOT
ATOM      1  C   UNL A   1      33.346  32.189  27.537  1.00  0.00     0.274 C 
ENDROOT
BRANCH   1   2
ATOM      2  O   UNL A   1      32.116  31.446  27.413  1.00  0.00    -0.462 OA
BRANCH   2   3
ATOM      3  C   UNL A   1      31.901  30.780  26.248  1.00  0.00     0.310 C 
ATOM      4  O   UNL A   1      31.062  31.106  25.416  1.00  0.00    -0.252 OA
BRANCH   3   5
ATOM      5  C   UNL A   1      32.810  29.572  26.051  1.00  0.00     0.114 C 
ATOM      6  N   UNL A   1      31.167  28.023  24.987  1.00  0.00    -0.201 NA
ATOM      7  C   UNL A   1      31.339  27.040  26.111  1.00  0.00     0.102 C 
ATOM      8  C   UNL A   1      32.419  28.809  24.779  1.00  0.00     0.117 C 
ATOM      9  C   UNL A   1      31.709  27.747  27.411  1.00  0.00     0.018 C 
ATOM     10  C   UNL A   1      32.936  28.636  27.251  1.00  0.00     0.018 C 
BRANCH   6  11
ATOM     11  S   UNL A   1      30.478  27.278  23.612  1.00  0.00     0.216 S 
ATOM     12  O   UNL A   1      29.739  26.122  24.081  1.00  0.00    -0.212 OA
ATOM     13  O   UNL A   1      31.573  27.091  22.680  1.00  0.00    -0.212 OA
BRANCH  11  14
ATOM     14  C   UNL A   1      29.330  28.431  22.851  1.00  0.00     0.182 C 
BRANCH  14  15
ATOM     15  C   UNL A   1      29.953  29.571  22.064  1.00  0.00     0.178 C 
BRANCH  15  16
ATOM     16  O   UNL A   1      28.950  30.237  21.298  1.00  0.00    -0.378 OA
BRANCH  16  17
ATOM     17  C   UNL A   1      28.662  31.601  21.599  1.00  0.00     0.112 C 
ATOM     18  C   UNL A   1      27.899  32.297  20.482  1.00  0.00     0.038 C 
ATOM     19  C   UNL A   1      27.950  31.798  22.925  1.00  0.00     0.038 C 
ENDBRANCH  16  17
ENDBRANCH  15  16
ENDBRANCH  14  15
ENDBRANCH  11  14
ENDBRANCH   6  11
ENDBRANCH   3   5
ENDBRANCH   2   3
ENDBRANCH   1   2
BRANCH   1  20
ATOM     20  C   UNL A   1      33.100  33.698  27.549  1.00  0.00     0.275 C 
BRANCH  20  21
ATOM     21  O   UNL A   1      32.560  34.119  28.812  1.00  0.00    -0.458 OA
BRANCH  21  22
ATOM     22  C   UNL A   1      33.335  35.001  29.485  1.00  0.00     0.338 C 
ATOM     23  O   UNL A   1      33.072  36.154  29.773  1.00  0.00    -0.246 OA
BRANCH  22  24
ATOM     24  C   UNL A   1      34.521  34.302  29.985  1.00  0.00     0.060 A 
ATOM     25  C   UNL A   1      34.360  33.439  31.069  1.00  0.00     0.016 A 
ATOM     26  C   UNL A   1      35.783  34.559  29.453  1.00  0.00     0.016 A 
ATOM     27  C   UNL A   1      35.463  32.844  31.659  1.00  0.00     0.010 A 
ATOM     28  C   UNL A   1      36.894  33.952  30.039  1.00  0.00     0.010 A 
ATOM     29  C   UNL A   1      36.737  33.112  31.155  1.00  0.00    -0.014 A 
BRANCH  29  30
ATOM     30  C   UNL A   1      37.910  32.566  31.864  1.00  0.00     0.031 A 
ATOM     31  C   UNL A   1      38.648  31.409  31.262  1.00  0.00     0.074 A 
ATOM     32  C   UNL A   1      38.313  33.133  33.014  1.00  0.00     0.049 A 
ATOM     33  N   UNL A   1      39.624  30.704  31.764  1.00  0.00    -0.248 NA
ATOM     34  C   UNL A   1      38.228  30.986  29.915  1.00  0.00     0.031 C 
ATOM     35  C   UNL A   1      37.693  34.303  33.642  1.00  0.00     0.029 A 
ATOM     36  N   UNL A   1      39.331  32.797  33.865  1.00  0.00    -0.354 N 
ATOM     37  C   UNL A   1      39.912  29.731  30.815  1.00  0.00     0.074 A 
ATOM     38  C   UNL A   1      39.007  29.934  29.706  1.00  0.00     0.031 C 
ATOM     39  C   UNL A   1      38.334  34.574  34.789  1.00  0.00     0.029 A 
ATOM     40  C   UNL A   1      39.371  33.569  35.002  1.00  0.00     0.049 A 
ATOM     41  H   UNL A   1      39.973  32.073  33.681  1.00  0.00     0.167 HD
ATOM     42  C   UNL A   1      40.848  28.756  30.878  1.00  0.00     0.037 A 
ATOM     43  C   UNL A   1      40.128  33.444  36.107  1.00  0.00     0.037 A 
ATOM     44  C   UNL A   1      41.754  28.593  31.985  1.00  0.00     0.049 A 
ATOM     45  C   UNL A   1      41.133  32.326  36.167  1.00  0.00     0.074 A 
ATOM     46  C   UNL A   1      42.759  27.656  32.143  1.00  0.00     0.029 A 
ATOM     47  N   UNL A   1      41.762  29.388  33.123  1.00  0.00    -0.354 N 
ATOM     48  N   UNL A   1      41.397  31.406  35.268  1.00  0.00    -0.248 NA
ATOM     49  C   UNL A   1      41.941  32.223  37.388  1.00  0.00     0.031 C 
ATOM     50  C   UNL A   1      43.344  27.857  33.398  1.00  0.00     0.029 A 
ATOM     51  C   UNL A   1      42.738  28.949  33.999  1.00  0.00     0.049 A 
ATOM     52  H   UNL A   1      41.161  30.151  33.283  1.00  0.00     0.167 HD
ATOM     53  C   UNL A   1      42.413  30.628  35.807  1.00  0.00     0.074 A 
ATOM     54  C   UNL A   1      42.728  31.194  37.104  1.00  0.00     0.031 C 
ATOM     55  C   UNL A   1      43.032  29.541  35.281  1.00  0.00     0.037 A 
BRANCH  42  56
ATOM     56  C   UNL A   1      40.913  27.770  29.746  1.00  0.00     0.058 A 
ATOM     57  C   UNL A   1      39.921  26.799  29.545  1.00  0.00     0.135 A 
ATOM     58  C   UNL A   1      41.968  27.832  28.820  1.00  0.00     0.135 A 
ATOM     59  F   UNL A   1      38.904  26.681  30.414  1.00  0.00    -0.206 F 
ATOM     60  C   UNL A   1      39.978  25.916  28.471  1.00  0.00     0.059 A 
ATOM     61  C   UNL A   1      42.032  26.975  27.727  1.00  0.00     0.059 A 
ATOM     62  F   UNL A   1      42.948  28.735  28.973  1.00  0.00    -0.206 F 
ATOM     63  C   UNL A   1      41.035  26.014  27.565  1.00  0.00     0.060 A 
BRANCH  63  64
ATOM     64  S   UNL A   1      41.079  24.879  26.161  1.00  0.00     0.124 S 
ATOM     65  O   UNL A   1      39.777  24.229  26.270  1.00  0.00    -0.237 OA
ATOM     66  O   UNL A   1      41.241  25.788  25.030  1.00  0.00    -0.237 OA
ATOM     67  O   UNL A   1      42.231  24.029  26.447  1.00  0.00    -0.744 OA
ENDBRANCH  63  64
ENDBRANCH  42  56
BRANCH  43  68
ATOM     68  C   UNL A   1      39.929  34.368  37.253  1.00  0.00     0.058 A 
ATOM     69  C   UNL A   1      40.607  35.593  37.328  1.00  0.00     0.135 A 
ATOM     70  C   UNL A   1      39.047  34.045  38.297  1.00  0.00     0.135 A 
ATOM     71  F   UNL A   1      41.465  35.946  36.358  1.00  0.00    -0.206 F 
ATOM     72  C   UNL A   1      40.435  36.457  38.406  1.00  0.00     0.059 A 
ATOM     73  C   UNL A   1      38.837  34.903  39.371  1.00  0.00     0.059 A 
ATOM     74  F   UNL A   1      38.361  32.892  38.266  1.00  0.00    -0.206 F 
ATOM     75  C   UNL A   1      39.547  36.101  39.424  1.00  0.00     0.060 A 
BRANCH  75  76
ATOM     76  S   UNL A   1      39.304  37.241  40.803  1.00  0.00     0.124 S 
ATOM     77  O   UNL A   1      38.367  38.199  40.228  1.00  0.00    -0.237 OA
ATOM     78  O   UNL A   1      38.766  36.364  41.838  1.00  0.00    -0.237 OA
ATOM     79  O   UNL A   1      40.649  37.748  41.059  1.00  0.00    -0.744 OA
ENDBRANCH  75  76
ENDBRANCH  43  68
BRANCH  55  80
ATOM     80  C   UNL A   1      44.130  28.918  36.094  1.00  0.00     0.058 A 
ATOM     81  C   UNL A   1      45.441  29.416  36.065  1.00  0.00     0.135 A 
ATOM     82  C   UNL A   1      43.852  27.842  36.953  1.00  0.00     0.135 A 
ATOM     83  F   UNL A   1      45.758  30.439  35.255  1.00  0.00    -0.206 F 
ATOM     84  C   UNL A   1      46.447  28.855  36.844  1.00  0.00     0.059 A 
ATOM     85  C   UNL A   1      44.836  27.283  37.760  1.00  0.00     0.059 A 
ATOM     86  F   UNL A   1      42.611  27.337  37.025  1.00  0.00    -0.206 F 
ATOM     87  C   UNL A   1      46.134  27.789  37.690  1.00  0.00     0.060 A 
BRANCH  87  88
ATOM     88  S   UNL A   1      47.439  27.089  38.721  1.00  0.00     0.124 S 
ATOM     89  O   UNL A   1      47.630  25.781  38.105  1.00  0.00    -0.237 OA
ATOM     90  O   UNL A   1      48.529  28.043  38.536  1.00  0.00    -0.237 OA
ATOM     91  O   UNL A   1      46.847  27.076  40.056  1.00  0.00    -0.744 OA
ENDBRANCH  87  88
ENDBRANCH  55  80
ENDBRANCH  29  30
ENDBRANCH  22  24
ENDBRANCH  21  22
ENDBRANCH  20  21
ENDBRANCH   1  20
TORSDOF 19
ENDMDL
MODEL 2
REMARK VINA RESULT:     -10.0      4.155     10.683
REMARK SMILES CC(C)OCCS(=O)(=O)N1CCC[C@H](C(=O)OCCOC(=O)c2ccc(-c3c4nc(c(-c5c(F)cc(S(=O)(=O)[O-])cc5F)c5ccc([nH]5)c(-c5c(F)cc(S(=O)(=O)[O-])cc5F)c5nc(c(-c6c(F)cc(S(=O)(=O)[O-])cc6F)c6ccc3[nH]6)C=C5)C=C4)cc2)C1
REMARK SMILES IDX 18 1 17 2 15 3 16 4 14 5 10 6 11 7 89 8 12 9 13 10 7 11 8 12
REMARK SMILES IDX 9 13 6 14 5 15 4 16 2 17 1 18 3 19 19 20 20 21 21 22 22 23
REMARK SMILES IDX 23 24 24 25 88 26 25 27 87 28 26 29 27 30 28 31 81 32 29 33
REMARK SMILES IDX 86 34 80 35 82 36 30 37 85 38 79 39 78 40 31 42 65 43 44 44
REMARK SMILES IDX 64 45 45 46 48 47 63 48 83 49 46 50 47 51 62 53 84 54 49 55
REMARK SMILES IDX 32 56 33 57 42 58 34 59 35 60 41 61 43 62 36 63 37 64 38 65
REMARK SMILES IDX 39 66 40 67 66 68 67 69 76 70 68 71 69 72 75 73 77 74 70 75
REMARK SMILES IDX 71 76 72 77 73 78 74 79 50 80 51 81 60 82 52 83 53 84 59 85
REMARK SMILES IDX 61 86 54 87 55 88 56 89 57 90 58 91
REMARK H PARENT 82 41 48 52
REMARK Flexibility Score: inf
ROOT
ATOM      1  C   UNL A   1      44.106  23.739  26.880  1.00  0.00     0.274 C 
ENDROOT
BRANCH   1   2
ATOM      2  O   UNL A   1      44.772  22.468  26.737  1.00  0.00    -0.462 OA
BRANCH   2   3
ATOM      3  C   UNL A   1      45.738  22.370  25.786  1.00  0.00     0.310 C 
ATOM      4  O   UNL A   1      46.791  22.995  25.812  1.00  0.00    -0.252 OA
BRANCH   3   5
ATOM      5  C   UNL A   1      45.401  21.395  24.663  1.00  0.00     0.114 C 
ATOM      6  N   UNL A   1      44.005  19.781  25.959  1.00  0.00    -0.201 NA
ATOM      7  C   UNL A   1      44.963  18.668  25.637  1.00  0.00     0.102 C 
ATOM      8  C   UNL A   1      44.001  20.803  24.869  1.00  0.00     0.117 C 
ATOM      9  C   UNL A   1      46.380  19.198  25.441  1.00  0.00     0.018 C 
ATOM     10  C   UNL A   1      46.438  20.307  24.398  1.00  0.00     0.018 C 
BRANCH   6  11
ATOM     11  S   UNL A   1      42.490  19.170  26.458  1.00  0.00     0.216 S 
ATOM     12  O   UNL A   1      42.582  18.919  27.883  1.00  0.00    -0.212 OA
ATOM     13  O   UNL A   1      42.199  18.068  25.561  1.00  0.00    -0.212 OA
BRANCH  11  14
ATOM     14  C   UNL A   1      41.242  20.429  26.170  1.00  0.00     0.182 C 
BRANCH  14  15
ATOM     15  C   UNL A   1      39.820  19.928  25.985  1.00  0.00     0.178 C 
BRANCH  15  16
ATOM     16  O   UNL A   1      38.949  21.027  25.724  1.00  0.00    -0.378 OA
BRANCH  16  17
ATOM     17  C   UNL A   1      37.620  20.749  25.286  1.00  0.00     0.112 C 
ATOM     18  C   UNL A   1      37.107  21.778  24.289  1.00  0.00     0.038 C 
ATOM     19  C   UNL A   1      37.437  19.346  24.736  1.00  0.00     0.038 C 
ENDBRANCH  16  17
ENDBRANCH  15  16
ENDBRANCH  14  15
ENDBRANCH  11  14
ENDBRANCH   6  11
ENDBRANCH   3   5
ENDBRANCH   2   3
ENDBRANCH   1   2
BRANCH   1  20
ATOM     20  C   UNL A   1      42.590  23.577  26.997  1.00  0.00     0.275 C 
BRANCH  20  21
ATOM     21  O   UNL A   1      41.907  24.637  26.309  1.00  0.00    -0.458 OA
BRANCH  21  22
ATOM     22  C   UNL A   1      40.585  24.722  26.584  1.00  0.00     0.338 C 
ATOM     23  O   UNL A   1      39.701  23.960  26.238  1.00  0.00    -0.246 OA
BRANCH  22  24
ATOM     24  C   UNL A   1      40.370  25.816  27.534  1.00  0.00     0.060 A 
ATOM     25  C   UNL A   1      41.169  26.953  27.409  1.00  0.00     0.016 A 
ATOM     26  C   UNL A   1      39.462  25.689  28.582  1.00  0.00     0.016 A 
ATOM     27  C   UNL A   1      41.094  27.967  28.349  1.00  0.00     0.010 A 
ATOM     28  C   UNL A   1      39.377  26.715  29.525  1.00  0.00     0.010 A 
ATOM     29  C   UNL A   1      40.208  27.844  29.421  1.00  0.00    -0.014 A 
BRANCH  29  30
ATOM     30  C   UNL A   1      40.221  28.875  30.476  1.00  0.00     0.031 A 
ATOM     31  C   UNL A   1      41.191  28.740  31.610  1.00  0.00     0.074 A 
ATOM     32  C   UNL A   1      39.388  29.926  30.386  1.00  0.00     0.049 A 
ATOM     33  N   UNL A   1      41.295  29.458  32.695  1.00  0.00    -0.248 NA
ATOM     34  C   UNL A   1      42.175  27.647  31.512  1.00  0.00     0.031 C 
ATOM     35  C   UNL A   1      38.453  30.172  29.285  1.00  0.00     0.029 A 
ATOM     36  N   UNL A   1      39.186  30.978  31.238  1.00  0.00    -0.354 N 
ATOM     37  C   UNL A   1      42.328  28.885  33.426  1.00  0.00     0.074 A 
ATOM     38  C   UNL A   1      42.819  27.758  32.666  1.00  0.00     0.031 C 
ATOM     39  C   UNL A   1      37.764  31.294  29.541  1.00  0.00     0.029 A 
ATOM     40  C   UNL A   1      38.170  31.814  30.842  1.00  0.00     0.049 A 
ATOM     41  H   UNL A   1      39.717  31.122  32.055  1.00  0.00     0.167 HD
ATOM     42  C   UNL A   1      42.810  29.271  34.630  1.00  0.00     0.037 A 
ATOM     43  C   UNL A   1      37.603  32.852  31.485  1.00  0.00     0.037 A 
ATOM     44  C   UNL A   1      42.318  30.414  35.355  1.00  0.00     0.049 A 
ATOM     45  C   UNL A   1      38.132  33.235  32.840  1.00  0.00     0.074 A 
ATOM     46  C   UNL A   1      42.750  30.913  36.570  1.00  0.00     0.029 A 
ATOM     47  N   UNL A   1      41.283  31.235  34.928  1.00  0.00    -0.354 N 
ATOM     48  N   UNL A   1      39.106  32.686  33.529  1.00  0.00    -0.248 NA
ATOM     49  C   UNL A   1      37.488  34.372  33.508  1.00  0.00     0.031 C 
ATOM     50  C   UNL A   1      41.944  32.008  36.900  1.00  0.00     0.029 A 
ATOM     51  C   UNL A   1      41.046  32.223  35.867  1.00  0.00     0.049 A 
ATOM     52  H   UNL A   1      40.790  31.129  34.082  1.00  0.00     0.167 HD
ATOM     53  C   UNL A   1      39.203  33.423  34.702  1.00  0.00     0.074 A 
ATOM     54  C   UNL A   1      38.200  34.466  34.623  1.00  0.00     0.031 C 
ATOM     55  C   UNL A   1      40.043  33.253  35.754  1.00  0.00     0.037 A 
BRANCH  42  56
ATOM     56  C   UNL A   1      43.890  28.436  35.256  1.00  0.00     0.058 A 
ATOM     57  C   UNL A   1      45.251  28.732  35.093  1.00  0.00     0.135 A 
ATOM     58  C   UNL A   1      43.550  27.345  36.073  1.00  0.00     0.135 A 
ATOM     59  F   UNL A   1      45.633  29.748  34.303  1.00  0.00    -0.206 F 
ATOM     60  C   UNL A   1      46.239  27.968  35.709  1.00  0.00     0.059 A 
ATOM     61  C   UNL A   1      44.519  26.583  36.717  1.00  0.00     0.059 A 
ATOM     62  F   UNL A   1      42.262  27.012  36.253  1.00  0.00    -0.206 F 
ATOM     63  C   UNL A   1      45.862  26.898  36.522  1.00  0.00     0.060 A 
BRANCH  63  64
ATOM     64  S   UNL A   1      47.154  25.935  37.337  1.00  0.00     0.124 S 
ATOM     65  O   UNL A   1      47.382  24.871  36.365  1.00  0.00    -0.237 OA
ATOM     66  O   UNL A   1      48.231  26.911  37.474  1.00  0.00    -0.237 OA
ATOM     67  O   UNL A   1      46.529  25.517  38.589  1.00  0.00    -0.744 OA
ENDBRANCH  63  64
ENDBRANCH  42  56
BRANCH  43  68
ATOM     68  C   UNL A   1      36.448  33.562  30.876  1.00  0.00     0.058 A 
ATOM     69  C   UNL A   1      36.599  34.344  29.722  1.00  0.00     0.135 A 
ATOM     70  C   UNL A   1      35.163  33.465  31.436  1.00  0.00     0.135 A 
ATOM     71  F   UNL A   1      37.806  34.472  29.151  1.00  0.00    -0.206 F 
ATOM     72  C   UNL A   1      35.523  35.022  29.155  1.00  0.00     0.059 A 
ATOM     73  C   UNL A   1      34.068  34.111  30.873  1.00  0.00     0.059 A 
ATOM     74  F   UNL A   1      34.961  32.717  32.532  1.00  0.00    -0.206 F 
ATOM     75  C   UNL A   1      34.261  34.899  29.740  1.00  0.00     0.060 A 
BRANCH  75  76
ATOM     76  S   UNL A   1      32.864  35.756  28.981  1.00  0.00     0.124 S 
ATOM     77  O   UNL A   1      33.526  36.897  28.359  1.00  0.00    -0.237 OA
ATOM     78  O   UNL A   1      32.341  34.746  28.068  1.00  0.00    -0.237 OA
ATOM     79  O   UNL A   1      32.004  36.068  30.119  1.00  0.00    -0.744 OA
ENDBRANCH  75  76
ENDBRANCH  43  68
BRANCH  55  80
ATOM     80  C   UNL A   1      39.934  34.237  36.883  1.00  0.00     0.058 A 
ATOM     81  C   UNL A   1      40.529  35.506  36.814  1.00  0.00     0.135 A 
ATOM     82  C   UNL A   1      39.179  33.924  38.025  1.00  0.00     0.135 A 
ATOM     83  F   UNL A   1      41.267  35.850  35.746  1.00  0.00    -0.206 F 
ATOM     84  C   UNL A   1      40.399  36.424  37.850  1.00  0.00     0.059 A 
ATOM     85  C   UNL A   1      39.012  34.837  39.060  1.00  0.00     0.059 A 
ATOM     86  F   UNL A   1      38.581  32.728  38.133  1.00  0.00    -0.206 F 
ATOM     87  C   UNL A   1      39.636  36.081  38.968  1.00  0.00     0.060 A 
BRANCH  87  88
ATOM     88  S   UNL A   1      39.445  37.293  40.292  1.00  0.00     0.124 S 
ATOM     89  O   UNL A   1      38.718  38.359  39.610  1.00  0.00    -0.237 OA
ATOM     90  O   UNL A   1      38.686  36.547  41.292  1.00  0.00    -0.237 OA
ATOM     91  O   UNL A   1      40.820  37.608  40.665  1.00  0.00    -0.744 OA
ENDBRANCH  87  88
ENDBRANCH  55  80
ENDBRANCH  29  30
ENDBRANCH  22  24
ENDBRANCH  21  22
ENDBRANCH  20  21
ENDBRANCH   1  20
TORSDOF 19
ENDMDL
MODEL 3
REMARK VINA RESULT:      -9.9      4.008     10.461
REMARK SMILES CC(C)OCCS(=O)(=O)N1CCC[C@H](C(=O)OCCOC(=O)c2ccc(-c3c4nc(c(-c5c(F)cc(S(=O)(=O)[O-])cc5F)c5ccc([nH]5)c(-c5c(F)cc(S(=O)(=O)[O-])cc5F)c5nc(c(-c6c(F)cc(S(=O)(=O)[O-])cc6F)c6ccc3[nH]6)C=C5)C=C4)cc2)C1
REMARK SMILES IDX 18 1 17 2 15 3 16 4 14 5 10 6 11 7 89 8 12 9 13 10 7 11 8 12
REMARK SMILES IDX 9 13 6 14 5 15 4 16 2 17 1 18 3 19 19 20 20 21 21 22 22 23
REMARK SMILES IDX 23 24 24 25 88 26 25 27 87 28 26 29 27 30 28 31 81 32 29 33
REMARK SMILES IDX 86 34 80 35 82 36 30 37 85 38 79 39 78 40 31 42 65 43 44 44
REMARK SMILES IDX 64 45 45 46 48 47 63 48 83 49 46 50 47 51 62 53 84 54 49 55
REMARK SMILES IDX 32 56 33 57 42 58 34 59 35 60 41 61 43 62 36 63 37 64 38 65
REMARK SMILES IDX 39 66 40 67 66 68 67 69 76 70 68 71 69 72 75 73 77 74 70 75
REMARK SMILES IDX 71 76 72 77 73 78 74 79 50 80 51 81 60 82 52 83 53 84 59 85
REMARK SMILES IDX 61 86 54 87 55 88 56 89 57 90 58 91
REMARK H PARENT 82 41 48 52
REMARK Flexibility Score: inf
ROOT
ATOM      1  C   UNL A   1      42.929  24.309  25.086  1.00  0.00     0.274 C 
ENDROOT
BRANCH   1   2
ATOM      2  O   UNL A   1      42.228  24.282  26.347  1.00  0.00    -0.462 OA
BRANCH   2   3
ATOM      3  C   UNL A   1      40.995  24.851  26.391  1.00  0.00     0.310 C 
ATOM      4  O   UNL A   1      40.670  25.837  25.741  1.00  0.00    -0.252 OA
BRANCH   3   5
ATOM      5  C   UNL A   1      40.024  24.145  27.332  1.00  0.00     0.114 C 
ATOM      6  N   UNL A   1      40.290  21.813  26.481  1.00  0.00    -0.201 NA
ATOM      7  C   UNL A   1      38.830  21.758  26.127  1.00  0.00     0.102 C 
ATOM      8  C   UNL A   1      40.515  22.725  27.642  1.00  0.00     0.117 C 
ATOM      9  C   UNL A   1      38.291  23.144  25.788  1.00  0.00     0.018 C 
ATOM     10  C   UNL A   1      38.560  24.151  26.898  1.00  0.00     0.018 C 
BRANCH   6  11
ATOM     11  S   UNL A   1      40.964  20.246  26.580  1.00  0.00     0.216 S 
ATOM     12  O   UNL A   1      40.299  19.435  25.579  1.00  0.00    -0.212 OA
ATOM     13  O   UNL A   1      40.870  19.869  27.977  1.00  0.00    -0.212 OA
BRANCH  11  14
ATOM     14  C   UNL A   1      42.711  20.348  26.177  1.00  0.00     0.182 C 
BRANCH  14  15
ATOM     15  C   UNL A   1      43.294  19.160  25.432  1.00  0.00     0.178 C 
BRANCH  15  16
ATOM     16  O   UNL A   1      44.042  19.614  24.305  1.00  0.00    -0.378 OA
BRANCH  16  17
ATOM     17  C   UNL A   1      45.466  19.614  24.393  1.00  0.00     0.112 C 
ATOM     18  C   UNL A   1      46.039  21.012  24.577  1.00  0.00     0.038 C 
ATOM     19  C   UNL A   1      46.014  18.677  25.453  1.00  0.00     0.038 C 
ENDBRANCH  16  17
ENDBRANCH  15  16
ENDBRANCH  14  15
ENDBRANCH  11  14
ENDBRANCH   6  11
ENDBRANCH   3   5
ENDBRANCH   2   3
ENDBRANCH   1   2
BRANCH   1  20
ATOM     20  C   UNL A   1      44.354  24.839  25.239  1.00  0.00     0.275 C 
BRANCH  20  21
ATOM     21  O   UNL A   1      44.459  25.708  26.377  1.00  0.00    -0.458 OA
BRANCH  21  22
ATOM     22  C   UNL A   1      43.996  26.962  26.168  1.00  0.00     0.338 C 
ATOM     23  O   UNL A   1      43.698  27.479  25.107  1.00  0.00    -0.246 OA
BRANCH  22  24
ATOM     24  C   UNL A   1      43.738  27.592  27.466  1.00  0.00     0.060 A 
ATOM     25  C   UNL A   1      43.091  26.833  28.441  1.00  0.00     0.016 A 
ATOM     26  C   UNL A   1      44.048  28.932  27.687  1.00  0.00     0.016 A 
ATOM     27  C   UNL A   1      42.715  27.412  29.642  1.00  0.00     0.010 A 
ATOM     28  C   UNL A   1      43.679  29.515  28.900  1.00  0.00     0.010 A 
ATOM     29  C   UNL A   1      42.993  28.761  29.869  1.00  0.00    -0.014 A 
BRANCH  29  30
ATOM     30  C   UNL A   1      42.485  29.394  31.101  1.00  0.00     0.031 A 
ATOM     31  C   UNL A   1      41.181  30.131  31.053  1.00  0.00     0.074 A 
ATOM     32  C   UNL A   1      43.180  29.272  32.244  1.00  0.00     0.049 A 
ATOM     33  N   UNL A   1      40.610  30.854  31.977  1.00  0.00    -0.248 NA
ATOM     34  C   UNL A   1      40.420  30.047  29.794  1.00  0.00     0.031 C 
ATOM     35  C   UNL A   1      44.428  28.519  32.399  1.00  0.00     0.029 A 
ATOM     36  N   UNL A   1      42.944  29.787  33.491  1.00  0.00    -0.354 N 
ATOM     37  C   UNL A   1      39.442  31.342  31.403  1.00  0.00     0.074 A 
ATOM     38  C   UNL A   1      39.386  30.836  30.049  1.00  0.00     0.031 C 
ATOM     39  C   UNL A   1      44.856  28.638  33.665  1.00  0.00     0.029 A 
ATOM     40  C   UNL A   1      43.945  29.515  34.393  1.00  0.00     0.049 A 
ATOM     41  H   UNL A   1      42.136  30.301  33.719  1.00  0.00     0.167 HD
ATOM     42  C   UNL A   1      38.510  32.146  31.964  1.00  0.00     0.037 A 
ATOM     43  C   UNL A   1      44.124  29.967  35.648  1.00  0.00     0.037 A 
ATOM     44  C   UNL A   1      38.580  32.615  33.324  1.00  0.00     0.049 A 
ATOM     45  C   UNL A   1      43.093  30.892  36.234  1.00  0.00     0.074 A 
ATOM     46  C   UNL A   1      37.678  33.413  34.005  1.00  0.00     0.029 A 
ATOM     47  N   UNL A   1      39.611  32.327  34.208  1.00  0.00    -0.354 N 
ATOM     48  N   UNL A   1      41.994  31.354  35.684  1.00  0.00    -0.248 NA
ATOM     49  C   UNL A   1      43.324  31.361  37.605  1.00  0.00     0.031 C 
ATOM     50  C   UNL A   1      38.189  33.645  35.287  1.00  0.00     0.029 A 
ATOM     51  C   UNL A   1      39.381  32.950  35.421  1.00  0.00     0.049 A 
ATOM     52  H   UNL A   1      40.391  31.762  34.001  1.00  0.00     0.167 HD
ATOM     53  C   UNL A   1      41.393  32.153  36.649  1.00  0.00     0.074 A 
ATOM     54  C   UNL A   1      42.243  32.098  37.822  1.00  0.00     0.031 C 
ATOM     55  C   UNL A   1      40.244  32.870  36.574  1.00  0.00     0.037 A 
BRANCH  42  56
ATOM     56  C   UNL A   1      37.366  32.602  31.106  1.00  0.00     0.058 A 
ATOM     57  C   UNL A   1      37.509  33.620  30.151  1.00  0.00     0.135 A 
ATOM     58  C   UNL A   1      36.114  31.974  31.211  1.00  0.00     0.135 A 
ATOM     59  F   UNL A   1      38.677  34.271  30.026  1.00  0.00    -0.206 F 
ATOM     60  C   UNL A   1      36.448  34.007  29.338  1.00  0.00     0.059 A 
ATOM     61  C   UNL A   1      35.046  32.328  30.393  1.00  0.00     0.059 A 
ATOM     62  F   UNL A   1      35.920  31.002  32.115  1.00  0.00    -0.206 F 
ATOM     63  C   UNL A   1      35.221  33.352  29.464  1.00  0.00     0.060 A 
BRANCH  63  64
ATOM     64  S   UNL A   1      33.862  33.847  28.382  1.00  0.00     0.124 S 
ATOM     65  O   UNL A   1      32.933  34.445  29.335  1.00  0.00    -0.237 OA
ATOM     66  O   UNL A   1      34.516  34.776  27.465  1.00  0.00    -0.237 OA
ATOM     67  O   UNL A   1      33.426  32.587  27.786  1.00  0.00    -0.744 OA
ENDBRANCH  63  64
ENDBRANCH  42  56
BRANCH  43  68
ATOM     68  C   UNL A   1      45.345  29.588  36.406  1.00  0.00     0.058 A 
ATOM     69  C   UNL A   1      45.363  28.464  37.244  1.00  0.00     0.135 A 
ATOM     70  C   UNL A   1      46.524  30.343  36.301  1.00  0.00     0.135 A 
ATOM     71  F   UNL A   1      44.260  27.712  37.382  1.00  0.00    -0.206 F 
ATOM     72  C   UNL A   1      46.499  28.113  37.968  1.00  0.00     0.059 A 
ATOM     73  C   UNL A   1      47.680  29.997  36.993  1.00  0.00     0.059 A 
ATOM     74  F   UNL A   1      46.565  31.420  35.500  1.00  0.00    -0.206 F 
ATOM     75  C   UNL A   1      47.654  28.888  37.835  1.00  0.00     0.060 A 
BRANCH  75  76
ATOM     76  S   UNL A   1      49.133  28.408  38.752  1.00  0.00     0.124 S 
ATOM     77  O   UNL A   1      50.140  28.398  37.696  1.00  0.00    -0.237 OA
ATOM     78  O   UNL A   1      49.250  29.479  39.734  1.00  0.00    -0.237 OA
ATOM     79  O   UNL A   1      48.779  27.101  39.298  1.00  0.00    -0.744 OA
ENDBRANCH  75  76
ENDBRANCH  43  68
BRANCH  55  80
ATOM     80  C   UNL A   1      39.826  33.623  37.804  1.00  0.00     0.058 A 
ATOM     81  C   UNL A   1      38.901  33.089  38.715  1.00  0.00     0.135 A 
ATOM     82  C   UNL A   1      40.398  34.870  38.100  1.00  0.00     0.135 A 
ATOM     83  F   UNL A   1      38.321  31.902  38.473  1.00  0.00    -0.206 F 
ATOM     84  C   UNL A   1      38.541  33.778  39.868  1.00  0.00     0.059 A 
ATOM     85  C   UNL A   1      40.073  35.564  39.260  1.00  0.00     0.059 A 
ATOM     86  F   UNL A   1      41.295  35.418  37.265  1.00  0.00    -0.206 F 
ATOM     87  C   UNL A   1      39.135  35.014  40.133  1.00  0.00     0.060 A 
BRANCH  87  88
ATOM     88  S   UNL A   1      38.685  35.883  41.649  1.00  0.00     0.124 S 
ATOM     89  O   UNL A   1      38.770  37.276  41.224  1.00  0.00    -0.237 OA
ATOM     90  O   UNL A   1      37.340  35.381  41.911  1.00  0.00    -0.237 OA
ATOM     91  O   UNL A   1      39.704  35.453  42.602  1.00  0.00    -0.744 OA
ENDBRANCH  87  88
ENDBRANCH  55  80
ENDBRANCH  29  30
ENDBRANCH  22  24
ENDBRANCH  21  22
ENDBRANCH  20  21
ENDBRANCH   1  20
TORSDOF 19
ENDMDL
