MODEL 1
REMARK VINA RESULT:      -9.8      0.000      0.000
REMARK SMILES O=C(CCC(=O)OCCOC(=O)c1ccc(-c2c3nc(c(-c4c(F)cc(S(=O)(=O)[O-])cc4F)c4ccc([nH]4)c(-c4c(F)cc(S(=O)(=O)[O-])cc4F)c4nc(c(-c5c(F)cc(S(=O)(=O)[O-])cc5F)c5ccc2[nH]5)C=C4)C=C3)cc1)Nc1nncs1
REMARK SMILES IDX 8 1 7 2 5 3 6 4 4 5 3 6 2 7 1 8 79 9 80 11 81 12 84 13 82 14
REMARK SMILES IDX 83 15 9 16 10 17 11 18 12 19 13 20 14 21 78 22 15 23 77 24
REMARK SMILES IDX 16 25 17 26 18 27 71 28 19 29 76 30 70 31 72 32 20 33 75 34
REMARK SMILES IDX 69 35 68 36 21 38 55 39 34 40 54 41 35 42 38 43 53 44 73 45
REMARK SMILES IDX 36 46 37 47 52 49 74 50 39 51 22 52 23 53 32 54 24 55 25 56
REMARK SMILES IDX 31 57 33 58 26 59 27 60 28 61 29 62 30 63 56 64 57 65 66 66
REMARK SMILES IDX 58 67 59 68 65 69 67 70 60 71 61 72 62 73 63 74 64 75 40 76
REMARK SMILES IDX 41 77 50 78 42 79 43 80 49 81 51 82 44 83 45 84 46 85 47 86
REMARK SMILES IDX 48 87
REMARK H PARENT 79 10 72 37 38 48
REMARK Flexibility Score: inf
ROOT
ATOM      1  C   UNL A   1      41.929  20.618  27.033  1.00  0.00     0.274 C 
ENDROOT
BRANCH   1   2
ATOM      2  O   UNL A   1      42.128  19.232  27.397  1.00  0.00    -0.462 OA
BRANCH   2   3
ATOM      3  C   UNL A   1      42.880  18.477  26.549  1.00  0.00     0.306 C 
ATOM      4  O   UNL A   1      43.197  17.313  26.755  1.00  0.00    -0.252 OA
BRANCH   3   5
ATOM      5  C   UNL A   1      43.360  19.263  25.346  1.00  0.00     0.132 C 
BRANCH   5   6
ATOM      6  C   UNL A   1      44.729  18.862  24.804  1.00  0.00     0.112 C 
BRANCH   6   7
ATOM      7  C   UNL A   1      45.723  20.000  24.936  1.00  0.00     0.226 C 
ATOM      8  O   UNL A   1      46.929  19.784  24.913  1.00  0.00    -0.275 OA
ATOM      9  N   UNL A   1      45.111  21.209  25.147  1.00  0.00    -0.301 N 
ATOM     10  H   UNL A   1      44.139  21.280  25.007  1.00  0.00     0.172 HD
BRANCH   9  11
ATOM     11  C   UNL A   1      45.802  22.316  25.545  1.00  0.00     0.212 A 
ATOM     12  N   UNL A   1      46.087  22.762  26.745  1.00  0.00    -0.120 NA
ATOM     13  S   UNL A   1      46.294  23.335  24.263  1.00  0.00    -0.083 S 
ATOM     14  N   UNL A   1      46.714  23.997  26.700  1.00  0.00    -0.145 NA
ATOM     15  C   UNL A   1      46.856  24.422  25.464  1.00  0.00     0.204 A 
ENDBRANCH   9  11
ENDBRANCH   6   7
ENDBRANCH   5   6
ENDBRANCH   3   5
ENDBRANCH   2   3
ENDBRANCH   1   2
BRANCH   1  16
ATOM     16  C   UNL A   1      40.454  21.022  27.117  1.00  0.00     0.275 C 
BRANCH  16  17
ATOM     17  O   UNL A   1      40.059  21.778  25.961  1.00  0.00    -0.458 OA
BRANCH  17  18
ATOM     18  C   UNL A   1      38.959  22.546  26.140  1.00  0.00     0.338 C 
ATOM     19  O   UNL A   1      37.800  22.182  26.024  1.00  0.00    -0.246 OA
BRANCH  18  20
ATOM     20  C   UNL A   1      39.356  23.867  26.657  1.00  0.00     0.060 A 
ATOM     21  C   UNL A   1      39.999  24.752  25.788  1.00  0.00     0.016 A 
ATOM     22  C   UNL A   1      39.153  24.206  27.996  1.00  0.00     0.016 A 
ATOM     23  C   UNL A   1      40.469  25.975  26.261  1.00  0.00     0.010 A 
ATOM     24  C   UNL A   1      39.624  25.435  28.469  1.00  0.00     0.010 A 
ATOM     25  C   UNL A   1      40.306  26.315  27.611  1.00  0.00    -0.014 A 
BRANCH  25  26
ATOM     26  C   UNL A   1      40.948  27.544  28.139  1.00  0.00     0.031 A 
ATOM     27  C   UNL A   1      42.448  27.656  28.115  1.00  0.00     0.074 A 
ATOM     28  C   UNL A   1      40.197  28.560  28.604  1.00  0.00     0.049 A 
ATOM     29  N   UNL A   1      43.216  28.610  28.575  1.00  0.00    -0.248 NA
ATOM     30  C   UNL A   1      43.182  26.544  27.489  1.00  0.00     0.031 C 
ATOM     31  C   UNL A   1      38.734  28.578  28.651  1.00  0.00     0.029 A 
ATOM     32  N   UNL A   1      40.564  29.773  29.131  1.00  0.00    -0.354 N 
ATOM     33  C   UNL A   1      44.519  28.214  28.297  1.00  0.00     0.074 A 
ATOM     34  C   UNL A   1      44.441  26.916  27.662  1.00  0.00     0.031 C 
ATOM     35  C   UNL A   1      38.328  29.742  29.187  1.00  0.00     0.029 A 
ATOM     36  C   UNL A   1      39.499  30.537  29.548  1.00  0.00     0.049 A 
ATOM     37  H   UNL A   1      41.500  30.067  29.203  1.00  0.00     0.167 HD
ATOM     38  C   UNL A   1      45.675  28.879  28.535  1.00  0.00     0.037 A 
ATOM     39  C   UNL A   1      39.477  31.734  30.167  1.00  0.00     0.037 A 
ATOM     40  C   UNL A   1      45.746  30.171  29.166  1.00  0.00     0.049 A 
ATOM     41  C   UNL A   1      40.779  32.438  30.452  1.00  0.00     0.074 A 
ATOM     42  C   UNL A   1      46.869  30.916  29.487  1.00  0.00     0.029 A 
ATOM     43  N   UNL A   1      44.647  30.921  29.559  1.00  0.00    -0.354 N 
ATOM     44  N   UNL A   1      42.004  32.040  30.204  1.00  0.00    -0.248 NA
ATOM     45  C   UNL A   1      40.695  33.759  31.090  1.00  0.00     0.031 C 
ATOM     46  C   UNL A   1      46.449  32.104  30.094  1.00  0.00     0.029 A 
ATOM     47  C   UNL A   1      45.064  32.120  30.111  1.00  0.00     0.049 A 
ATOM     48  H   UNL A   1      43.708  30.641  29.460  1.00  0.00     0.167 HD
ATOM     49  C   UNL A   1      42.834  33.078  30.620  1.00  0.00     0.074 A 
ATOM     50  C   UNL A   1      41.969  34.123  31.126  1.00  0.00     0.031 C 
ATOM     51  C   UNL A   1      44.187  33.159  30.586  1.00  0.00     0.037 A 
BRANCH  38  52
ATOM     52  C   UNL A   1      46.958  28.219  28.114  1.00  0.00     0.058 A 
ATOM     53  C   UNL A   1      47.651  27.352  28.972  1.00  0.00     0.135 A 
ATOM     54  C   UNL A   1      47.477  28.419  26.824  1.00  0.00     0.135 A 
ATOM     55  F   UNL A   1      47.211  27.144  30.223  1.00  0.00    -0.206 F 
ATOM     56  C   UNL A   1      48.824  26.718  28.574  1.00  0.00     0.059 A 
ATOM     57  C   UNL A   1      48.635  27.775  26.396  1.00  0.00     0.059 A 
ATOM     58  F   UNL A   1      46.856  29.242  25.966  1.00  0.00    -0.206 F 
ATOM     59  C   UNL A   1      49.307  26.935  27.282  1.00  0.00     0.060 A 
BRANCH  59  60
ATOM     60  S   UNL A   1      50.818  26.089  26.774  1.00  0.00     0.124 S 
ATOM     61  O   UNL A   1      50.606  24.756  27.330  1.00  0.00    -0.237 OA
ATOM     62  O   UNL A   1      50.758  26.186  25.319  1.00  0.00    -0.237 OA
ATOM     63  O   UNL A   1      51.876  26.871  27.407  1.00  0.00    -0.744 OA
ENDBRANCH  59  60
ENDBRANCH  38  52
BRANCH  39  64
ATOM     64  C   UNL A   1      38.183  32.342  30.579  1.00  0.00     0.058 A 
ATOM     65  C   UNL A   1      37.509  33.254  29.752  1.00  0.00     0.135 A 
ATOM     66  C   UNL A   1      37.614  32.052  31.829  1.00  0.00     0.135 A 
ATOM     67  F   UNL A   1      38.015  33.570  28.550  1.00  0.00    -0.206 F 
ATOM     68  C   UNL A   1      36.338  33.884  30.163  1.00  0.00     0.059 A 
ATOM     69  C   UNL A   1      36.429  32.647  32.250  1.00  0.00     0.059 A 
ATOM     70  F   UNL A   1      38.210  31.174  32.652  1.00  0.00    -0.206 F 
ATOM     71  C   UNL A   1      35.810  33.577  31.418  1.00  0.00     0.060 A 
BRANCH  71  72
ATOM     72  S   UNL A   1      34.287  34.394  31.945  1.00  0.00     0.124 S 
ATOM     73  O   UNL A   1      33.566  34.509  30.684  1.00  0.00    -0.237 OA
ATOM     74  O   UNL A   1      33.743  33.442  32.910  1.00  0.00    -0.237 OA
ATOM     75  O   UNL A   1      34.764  35.649  32.518  1.00  0.00    -0.744 OA
ENDBRANCH  71  72
ENDBRANCH  39  64
BRANCH  51  76
ATOM     76  C   UNL A   1      44.809  34.448  31.048  1.00  0.00     0.058 A 
ATOM     77  C   UNL A   1      45.043  35.518  30.170  1.00  0.00     0.135 A 
ATOM     78  C   UNL A   1      45.157  34.619  32.398  1.00  0.00     0.135 A 
ATOM     79  F   UNL A   1      44.730  35.406  28.869  1.00  0.00    -0.206 F 
ATOM     80  C   UNL A   1      45.641  36.697  30.606  1.00  0.00     0.059 A 
ATOM     81  C   UNL A   1      45.730  35.799  32.862  1.00  0.00     0.059 A 
ATOM     82  F   UNL A   1      44.939  33.633  33.282  1.00  0.00    -0.206 F 
ATOM     83  C   UNL A   1      45.987  36.825  31.953  1.00  0.00     0.060 A 
BRANCH  83  84
ATOM     84  S   UNL A   1      46.764  38.357  32.509  1.00  0.00     0.124 S 
ATOM     85  O   UNL A   1      45.785  39.353  32.082  1.00  0.00    -0.237 OA
ATOM     86  O   UNL A   1      46.872  38.150  33.949  1.00  0.00    -0.237 OA
ATOM     87  O   UNL A   1      48.033  38.374  31.787  1.00  0.00    -0.744 OA
ENDBRANCH  83  84
ENDBRANCH  51  76
ENDBRANCH  25  26
ENDBRANCH  18  20
ENDBRANCH  17  18
ENDBRANCH  16  17
ENDBRANCH   1  16
TORSDOF 17
ENDMDL
MODEL 2
REMARK VINA RESULT:      -9.7      3.357     12.095
REMARK SMILES O=C(CCC(=O)OCCOC(=O)c1ccc(-c2c3nc(c(-c4c(F)cc(S(=O)(=O)[O-])cc4F)c4ccc([nH]4)c(-c4c(F)cc(S(=O)(=O)[O-])cc4F)c4nc(c(-c5c(F)cc(S(=O)(=O)[O-])cc5F)c5ccc2[nH]5)C=C4)C=C3)cc1)Nc1nncs1
REMARK SMILES IDX 8 1 7 2 5 3 6 4 4 5 3 6 2 7 1 8 79 9 80 11 81 12 84 13 82 14
REMARK SMILES IDX 83 15 9 16 10 17 11 18 12 19 13 20 14 21 78 22 15 23 77 24
REMARK SMILES IDX 16 25 17 26 18 27 71 28 19 29 76 30 70 31 72 32 20 33 75 34
REMARK SMILES IDX 69 35 68 36 21 38 55 39 34 40 54 41 35 42 38 43 53 44 73 45
REMARK SMILES IDX 36 46 37 47 52 49 74 50 39 51 22 52 23 53 32 54 24 55 25 56
REMARK SMILES IDX 31 57 33 58 26 59 27 60 28 61 29 62 30 63 56 64 57 65 66 66
REMARK SMILES IDX 58 67 59 68 65 69 67 70 60 71 61 72 62 73 63 74 64 75 40 76
REMARK SMILES IDX 41 77 50 78 42 79 43 80 49 81 51 82 44 83 45 84 46 85 47 86
REMARK SMILES IDX 48 87
REMARK H PARENT 79 10 72 37 38 48
REMARK Flexibility Score: inf
ROOT
ATOM      1  C   UNL A   1      34.844  32.731  30.722  1.00  0.00     0.274 C 
ENDROOT
BRANCH   1   2
ATOM      2  O   UNL A   1      34.340  32.115  29.513  1.00  0.00    -0.462 OA
BRANCH   2   3
ATOM      3  C   UNL A   1      34.970  32.441  28.351  1.00  0.00     0.306 C 
ATOM      4  O   UNL A   1      35.779  31.723  27.778  1.00  0.00    -0.252 OA
BRANCH   3   5
ATOM      5  C   UNL A   1      34.622  33.837  27.876  1.00  0.00     0.132 C 
BRANCH   5   6
ATOM      6  C   UNL A   1      33.217  34.317  28.227  1.00  0.00     0.112 C 
BRANCH   6   7
ATOM      7  C   UNL A   1      33.264  35.587  29.055  1.00  0.00     0.226 C 
ATOM      8  O   UNL A   1      33.690  36.631  28.577  1.00  0.00    -0.275 OA
ATOM      9  N   UNL A   1      32.858  35.383  30.350  1.00  0.00    -0.301 N 
ATOM     10  H   UNL A   1      32.408  34.539  30.579  1.00  0.00     0.172 HD
BRANCH   9  11
ATOM     11  C   UNL A   1      33.059  36.310  31.331  1.00  0.00     0.212 A 
ATOM     12  N   UNL A   1      32.791  37.593  31.365  1.00  0.00    -0.120 NA
ATOM     13  S   UNL A   1      33.882  35.710  32.705  1.00  0.00    -0.083 S 
ATOM     14  N   UNL A   1      33.269  38.189  32.521  1.00  0.00    -0.145 NA
ATOM     15  C   UNL A   1      33.885  37.321  33.293  1.00  0.00     0.204 A 
ENDBRANCH   9  11
ENDBRANCH   6   7
ENDBRANCH   5   6
ENDBRANCH   3   5
ENDBRANCH   2   3
ENDBRANCH   1   2
BRANCH   1  16
ATOM     16  C   UNL A   1      36.361  32.558  30.858  1.00  0.00     0.275 C 
BRANCH  16  17
ATOM     17  O   UNL A   1      36.679  31.505  31.781  1.00  0.00    -0.458 OA
BRANCH  17  18
ATOM     18  C   UNL A   1      36.803  30.281  31.216  1.00  0.00     0.338 C 
ATOM     19  O   UNL A   1      35.902  29.480  31.028  1.00  0.00    -0.246 OA
BRANCH  18  20
ATOM     20  C   UNL A   1      38.174  30.108  30.706  1.00  0.00     0.060 A 
ATOM     21  C   UNL A   1      38.356  29.986  29.326  1.00  0.00     0.016 A 
ATOM     22  C   UNL A   1      39.259  30.008  31.579  1.00  0.00     0.016 A 
ATOM     23  C   UNL A   1      39.626  29.734  28.810  1.00  0.00     0.010 A 
ATOM     24  C   UNL A   1      40.534  29.755  31.059  1.00  0.00     0.010 A 
ATOM     25  C   UNL A   1      40.719  29.592  29.675  1.00  0.00    -0.014 A 
BRANCH  25  26
ATOM     26  C   UNL A   1      42.033  29.167  29.132  1.00  0.00     0.031 A 
ATOM     27  C   UNL A   1      43.146  30.175  29.033  1.00  0.00     0.074 A 
ATOM     28  C   UNL A   1      42.237  27.888  28.764  1.00  0.00     0.049 A 
ATOM     29  N   UNL A   1      44.349  30.035  28.539  1.00  0.00    -0.248 NA
ATOM     30  C   UNL A   1      42.865  31.520  29.559  1.00  0.00     0.031 C 
ATOM     31  C   UNL A   1      41.244  26.816  28.842  1.00  0.00     0.029 A 
ATOM     32  N   UNL A   1      43.351  27.275  28.246  1.00  0.00    -0.354 N 
ATOM     33  C   UNL A   1      44.967  31.271  28.692  1.00  0.00     0.074 A 
ATOM     34  C   UNL A   1      43.994  32.159  29.292  1.00  0.00     0.031 C 
ATOM     35  C   UNL A   1      41.790  25.679  28.379  1.00  0.00     0.029 A 
ATOM     36  C   UNL A   1      43.159  25.948  27.945  1.00  0.00     0.049 A 
ATOM     37  H   UNL A   1      44.205  27.743  28.105  1.00  0.00     0.167 HD
ATOM     38  C   UNL A   1      46.235  31.627  28.378  1.00  0.00     0.037 A 
ATOM     39  C   UNL A   1      43.990  25.058  27.367  1.00  0.00     0.037 A 
ATOM     40  C   UNL A   1      47.199  30.738  27.784  1.00  0.00     0.049 A 
ATOM     41  C   UNL A   1      45.385  25.490  26.995  1.00  0.00     0.074 A 
ATOM     42  C   UNL A   1      48.499  31.010  27.392  1.00  0.00     0.029 A 
ATOM     43  N   UNL A   1      46.974  29.397  27.509  1.00  0.00    -0.354 N 
ATOM     44  N   UNL A   1      45.947  26.668  27.126  1.00  0.00    -0.248 NA
ATOM     45  C   UNL A   1      46.263  24.469  26.408  1.00  0.00     0.031 C 
ATOM     46  C   UNL A   1      49.052  29.840  26.860  1.00  0.00     0.029 A 
ATOM     47  C   UNL A   1      48.111  28.828  26.961  1.00  0.00     0.049 A 
ATOM     48  H   UNL A   1      46.129  28.921  27.679  1.00  0.00     0.167 HD
ATOM     49  C   UNL A   1      47.255  26.519  26.674  1.00  0.00     0.074 A 
ATOM     50  C   UNL A   1      47.401  25.134  26.275  1.00  0.00     0.031 C 
ATOM     51  C   UNL A   1      48.246  27.442  26.594  1.00  0.00     0.037 A 
BRANCH  38  52
ATOM     52  C   UNL A   1      46.653  33.042  28.668  1.00  0.00     0.058 A 
ATOM     53  C   UNL A   1      47.243  33.395  29.892  1.00  0.00     0.135 A 
ATOM     54  C   UNL A   1      46.502  34.047  27.699  1.00  0.00     0.135 A 
ATOM     55  F   UNL A   1      47.389  32.477  30.861  1.00  0.00    -0.206 F 
ATOM     56  C   UNL A   1      47.655  34.698  30.152  1.00  0.00     0.059 A 
ATOM     57  C   UNL A   1      46.930  35.352  27.929  1.00  0.00     0.059 A 
ATOM     58  F   UNL A   1      45.939  33.765  26.515  1.00  0.00    -0.206 F 
ATOM     59  C   UNL A   1      47.496  35.669  29.162  1.00  0.00     0.060 A 
BRANCH  59  60
ATOM     60  S   UNL A   1      48.055  37.351  29.508  1.00  0.00     0.124 S 
ATOM     61  O   UNL A   1      48.290  37.861  28.161  1.00  0.00    -0.237 OA
ATOM     62  O   UNL A   1      46.912  37.923  30.211  1.00  0.00    -0.237 OA
ATOM     63  O   UNL A   1      49.251  37.152  30.321  1.00  0.00    -0.744 OA
ENDBRANCH  59  60
ENDBRANCH  38  52
BRANCH  39  64
ATOM     64  C   UNL A   1      43.527  23.671  27.086  1.00  0.00     0.058 A 
ATOM     65  C   UNL A   1      43.173  23.269  25.790  1.00  0.00     0.135 A 
ATOM     66  C   UNL A   1      43.392  22.733  28.121  1.00  0.00     0.135 A 
ATOM     67  F   UNL A   1      43.278  24.131  24.768  1.00  0.00    -0.206 F 
ATOM     68  C   UNL A   1      42.667  21.998  25.534  1.00  0.00     0.059 A 
ATOM     69  C   UNL A   1      42.917  21.447  27.885  1.00  0.00     0.059 A 
ATOM     70  F   UNL A   1      43.733  23.062  29.377  1.00  0.00    -0.206 F 
ATOM     71  C   UNL A   1      42.537  21.095  26.591  1.00  0.00     0.060 A 
BRANCH  71  72
ATOM     72  S   UNL A   1      41.885  19.445  26.253  1.00  0.00     0.124 S 
ATOM     73  O   UNL A   1      40.461  19.719  26.107  1.00  0.00    -0.237 OA
ATOM     74  O   UNL A   1      42.594  19.076  25.031  1.00  0.00    -0.237 OA
ATOM     75  O   UNL A   1      42.265  18.687  27.441  1.00  0.00    -0.744 OA
ENDBRANCH  71  72
ENDBRANCH  39  64
BRANCH  51  76
ATOM     76  C   UNL A   1      49.591  26.967  26.122  1.00  0.00     0.058 A 
ATOM     77  C   UNL A   1      50.008  27.116  24.790  1.00  0.00     0.135 A 
ATOM     78  C   UNL A   1      50.485  26.368  27.026  1.00  0.00     0.135 A 
ATOM     79  F   UNL A   1      49.192  27.680  23.885  1.00  0.00    -0.206 F 
ATOM     80  C   UNL A   1      51.247  26.649  24.361  1.00  0.00     0.059 A 
ATOM     81  C   UNL A   1      51.739  25.920  26.625  1.00  0.00     0.059 A 
ATOM     82  F   UNL A   1      50.142  26.217  28.315  1.00  0.00    -0.206 F 
ATOM     83  C   UNL A   1      52.103  26.047  25.285  1.00  0.00     0.060 A 
BRANCH  83  84
ATOM     84  S   UNL A   1      53.707  25.443  24.718  1.00  0.00     0.124 S 
ATOM     85  O   UNL A   1      53.586  25.603  23.272  1.00  0.00    -0.237 OA
ATOM     86  O   UNL A   1      54.638  26.352  25.380  1.00  0.00    -0.237 OA
ATOM     87  O   UNL A   1      53.739  24.064  25.198  1.00  0.00    -0.744 OA
ENDBRANCH  83  84
ENDBRANCH  51  76
ENDBRANCH  25  26
ENDBRANCH  18  20
ENDBRANCH  17  18
ENDBRANCH  16  17
ENDBRANCH   1  16
TORSDOF 17
ENDMDL
MODEL 3
REMARK VINA RESULT:      -9.7      3.176     12.059
REMARK SMILES O=C(CCC(=O)OCCOC(=O)c1ccc(-c2c3nc(c(-c4c(F)cc(S(=O)(=O)[O-])cc4F)c4ccc([nH]4)c(-c4c(F)cc(S(=O)(=O)[O-])cc4F)c4nc(c(-c5c(F)cc(S(=O)(=O)[O-])cc5F)c5ccc2[nH]5)C=C4)C=C3)cc1)Nc1nncs1
REMARK SMILES IDX 8 1 7 2 5 3 6 4 4 5 3 6 2 7 1 8 79 9 80 11 81 12 84 13 82 14
REMARK SMILES IDX 83 15 9 16 10 17 11 18 12 19 13 20 14 21 78 22 15 23 77 24
REMARK SMILES IDX 16 25 17 26 18 27 71 28 19 29 76 30 70 31 72 32 20 33 75 34
REMARK SMILES IDX 69 35 68 36 21 38 55 39 34 40 54 41 35 42 38 43 53 44 73 45
REMARK SMILES IDX 36 46 37 47 52 49 74 50 39 51 22 52 23 53 32 54 24 55 25 56
REMARK SMILES IDX 31 57 33 58 26 59 27 60 28 61 29 62 30 63 56 64 57 65 66 66
REMARK SMILES IDX 58 67 59 68 65 69 67 70 60 71 61 72 62 73 63 74 64 75 40 76
REMARK SMILES IDX 41 77 50 78 42 79 43 80 49 81 51 82 44 83 45 84 46 85 47 86
REMARK SMILES IDX 48 87
REMARK H PARENT 79 10 72 37 38 48
REMARK Flexibility Score: inf
ROOT
ATOM      1  C   UNL A   1      36.689  31.700  32.635  1.00  0.00     0.274 C 
ENDROOT
BRANCH   1   2
ATOM      2  O   UNL A   1      37.252  33.007  32.372  1.00  0.00    -0.462 OA
BRANCH   2   3
ATOM      3  C   UNL A   1      37.291  33.879  33.418  1.00  0.00     0.306 C 
ATOM      4  O   UNL A   1      38.257  34.574  33.703  1.00  0.00    -0.252 OA
BRANCH   3   5
ATOM      5  C   UNL A   1      36.027  33.839  34.251  1.00  0.00     0.132 C 
BRANCH   5   6
ATOM      6  C   UNL A   1      34.987  34.905  33.916  1.00  0.00     0.112 C 
BRANCH   6   7
ATOM      7  C   UNL A   1      34.143  34.490  32.727  1.00  0.00     0.226 C 
ATOM      8  O   UNL A   1      33.447  33.483  32.774  1.00  0.00    -0.275 OA
ATOM      9  N   UNL A   1      34.323  35.313  31.644  1.00  0.00    -0.301 N 
ATOM     10  H   UNL A   1      34.797  36.166  31.769  1.00  0.00     0.172 HD
BRANCH   9  11
ATOM     11  C   UNL A   1      33.869  34.988  30.399  1.00  0.00     0.212 A 
ATOM     12  N   UNL A   1      32.695  35.162  29.843  1.00  0.00    -0.120 NA
ATOM     13  S   UNL A   1      34.997  34.128  29.444  1.00  0.00    -0.083 S 
ATOM     14  N   UNL A   1      32.626  34.575  28.590  1.00  0.00    -0.145 NA
ATOM     15  C   UNL A   1      33.752  33.976  28.274  1.00  0.00     0.204 A 
ENDBRANCH   9  11
ENDBRANCH   6   7
ENDBRANCH   5   6
ENDBRANCH   3   5
ENDBRANCH   2   3
ENDBRANCH   1   2
BRANCH   1  16
ATOM     16  C   UNL A   1      35.772  31.236  31.498  1.00  0.00     0.275 C 
BRANCH  16  17
ATOM     17  O   UNL A   1      36.123  29.914  31.059  1.00  0.00    -0.458 OA
BRANCH  17  18
ATOM     18  C   UNL A   1      36.314  29.798  29.724  1.00  0.00     0.338 C 
ATOM     19  O   UNL A   1      35.463  29.935  28.861  1.00  0.00    -0.246 OA
BRANCH  18  20
ATOM     20  C   UNL A   1      37.750  29.634  29.442  1.00  0.00     0.060 A 
ATOM     21  C   UNL A   1      38.169  29.649  28.108  1.00  0.00     0.016 A 
ATOM     22  C   UNL A   1      38.665  29.408  30.472  1.00  0.00     0.016 A 
ATOM     23  C   UNL A   1      39.505  29.410  27.794  1.00  0.00     0.010 A 
ATOM     24  C   UNL A   1      40.007  29.169  30.155  1.00  0.00     0.010 A 
ATOM     25  C   UNL A   1      40.429  29.144  28.814  1.00  0.00    -0.014 A 
BRANCH  25  26
ATOM     26  C   UNL A   1      41.811  28.735  28.463  1.00  0.00     0.031 A 
ATOM     27  C   UNL A   1      42.901  29.772  28.446  1.00  0.00     0.074 A 
ATOM     28  C   UNL A   1      42.093  27.446  28.195  1.00  0.00     0.049 A 
ATOM     29  N   UNL A   1      44.159  29.646  28.114  1.00  0.00    -0.248 NA
ATOM     30  C   UNL A   1      42.521  31.133  28.857  1.00  0.00     0.031 C 
ATOM     31  C   UNL A   1      41.126  26.347  28.209  1.00  0.00     0.029 A 
ATOM     32  N   UNL A   1      43.278  26.844  27.854  1.00  0.00    -0.354 N 
ATOM     33  C   UNL A   1      44.721  30.908  28.273  1.00  0.00     0.074 A 
ATOM     34  C   UNL A   1      43.658  31.794  28.697  1.00  0.00     0.031 C 
ATOM     35  C   UNL A   1      41.756  25.206  27.881  1.00  0.00     0.029 A 
ATOM     36  C   UNL A   1      43.161  25.497  27.606  1.00  0.00     0.049 A 
ATOM     37  H   UNL A   1      44.131  27.331  27.793  1.00  0.00     0.167 HD
ATOM     38  C   UNL A   1      46.009  31.289  28.099  1.00  0.00     0.037 A 
ATOM     39  C   UNL A   1      44.080  24.605  27.186  1.00  0.00     0.037 A 
ATOM     40  C   UNL A   1      47.063  30.403  27.679  1.00  0.00     0.049 A 
ATOM     41  C   UNL A   1      45.499  25.063  26.966  1.00  0.00     0.074 A 
ATOM     42  C   UNL A   1      48.394  30.696  27.437  1.00  0.00     0.029 A 
ATOM     43  N   UNL A   1      46.908  29.043  27.454  1.00  0.00    -0.354 N 
ATOM     44  N   UNL A   1      46.010  26.265  27.100  1.00  0.00    -0.248 NA
ATOM     45  C   UNL A   1      46.471  24.043  26.551  1.00  0.00     0.031 C 
ATOM     46  C   UNL A   1      49.039  29.519  27.044  1.00  0.00     0.029 A 
ATOM     47  C   UNL A   1      48.120  28.483  27.083  1.00  0.00     0.049 A 
ATOM     48  H   UNL A   1      46.062  28.548  27.544  1.00  0.00     0.167 HD
ATOM     49  C   UNL A   1      47.367  26.135  26.822  1.00  0.00     0.074 A 
ATOM     50  C   UNL A   1      47.599  24.737  26.522  1.00  0.00     0.031 C 
ATOM     51  C   UNL A   1      48.336  27.085  26.814  1.00  0.00     0.037 A 
BRANCH  38  52
ATOM     52  C   UNL A   1      46.349  32.730  28.359  1.00  0.00     0.058 A 
ATOM     53  C   UNL A   1      46.166  33.715  27.376  1.00  0.00     0.135 A 
ATOM     54  C   UNL A   1      46.822  33.139  29.617  1.00  0.00     0.135 A 
ATOM     55  F   UNL A   1      45.738  33.375  26.150  1.00  0.00    -0.206 F 
ATOM     56  C   UNL A   1      46.454  35.053  27.624  1.00  0.00     0.059 A 
ATOM     57  C   UNL A   1      47.093  34.476  29.895  1.00  0.00     0.059 A 
ATOM     58  F   UNL A   1      47.021  32.237  30.590  1.00  0.00    -0.206 F 
ATOM     59  C   UNL A   1      46.916  35.424  28.889  1.00  0.00     0.060 A 
BRANCH  59  60
ATOM     60  S   UNL A   1      47.265  37.167  29.201  1.00  0.00     0.124 S 
ATOM     61  O   UNL A   1      46.425  37.816  28.200  1.00  0.00    -0.237 OA
ATOM     62  O   UNL A   1      46.839  37.329  30.587  1.00  0.00    -0.237 OA
ATOM     63  O   UNL A   1      48.704  37.271  28.976  1.00  0.00    -0.744 OA
ENDBRANCH  59  60
ENDBRANCH  38  52
BRANCH  39  64
ATOM     64  C   UNL A   1      43.693  23.192  26.928  1.00  0.00     0.058 A 
ATOM     65  C   UNL A   1      43.612  22.684  25.623  1.00  0.00     0.135 A 
ATOM     66  C   UNL A   1      43.356  22.332  27.985  1.00  0.00     0.135 A 
ATOM     67  F   UNL A   1      43.917  23.468  24.578  1.00  0.00    -0.206 F 
ATOM     68  C   UNL A   1      43.177  21.386  25.371  1.00  0.00     0.059 A 
ATOM     69  C   UNL A   1      42.946  21.022  27.760  1.00  0.00     0.059 A 
ATOM     70  F   UNL A   1      43.432  22.763  29.254  1.00  0.00    -0.206 F 
ATOM     71  C   UNL A   1      42.840  20.564  26.448  1.00  0.00     0.060 A 
BRANCH  71  72
ATOM     72  S   UNL A   1      42.280  18.880  26.117  1.00  0.00     0.124 S 
ATOM     73  O   UNL A   1      43.187  18.475  25.050  1.00  0.00    -0.237 OA
ATOM     74  O   UNL A   1      42.479  18.227  27.408  1.00  0.00    -0.237 OA
ATOM     75  O   UNL A   1      40.886  19.063  25.726  1.00  0.00    -0.744 OA
ENDBRANCH  71  72
ENDBRANCH  39  64
BRANCH  51  76
ATOM     76  C   UNL A   1      49.742  26.630  26.540  1.00  0.00     0.058 A 
ATOM     77  C   UNL A   1      50.611  26.236  27.568  1.00  0.00     0.135 A 
ATOM     78  C   UNL A   1      50.218  26.571  25.219  1.00  0.00     0.135 A 
ATOM     79  F   UNL A   1      50.206  26.274  28.848  1.00  0.00    -0.206 F 
ATOM     80  C   UNL A   1      51.918  25.839  27.302  1.00  0.00     0.059 A 
ATOM     81  C   UNL A   1      51.512  26.151  24.928  1.00  0.00     0.059 A 
ATOM     82  F   UNL A   1      49.422  26.921  24.197  1.00  0.00    -0.206 F 
ATOM     83  C   UNL A   1      52.361  25.806  25.979  1.00  0.00     0.060 A 
BRANCH  83  84
ATOM     84  S   UNL A   1      54.059  25.293  25.643  1.00  0.00     0.124 S 
ATOM     85  O   UNL A   1      53.849  24.132  24.783  1.00  0.00    -0.237 OA
ATOM     86  O   UNL A   1      54.621  26.471  24.990  1.00  0.00    -0.237 OA
ATOM     87  O   UNL A   1      54.595  25.003  26.970  1.00  0.00    -0.744 OA
ENDBRANCH  83  84
ENDBRANCH  51  76
ENDBRANCH  25  26
ENDBRANCH  18  20
ENDBRANCH  17  18
ENDBRANCH  16  17
ENDBRANCH   1  16
TORSDOF 17
ENDMDL
