MODEL 1
REMARK VINA RESULT:     -12.4      0.000      0.000
REMARK SMILES O=C(OCCOC(=O)c1cc(-c2ccccn2)nc2ccc(F)cc12)c1ccc(-c2c3nc(c(-c4c(F)cc(S(=O)(=O)[O-])cc4F)c4ccc([nH]4)c(-c4c(F)cc(S(=O)(=O)[O-])cc4F)c4nc(c(-c5c(F)cc(S(=O)(=O)[O-])cc5F)c5ccc2[nH]5)C=C4)C=C3)cc1
REMARK SMILES IDX 4 1 3 2 2 3 1 4 26 5 27 6 91 7 28 8 90 9 29 10 30 11 31 12
REMARK SMILES IDX 84 13 32 14 89 15 83 16 85 17 33 18 88 19 82 20 81 21 34 23
REMARK SMILES IDX 68 24 47 25 67 26 48 27 51 28 66 29 86 30 49 31 50 32 65 34
REMARK SMILES IDX 87 35 52 36 35 37 36 38 45 39 37 40 38 41 44 42 46 43 39 44
REMARK SMILES IDX 40 45 41 46 42 47 43 48 69 49 70 50 79 51 71 52 72 53 78 54
REMARK SMILES IDX 80 55 73 56 74 57 75 58 76 59 77 60 53 61 54 62 63 63 55 64
REMARK SMILES IDX 56 65 62 66 64 67 57 68 58 69 59 70 60 71 61 72 5 73 6 74
REMARK SMILES IDX 7 75 8 76 9 77 10 78 25 79 11 80 19 81 24 82 18 83 20 84
REMARK SMILES IDX 22 85 21 86 23 87 12 88 13 89 17 90 14 91 16 92 15 93
REMARK H PARENT 85 22 51 33
REMARK Flexibility Score: inf
ROOT
ATOM      1  C   UNL A   1      34.665  31.005  27.713  1.00  0.00     0.275 C 
ENDROOT
BRANCH   1   2
ATOM      2  O   UNL A   1      35.909  31.436  28.290  1.00  0.00    -0.458 OA
BRANCH   2   3
ATOM      3  C   UNL A   1      36.520  30.801  29.326  1.00  0.00     0.338 C 
ATOM      4  O   UNL A   1      36.042  30.827  30.454  1.00  0.00    -0.246 OA
BRANCH   3   5
ATOM      5  C   UNL A   1      37.918  30.340  29.133  1.00  0.00     0.060 A 
ATOM      6  C   UNL A   1      38.253  29.881  27.858  1.00  0.00     0.016 A 
ATOM      7  C   UNL A   1      38.901  30.375  30.126  1.00  0.00     0.016 A 
ATOM      8  C   UNL A   1      39.514  29.335  27.614  1.00  0.00     0.010 A 
ATOM      9  C   UNL A   1      40.180  29.859  29.873  1.00  0.00     0.010 A 
ATOM     10  C   UNL A   1      40.495  29.323  28.619  1.00  0.00    -0.014 A 
BRANCH  10  11
ATOM     11  C   UNL A   1      41.899  28.995  28.260  1.00  0.00     0.031 A 
ATOM     12  C   UNL A   1      42.988  30.036  28.194  1.00  0.00     0.074 A 
ATOM     13  C   UNL A   1      42.150  27.699  27.985  1.00  0.00     0.049 A 
ATOM     14  N   UNL A   1      44.269  29.874  27.971  1.00  0.00    -0.248 NA
ATOM     15  C   UNL A   1      42.601  31.444  28.389  1.00  0.00     0.031 C 
ATOM     16  C   UNL A   1      41.135  26.634  27.973  1.00  0.00     0.029 A 
ATOM     17  N   UNL A   1      43.309  27.045  27.667  1.00  0.00    -0.354 N 
ATOM     18  C   UNL A   1      44.850  31.138  28.070  1.00  0.00     0.074 A 
ATOM     19  C   UNL A   1      43.770  32.074  28.298  1.00  0.00     0.031 C 
ATOM     20  C   UNL A   1      41.720  25.466  27.680  1.00  0.00     0.029 A 
ATOM     21  C   UNL A   1      43.136  25.699  27.447  1.00  0.00     0.049 A 
ATOM     22  H   UNL A   1      44.182  27.496  27.603  1.00  0.00     0.167 HD
ATOM     23  C   UNL A   1      46.169  31.455  28.019  1.00  0.00     0.037 A 
ATOM     24  C   UNL A   1      44.022  24.754  27.080  1.00  0.00     0.037 A 
ATOM     25  C   UNL A   1      47.203  30.474  27.808  1.00  0.00     0.049 A 
ATOM     26  C   UNL A   1      45.456  25.159  26.929  1.00  0.00     0.074 A 
ATOM     27  C   UNL A   1      48.575  30.658  27.811  1.00  0.00     0.029 A 
ATOM     28  N   UNL A   1      46.978  29.130  27.533  1.00  0.00    -0.354 N 
ATOM     29  N   UNL A   1      45.998  26.333  27.149  1.00  0.00    -0.248 NA
ATOM     30  C   UNL A   1      46.398  24.128  26.480  1.00  0.00     0.031 C 
ATOM     31  C   UNL A   1      49.177  29.433  27.519  1.00  0.00     0.029 A 
ATOM     32  C   UNL A   1      48.185  28.484  27.331  1.00  0.00     0.049 A 
ATOM     33  H   UNL A   1      46.093  28.703  27.490  1.00  0.00     0.167 HD
ATOM     34  C   UNL A   1      47.349  26.181  26.882  1.00  0.00     0.074 A 
ATOM     35  C   UNL A   1      47.544  24.797  26.491  1.00  0.00     0.031 C 
ATOM     36  C   UNL A   1      48.340  27.101  26.953  1.00  0.00     0.037 A 
BRANCH  23  37
ATOM     37  C   UNL A   1      46.611  32.880  28.254  1.00  0.00     0.058 A 
ATOM     38  C   UNL A   1      46.646  33.798  27.190  1.00  0.00     0.135 A 
ATOM     39  C   UNL A   1      46.848  33.392  29.537  1.00  0.00     0.135 A 
ATOM     40  F   UNL A   1      46.277  33.425  25.960  1.00  0.00    -0.206 F 
ATOM     41  C   UNL A   1      46.976  35.136  27.362  1.00  0.00     0.059 A 
ATOM     42  C   UNL A   1      47.144  34.744  29.744  1.00  0.00     0.059 A 
ATOM     43  F   UNL A   1      46.763  32.590  30.608  1.00  0.00    -0.206 F 
ATOM     44  C   UNL A   1      47.233  35.603  28.645  1.00  0.00     0.060 A 
BRANCH  44  45
ATOM     45  S   UNL A   1      47.608  37.356  28.874  1.00  0.00     0.124 S 
ATOM     46  O   UNL A   1      48.103  37.364  30.247  1.00  0.00    -0.237 OA
ATOM     47  O   UNL A   1      48.611  37.613  27.843  1.00  0.00    -0.237 OA
ATOM     48  O   UNL A   1      46.317  38.000  28.660  1.00  0.00    -0.744 OA
ENDBRANCH  44  45
ENDBRANCH  23  37
BRANCH  24  49
ATOM     49  C   UNL A   1      43.554  23.366  26.826  1.00  0.00     0.058 A 
ATOM     50  C   UNL A   1      43.515  22.832  25.531  1.00  0.00     0.135 A 
ATOM     51  C   UNL A   1      43.190  22.524  27.891  1.00  0.00     0.135 A 
ATOM     52  F   UNL A   1      43.850  23.595  24.480  1.00  0.00    -0.206 F 
ATOM     53  C   UNL A   1      43.132  21.514  25.299  1.00  0.00     0.059 A 
ATOM     54  C   UNL A   1      42.828  21.197  27.687  1.00  0.00     0.059 A 
ATOM     55  F   UNL A   1      43.227  22.982  29.153  1.00  0.00    -0.206 F 
ATOM     56  C   UNL A   1      42.795  20.702  26.386  1.00  0.00     0.060 A 
BRANCH  56  57
ATOM     57  S   UNL A   1      42.350  18.979  26.080  1.00  0.00     0.124 S 
ATOM     58  O   UNL A   1      42.645  18.367  27.371  1.00  0.00    -0.237 OA
ATOM     59  O   UNL A   1      40.936  19.083  25.731  1.00  0.00    -0.237 OA
ATOM     60  O   UNL A   1      43.232  18.594  24.983  1.00  0.00    -0.744 OA
ENDBRANCH  56  57
ENDBRANCH  24  49
BRANCH  36  61
ATOM     61  C   UNL A   1      49.721  26.645  26.602  1.00  0.00     0.058 A 
ATOM     62  C   UNL A   1      50.542  26.036  27.561  1.00  0.00     0.135 A 
ATOM     63  C   UNL A   1      50.182  26.718  25.279  1.00  0.00     0.135 A 
ATOM     64  F   UNL A   1      50.144  25.956  28.840  1.00  0.00    -0.206 F 
ATOM     65  C   UNL A   1      51.777  25.503  27.216  1.00  0.00     0.059 A 
ATOM     66  C   UNL A   1      51.406  26.173  24.908  1.00  0.00     0.059 A 
ATOM     67  F   UNL A   1      49.422  27.287  24.328  1.00  0.00    -0.206 F 
ATOM     68  C   UNL A   1      52.194  25.566  25.885  1.00  0.00     0.060 A 
BRANCH  68  69
ATOM     69  S   UNL A   1      53.760  24.788  25.439  1.00  0.00     0.124 S 
ATOM     70  O   UNL A   1      54.189  25.615  24.316  1.00  0.00    -0.237 OA
ATOM     71  O   UNL A   1      54.537  24.930  26.666  1.00  0.00    -0.237 OA
ATOM     72  O   UNL A   1      53.375  23.421  25.101  1.00  0.00    -0.744 OA
ENDBRANCH  68  69
ENDBRANCH  36  61
ENDBRANCH  10  11
ENDBRANCH   3   5
ENDBRANCH   2   3
ENDBRANCH   1   2
BRANCH   1  73
ATOM     73  C   UNL A   1      34.599  29.511  27.383  1.00  0.00     0.275 C 
BRANCH  73  74
ATOM     74  O   UNL A   1      33.972  29.234  26.123  1.00  0.00    -0.458 OA
BRANCH  74  75
ATOM     75  C   UNL A   1      32.897  28.400  26.187  1.00  0.00     0.339 C 
ATOM     76  O   UNL A   1      32.472  27.838  27.173  1.00  0.00    -0.246 OA
BRANCH  75  77
ATOM     77  C   UNL A   1      32.249  28.346  24.856  1.00  0.00     0.071 A 
ATOM     78  C   UNL A   1      31.246  29.276  24.556  1.00  0.00     0.047 A 
ATOM     79  C   UNL A   1      32.597  27.314  23.943  1.00  0.00     0.018 A 
ATOM     80  C   UNL A   1      30.602  29.152  23.339  1.00  0.00     0.090 A 
ATOM     81  C   UNL A   1      31.866  27.288  22.744  1.00  0.00     0.072 A 
ATOM     82  C   UNL A   1      33.542  26.278  24.158  1.00  0.00     0.050 A 
ATOM     83  N   UNL A   1      30.936  28.186  22.449  1.00  0.00    -0.246 NA
ATOM     84  C   UNL A   1      32.048  26.269  21.826  1.00  0.00     0.032 A 
ATOM     85  C   UNL A   1      33.709  25.265  23.217  1.00  0.00     0.123 A 
ATOM     86  C   UNL A   1      32.960  25.246  22.053  1.00  0.00     0.041 A 
ATOM     87  F   UNL A   1      34.591  24.286  23.446  1.00  0.00    -0.207 F 
BRANCH  80  88
ATOM     88  C   UNL A   1      29.490  29.994  22.888  1.00  0.00     0.089 A 
ATOM     89  C   UNL A   1      28.914  30.968  23.695  1.00  0.00     0.030 A 
ATOM     90  N   UNL A   1      29.157  29.838  21.578  1.00  0.00    -0.255 NA
ATOM     91  C   UNL A   1      28.034  31.870  23.107  1.00  0.00     0.004 A 
ATOM     92  C   UNL A   1      28.285  30.711  21.040  1.00  0.00     0.112 A 
ATOM     93  C   UNL A   1      27.736  31.756  21.751  1.00  0.00     0.020 A 
ENDBRANCH  80  88
ENDBRANCH  75  77
ENDBRANCH  74  75
ENDBRANCH  73  74
ENDBRANCH   1  73
TORSDOF 15
ENDMDL
MODEL 2
REMARK VINA RESULT:     -12.3      7.270     12.745
REMARK SMILES O=C(OCCOC(=O)c1cc(-c2ccccn2)nc2ccc(F)cc12)c1ccc(-c2c3nc(c(-c4c(F)cc(S(=O)(=O)[O-])cc4F)c4ccc([nH]4)c(-c4c(F)cc(S(=O)(=O)[O-])cc4F)c4nc(c(-c5c(F)cc(S(=O)(=O)[O-])cc5F)c5ccc2[nH]5)C=C4)C=C3)cc1
REMARK SMILES IDX 4 1 3 2 2 3 1 4 26 5 27 6 91 7 28 8 90 9 29 10 30 11 31 12
REMARK SMILES IDX 84 13 32 14 89 15 83 16 85 17 33 18 88 19 82 20 81 21 34 23
REMARK SMILES IDX 68 24 47 25 67 26 48 27 51 28 66 29 86 30 49 31 50 32 65 34
REMARK SMILES IDX 87 35 52 36 35 37 36 38 45 39 37 40 38 41 44 42 46 43 39 44
REMARK SMILES IDX 40 45 41 46 42 47 43 48 69 49 70 50 79 51 71 52 72 53 78 54
REMARK SMILES IDX 80 55 73 56 74 57 75 58 76 59 77 60 53 61 54 62 63 63 55 64
REMARK SMILES IDX 56 65 62 66 64 67 57 68 58 69 59 70 60 71 61 72 5 73 6 74
REMARK SMILES IDX 7 75 8 76 9 77 10 78 25 79 11 80 19 81 24 82 18 83 20 84
REMARK SMILES IDX 22 85 21 86 23 87 12 88 13 89 17 90 14 91 16 92 15 93
REMARK H PARENT 85 22 51 33
REMARK Flexibility Score: inf
ROOT
ATOM      1  C   UNL A   1      39.759  22.387  26.538  1.00  0.00     0.275 C 
ENDROOT
BRANCH   1   2
ATOM      2  O   UNL A   1      39.888  23.819  26.552  1.00  0.00    -0.458 OA
BRANCH   2   3
ATOM      3  C   UNL A   1      41.043  24.469  26.858  1.00  0.00     0.338 C 
ATOM      4  O   UNL A   1      42.130  24.025  26.510  1.00  0.00    -0.246 OA
BRANCH   3   5
ATOM      5  C   UNL A   1      40.984  25.549  27.874  1.00  0.00     0.060 A 
ATOM      6  C   UNL A   1      39.779  25.692  28.565  1.00  0.00     0.016 A 
ATOM      7  C   UNL A   1      42.056  26.388  28.193  1.00  0.00     0.016 A 
ATOM      8  C   UNL A   1      39.602  26.745  29.464  1.00  0.00     0.010 A 
ATOM      9  C   UNL A   1      41.891  27.425  29.121  1.00  0.00     0.010 A 
ATOM     10  C   UNL A   1      40.659  27.622  29.756  1.00  0.00    -0.014 A 
BRANCH  10  11
ATOM     11  C   UNL A   1      40.534  28.553  30.907  1.00  0.00     0.031 A 
ATOM     12  C   UNL A   1      41.349  28.407  32.166  1.00  0.00     0.074 A 
ATOM     13  C   UNL A   1      39.633  29.547  30.765  1.00  0.00     0.049 A 
ATOM     14  N   UNL A   1      41.395  29.194  33.214  1.00  0.00    -0.248 NA
ATOM     15  C   UNL A   1      42.218  27.224  32.285  1.00  0.00     0.031 C 
ATOM     16  C   UNL A   1      38.760  29.725  29.595  1.00  0.00     0.029 A 
ATOM     17  N   UNL A   1      39.291  30.587  31.586  1.00  0.00    -0.354 N 
ATOM     18  C   UNL A   1      42.343  28.647  34.077  1.00  0.00     0.074 A 
ATOM     19  C   UNL A   1      42.798  27.416  33.468  1.00  0.00     0.031 C 
ATOM     20  C   UNL A   1      38.001  30.814  29.768  1.00  0.00     0.029 A 
ATOM     21  C   UNL A   1      38.300  31.389  31.070  1.00  0.00     0.049 A 
ATOM     22  H   UNL A   1      39.714  30.745  32.461  1.00  0.00     0.167 HD
ATOM     23  C   UNL A   1      42.810  29.169  35.241  1.00  0.00     0.037 A 
ATOM     24  C   UNL A   1      37.686  32.464  31.597  1.00  0.00     0.037 A 
ATOM     25  C   UNL A   1      42.331  30.413  35.789  1.00  0.00     0.049 A 
ATOM     26  C   UNL A   1      38.151  32.953  32.934  1.00  0.00     0.074 A 
ATOM     27  C   UNL A   1      42.775  31.082  36.917  1.00  0.00     0.029 A 
ATOM     28  N   UNL A   1      41.287  31.163  35.262  1.00  0.00    -0.354 N 
ATOM     29  N   UNL A   1      39.133  32.492  33.672  1.00  0.00    -0.248 NA
ATOM     30  C   UNL A   1      37.437  34.094  33.514  1.00  0.00     0.031 C 
ATOM     31  C   UNL A   1      41.988  32.222  37.083  1.00  0.00     0.029 A 
ATOM     32  C   UNL A   1      41.051  32.267  36.062  1.00  0.00     0.049 A 
ATOM     33  H   UNL A   1      40.790  30.942  34.442  1.00  0.00     0.167 HD
ATOM     34  C   UNL A   1      39.168  33.298  34.799  1.00  0.00     0.074 A 
ATOM     35  C   UNL A   1      38.112  34.280  34.642  1.00  0.00     0.031 C 
ATOM     36  C   UNL A   1      39.997  33.231  35.868  1.00  0.00     0.037 A 
BRANCH  23  37
ATOM     37  C   UNL A   1      43.923  28.472  35.986  1.00  0.00     0.058 A 
ATOM     38  C   UNL A   1      43.632  27.438  36.893  1.00  0.00     0.135 A 
ATOM     39  C   UNL A   1      45.277  28.700  35.702  1.00  0.00     0.135 A 
ATOM     40  F   UNL A   1      42.370  27.052  37.099  1.00  0.00    -0.206 F 
ATOM     41  C   UNL A   1      44.621  26.717  37.553  1.00  0.00     0.059 A 
ATOM     42  C   UNL A   1      46.291  27.962  36.322  1.00  0.00     0.059 A 
ATOM     43  F   UNL A   1      45.627  29.623  34.794  1.00  0.00    -0.206 F 
ATOM     44  C   UNL A   1      45.952  26.990  37.267  1.00  0.00     0.060 A 
BRANCH  44  45
ATOM     45  S   UNL A   1      47.234  26.014  38.084  1.00  0.00     0.124 S 
ATOM     46  O   UNL A   1      46.567  24.723  38.218  1.00  0.00    -0.237 OA
ATOM     47  O   UNL A   1      48.338  26.054  37.128  1.00  0.00    -0.237 OA
ATOM     48  O   UNL A   1      47.461  26.742  39.327  1.00  0.00    -0.744 OA
ENDBRANCH  44  45
ENDBRANCH  23  37
BRANCH  24  49
ATOM     49  C   UNL A   1      36.572  33.111  30.855  1.00  0.00     0.058 A 
ATOM     50  C   UNL A   1      35.239  32.970  31.264  1.00  0.00     0.135 A 
ATOM     51  C   UNL A   1      36.831  33.939  29.748  1.00  0.00     0.135 A 
ATOM     52  F   UNL A   1      34.939  32.190  32.313  1.00  0.00    -0.206 F 
ATOM     53  C   UNL A   1      34.202  33.623  30.604  1.00  0.00     0.059 A 
ATOM     54  C   UNL A   1      35.816  34.622  29.088  1.00  0.00     0.059 A 
ATOM     55  F   UNL A   1      38.092  34.123  29.327  1.00  0.00    -0.206 F 
ATOM     56  C   UNL A   1      34.502  34.452  29.519  1.00  0.00     0.060 A 
BRANCH  56  57
ATOM     57  S   UNL A   1      33.156  35.337  28.701  1.00  0.00     0.124 S 
ATOM     58  O   UNL A   1      32.511  34.263  27.954  1.00  0.00    -0.237 OA
ATOM     59  O   UNL A   1      32.404  35.868  29.834  1.00  0.00    -0.237 OA
ATOM     60  O   UNL A   1      33.852  36.336  27.897  1.00  0.00    -0.744 OA
ENDBRANCH  56  57
ENDBRANCH  24  49
BRANCH  36  61
ATOM     61  C   UNL A   1      39.797  34.245  36.950  1.00  0.00     0.058 A 
ATOM     62  C   UNL A   1      38.988  33.962  38.059  1.00  0.00     0.135 A 
ATOM     63  C   UNL A   1      40.503  35.457  36.931  1.00  0.00     0.135 A 
ATOM     64  F   UNL A   1      38.287  32.819  38.111  1.00  0.00    -0.206 F 
ATOM     65  C   UNL A   1      38.892  34.848  39.123  1.00  0.00     0.059 A 
ATOM     66  C   UNL A   1      40.437  36.350  37.995  1.00  0.00     0.059 A 
ATOM     67  F   UNL A   1      41.295  35.763  35.890  1.00  0.00    -0.206 F 
ATOM     68  C   UNL A   1      39.630  36.034  39.087  1.00  0.00     0.060 A 
BRANCH  68  69
ATOM     69  S   UNL A   1      39.564  37.129  40.519  1.00  0.00     0.124 S 
ATOM     70  O   UNL A   1      39.403  36.175  41.611  1.00  0.00    -0.237 OA
ATOM     71  O   UNL A   1      40.857  37.805  40.452  1.00  0.00    -0.237 OA
ATOM     72  O   UNL A   1      38.406  37.974  40.247  1.00  0.00    -0.744 OA
ENDBRANCH  68  69
ENDBRANCH  36  61
ENDBRANCH  10  11
ENDBRANCH   3   5
ENDBRANCH   2   3
ENDBRANCH   1   2
BRANCH   1  73
ATOM     73  C   UNL A   1      38.541  21.864  25.772  1.00  0.00     0.275 C 
BRANCH  73  74
ATOM     74  O   UNL A   1      37.414  22.751  25.820  1.00  0.00    -0.458 OA
BRANCH  74  75
ATOM     75  C   UNL A   1      36.610  22.719  24.721  1.00  0.00     0.339 C 
ATOM     76  O   UNL A   1      36.886  23.109  23.608  1.00  0.00    -0.246 OA
BRANCH  75  77
ATOM     77  C   UNL A   1      35.342  22.039  25.073  1.00  0.00     0.071 A 
ATOM     78  C   UNL A   1      35.217  20.668  24.813  1.00  0.00     0.047 A 
ATOM     79  C   UNL A   1      34.255  22.795  25.590  1.00  0.00     0.018 A 
ATOM     80  C   UNL A   1      33.996  20.076  25.076  1.00  0.00     0.090 A 
ATOM     81  C   UNL A   1      33.065  22.081  25.807  1.00  0.00     0.072 A 
ATOM     82  C   UNL A   1      34.236  24.193  25.829  1.00  0.00     0.050 A 
ATOM     83  N   UNL A   1      32.956  20.779  25.588  1.00  0.00    -0.246 NA
ATOM     84  C   UNL A   1      31.913  22.734  26.211  1.00  0.00     0.032 A 
ATOM     85  C   UNL A   1      33.065  24.825  26.239  1.00  0.00     0.123 A 
ATOM     86  C   UNL A   1      31.896  24.106  26.424  1.00  0.00     0.041 A 
ATOM     87  F   UNL A   1      33.060  26.148  26.442  1.00  0.00    -0.207 F 
BRANCH  80  88
ATOM     88  C   UNL A   1      33.668  18.673  24.806  1.00  0.00     0.089 A 
ATOM     89  C   UNL A   1      34.551  17.807  24.171  1.00  0.00     0.030 A 
ATOM     90  N   UNL A   1      32.491  18.253  25.344  1.00  0.00    -0.255 NA
ATOM     91  C   UNL A   1      34.252  16.449  24.173  1.00  0.00     0.004 A 
ATOM     92  C   UNL A   1      32.216  16.936  25.311  1.00  0.00     0.112 A 
ATOM     93  C   UNL A   1      33.079  16.004  24.777  1.00  0.00     0.020 A 
ENDBRANCH  80  88
ENDBRANCH  75  77
ENDBRANCH  74  75
ENDBRANCH  73  74
ENDBRANCH   1  73
TORSDOF 15
ENDMDL
MODEL 3
REMARK VINA RESULT:     -12.3      3.386      9.470
REMARK SMILES O=C(OCCOC(=O)c1cc(-c2ccccn2)nc2ccc(F)cc12)c1ccc(-c2c3nc(c(-c4c(F)cc(S(=O)(=O)[O-])cc4F)c4ccc([nH]4)c(-c4c(F)cc(S(=O)(=O)[O-])cc4F)c4nc(c(-c5c(F)cc(S(=O)(=O)[O-])cc5F)c5ccc2[nH]5)C=C4)C=C3)cc1
REMARK SMILES IDX 4 1 3 2 2 3 1 4 26 5 27 6 91 7 28 8 90 9 29 10 30 11 31 12
REMARK SMILES IDX 84 13 32 14 89 15 83 16 85 17 33 18 88 19 82 20 81 21 34 23
REMARK SMILES IDX 68 24 47 25 67 26 48 27 51 28 66 29 86 30 49 31 50 32 65 34
REMARK SMILES IDX 87 35 52 36 35 37 36 38 45 39 37 40 38 41 44 42 46 43 39 44
REMARK SMILES IDX 40 45 41 46 42 47 43 48 69 49 70 50 79 51 71 52 72 53 78 54
REMARK SMILES IDX 80 55 73 56 74 57 75 58 76 59 77 60 53 61 54 62 63 63 55 64
REMARK SMILES IDX 56 65 62 66 64 67 57 68 58 69 59 70 60 71 61 72 5 73 6 74
REMARK SMILES IDX 7 75 8 76 9 77 10 78 25 79 11 80 19 81 24 82 18 83 20 84
REMARK SMILES IDX 22 85 21 86 23 87 12 88 13 89 17 90 14 91 16 92 15 93
REMARK H PARENT 85 22 51 33
REMARK Flexibility Score: inf
ROOT
ATOM      1  C   UNL A   1      38.975  20.103  25.555  1.00  0.00     0.275 C 
ENDROOT
BRANCH   1   2
ATOM      2  O   UNL A   1      40.025  19.655  26.429  1.00  0.00    -0.458 OA
BRANCH   2   3
ATOM      3  C   UNL A   1      41.348  19.762  26.133  1.00  0.00     0.338 C 
ATOM      4  O   UNL A   1      42.004  18.782  25.803  1.00  0.00    -0.246 OA
BRANCH   3   5
ATOM      5  C   UNL A   1      42.045  21.017  26.512  1.00  0.00     0.060 A 
ATOM      6  C   UNL A   1      42.447  21.849  25.466  1.00  0.00     0.016 A 
ATOM      7  C   UNL A   1      42.282  21.417  27.831  1.00  0.00     0.016 A 
ATOM      8  C   UNL A   1      43.197  22.997  25.725  1.00  0.00     0.010 A 
ATOM      9  C   UNL A   1      43.005  22.588  28.095  1.00  0.00     0.010 A 
ATOM     10  C   UNL A   1      43.480  23.382  27.045  1.00  0.00    -0.014 A 
BRANCH  10  11
ATOM     11  C   UNL A   1      44.034  24.737  27.304  1.00  0.00     0.031 A 
ATOM     12  C   UNL A   1      45.503  25.054  27.185  1.00  0.00     0.074 A 
ATOM     13  C   UNL A   1      43.139  25.680  27.663  1.00  0.00     0.049 A 
ATOM     14  N   UNL A   1      46.108  26.210  27.305  1.00  0.00    -0.248 NA
ATOM     15  C   UNL A   1      46.423  23.938  26.908  1.00  0.00     0.031 C 
ATOM     16  C   UNL A   1      41.701  25.441  27.855  1.00  0.00     0.029 A 
ATOM     17  N   UNL A   1      43.283  27.015  27.929  1.00  0.00    -0.354 N 
ATOM     18  C   UNL A   1      47.459  25.977  27.050  1.00  0.00     0.074 A 
ATOM     19  C   UNL A   1      47.602  24.552  26.840  1.00  0.00     0.031 C 
ATOM     20  C   UNL A   1      41.099  26.588  28.191  1.00  0.00     0.029 A 
ATOM     21  C   UNL A   1      42.106  27.635  28.276  1.00  0.00     0.049 A 
ATOM     22  H   UNL A   1      44.147  27.484  27.878  1.00  0.00     0.167 HD
ATOM     23  C   UNL A   1      48.459  26.891  26.955  1.00  0.00     0.037 A 
ATOM     24  C   UNL A   1      41.865  28.907  28.641  1.00  0.00     0.037 A 
ATOM     25  C   UNL A   1      48.251  28.303  27.155  1.00  0.00     0.049 A 
ATOM     26  C   UNL A   1      43.012  29.869  28.629  1.00  0.00     0.074 A 
ATOM     27  C   UNL A   1      49.164  29.334  27.014  1.00  0.00     0.029 A 
ATOM     28  N   UNL A   1      47.054  28.880  27.560  1.00  0.00    -0.354 N 
ATOM     29  N   UNL A   1      44.253  29.652  28.264  1.00  0.00    -0.248 NA
ATOM     30  C   UNL A   1      42.741  31.239  29.077  1.00  0.00     0.031 C 
ATOM     31  C   UNL A   1      48.526  30.528  27.353  1.00  0.00     0.029 A 
ATOM     32  C   UNL A   1      47.216  30.246  27.708  1.00  0.00     0.049 A 
ATOM     33  H   UNL A   1      46.216  28.389  27.718  1.00  0.00     0.167 HD
ATOM     34  C   UNL A   1      44.911  30.862  28.421  1.00  0.00     0.074 A 
ATOM     35  C   UNL A   1      43.927  31.811  28.908  1.00  0.00     0.031 C 
ATOM     36  C   UNL A   1      46.210  31.161  28.185  1.00  0.00     0.037 A 
BRANCH  23  37
ATOM     37  C   UNL A   1      49.849  26.448  26.563  1.00  0.00     0.058 A 
ATOM     38  C   UNL A   1      50.755  26.004  27.541  1.00  0.00     0.135 A 
ATOM     39  C   UNL A   1      50.244  26.308  25.225  1.00  0.00     0.135 A 
ATOM     40  F   UNL A   1      50.395  25.956  28.827  1.00  0.00    -0.206 F 
ATOM     41  C   UNL A   1      52.021  25.521  27.229  1.00  0.00     0.059 A 
ATOM     42  C   UNL A   1      51.497  25.788  24.882  1.00  0.00     0.059 A 
ATOM     43  F   UNL A   1      49.404  26.647  24.237  1.00  0.00    -0.206 F 
ATOM     44  C   UNL A   1      52.389  25.422  25.894  1.00  0.00     0.060 A 
BRANCH  44  45
ATOM     45  S   UNL A   1      54.013  24.742  25.488  1.00  0.00     0.124 S 
ATOM     46  O   UNL A   1      54.427  25.623  24.400  1.00  0.00    -0.237 OA
ATOM     47  O   UNL A   1      54.755  24.896  26.737  1.00  0.00    -0.237 OA
ATOM     48  O   UNL A   1      53.709  23.367  25.110  1.00  0.00    -0.744 OA
ENDBRANCH  44  45
ENDBRANCH  23  37
BRANCH  24  49
ATOM     49  C   UNL A   1      40.493  29.307  29.052  1.00  0.00     0.058 A 
ATOM     50  C   UNL A   1      40.164  29.521  30.397  1.00  0.00     0.135 A 
ATOM     51  C   UNL A   1      39.495  29.541  28.090  1.00  0.00     0.135 A 
ATOM     52  F   UNL A   1      41.080  29.309  31.353  1.00  0.00    -0.206 F 
ATOM     53  C   UNL A   1      38.896  29.951  30.776  1.00  0.00     0.059 A 
ATOM     54  C   UNL A   1      38.229  29.996  28.441  1.00  0.00     0.059 A 
ATOM     55  F   UNL A   1      39.763  29.369  26.786  1.00  0.00    -0.206 F 
ATOM     56  C   UNL A   1      37.935  30.191  29.789  1.00  0.00     0.060 A 
BRANCH  56  57
ATOM     57  S   UNL A   1      36.309  30.800  30.286  1.00  0.00     0.124 S 
ATOM     58  O   UNL A   1      35.935  29.832  31.310  1.00  0.00    -0.237 OA
ATOM     59  O   UNL A   1      36.616  32.146  30.761  1.00  0.00    -0.237 OA
ATOM     60  O   UNL A   1      35.536  30.741  29.049  1.00  0.00    -0.744 OA
ENDBRANCH  56  57
ENDBRANCH  24  49
BRANCH  36  61
ATOM     61  C   UNL A   1      46.644  32.569  28.448  1.00  0.00     0.058 A 
ATOM     62  C   UNL A   1      47.214  32.926  29.678  1.00  0.00     0.135 A 
ATOM     63  C   UNL A   1      46.590  33.535  27.432  1.00  0.00     0.135 A 
ATOM     64  F   UNL A   1      47.274  32.035  30.680  1.00  0.00    -0.206 F 
ATOM     65  C   UNL A   1      47.727  34.198  29.890  1.00  0.00     0.059 A 
ATOM     66  C   UNL A   1      47.117  34.808  27.616  1.00  0.00     0.059 A 
ATOM     67  F   UNL A   1      46.059  33.230  26.237  1.00  0.00    -0.206 F 
ATOM     68  C   UNL A   1      47.686  35.128  28.848  1.00  0.00     0.060 A 
BRANCH  68  69
ATOM     69  S   UNL A   1      48.440  36.746  29.111  1.00  0.00     0.124 S 
ATOM     70  O   UNL A   1      48.914  36.628  30.486  1.00  0.00    -0.237 OA
ATOM     71  O   UNL A   1      49.477  36.775  28.083  1.00  0.00    -0.237 OA
ATOM     72  O   UNL A   1      47.334  37.674  28.905  1.00  0.00    -0.744 OA
ENDBRANCH  68  69
ENDBRANCH  36  61
ENDBRANCH  10  11
ENDBRANCH   3   5
ENDBRANCH   2   3
ENDBRANCH   1   2
BRANCH   1  73
ATOM     73  C   UNL A   1      38.601  21.579  25.713  1.00  0.00     0.275 C 
BRANCH  73  74
ATOM     74  O   UNL A   1      37.515  21.985  24.868  1.00  0.00    -0.458 OA
BRANCH  74  75
ATOM     75  C   UNL A   1      36.432  22.486  25.525  1.00  0.00     0.339 C 
ATOM     76  O   UNL A   1      36.437  23.322  26.401  1.00  0.00    -0.246 OA
BRANCH  75  77
ATOM     77  C   UNL A   1      35.202  21.906  24.937  1.00  0.00     0.071 A 
ATOM     78  C   UNL A   1      34.939  20.544  25.129  1.00  0.00     0.047 A 
ATOM     79  C   UNL A   1      34.357  22.715  24.130  1.00  0.00     0.018 A 
ATOM     80  C   UNL A   1      33.828  20.012  24.502  1.00  0.00     0.090 A 
ATOM     81  C   UNL A   1      33.265  22.057  23.540  1.00  0.00     0.072 A 
ATOM     82  C   UNL A   1      34.553  24.082  23.806  1.00  0.00     0.050 A 
ATOM     83  N   UNL A   1      33.001  20.774  23.746  1.00  0.00    -0.246 NA
ATOM     84  C   UNL A   1      32.434  22.720  22.654  1.00  0.00     0.032 A 
ATOM     85  C   UNL A   1      33.700  24.727  22.914  1.00  0.00     0.123 A 
ATOM     86  C   UNL A   1      32.644  24.053  22.325  1.00  0.00     0.041 A 
ATOM     87  F   UNL A   1      33.912  26.012  22.605  1.00  0.00    -0.207 F 
BRANCH  80  88
ATOM     88  C   UNL A   1      33.439  18.599  24.540  1.00  0.00     0.089 A 
ATOM     89  C   UNL A   1      34.015  17.641  23.714  1.00  0.00     0.030 A 
ATOM     90  N   UNL A   1      32.569  18.279  25.537  1.00  0.00    -0.255 NA
ATOM     91  C   UNL A   1      33.757  16.302  23.984  1.00  0.00     0.004 A 
ATOM     92  C   UNL A   1      32.319  16.976  25.761  1.00  0.00     0.112 A 
ATOM     93  C   UNL A   1      32.917  15.963  25.042  1.00  0.00     0.020 A 
ENDBRANCH  80  88
ENDBRANCH  75  77
ENDBRANCH  74  75
ENDBRANCH  73  74
ENDBRANCH   1  73
TORSDOF 15
ENDMDL
