MODEL 1
REMARK VINA RESULT:     -11.0      0.000      0.000
REMARK SMILES CC[C@H](NC(=O)NC[C@@]1(C)CCCO1)C(=O)OCCOC(=O)c1ccc(-c2c3nc(c(-c4c(F)cc(S(=O)(=O)[O-])cc4F)c4ccc([nH]4)c(-c4c(F)cc(S(=O)(=O)[O-])cc4F)c4nc(c(-c5c(F)cc(S(=O)(=O)[O-])cc5F)c5ccc2[nH]5)C=C4)C=C3)cc1
REMARK SMILES IDX 18 1 17 2 15 3 16 4 3 5 2 6 1 7 4 8 5 9 6 11 7 12 8 14 9 15
REMARK SMILES IDX 10 16 11 17 14 18 12 19 13 20 19 21 20 22 21 23 22 24 23 25
REMARK SMILES IDX 24 26 88 27 25 28 87 29 26 30 27 31 28 32 81 33 29 34 86 35
REMARK SMILES IDX 80 36 82 37 30 38 85 39 79 40 78 41 31 43 65 44 44 45 64 46
REMARK SMILES IDX 45 47 48 48 63 49 83 50 46 51 47 52 62 54 84 55 49 56 32 57
REMARK SMILES IDX 33 58 42 59 34 60 35 61 41 62 43 63 36 64 37 65 38 66 39 67
REMARK SMILES IDX 40 68 66 69 67 70 76 71 68 72 69 73 75 74 77 75 70 76 71 77
REMARK SMILES IDX 72 78 73 79 74 80 50 81 51 82 60 83 52 84 53 85 59 86 61 87
REMARK SMILES IDX 54 88 55 89 56 90 57 91 58 92
REMARK H PARENT 4 10 7 13 82 42 48 53
REMARK Flexibility Score: inf
ROOT
ATOM      1  C   UNL A   1      33.388  34.945  29.841  1.00  0.00     0.274 C 
ENDROOT
BRANCH   1   2
ATOM      2  O   UNL A   1      33.795  34.596  31.284  1.00  0.00    -0.461 OA
BRANCH   2   3
ATOM      3  C   UNL A   1      34.686  33.562  31.669  1.00  0.00     0.328 C 
ATOM      4  O   UNL A   1      34.286  32.432  31.954  1.00  0.00    -0.250 OA
BRANCH   3   5
ATOM      5  C   UNL A   1      36.306  33.881  31.357  1.00  0.00     0.193 C 
BRANCH   5   6
ATOM      6  C   UNL A   1      37.176  32.852  30.574  1.00  0.00     0.033 C 
ATOM      7  C   UNL A   1      37.634  33.286  29.188  1.00  0.00     0.007 C 
ENDBRANCH   5   6
BRANCH   5   8
ATOM      8  N   UNL A   1      37.074  34.679  32.287  1.00  0.00    -0.325 N 
ATOM      9  C   UNL A   1      37.590  34.361  33.478  1.00  0.00     0.315 C 
ATOM     10  H   UNL A   1      37.242  35.605  31.996  1.00  0.00     0.166 HD
ATOM     11  O   UNL A   1      38.165  35.247  34.113  1.00  0.00    -0.249 OA
ATOM     12  N   UNL A   1      37.582  33.121  33.990  1.00  0.00    -0.335 N 
ATOM     13  H   UNL A   1      37.976  33.127  34.891  1.00  0.00     0.165 HD
BRANCH  12  14
ATOM     14  C   UNL A   1      37.158  31.723  33.621  1.00  0.00     0.152 C 
BRANCH  14  15
ATOM     15  C   UNL A   1      38.218  30.470  33.674  1.00  0.00     0.083 C 
ATOM     16  C   UNL A   1      37.165  29.511  32.863  1.00  0.00     0.044 C 
ATOM     17  C   UNL A   1      39.822  30.599  33.351  1.00  0.00     0.039 C 
ATOM     18  O   UNL A   1      38.475  30.239  35.079  1.00  0.00    -0.373 OA
ATOM     19  C   UNL A   1      40.664  29.901  34.386  1.00  0.00     0.031 C 
ATOM     20  C   UNL A   1      39.828  30.246  35.555  1.00  0.00     0.161 C 
ENDBRANCH  14  15
ENDBRANCH  12  14
ENDBRANCH   5   8
ENDBRANCH   3   5
ENDBRANCH   2   3
ENDBRANCH   1   2
BRANCH   1  21
ATOM     21  C   UNL A   1      33.382  33.851  28.394  1.00  0.00     0.275 C 
BRANCH  21  22
ATOM     22  O   UNL A   1      33.849  32.214  28.125  1.00  0.00    -0.458 OA
BRANCH  22  23
ATOM     23  C   UNL A   1      34.330  30.907  27.965  1.00  0.00     0.338 C 
ATOM     24  O   UNL A   1      33.485  30.109  27.534  1.00  0.00    -0.246 OA
BRANCH  23  25
ATOM     25  C   UNL A   1      35.776  30.141  28.173  1.00  0.00     0.060 A 
ATOM     26  C   UNL A   1      36.320  29.463  29.279  1.00  0.00     0.016 A 
ATOM     27  C   UNL A   1      36.778  30.283  27.201  1.00  0.00     0.016 A 
ATOM     28  C   UNL A   1      37.649  29.055  29.526  1.00  0.00     0.010 A 
ATOM     29  C   UNL A   1      38.138  29.801  27.376  1.00  0.00     0.010 A 
ATOM     30  C   UNL A   1      38.601  29.195  28.561  1.00  0.00    -0.014 A 
BRANCH  30  31
ATOM     31  C   UNL A   1      40.018  28.793  28.842  1.00  0.00     0.031 A 
ATOM     32  C   UNL A   1      40.984  29.840  29.324  1.00  0.00     0.074 A 
ATOM     33  C   UNL A   1      40.471  27.520  28.728  1.00  0.00     0.049 A 
ATOM     34  N   UNL A   1      42.290  29.856  29.275  1.00  0.00    -0.248 NA
ATOM     35  C   UNL A   1      40.388  31.034  29.946  1.00  0.00     0.031 C 
ATOM     36  C   UNL A   1      39.659  26.323  28.483  1.00  0.00     0.029 A 
ATOM     37  N   UNL A   1      41.761  27.024  28.759  1.00  0.00    -0.354 N 
ATOM     38  C   UNL A   1      42.670  31.102  29.763  1.00  0.00     0.074 A 
ATOM     39  C   UNL A   1      41.457  31.796  30.138  1.00  0.00     0.031 C 
ATOM     40  C   UNL A   1      40.465  25.260  28.322  1.00  0.00     0.029 A 
ATOM     41  C   UNL A   1      41.851  25.706  28.359  1.00  0.00     0.049 A 
ATOM     42  H   UNL A   1      42.539  27.559  29.040  1.00  0.00     0.167 HD
ATOM     43  C   UNL A   1      43.919  31.622  29.854  1.00  0.00     0.037 A 
ATOM     44  C   UNL A   1      42.910  24.961  27.972  1.00  0.00     0.037 A 
ATOM     45  C   UNL A   1      45.117  30.895  29.513  1.00  0.00     0.049 A 
ATOM     46  C   UNL A   1      44.281  25.584  27.960  1.00  0.00     0.074 A 
ATOM     47  C   UNL A   1      46.430  31.331  29.557  1.00  0.00     0.029 A 
ATOM     48  N   UNL A   1      45.150  29.580  29.071  1.00  0.00    -0.354 N 
ATOM     49  N   UNL A   1      44.638  26.798  28.306  1.00  0.00    -0.248 NA
ATOM     50  C   UNL A   1      45.393  24.744  27.491  1.00  0.00     0.031 C 
ATOM     51  C   UNL A   1      47.250  30.301  29.086  1.00  0.00     0.029 A 
ATOM     52  C   UNL A   1      46.457  29.197  28.814  1.00  0.00     0.049 A 
ATOM     53  H   UNL A   1      44.361  29.003  28.958  1.00  0.00     0.167 HD
ATOM     54  C   UNL A   1      46.017  26.855  28.129  1.00  0.00     0.074 A 
ATOM     55  C   UNL A   1      46.432  25.553  27.652  1.00  0.00     0.031 C 
ATOM     56  C   UNL A   1      46.862  27.894  28.349  1.00  0.00     0.037 A 
BRANCH  43  57
ATOM     57  C   UNL A   1      44.052  33.066  30.259  1.00  0.00     0.058 A 
ATOM     58  C   UNL A   1      43.907  34.124  29.350  1.00  0.00     0.135 A 
ATOM     59  C   UNL A   1      44.300  33.392  31.604  1.00  0.00     0.135 A 
ATOM     60  F   UNL A   1      43.688  33.873  28.049  1.00  0.00    -0.206 F 
ATOM     61  C   UNL A   1      44.030  35.452  29.752  1.00  0.00     0.059 A 
ATOM     62  C   UNL A   1      44.395  34.712  32.035  1.00  0.00     0.059 A 
ATOM     63  F   UNL A   1      44.451  32.421  32.518  1.00  0.00    -0.206 F 
ATOM     64  C   UNL A   1      44.273  35.736  31.098  1.00  0.00     0.060 A 
BRANCH  64  65
ATOM     65  S   UNL A   1      44.425  37.462  31.606  1.00  0.00     0.124 S 
ATOM     66  O   UNL A   1      44.018  38.160  30.391  1.00  0.00    -0.237 OA
ATOM     67  O   UNL A   1      43.492  37.539  32.725  1.00  0.00    -0.237 OA
ATOM     68  O   UNL A   1      45.836  37.590  31.960  1.00  0.00    -0.744 OA
ENDBRANCH  64  65
ENDBRANCH  43  57
BRANCH  44  69
ATOM     69  C   UNL A   1      42.709  23.563  27.490  1.00  0.00     0.058 A 
ATOM     70  C   UNL A   1      42.631  23.274  26.119  1.00  0.00     0.135 A 
ATOM     71  C   UNL A   1      42.596  22.485  28.386  1.00  0.00     0.135 A 
ATOM     72  F   UNL A   1      42.708  24.268  25.221  1.00  0.00    -0.206 F 
ATOM     73  C   UNL A   1      42.453  21.974  25.654  1.00  0.00     0.059 A 
ATOM     74  C   UNL A   1      42.447  21.173  27.944  1.00  0.00     0.059 A 
ATOM     75  F   UNL A   1      42.662  22.700  29.709  1.00  0.00    -0.206 F 
ATOM     76  C   UNL A   1      42.373  20.928  26.574  1.00  0.00     0.060 A 
BRANCH  76  77
ATOM     77  S   UNL A   1      42.223  19.238  25.952  1.00  0.00     0.124 S 
ATOM     78  O   UNL A   1      42.727  18.462  27.079  1.00  0.00    -0.237 OA
ATOM     79  O   UNL A   1      40.789  19.135  25.696  1.00  0.00    -0.237 OA
ATOM     80  O   UNL A   1      43.065  19.243  24.760  1.00  0.00    -0.744 OA
ENDBRANCH  76  77
ENDBRANCH  44  69
BRANCH  56  81
ATOM     81  C   UNL A   1      48.333  27.651  28.133  1.00  0.00     0.058 A 
ATOM     82  C   UNL A   1      49.145  27.073  29.121  1.00  0.00     0.135 A 
ATOM     83  C   UNL A   1      48.925  27.959  26.897  1.00  0.00     0.135 A 
ATOM     84  F   UNL A   1      48.634  26.767  30.324  1.00  0.00    -0.206 F 
ATOM     85  C   UNL A   1      50.498  26.833  28.900  1.00  0.00     0.059 A 
ATOM     86  C   UNL A   1      50.268  27.700  26.644  1.00  0.00     0.059 A 
ATOM     87  F   UNL A   1      48.192  28.505  25.914  1.00  0.00    -0.206 F 
ATOM     88  C   UNL A   1      51.050  27.148  27.656  1.00  0.00     0.060 A 
BRANCH  88  89
ATOM     89  S   UNL A   1      52.799  26.803  27.373  1.00  0.00     0.124 S 
ATOM     90  O   UNL A   1      52.766  25.391  27.006  1.00  0.00    -0.237 OA
ATOM     91  O   UNL A   1      53.129  27.731  26.294  1.00  0.00    -0.237 OA
ATOM     92  O   UNL A   1      53.419  27.102  28.660  1.00  0.00    -0.744 OA
ENDBRANCH  88  89
ENDBRANCH  56  81
ENDBRANCH  30  31
ENDBRANCH  23  25
ENDBRANCH  22  23
ENDBRANCH  21  22
ENDBRANCH   1  21
TORSDOF 18
ENDMDL
MODEL 2
REMARK VINA RESULT:     -11.0      3.558      5.695
REMARK SMILES CC[C@H](NC(=O)NC[C@@]1(C)CCCO1)C(=O)OCCOC(=O)c1ccc(-c2c3nc(c(-c4c(F)cc(S(=O)(=O)[O-])cc4F)c4ccc([nH]4)c(-c4c(F)cc(S(=O)(=O)[O-])cc4F)c4nc(c(-c5c(F)cc(S(=O)(=O)[O-])cc5F)c5ccc2[nH]5)C=C4)C=C3)cc1
REMARK SMILES IDX 18 1 17 2 15 3 16 4 3 5 2 6 1 7 4 8 5 9 6 11 7 12 8 14 9 15
REMARK SMILES IDX 10 16 11 17 14 18 12 19 13 20 19 21 20 22 21 23 22 24 23 25
REMARK SMILES IDX 24 26 88 27 25 28 87 29 26 30 27 31 28 32 81 33 29 34 86 35
REMARK SMILES IDX 80 36 82 37 30 38 85 39 79 40 78 41 31 43 65 44 44 45 64 46
REMARK SMILES IDX 45 47 48 48 63 49 83 50 46 51 47 52 62 54 84 55 49 56 32 57
REMARK SMILES IDX 33 58 42 59 34 60 35 61 41 62 43 63 36 64 37 65 38 66 39 67
REMARK SMILES IDX 40 68 66 69 67 70 76 71 68 72 69 73 75 74 77 75 70 76 71 77
REMARK SMILES IDX 72 78 73 79 74 80 50 81 51 82 60 83 52 84 53 85 59 86 61 87
REMARK SMILES IDX 54 88 55 89 56 90 57 91 58 92
REMARK H PARENT 4 10 7 13 82 42 48 53
REMARK Flexibility Score: inf
ROOT
ATOM      1  C   UNL A   1      31.580  29.452  25.205  1.00  0.00     0.274 C 
ENDROOT
BRANCH   1   2
ATOM      2  O   UNL A   1      31.801  27.934  25.070  1.00  0.00    -0.461 OA
BRANCH   2   3
ATOM      3  C   UNL A   1      31.401  26.949  26.008  1.00  0.00     0.328 C 
ATOM      4  O   UNL A   1      31.422  27.160  27.221  1.00  0.00    -0.250 OA
BRANCH   3   5
ATOM      5  C   UNL A   1      30.571  25.646  25.344  1.00  0.00     0.193 C 
BRANCH   5   6
ATOM      6  C   UNL A   1      29.916  25.764  23.935  1.00  0.00     0.033 C 
ATOM      7  C   UNL A   1      28.501  26.328  23.903  1.00  0.00     0.007 C 
ENDBRANCH   5   6
BRANCH   5   8
ATOM      8  N   UNL A   1      29.888  24.712  26.210  1.00  0.00    -0.325 N 
ATOM      9  C   UNL A   1      30.351  23.642  26.865  1.00  0.00     0.315 C 
ATOM     10  H   UNL A   1      28.928  24.892  26.338  1.00  0.00     0.166 HD
ATOM     11  O   UNL A   1      29.545  22.964  27.505  1.00  0.00    -0.249 OA
ATOM     12  N   UNL A   1      31.648  23.305  26.925  1.00  0.00    -0.335 N 
ATOM     13  H   UNL A   1      31.754  22.463  27.422  1.00  0.00     0.165 HD
BRANCH  12  14
ATOM     14  C   UNL A   1      32.993  23.810  26.469  1.00  0.00     0.152 C 
BRANCH  14  15
ATOM     15  C   UNL A   1      33.996  22.868  25.571  1.00  0.00     0.083 C 
ATOM     16  C   UNL A   1      34.892  24.175  25.153  1.00  0.00     0.044 C 
ATOM     17  C   UNL A   1      34.601  21.424  26.065  1.00  0.00     0.039 C 
ATOM     18  O   UNL A   1      33.148  22.226  24.590  1.00  0.00    -0.373 OA
ATOM     19  C   UNL A   1      34.472  20.365  25.004  1.00  0.00     0.031 C 
ATOM     20  C   UNL A   1      33.157  20.795  24.483  1.00  0.00     0.161 C 
ENDBRANCH  14  15
ENDBRANCH  12  14
ENDBRANCH   5   8
ENDBRANCH   3   5
ENDBRANCH   2   3
ENDBRANCH   1   2
BRANCH   1  21
ATOM     21  C   UNL A   1      31.874  30.489  26.665  1.00  0.00     0.275 C 
BRANCH  21  22
ATOM     22  O   UNL A   1      33.259  30.848  27.624  1.00  0.00    -0.458 OA
BRANCH  22  23
ATOM     23  C   UNL A   1      34.425  31.029  28.381  1.00  0.00     0.338 C 
ATOM     24  O   UNL A   1      34.373  31.989  29.163  1.00  0.00    -0.246 OA
BRANCH  23  25
ATOM     25  C   UNL A   1      35.875  30.257  28.531  1.00  0.00     0.060 A 
ATOM     26  C   UNL A   1      36.552  29.760  29.659  1.00  0.00     0.016 A 
ATOM     27  C   UNL A   1      36.739  30.191  27.428  1.00  0.00     0.016 A 
ATOM     28  C   UNL A   1      37.897  29.352  29.800  1.00  0.00     0.010 A 
ATOM     29  C   UNL A   1      38.104  29.696  27.507  1.00  0.00     0.010 A 
ATOM     30  C   UNL A   1      38.712  29.287  28.710  1.00  0.00    -0.014 A 
BRANCH  30  31
ATOM     31  C   UNL A   1      40.149  28.887  28.872  1.00  0.00     0.031 A 
ATOM     32  C   UNL A   1      41.158  29.944  29.228  1.00  0.00     0.074 A 
ATOM     33  C   UNL A   1      40.586  27.609  28.757  1.00  0.00     0.049 A 
ATOM     34  N   UNL A   1      42.454  29.951  29.058  1.00  0.00    -0.248 NA
ATOM     35  C   UNL A   1      40.624  31.160  29.863  1.00  0.00     0.031 C 
ATOM     36  C   UNL A   1      39.753  26.409  28.627  1.00  0.00     0.029 A 
ATOM     37  N   UNL A   1      41.873  27.108  28.685  1.00  0.00    -0.354 N 
ATOM     38  C   UNL A   1      42.880  31.210  29.467  1.00  0.00     0.074 A 
ATOM     39  C   UNL A   1      41.708  31.922  29.931  1.00  0.00     0.031 C 
ATOM     40  C   UNL A   1      40.538  25.336  28.427  1.00  0.00     0.029 A 
ATOM     41  C   UNL A   1      41.923  25.777  28.321  1.00  0.00     0.049 A 
ATOM     42  H   UNL A   1      42.675  27.647  28.875  1.00  0.00     0.167 HD
ATOM     43  C   UNL A   1      44.133  31.726  29.426  1.00  0.00     0.037 A 
ATOM     44  C   UNL A   1      42.939  25.015  27.862  1.00  0.00     0.037 A 
ATOM     45  C   UNL A   1      45.293  30.983  28.999  1.00  0.00     0.049 A 
ATOM     46  C   UNL A   1      44.305  25.630  27.702  1.00  0.00     0.074 A 
ATOM     47  C   UNL A   1      46.605  31.414  28.907  1.00  0.00     0.029 A 
ATOM     48  N   UNL A   1      45.282  29.655  28.599  1.00  0.00    -0.354 N 
ATOM     49  N   UNL A   1      44.695  26.852  27.974  1.00  0.00    -0.248 NA
ATOM     50  C   UNL A   1      45.367  24.769  27.159  1.00  0.00     0.031 C 
ATOM     51  C   UNL A   1      47.376  30.364  28.396  1.00  0.00     0.029 A 
ATOM     52  C   UNL A   1      46.558  29.257  28.234  1.00  0.00     0.049 A 
ATOM     53  H   UNL A   1      44.484  29.078  28.578  1.00  0.00     0.167 HD
ATOM     54  C   UNL A   1      46.052  26.897  27.669  1.00  0.00     0.074 A 
ATOM     55  C   UNL A   1      46.417  25.578  27.197  1.00  0.00     0.031 C 
ATOM     56  C   UNL A   1      46.916  27.937  27.776  1.00  0.00     0.037 A 
BRANCH  43  57
ATOM     57  C   UNL A   1      44.306  33.182  29.770  1.00  0.00     0.058 A 
ATOM     58  C   UNL A   1      44.122  34.209  28.833  1.00  0.00     0.135 A 
ATOM     59  C   UNL A   1      44.634  33.553  31.086  1.00  0.00     0.135 A 
ATOM     60  F   UNL A   1      43.826  33.915  27.556  1.00  0.00    -0.206 F 
ATOM     61  C   UNL A   1      44.284  35.548  29.179  1.00  0.00     0.059 A 
ATOM     62  C   UNL A   1      44.768  34.885  31.463  1.00  0.00     0.059 A 
ATOM     63  F   UNL A   1      44.825  32.612  32.026  1.00  0.00    -0.206 F 
ATOM     64  C   UNL A   1      44.606  35.876  30.498  1.00  0.00     0.060 A 
BRANCH  64  65
ATOM     65  S   UNL A   1      44.808  37.617  30.934  1.00  0.00     0.124 S 
ATOM     66  O   UNL A   1      46.181  37.866  30.511  1.00  0.00    -0.237 OA
ATOM     67  O   UNL A   1      43.771  38.260  30.132  1.00  0.00    -0.237 OA
ATOM     68  O   UNL A   1      44.582  37.636  32.376  1.00  0.00    -0.744 OA
ENDBRANCH  64  65
ENDBRANCH  43  57
BRANCH  44  69
ATOM     69  C   UNL A   1      42.692  23.603  27.445  1.00  0.00     0.058 A 
ATOM     70  C   UNL A   1      42.530  23.265  26.093  1.00  0.00     0.135 A 
ATOM     71  C   UNL A   1      42.616  22.560  28.386  1.00  0.00     0.135 A 
ATOM     72  F   UNL A   1      42.568  24.222  25.155  1.00  0.00    -0.206 F 
ATOM     73  C   UNL A   1      42.307  21.951  25.688  1.00  0.00     0.059 A 
ATOM     74  C   UNL A   1      42.424  21.235  28.004  1.00  0.00     0.059 A 
ATOM     75  F   UNL A   1      42.762  22.823  29.694  1.00  0.00    -0.206 F 
ATOM     76  C   UNL A   1      42.267  20.941  26.651  1.00  0.00     0.060 A 
BRANCH  76  77
ATOM     77  S   UNL A   1      42.058  19.231  26.104  1.00  0.00     0.124 S 
ATOM     78  O   UNL A   1      42.435  18.489  27.301  1.00  0.00    -0.237 OA
ATOM     79  O   UNL A   1      40.641  19.197  25.751  1.00  0.00    -0.237 OA
ATOM     80  O   UNL A   1      42.978  19.125  24.976  1.00  0.00    -0.744 OA
ENDBRANCH  76  77
ENDBRANCH  44  69
BRANCH  56  81
ATOM     81  C   UNL A   1      48.360  27.680  27.433  1.00  0.00     0.058 A 
ATOM     82  C   UNL A   1      49.279  27.212  28.383  1.00  0.00     0.135 A 
ATOM     83  C   UNL A   1      48.815  27.862  26.116  1.00  0.00     0.135 A 
ATOM     84  F   UNL A   1      48.901  27.029  29.658  1.00  0.00    -0.206 F 
ATOM     85  C   UNL A   1      50.606  26.956  28.048  1.00  0.00     0.059 A 
ATOM     86  C   UNL A   1      50.129  27.584  25.751  1.00  0.00     0.059 A 
ATOM     87  F   UNL A   1      47.976  28.299  25.165  1.00  0.00    -0.206 F 
ATOM     88  C   UNL A   1      51.020  27.143  26.727  1.00  0.00     0.060 A 
BRANCH  88  89
ATOM     89  S   UNL A   1      52.735  26.779  26.298  1.00  0.00     0.124 S 
ATOM     90  O   UNL A   1      52.664  26.694  24.843  1.00  0.00    -0.237 OA
ATOM     91  O   UNL A   1      53.443  27.940  26.830  1.00  0.00    -0.237 OA
ATOM     92  O   UNL A   1      53.000  25.520  26.988  1.00  0.00    -0.744 OA
ENDBRANCH  88  89
ENDBRANCH  56  81
ENDBRANCH  30  31
ENDBRANCH  23  25
ENDBRANCH  22  23
ENDBRANCH  21  22
ENDBRANCH   1  21
TORSDOF 18
ENDMDL
MODEL 3
REMARK VINA RESULT:     -10.9      3.347      6.067
REMARK SMILES CC[C@H](NC(=O)NC[C@@]1(C)CCCO1)C(=O)OCCOC(=O)c1ccc(-c2c3nc(c(-c4c(F)cc(S(=O)(=O)[O-])cc4F)c4ccc([nH]4)c(-c4c(F)cc(S(=O)(=O)[O-])cc4F)c4nc(c(-c5c(F)cc(S(=O)(=O)[O-])cc5F)c5ccc2[nH]5)C=C4)C=C3)cc1
REMARK SMILES IDX 18 1 17 2 15 3 16 4 3 5 2 6 1 7 4 8 5 9 6 11 7 12 8 14 9 15
REMARK SMILES IDX 10 16 11 17 14 18 12 19 13 20 19 21 20 22 21 23 22 24 23 25
REMARK SMILES IDX 24 26 88 27 25 28 87 29 26 30 27 31 28 32 81 33 29 34 86 35
REMARK SMILES IDX 80 36 82 37 30 38 85 39 79 40 78 41 31 43 65 44 44 45 64 46
REMARK SMILES IDX 45 47 48 48 63 49 83 50 46 51 47 52 62 54 84 55 49 56 32 57
REMARK SMILES IDX 33 58 42 59 34 60 35 61 41 62 43 63 36 64 37 65 38 66 39 67
REMARK SMILES IDX 40 68 66 69 67 70 76 71 68 72 69 73 75 74 77 75 70 76 71 77
REMARK SMILES IDX 72 78 73 79 74 80 50 81 51 82 60 83 52 84 53 85 59 86 61 87
REMARK SMILES IDX 54 88 55 89 56 90 57 91 58 92
REMARK H PARENT 4 10 7 13 82 42 48 53
REMARK Flexibility Score: inf
ROOT
ATOM      1  C   UNL A   1      31.421  26.632  26.238  1.00  0.00     0.274 C 
ENDROOT
BRANCH   1   2
ATOM      2  O   UNL A   1      32.116  25.259  26.243  1.00  0.00    -0.461 OA
BRANCH   2   3
ATOM      3  C   UNL A   1      31.470  24.001  26.358  1.00  0.00     0.328 C 
ATOM      4  O   UNL A   1      30.565  23.807  27.171  1.00  0.00    -0.250 OA
BRANCH   3   5
ATOM      5  C   UNL A   1      31.770  22.941  25.088  1.00  0.00     0.193 C 
BRANCH   5   6
ATOM      6  C   UNL A   1      31.166  23.211  23.677  1.00  0.00     0.033 C 
ATOM      7  C   UNL A   1      30.739  24.646  23.398  1.00  0.00     0.007 C 
ENDBRANCH   5   6
BRANCH   5   8
ATOM      8  N   UNL A   1      31.974  21.536  25.357  1.00  0.00    -0.325 N 
ATOM      9  C   UNL A   1      33.059  20.888  25.790  1.00  0.00     0.315 C 
ATOM     10  H   UNL A   1      31.188  20.965  25.194  1.00  0.00     0.166 HD
ATOM     11  O   UNL A   1      32.998  19.661  25.890  1.00  0.00    -0.249 OA
ATOM     12  N   UNL A   1      34.185  21.498  26.191  1.00  0.00    -0.335 N 
ATOM     13  H   UNL A   1      34.865  20.828  26.428  1.00  0.00     0.165 HD
BRANCH  12  14
ATOM     14  C   UNL A   1      34.736  22.886  26.391  1.00  0.00     0.152 C 
BRANCH  14  15
ATOM     15  C   UNL A   1      36.115  23.371  25.641  1.00  0.00     0.083 C 
ATOM     16  C   UNL A   1      35.246  24.162  24.499  1.00  0.00     0.044 C 
ATOM     17  C   UNL A   1      37.430  23.973  26.417  1.00  0.00     0.039 C 
ATOM     18  O   UNL A   1      36.820  22.153  25.302  1.00  0.00    -0.373 OA
ATOM     19  C   UNL A   1      38.709  23.344  25.933  1.00  0.00     0.031 C 
ATOM     20  C   UNL A   1      38.174  21.979  25.743  1.00  0.00     0.161 C 
ENDBRANCH  14  15
ENDBRANCH  12  14
ENDBRANCH   5   8
ENDBRANCH   3   5
ENDBRANCH   2   3
ENDBRANCH   1   2
BRANCH   1  21
ATOM     21  C   UNL A   1      31.675  28.008  27.393  1.00  0.00     0.275 C 
BRANCH  21  22
ATOM     22  O   UNL A   1      32.957  29.128  27.662  1.00  0.00    -0.458 OA
BRANCH  22  23
ATOM     23  C   UNL A   1      34.006  30.052  27.763  1.00  0.00     0.338 C 
ATOM     24  O   UNL A   1      33.658  31.230  27.595  1.00  0.00    -0.246 OA
BRANCH  23  25
ATOM     25  C   UNL A   1      35.622  29.982  28.090  1.00  0.00     0.060 A 
ATOM     26  C   UNL A   1      36.746  30.079  27.251  1.00  0.00     0.016 A 
ATOM     27  C   UNL A   1      36.051  29.586  29.366  1.00  0.00     0.016 A 
ATOM     28  C   UNL A   1      38.096  29.750  27.505  1.00  0.00     0.010 A 
ATOM     29  C   UNL A   1      37.441  29.320  29.697  1.00  0.00     0.010 A 
ATOM     30  C   UNL A   1      38.487  29.377  28.756  1.00  0.00    -0.014 A 
BRANCH  30  31
ATOM     31  C   UNL A   1      39.915  28.994  29.011  1.00  0.00     0.031 A 
ATOM     32  C   UNL A   1      40.873  30.050  29.488  1.00  0.00     0.074 A 
ATOM     33  C   UNL A   1      40.385  27.729  28.876  1.00  0.00     0.049 A 
ATOM     34  N   UNL A   1      42.178  30.086  29.418  1.00  0.00    -0.248 NA
ATOM     35  C   UNL A   1      40.269  31.229  30.131  1.00  0.00     0.031 C 
ATOM     36  C   UNL A   1      39.587  26.522  28.633  1.00  0.00     0.029 A 
ATOM     37  N   UNL A   1      41.682  27.252  28.882  1.00  0.00    -0.354 N 
ATOM     38  C   UNL A   1      42.547  31.333  29.911  1.00  0.00     0.074 A 
ATOM     39  C   UNL A   1      41.329  32.005  30.313  1.00  0.00     0.031 C 
ATOM     40  C   UNL A   1      40.406  25.473  28.449  1.00  0.00     0.029 A 
ATOM     41  C   UNL A   1      41.786  25.940  28.468  1.00  0.00     0.049 A 
ATOM     42  H   UNL A   1      42.457  27.796  29.156  1.00  0.00     0.167 HD
ATOM     43  C   UNL A   1      43.789  31.871  29.988  1.00  0.00     0.037 A 
ATOM     44  C   UNL A   1      42.849  25.215  28.057  1.00  0.00     0.037 A 
ATOM     45  C   UNL A   1      44.992  31.166  29.620  1.00  0.00     0.049 A 
ATOM     46  C   UNL A   1      44.211  25.858  28.028  1.00  0.00     0.074 A 
ATOM     47  C   UNL A   1      46.299  31.621  29.647  1.00  0.00     0.029 A 
ATOM     48  N   UNL A   1      45.038  29.856  29.165  1.00  0.00    -0.354 N 
ATOM     49  N   UNL A   1      44.555  27.074  28.381  1.00  0.00    -0.248 NA
ATOM     50  C   UNL A   1      45.328  25.040  27.533  1.00  0.00     0.031 C 
ATOM     51  C   UNL A   1      47.127  30.608  29.153  1.00  0.00     0.029 A 
ATOM     52  C   UNL A   1      46.346  29.496  28.883  1.00  0.00     0.049 A 
ATOM     53  H   UNL A   1      44.255  29.268  29.059  1.00  0.00     0.167 HD
ATOM     54  C   UNL A   1      45.930  27.154  28.182  1.00  0.00     0.074 A 
ATOM     55  C   UNL A   1      46.356  25.863  27.685  1.00  0.00     0.031 C 
ATOM     56  C   UNL A   1      46.763  28.203  28.399  1.00  0.00     0.037 A 
BRANCH  43  57
ATOM     57  C   UNL A   1      43.907  33.313  30.405  1.00  0.00     0.058 A 
ATOM     58  C   UNL A   1      44.234  33.698  31.714  1.00  0.00     0.135 A 
ATOM     59  C   UNL A   1      43.717  34.331  29.455  1.00  0.00     0.135 A 
ATOM     60  F   UNL A   1      44.409  32.770  32.669  1.00  0.00    -0.206 F 
ATOM     61  C   UNL A   1      44.342  35.039  32.072  1.00  0.00     0.059 A 
ATOM     62  C   UNL A   1      43.851  35.677  29.782  1.00  0.00     0.059 A 
ATOM     63  F   UNL A   1      43.398  34.022  28.188  1.00  0.00    -0.206 F 
ATOM     64  C   UNL A   1      44.150  36.022  31.099  1.00  0.00     0.060 A 
BRANCH  64  65
ATOM     65  S   UNL A   1      44.298  37.757  31.577  1.00  0.00     0.124 S 
ATOM     66  O   UNL A   1      45.724  37.858  31.869  1.00  0.00    -0.237 OA
ATOM     67  O   UNL A   1      43.846  38.450  30.375  1.00  0.00    -0.237 OA
ATOM     68  O   UNL A   1      43.412  37.869  32.733  1.00  0.00    -0.744 OA
ENDBRANCH  64  65
ENDBRANCH  43  57
BRANCH  44  69
ATOM     69  C   UNL A   1      42.662  23.818  27.563  1.00  0.00     0.058 A 
ATOM     70  C   UNL A   1      42.707  22.727  28.444  1.00  0.00     0.135 A 
ATOM     71  C   UNL A   1      42.430  23.543  26.204  1.00  0.00     0.135 A 
ATOM     72  F   UNL A   1      42.950  22.929  29.748  1.00  0.00    -0.206 F 
ATOM     73  C   UNL A   1      42.526  21.420  28.000  1.00  0.00     0.059 A 
ATOM     74  C   UNL A   1      42.216  22.248  25.740  1.00  0.00     0.059 A 
ATOM     75  F   UNL A   1      42.377  24.547  25.314  1.00  0.00    -0.206 F 
ATOM     76  C   UNL A   1      42.270  21.191  26.647  1.00  0.00     0.060 A 
BRANCH  76  77
ATOM     77  S   UNL A   1      41.957  19.497  26.100  1.00  0.00     0.124 S 
ATOM     78  O   UNL A   1      42.404  18.726  27.253  1.00  0.00    -0.237 OA
ATOM     79  O   UNL A   1      40.516  19.517  25.864  1.00  0.00    -0.237 OA
ATOM     80  O   UNL A   1      42.778  19.376  24.899  1.00  0.00    -0.744 OA
ENDBRANCH  76  77
ENDBRANCH  44  69
BRANCH  56  81
ATOM     81  C   UNL A   1      48.233  27.985  28.157  1.00  0.00     0.058 A 
ATOM     82  C   UNL A   1      48.827  28.228  26.909  1.00  0.00     0.135 A 
ATOM     83  C   UNL A   1      49.068  27.571  29.209  1.00  0.00     0.135 A 
ATOM     84  F   UNL A   1      48.076  28.617  25.866  1.00  0.00    -0.206 F 
ATOM     85  C   UNL A   1      50.192  28.045  26.705  1.00  0.00     0.059 A 
ATOM     86  C   UNL A   1      50.439  27.410  29.036  1.00  0.00     0.059 A 
ATOM     87  F   UNL A   1      48.554  27.332  30.426  1.00  0.00    -0.206 F 
ATOM     88  C   UNL A   1      50.990  27.637  27.776  1.00  0.00     0.060 A 
BRANCH  88  89
ATOM     89  S   UNL A   1      52.763  27.433  27.506  1.00  0.00     0.124 S 
ATOM     90  O   UNL A   1      53.309  28.551  28.269  1.00  0.00    -0.237 OA
ATOM     91  O   UNL A   1      53.012  26.106  28.062  1.00  0.00    -0.237 OA
ATOM     92  O   UNL A   1      52.902  27.535  26.057  1.00  0.00    -0.744 OA
ENDBRANCH  88  89
ENDBRANCH  56  81
ENDBRANCH  30  31
ENDBRANCH  23  25
ENDBRANCH  22  23
ENDBRANCH  21  22
ENDBRANCH   1  21
TORSDOF 18
ENDMDL
