MODEL 1
REMARK VINA RESULT:     -10.1      0.000      0.000
REMARK SMILES CCN(C(=O)N1C[C@@H](C)[C@H](C(=O)OC)C1)C(C)(C)C(=O)OCCOC(=O)c1ccc(-c2c3nc(c(-c4c(F)cc(S(=O)(=O)[O-])cc4F)c4ccc([nH]4)c(-c4c(F)cc(S(=O)(=O)[O-])cc4F)c4nc(c(-c5c(F)cc(S(=O)(=O)[O-])cc5F)c5ccc2[nH]5)C=C4)C=C3)cc1
REMARK SMILES IDX 22 1 21 2 19 3 20 4 16 5 17 6 18 7 3 8 2 9 1 10 4 11 5 12
REMARK SMILES IDX 6 13 7 14 15 15 8 16 10 17 9 18 11 19 12 20 13 21 14 22
REMARK SMILES IDX 23 23 24 24 25 25 26 26 27 27 28 28 92 29 29 30 91 31 30 32
REMARK SMILES IDX 31 33 32 34 85 35 33 36 90 37 84 38 86 39 34 40 89 41 83 42
REMARK SMILES IDX 82 43 35 45 69 46 48 47 68 48 49 49 52 50 67 51 87 52 50 53
REMARK SMILES IDX 51 54 66 56 88 57 53 58 36 59 37 60 46 61 38 62 39 63 45 64
REMARK SMILES IDX 47 65 40 66 41 67 42 68 43 69 44 70 70 71 71 72 80 73 72 74
REMARK SMILES IDX 73 75 79 76 81 77 74 78 75 79 76 80 77 81 78 82 54 83 55 84
REMARK SMILES IDX 64 85 56 86 57 87 63 88 65 89 58 90 59 91 60 92 61 93 62 94
REMARK H PARENT 86 44 52 55
REMARK Flexibility Score: inf
ROOT
ATOM      1  C   UNL A   1      32.441  30.065  25.702  1.00  0.00     0.274 C 
ENDROOT
BRANCH   1   2
ATOM      2  O   UNL A   1      32.212  28.661  25.459  1.00  0.00    -0.460 OA
BRANCH   2   3
ATOM      3  C   UNL A   1      31.449  28.285  24.374  1.00  0.00     0.331 C 
ATOM      4  O   UNL A   1      30.930  29.107  23.633  1.00  0.00    -0.249 OA
BRANCH   3   5
ATOM      5  C   UNL A   1      31.268  26.695  24.328  1.00  0.00     0.136 C 
ATOM      6  C   UNL A   1      29.886  26.384  23.725  1.00  0.00     0.047 C 
ATOM      7  C   UNL A   1      31.227  26.266  25.819  1.00  0.00     0.047 C 
BRANCH   5   8
ATOM      8  N   UNL A   1      32.356  25.934  23.562  1.00  0.00    -0.309 N 
BRANCH   8   9
ATOM      9  C   UNL A   1      32.819  26.370  22.222  1.00  0.00     0.119 C 
ATOM     10  C   UNL A   1      32.599  25.538  20.975  1.00  0.00     0.027 C 
ENDBRANCH   8   9
BRANCH   8  11
ATOM     11  C   UNL A   1      33.419  25.340  24.317  1.00  0.00     0.320 C 
ATOM     12  O   UNL A   1      34.227  25.961  24.994  1.00  0.00    -0.248 OA
BRANCH  11  13
ATOM     13  N   UNL A   1      33.409  23.959  24.252  1.00  0.00    -0.323 N 
ATOM     14  C   UNL A   1      32.277  23.056  24.263  1.00  0.00     0.125 C 
ATOM     15  C   UNL A   1      34.511  23.266  23.667  1.00  0.00     0.137 C 
ATOM     16  C   UNL A   1      32.930  21.675  24.529  1.00  0.00     0.021 C 
ATOM     17  C   UNL A   1      34.447  21.895  24.318  1.00  0.00     0.123 C 
ATOM     18  C   UNL A   1      32.430  20.575  23.601  1.00  0.00     0.010 C 
BRANCH  17  19
ATOM     19  C   UNL A   1      35.193  21.712  25.633  1.00  0.00     0.310 C 
ATOM     20  O   UNL A   1      34.625  21.699  26.718  1.00  0.00    -0.252 OA
BRANCH  19  21
ATOM     21  O   UNL A   1      36.537  21.548  25.493  1.00  0.00    -0.469 OA
ATOM     22  C   UNL A   1      36.924  20.248  25.028  1.00  0.00     0.282 C 
ENDBRANCH  19  21
ENDBRANCH  17  19
ENDBRANCH  11  13
ENDBRANCH   8  11
ENDBRANCH   5   8
ENDBRANCH   3   5
ENDBRANCH   2   3
ENDBRANCH   1   2
BRANCH   1  23
ATOM     23  C   UNL A   1      32.526  30.429  27.189  1.00  0.00     0.275 C 
BRANCH  23  24
ATOM     24  O   UNL A   1      33.740  29.937  27.786  1.00  0.00    -0.458 OA
BRANCH  24  25
ATOM     25  C   UNL A   1      34.528  30.891  28.334  1.00  0.00     0.338 C 
ATOM     26  O   UNL A   1      34.166  31.974  28.763  1.00  0.00    -0.246 OA
BRANCH  25  27
ATOM     27  C   UNL A   1      35.893  30.369  28.554  1.00  0.00     0.060 A 
ATOM     28  C   UNL A   1      36.741  30.470  27.466  1.00  0.00     0.016 A 
ATOM     29  C   UNL A   1      36.352  29.751  29.727  1.00  0.00     0.016 A 
ATOM     30  C   UNL A   1      38.038  29.983  27.571  1.00  0.00     0.010 A 
ATOM     31  C   UNL A   1      37.698  29.307  29.824  1.00  0.00     0.010 A 
ATOM     32  C   UNL A   1      38.575  29.461  28.746  1.00  0.00    -0.014 A 
BRANCH  32  33
ATOM     33  C   UNL A   1      40.032  29.101  28.695  1.00  0.00     0.031 A 
ATOM     34  C   UNL A   1      41.044  30.013  29.352  1.00  0.00     0.074 A 
ATOM     35  C   UNL A   1      40.449  27.855  28.368  1.00  0.00     0.049 A 
ATOM     36  N   UNL A   1      42.330  29.836  29.528  1.00  0.00    -0.248 NA
ATOM     37  C   UNL A   1      40.521  31.257  29.935  1.00  0.00     0.031 C 
ATOM     38  C   UNL A   1      39.582  26.750  27.961  1.00  0.00     0.029 A 
ATOM     39  N   UNL A   1      41.707  27.283  28.407  1.00  0.00    -0.354 N 
ATOM     40  C   UNL A   1      42.772  30.948  30.233  1.00  0.00     0.074 A 
ATOM     41  C   UNL A   1      41.609  31.771  30.492  1.00  0.00     0.031 C 
ATOM     42  C   UNL A   1      40.325  25.636  27.822  1.00  0.00     0.029 A 
ATOM     43  C   UNL A   1      41.736  25.948  28.060  1.00  0.00     0.049 A 
ATOM     44  H   UNL A   1      42.515  27.786  28.662  1.00  0.00     0.167 HD
ATOM     45  C   UNL A   1      44.032  31.291  30.595  1.00  0.00     0.037 A 
ATOM     46  C   UNL A   1      42.770  25.083  27.920  1.00  0.00     0.037 A 
ATOM     47  C   UNL A   1      45.217  30.528  30.305  1.00  0.00     0.049 A 
ATOM     48  C   UNL A   1      44.192  25.560  28.140  1.00  0.00     0.074 A 
ATOM     49  C   UNL A   1      46.539  30.893  30.493  1.00  0.00     0.029 A 
ATOM     50  N   UNL A   1      45.231  29.255  29.762  1.00  0.00    -0.354 N 
ATOM     51  N   UNL A   1      44.618  26.684  28.666  1.00  0.00    -0.248 NA
ATOM     52  C   UNL A   1      45.279  24.662  27.708  1.00  0.00     0.031 C 
ATOM     53  C   UNL A   1      47.354  29.868  30.004  1.00  0.00     0.029 A 
ATOM     54  C   UNL A   1      46.539  28.837  29.572  1.00  0.00     0.049 A 
ATOM     55  H   UNL A   1      44.431  28.725  29.544  1.00  0.00     0.167 HD
ATOM     56  C   UNL A   1      46.012  26.622  28.631  1.00  0.00     0.074 A 
ATOM     57  C   UNL A   1      46.363  25.340  28.066  1.00  0.00     0.031 C 
ATOM     58  C   UNL A   1      46.914  27.559  29.016  1.00  0.00     0.037 A 
BRANCH  45  59
ATOM     59  C   UNL A   1      44.205  32.645  31.219  1.00  0.00     0.058 A 
ATOM     60  C   UNL A   1      44.345  33.813  30.458  1.00  0.00     0.135 A 
ATOM     61  C   UNL A   1      44.246  32.755  32.618  1.00  0.00     0.135 A 
ATOM     62  F   UNL A   1      44.340  33.755  29.118  1.00  0.00    -0.206 F 
ATOM     63  C   UNL A   1      44.549  35.047  31.068  1.00  0.00     0.059 A 
ATOM     64  C   UNL A   1      44.424  33.979  33.248  1.00  0.00     0.059 A 
ATOM     65  F   UNL A   1      44.125  31.660  33.385  1.00  0.00    -0.206 F 
ATOM     66  C   UNL A   1      44.594  35.118  32.463  1.00  0.00     0.060 A 
BRANCH  66  67
ATOM     67  S   UNL A   1      44.898  36.716  33.241  1.00  0.00     0.124 S 
ATOM     68  O   UNL A   1      44.019  37.588  32.469  1.00  0.00    -0.237 OA
ATOM     69  O   UNL A   1      44.495  36.472  34.623  1.00  0.00    -0.237 OA
ATOM     70  O   UNL A   1      46.327  36.929  33.036  1.00  0.00    -0.744 OA
ENDBRANCH  66  67
ENDBRANCH  45  59
BRANCH  46  71
ATOM     71  C   UNL A   1      42.548  23.676  27.455  1.00  0.00     0.058 A 
ATOM     72  C   UNL A   1      42.433  22.608  28.362  1.00  0.00     0.135 A 
ATOM     73  C   UNL A   1      42.555  23.354  26.087  1.00  0.00     0.135 A 
ATOM     74  F   UNL A   1      42.457  22.846  29.683  1.00  0.00    -0.206 F 
ATOM     75  C   UNL A   1      42.352  21.282  27.935  1.00  0.00     0.059 A 
ATOM     76  C   UNL A   1      42.436  22.043  25.634  1.00  0.00     0.059 A 
ATOM     77  F   UNL A   1      42.687  24.324  25.168  1.00  0.00    -0.206 F 
ATOM     78  C   UNL A   1      42.355  21.011  26.566  1.00  0.00     0.060 A 
BRANCH  78  79
ATOM     79  S   UNL A   1      42.228  19.295  26.010  1.00  0.00     0.124 S 
ATOM     80  O   UNL A   1      40.799  19.180  25.738  1.00  0.00    -0.237 OA
ATOM     81  O   UNL A   1      43.102  19.284  24.841  1.00  0.00    -0.237 OA
ATOM     82  O   UNL A   1      42.716  18.535  27.156  1.00  0.00    -0.744 OA
ENDBRANCH  78  79
ENDBRANCH  46  71
BRANCH  58  83
ATOM     83  C   UNL A   1      48.385  27.260  28.856  1.00  0.00     0.058 A 
ATOM     84  C   UNL A   1      49.089  27.612  27.692  1.00  0.00     0.135 A 
ATOM     85  C   UNL A   1      49.125  26.700  29.912  1.00  0.00     0.135 A 
ATOM     86  F   UNL A   1      48.439  28.152  26.648  1.00  0.00    -0.206 F 
ATOM     87  C   UNL A   1      50.462  27.406  27.573  1.00  0.00     0.059 A 
ATOM     88  C   UNL A   1      50.504  26.510  29.826  1.00  0.00     0.059 A 
ATOM     89  F   UNL A   1      48.514  26.354  31.057  1.00  0.00    -0.206 F 
ATOM     90  C   UNL A   1      51.163  26.858  28.649  1.00  0.00     0.060 A 
BRANCH  90  91
ATOM     91  S   UNL A   1      52.952  26.645  28.502  1.00  0.00     0.124 S 
ATOM     92  O   UNL A   1      53.310  26.213  29.849  1.00  0.00    -0.237 OA
ATOM     93  O   UNL A   1      53.061  25.627  27.461  1.00  0.00    -0.237 OA
ATOM     94  O   UNL A   1      53.425  27.973  28.122  1.00  0.00    -0.744 OA
ENDBRANCH  90  91
ENDBRANCH  58  83
ENDBRANCH  32  33
ENDBRANCH  25  27
ENDBRANCH  24  25
ENDBRANCH  23  24
ENDBRANCH   1  23
TORSDOF 20
ENDMDL
MODEL 2
REMARK VINA RESULT:      -9.9      3.754      9.014
REMARK SMILES CCN(C(=O)N1C[C@@H](C)[C@H](C(=O)OC)C1)C(C)(C)C(=O)OCCOC(=O)c1ccc(-c2c3nc(c(-c4c(F)cc(S(=O)(=O)[O-])cc4F)c4ccc([nH]4)c(-c4c(F)cc(S(=O)(=O)[O-])cc4F)c4nc(c(-c5c(F)cc(S(=O)(=O)[O-])cc5F)c5ccc2[nH]5)C=C4)C=C3)cc1
REMARK SMILES IDX 22 1 21 2 19 3 20 4 16 5 17 6 18 7 3 8 2 9 1 10 4 11 5 12
REMARK SMILES IDX 6 13 7 14 15 15 8 16 10 17 9 18 11 19 12 20 13 21 14 22
REMARK SMILES IDX 23 23 24 24 25 25 26 26 27 27 28 28 92 29 29 30 91 31 30 32
REMARK SMILES IDX 31 33 32 34 85 35 33 36 90 37 84 38 86 39 34 40 89 41 83 42
REMARK SMILES IDX 82 43 35 45 69 46 48 47 68 48 49 49 52 50 67 51 87 52 50 53
REMARK SMILES IDX 51 54 66 56 88 57 53 58 36 59 37 60 46 61 38 62 39 63 45 64
REMARK SMILES IDX 47 65 40 66 41 67 42 68 43 69 44 70 70 71 71 72 80 73 72 74
REMARK SMILES IDX 73 75 79 76 81 77 74 78 75 79 76 80 77 81 78 82 54 83 55 84
REMARK SMILES IDX 64 85 56 86 57 87 63 88 65 89 58 90 59 91 60 92 61 93 62 94
REMARK H PARENT 86 44 52 55
REMARK Flexibility Score: inf
ROOT
ATOM      1  C   UNL A   1      36.283  21.741  25.238  1.00  0.00     0.274 C 
ENDROOT
BRANCH   1   2
ATOM      2  O   UNL A   1      35.237  21.518  24.270  1.00  0.00    -0.460 OA
BRANCH   2   3
ATOM      3  C   UNL A   1      33.922  21.593  24.675  1.00  0.00     0.331 C 
ATOM      4  O   UNL A   1      33.480  20.888  25.570  1.00  0.00    -0.249 OA
BRANCH   3   5
ATOM      5  C   UNL A   1      33.097  22.606  23.749  1.00  0.00     0.136 C 
ATOM      6  C   UNL A   1      32.149  21.783  22.860  1.00  0.00     0.047 C 
ATOM      7  C   UNL A   1      34.166  23.241  22.820  1.00  0.00     0.047 C 
BRANCH   5   8
ATOM      8  N   UNL A   1      32.306  23.684  24.500  1.00  0.00    -0.309 N 
BRANCH   8   9
ATOM      9  C   UNL A   1      30.954  23.420  25.050  1.00  0.00     0.119 C 
ATOM     10  C   UNL A   1      30.732  22.948  26.473  1.00  0.00     0.027 C 
ENDBRANCH   8   9
BRANCH   8  11
ATOM     11  C   UNL A   1      33.036  24.603  25.322  1.00  0.00     0.320 C 
ATOM     12  O   UNL A   1      34.015  24.313  25.997  1.00  0.00    -0.248 OA
BRANCH  11  13
ATOM     13  N   UNL A   1      32.551  25.895  25.233  1.00  0.00    -0.323 N 
ATOM     14  C   UNL A   1      32.167  26.796  26.299  1.00  0.00     0.125 C 
ATOM     15  C   UNL A   1      32.835  26.684  24.079  1.00  0.00     0.137 C 
ATOM     16  C   UNL A   1      31.390  27.912  25.553  1.00  0.00     0.021 C 
ATOM     17  C   UNL A   1      31.696  27.688  24.053  1.00  0.00     0.123 C 
ATOM     18  C   UNL A   1      31.800  29.321  25.963  1.00  0.00     0.010 C 
BRANCH  17  19
ATOM     19  C   UNL A   1      30.428  27.286  23.311  1.00  0.00     0.310 C 
ATOM     20  O   UNL A   1      29.628  26.477  23.763  1.00  0.00    -0.252 OA
BRANCH  19  21
ATOM     21  O   UNL A   1      30.259  27.916  22.117  1.00  0.00    -0.469 OA
ATOM     22  C   UNL A   1      30.165  29.343  22.215  1.00  0.00     0.282 C 
ENDBRANCH  19  21
ENDBRANCH  17  19
ENDBRANCH  11  13
ENDBRANCH   8  11
ENDBRANCH   5   8
ENDBRANCH   3   5
ENDBRANCH   2   3
ENDBRANCH   1   2
BRANCH   1  23
ATOM     23  C   UNL A   1      37.358  22.730  24.770  1.00  0.00     0.275 C 
BRANCH  23  24
ATOM     24  O   UNL A   1      37.737  23.637  25.820  1.00  0.00    -0.458 OA
BRANCH  24  25
ATOM     25  C   UNL A   1      38.975  23.432  26.326  1.00  0.00     0.338 C 
ATOM     26  O   UNL A   1      39.669  22.441  26.167  1.00  0.00    -0.246 OA
BRANCH  25  27
ATOM     27  C   UNL A   1      39.495  24.672  26.938  1.00  0.00     0.060 A 
ATOM     28  C   UNL A   1      39.061  24.915  28.229  1.00  0.00     0.016 A 
ATOM     29  C   UNL A   1      40.323  25.612  26.304  1.00  0.00     0.016 A 
ATOM     30  C   UNL A   1      39.477  26.072  28.877  1.00  0.00     0.010 A 
ATOM     31  C   UNL A   1      40.774  26.761  27.008  1.00  0.00     0.010 A 
ATOM     32  C   UNL A   1      40.384  26.980  28.333  1.00  0.00    -0.014 A 
BRANCH  32  33
ATOM     33  C   UNL A   1      40.807  28.102  29.236  1.00  0.00     0.031 A 
ATOM     34  C   UNL A   1      39.859  29.257  29.476  1.00  0.00     0.074 A 
ATOM     35  C   UNL A   1      41.854  27.979  30.085  1.00  0.00     0.049 A 
ATOM     36  N   UNL A   1      39.973  30.265  30.304  1.00  0.00    -0.248 NA
ATOM     37  C   UNL A   1      38.597  29.234  28.723  1.00  0.00     0.031 C 
ATOM     38  C   UNL A   1      42.732  26.816  30.186  1.00  0.00     0.029 A 
ATOM     39  N   UNL A   1      42.307  28.816  31.088  1.00  0.00    -0.354 N 
ATOM     40  C   UNL A   1      38.803  31.001  30.167  1.00  0.00     0.074 A 
ATOM     41  C   UNL A   1      37.974  30.298  29.209  1.00  0.00     0.031 C 
ATOM     42  C   UNL A   1      43.589  26.998  31.209  1.00  0.00     0.029 A 
ATOM     43  C   UNL A   1      43.379  28.320  31.803  1.00  0.00     0.049 A 
ATOM     44  H   UNL A   1      41.899  29.693  31.278  1.00  0.00     0.167 HD
ATOM     45  C   UNL A   1      38.457  32.180  30.739  1.00  0.00     0.037 A 
ATOM     46  C   UNL A   1      44.122  28.867  32.794  1.00  0.00     0.037 A 
ATOM     47  C   UNL A   1      39.277  32.934  31.648  1.00  0.00     0.049 A 
ATOM     48  C   UNL A   1      43.828  30.276  33.272  1.00  0.00     0.074 A 
ATOM     49  C   UNL A   1      39.064  34.213  32.136  1.00  0.00     0.029 A 
ATOM     50  N   UNL A   1      40.466  32.493  32.202  1.00  0.00    -0.354 N 
ATOM     51  N   UNL A   1      42.792  31.039  33.018  1.00  0.00    -0.248 NA
ATOM     52  C   UNL A   1      44.831  30.914  34.146  1.00  0.00     0.031 C 
ATOM     53  C   UNL A   1      40.155  34.569  32.934  1.00  0.00     0.029 A 
ATOM     54  C   UNL A   1      41.017  33.488  32.996  1.00  0.00     0.049 A 
ATOM     55  H   UNL A   1      40.862  31.603  32.056  1.00  0.00     0.167 HD
ATOM     56  C   UNL A   1      43.018  32.236  33.700  1.00  0.00     0.074 A 
ATOM     57  C   UNL A   1      44.269  32.088  34.407  1.00  0.00     0.031 C 
ATOM     58  C   UNL A   1      42.260  33.361  33.716  1.00  0.00     0.037 A 
BRANCH  45  59
ATOM     59  C   UNL A   1      37.178  32.804  30.265  1.00  0.00     0.058 A 
ATOM     60  C   UNL A   1      37.109  33.604  29.117  1.00  0.00     0.135 A 
ATOM     61  C   UNL A   1      36.000  32.600  31.003  1.00  0.00     0.135 A 
ATOM     62  F   UNL A   1      38.212  33.852  28.395  1.00  0.00    -0.206 F 
ATOM     63  C   UNL A   1      35.915  34.206  28.730  1.00  0.00     0.059 A 
ATOM     64  C   UNL A   1      34.793  33.170  30.622  1.00  0.00     0.059 A 
ATOM     65  F   UNL A   1      36.022  31.848  32.114  1.00  0.00    -0.206 F 
ATOM     66  C   UNL A   1      34.765  33.987  29.494  1.00  0.00     0.060 A 
BRANCH  66  67
ATOM     67  S   UNL A   1      33.232  34.804  29.006  1.00  0.00     0.124 S 
ATOM     68  O   UNL A   1      32.554  34.940  30.291  1.00  0.00    -0.237 OA
ATOM     69  O   UNL A   1      33.715  36.045  28.409  1.00  0.00    -0.237 OA
ATOM     70  O   UNL A   1      32.624  33.859  28.075  1.00  0.00    -0.744 OA
ENDBRANCH  66  67
ENDBRANCH  45  59
BRANCH  46  71
ATOM     71  C   UNL A   1      45.301  28.144  33.371  1.00  0.00     0.058 A 
ATOM     72  C   UNL A   1      46.566  28.189  32.759  1.00  0.00     0.135 A 
ATOM     73  C   UNL A   1      45.161  27.304  34.488  1.00  0.00     0.135 A 
ATOM     74  F   UNL A   1      46.755  28.944  31.665  1.00  0.00    -0.206 F 
ATOM     75  C   UNL A   1      47.635  27.420  33.218  1.00  0.00     0.059 A 
ATOM     76  C   UNL A   1      46.223  26.557  34.990  1.00  0.00     0.059 A 
ATOM     77  F   UNL A   1      43.973  27.196  35.105  1.00  0.00    -0.206 F 
ATOM     78  C   UNL A   1      47.453  26.606  34.337  1.00  0.00     0.060 A 
BRANCH  78  79
ATOM     79  S   UNL A   1      48.843  25.625  34.948  1.00  0.00     0.124 S 
ATOM     80  O   UNL A   1      49.282  24.948  33.733  1.00  0.00    -0.237 OA
ATOM     81  O   UNL A   1      49.742  26.652  35.465  1.00  0.00    -0.237 OA
ATOM     82  O   UNL A   1      48.230  24.771  35.960  1.00  0.00    -0.744 OA
ENDBRANCH  78  79
ENDBRANCH  46  71
BRANCH  58  83
ATOM     83  C   UNL A   1      42.735  34.545  34.523  1.00  0.00     0.058 A 
ATOM     84  C   UNL A   1      42.390  34.705  35.875  1.00  0.00     0.135 A 
ATOM     85  C   UNL A   1      43.621  35.485  33.968  1.00  0.00     0.135 A 
ATOM     86  F   UNL A   1      41.549  33.839  36.464  1.00  0.00    -0.206 F 
ATOM     87  C   UNL A   1      42.890  35.756  36.641  1.00  0.00     0.059 A 
ATOM     88  C   UNL A   1      44.155  36.530  34.723  1.00  0.00     0.059 A 
ATOM     89  F   UNL A   1      44.001  35.382  32.684  1.00  0.00    -0.206 F 
ATOM     90  C   UNL A   1      43.777  36.663  36.057  1.00  0.00     0.060 A 
BRANCH  90  91
ATOM     91  S   UNL A   1      44.457  37.991  37.076  1.00  0.00     0.124 S 
ATOM     92  O   UNL A   1      43.590  37.939  38.248  1.00  0.00    -0.237 OA
ATOM     93  O   UNL A   1      45.833  37.552  37.287  1.00  0.00    -0.237 OA
ATOM     94  O   UNL A   1      44.307  39.177  36.237  1.00  0.00    -0.744 OA
ENDBRANCH  90  91
ENDBRANCH  58  83
ENDBRANCH  32  33
ENDBRANCH  25  27
ENDBRANCH  24  25
ENDBRANCH  23  24
ENDBRANCH   1  23
TORSDOF 20
ENDMDL
MODEL 3
REMARK VINA RESULT:      -9.9      3.346      9.718
REMARK SMILES CCN(C(=O)N1C[C@@H](C)[C@H](C(=O)OC)C1)C(C)(C)C(=O)OCCOC(=O)c1ccc(-c2c3nc(c(-c4c(F)cc(S(=O)(=O)[O-])cc4F)c4ccc([nH]4)c(-c4c(F)cc(S(=O)(=O)[O-])cc4F)c4nc(c(-c5c(F)cc(S(=O)(=O)[O-])cc5F)c5ccc2[nH]5)C=C4)C=C3)cc1
REMARK SMILES IDX 22 1 21 2 19 3 20 4 16 5 17 6 18 7 3 8 2 9 1 10 4 11 5 12
REMARK SMILES IDX 6 13 7 14 15 15 8 16 10 17 9 18 11 19 12 20 13 21 14 22
REMARK SMILES IDX 23 23 24 24 25 25 26 26 27 27 28 28 92 29 29 30 91 31 30 32
REMARK SMILES IDX 31 33 32 34 85 35 33 36 90 37 84 38 86 39 34 40 89 41 83 42
REMARK SMILES IDX 82 43 35 45 69 46 48 47 68 48 49 49 52 50 67 51 87 52 50 53
REMARK SMILES IDX 51 54 66 56 88 57 53 58 36 59 37 60 46 61 38 62 39 63 45 64
REMARK SMILES IDX 47 65 40 66 41 67 42 68 43 69 44 70 70 71 71 72 80 73 72 74
REMARK SMILES IDX 73 75 79 76 81 77 74 78 75 79 76 80 77 81 78 82 54 83 55 84
REMARK SMILES IDX 64 85 56 86 57 87 63 88 65 89 58 90 59 91 60 92 61 93 62 94
REMARK H PARENT 86 44 52 55
REMARK Flexibility Score: inf
ROOT
ATOM      1  C   UNL A   1      36.131  21.540  25.525  1.00  0.00     0.274 C 
ENDROOT
BRANCH   1   2
ATOM      2  O   UNL A   1      35.218  21.418  24.415  1.00  0.00    -0.460 OA
BRANCH   2   3
ATOM      3  C   UNL A   1      33.864  21.351  24.665  1.00  0.00     0.331 C 
ATOM      4  O   UNL A   1      33.384  20.496  25.393  1.00  0.00    -0.249 OA
BRANCH   3   5
ATOM      5  C   UNL A   1      33.070  22.437  23.797  1.00  0.00     0.136 C 
ATOM      6  C   UNL A   1      32.198  21.690  22.772  1.00  0.00     0.047 C 
ATOM      7  C   UNL A   1      34.175  23.184  23.004  1.00  0.00     0.047 C 
BRANCH   5   8
ATOM      8  N   UNL A   1      32.208  23.416  24.602  1.00  0.00    -0.309 N 
BRANCH   8   9
ATOM      9  C   UNL A   1      30.928  23.000  25.225  1.00  0.00     0.119 C 
ATOM     10  C   UNL A   1      30.691  23.071  26.721  1.00  0.00     0.027 C 
ENDBRANCH   8   9
BRANCH   8  11
ATOM     11  C   UNL A   1      32.876  24.409  25.389  1.00  0.00     0.320 C 
ATOM     12  O   UNL A   1      33.739  24.175  26.225  1.00  0.00    -0.248 OA
BRANCH  11  13
ATOM     13  N   UNL A   1      32.485  25.695  25.065  1.00  0.00    -0.323 N 
ATOM     14  C   UNL A   1      31.692  26.626  25.840  1.00  0.00     0.125 C 
ATOM     15  C   UNL A   1      33.238  26.451  24.118  1.00  0.00     0.137 C 
ATOM     16  C   UNL A   1      31.313  27.715  24.803  1.00  0.00     0.021 C 
ATOM     17  C   UNL A   1      32.225  27.447  23.581  1.00  0.00     0.123 C 
ATOM     18  C   UNL A   1      31.522  29.137  25.306  1.00  0.00     0.010 C 
BRANCH  17  19
ATOM     19  C   UNL A   1      31.389  27.016  22.384  1.00  0.00     0.310 C 
ATOM     20  O   UNL A   1      30.545  27.742  21.873  1.00  0.00    -0.252 OA
BRANCH  19  21
ATOM     21  O   UNL A   1      31.675  25.767  21.925  1.00  0.00    -0.469 OA
ATOM     22  C   UNL A   1      32.474  25.749  20.735  1.00  0.00     0.282 C 
ENDBRANCH  19  21
ENDBRANCH  17  19
ENDBRANCH  11  13
ENDBRANCH   8  11
ENDBRANCH   5   8
ENDBRANCH   3   5
ENDBRANCH   2   3
ENDBRANCH   1   2
BRANCH   1  23
ATOM     23  C   UNL A   1      37.546  21.971  25.118  1.00  0.00     0.275 C 
BRANCH  23  24
ATOM     24  O   UNL A   1      37.963  23.154  25.822  1.00  0.00    -0.458 OA
BRANCH  24  25
ATOM     25  C   UNL A   1      39.234  23.120  26.285  1.00  0.00     0.338 C 
ATOM     26  O   UNL A   1      40.071  22.266  26.044  1.00  0.00    -0.246 OA
BRANCH  25  27
ATOM     27  C   UNL A   1      39.569  24.387  26.967  1.00  0.00     0.060 A 
ATOM     28  C   UNL A   1      39.137  24.478  28.278  1.00  0.00     0.016 A 
ATOM     29  C   UNL A   1      40.221  25.483  26.382  1.00  0.00     0.016 A 
ATOM     30  C   UNL A   1      39.385  25.643  28.994  1.00  0.00     0.010 A 
ATOM     31  C   UNL A   1      40.506  26.643  27.151  1.00  0.00     0.010 A 
ATOM     32  C   UNL A   1      40.123  26.715  28.494  1.00  0.00    -0.014 A 
BRANCH  32  33
ATOM     33  C   UNL A   1      40.389  27.833  29.461  1.00  0.00     0.031 A 
ATOM     34  C   UNL A   1      41.766  27.971  30.072  1.00  0.00     0.074 A 
ATOM     35  C   UNL A   1      39.558  28.896  29.570  1.00  0.00     0.049 A 
ATOM     36  N   UNL A   1      42.243  28.924  30.833  1.00  0.00    -0.248 NA
ATOM     37  C   UNL A   1      42.742  26.927  29.728  1.00  0.00     0.031 C 
ATOM     38  C   UNL A   1      38.298  29.065  28.848  1.00  0.00     0.029 A 
ATOM     39  N   UNL A   1      39.692  30.080  30.271  1.00  0.00    -0.354 N 
ATOM     40  C   UNL A   1      43.571  28.591  31.067  1.00  0.00     0.074 A 
ATOM     41  C   UNL A   1      43.835  27.373  30.329  1.00  0.00     0.031 C 
ATOM     42  C   UNL A   1      37.797  30.286  29.117  1.00  0.00     0.029 A 
ATOM     43  C   UNL A   1      38.655  30.972  30.086  1.00  0.00     0.049 A 
ATOM     44  H   UNL A   1      40.463  30.271  30.854  1.00  0.00     0.167 HD
ATOM     45  C   UNL A   1      44.484  29.204  31.860  1.00  0.00     0.037 A 
ATOM     46  C   UNL A   1      38.406  32.181  30.643  1.00  0.00     0.037 A 
ATOM     47  C   UNL A   1      44.241  30.380  32.651  1.00  0.00     0.049 A 
ATOM     48  C   UNL A   1      39.355  32.746  31.682  1.00  0.00     0.074 A 
ATOM     49  C   UNL A   1      45.065  30.958  33.603  1.00  0.00     0.029 A 
ATOM     50  N   UNL A   1      43.096  31.155  32.595  1.00  0.00    -0.354 N 
ATOM     51  N   UNL A   1      40.555  32.339  32.018  1.00  0.00    -0.248 NA
ATOM     52  C   UNL A   1      38.894  33.919  32.449  1.00  0.00     0.031 C 
ATOM     53  C   UNL A   1      44.391  32.045  34.168  1.00  0.00     0.029 A 
ATOM     54  C   UNL A   1      43.174  32.183  33.523  1.00  0.00     0.049 A 
ATOM     55  H   UNL A   1      42.338  31.000  31.986  1.00  0.00     0.167 HD
ATOM     56  C   UNL A   1      40.988  33.203  33.025  1.00  0.00     0.074 A 
ATOM     57  C   UNL A   1      39.941  34.179  33.222  1.00  0.00     0.031 C 
ATOM     58  C   UNL A   1      42.145  33.172  33.733  1.00  0.00     0.037 A 
BRANCH  45  59
ATOM     59  C   UNL A   1      45.802  28.506  32.026  1.00  0.00     0.058 A 
ATOM     60  C   UNL A   1      45.983  27.436  32.912  1.00  0.00     0.135 A 
ATOM     61  C   UNL A   1      46.910  28.946  31.282  1.00  0.00     0.135 A 
ATOM     62  F   UNL A   1      44.962  26.999  33.665  1.00  0.00    -0.206 F 
ATOM     63  C   UNL A   1      47.230  26.841  33.076  1.00  0.00     0.059 A 
ATOM     64  C   UNL A   1      48.157  28.350  31.412  1.00  0.00     0.059 A 
ATOM     65  F   UNL A   1      46.784  29.973  30.428  1.00  0.00    -0.206 F 
ATOM     66  C   UNL A   1      48.311  27.310  32.326  1.00  0.00     0.060 A 
BRANCH  66  67
ATOM     67  S   UNL A   1      49.931  26.558  32.575  1.00  0.00     0.124 S 
ATOM     68  O   UNL A   1      50.505  27.432  33.592  1.00  0.00    -0.237 OA
ATOM     69  O   UNL A   1      49.586  25.211  33.018  1.00  0.00    -0.237 OA
ATOM     70  O   UNL A   1      50.553  26.640  31.257  1.00  0.00    -0.744 OA
ENDBRANCH  66  67
ENDBRANCH  45  59
BRANCH  46  71
ATOM     71  C   UNL A   1      37.153  32.939  30.327  1.00  0.00     0.058 A 
ATOM     72  C   UNL A   1      35.976  32.764  31.076  1.00  0.00     0.135 A 
ATOM     73  C   UNL A   1      37.076  33.775  29.201  1.00  0.00     0.135 A 
ATOM     74  F   UNL A   1      35.974  31.949  32.142  1.00  0.00    -0.206 F 
ATOM     75  C   UNL A   1      34.773  33.371  30.711  1.00  0.00     0.059 A 
ATOM     76  C   UNL A   1      35.898  34.423  28.839  1.00  0.00     0.059 A 
ATOM     77  F   UNL A   1      38.157  33.965  28.428  1.00  0.00    -0.206 F 
ATOM     78  C   UNL A   1      34.745  34.200  29.589  1.00  0.00     0.060 A 
BRANCH  78  79
ATOM     79  S   UNL A   1      33.194  35.005  29.128  1.00  0.00     0.124 S 
ATOM     80  O   UNL A   1      32.665  34.077  28.134  1.00  0.00    -0.237 OA
ATOM     81  O   UNL A   1      32.479  35.052  30.400  1.00  0.00    -0.237 OA
ATOM     82  O   UNL A   1      33.629  36.299  28.614  1.00  0.00    -0.744 OA
ENDBRANCH  78  79
ENDBRANCH  46  71
BRANCH  58  83
ATOM     83  C   UNL A   1      42.374  34.218  34.797  1.00  0.00     0.058 A 
ATOM     84  C   UNL A   1      42.027  33.995  36.140  1.00  0.00     0.135 A 
ATOM     85  C   UNL A   1      43.033  35.422  34.493  1.00  0.00     0.135 A 
ATOM     86  F   UNL A   1      41.397  32.864  36.495  1.00  0.00    -0.206 F 
ATOM     87  C   UNL A   1      42.308  34.929  37.136  1.00  0.00     0.059 A 
ATOM     88  C   UNL A   1      43.348  36.359  35.477  1.00  0.00     0.059 A 
ATOM     89  F   UNL A   1      43.404  35.690  33.230  1.00  0.00    -0.206 F 
ATOM     90  C   UNL A   1      42.975  36.107  36.795  1.00  0.00     0.060 A 
BRANCH  90  91
ATOM     91  S   UNL A   1      43.379  37.286  38.104  1.00  0.00     0.124 S 
ATOM     92  O   UNL A   1      43.903  38.411  37.337  1.00  0.00    -0.237 OA
ATOM     93  O   UNL A   1      42.083  37.503  38.741  1.00  0.00    -0.237 OA
ATOM     94  O   UNL A   1      44.358  36.572  38.918  1.00  0.00    -0.744 OA
ENDBRANCH  90  91
ENDBRANCH  58  83
ENDBRANCH  32  33
ENDBRANCH  25  27
ENDBRANCH  24  25
ENDBRANCH  23  24
ENDBRANCH   1  23
TORSDOF 20
ENDMDL
