MODEL 1
REMARK VINA RESULT:     -10.2      0.000      0.000
REMARK SMILES C[C@@H](O)[C@@H](NC(=O)CSc1ccncc1)C(=O)OCCOC(=O)c1ccc(-c2c3nc(c(-c4c(F)cc(S(=O)(=O)[O-])cc4F)c4ccc([nH]4)c(-c4c(F)cc(S(=O)(=O)[O-])cc4F)c4nc(c(-c5c(F)cc(S(=O)(=O)[O-])cc5F)c5ccc2[nH]5)C=C4)C=C3)cc1
REMARK SMILES IDX 19 1 18 2 16 3 17 4 4 5 2 6 1 7 3 8 5 10 6 11 7 13 8 14 9 15
REMARK SMILES IDX 10 16 11 17 15 18 12 19 14 20 13 21 20 22 21 23 22 24 23 25
REMARK SMILES IDX 24 26 25 27 89 28 26 29 88 30 27 31 28 32 29 33 82 34 30 35
REMARK SMILES IDX 87 36 81 37 83 38 31 39 86 40 80 41 79 42 32 44 66 45 45 46
REMARK SMILES IDX 65 47 46 48 49 49 64 50 84 51 47 52 48 53 63 55 85 56 50 57
REMARK SMILES IDX 33 58 34 59 43 60 35 61 36 62 42 63 44 64 37 65 38 66 39 67
REMARK SMILES IDX 40 68 41 69 67 70 68 71 77 72 69 73 70 74 76 75 78 76 71 77
REMARK SMILES IDX 72 78 73 79 74 80 75 81 51 82 52 83 61 84 53 85 54 86 60 87
REMARK SMILES IDX 62 88 55 89 56 90 57 91 58 92 59 93
REMARK H PARENT 3 9 5 12 83 43 49 54
REMARK Flexibility Score: inf
ROOT
ATOM      1  C   UNL A   1      33.618  28.525  25.704  1.00  0.00     0.274 C 
ENDROOT
BRANCH   1   2
ATOM      2  O   UNL A   1      32.603  28.013  24.811  1.00  0.00    -0.460 OA
BRANCH   2   3
ATOM      3  C   UNL A   1      32.690  28.400  23.505  1.00  0.00     0.331 C 
ATOM      4  O   UNL A   1      33.525  29.187  23.071  1.00  0.00    -0.250 OA
BRANCH   3   5
ATOM      5  C   UNL A   1      31.556  27.831  22.638  1.00  0.00     0.221 C 
BRANCH   5   6
ATOM      6  C   UNL A   1      30.465  28.868  22.235  1.00  0.00     0.145 C 
ATOM      7  C   UNL A   1      29.797  29.516  23.452  1.00  0.00     0.041 C 
BRANCH   6   8
ATOM      8  O   UNL A   1      31.043  29.982  21.552  1.00  0.00    -0.391 OA
ATOM      9  H   UNL A   1      31.908  29.728  21.193  1.00  0.00     0.211 HD
ENDBRANCH   6   8
ENDBRANCH   5   6
BRANCH   5  10
ATOM     10  N   UNL A   1      31.936  26.919  21.534  1.00  0.00    -0.340 N 
ATOM     11  C   UNL A   1      32.606  25.744  21.429  1.00  0.00     0.231 C 
ATOM     12  H   UNL A   1      31.626  27.246  20.659  1.00  0.00     0.164 HD
ATOM     13  O   UNL A   1      33.042  25.472  20.303  1.00  0.00    -0.274 OA
BRANCH  11  14
ATOM     14  C   UNL A   1      32.742  24.741  22.541  1.00  0.00     0.174 C 
BRANCH  14  15
ATOM     15  S   UNL A   1      34.128  24.898  23.698  1.00  0.00    -0.116 SA
BRANCH  15  16
ATOM     16  C   UNL A   1      34.199  23.492  24.781  1.00  0.00     0.011 A 
ATOM     17  C   UNL A   1      33.990  22.254  24.163  1.00  0.00     0.035 A 
ATOM     18  C   UNL A   1      34.270  23.516  26.167  1.00  0.00     0.035 A 
ATOM     19  C   UNL A   1      33.874  21.116  24.944  1.00  0.00     0.112 A 
ATOM     20  C   UNL A   1      34.153  22.323  26.867  1.00  0.00     0.112 A 
ATOM     21  N   UNL A   1      33.955  21.123  26.287  1.00  0.00    -0.265 NA
ENDBRANCH  15  16
ENDBRANCH  14  15
ENDBRANCH  11  14
ENDBRANCH   5  10
ENDBRANCH   3   5
ENDBRANCH   2   3
ENDBRANCH   1   2
BRANCH   1  22
ATOM     22  C   UNL A   1      33.128  29.701  26.547  1.00  0.00     0.275 C 
BRANCH  22  23
ATOM     23  O   UNL A   1      33.652  29.645  27.882  1.00  0.00    -0.458 OA
BRANCH  23  24
ATOM     24  C   UNL A   1      34.499  30.654  28.179  1.00  0.00     0.338 C 
ATOM     25  O   UNL A   1      34.185  31.803  28.472  1.00  0.00    -0.246 OA
BRANCH  24  26
ATOM     26  C   UNL A   1      35.867  30.136  28.310  1.00  0.00     0.060 A 
ATOM     27  C   UNL A   1      36.283  29.718  29.576  1.00  0.00     0.016 A 
ATOM     28  C   UNL A   1      36.746  30.106  27.226  1.00  0.00     0.016 A 
ATOM     29  C   UNL A   1      37.584  29.280  29.777  1.00  0.00     0.010 A 
ATOM     30  C   UNL A   1      38.059  29.673  27.429  1.00  0.00     0.010 A 
ATOM     31  C   UNL A   1      38.485  29.275  28.708  1.00  0.00    -0.014 A 
BRANCH  31  32
ATOM     32  C   UNL A   1      39.898  28.940  28.977  1.00  0.00     0.031 A 
ATOM     33  C   UNL A   1      40.779  29.960  29.634  1.00  0.00     0.074 A 
ATOM     34  C   UNL A   1      40.356  27.708  28.693  1.00  0.00     0.049 A 
ATOM     35  N   UNL A   1      42.047  29.884  29.936  1.00  0.00    -0.248 NA
ATOM     36  C   UNL A   1      40.145  31.237  30.003  1.00  0.00     0.031 C 
ATOM     37  C   UNL A   1      39.562  26.626  28.108  1.00  0.00     0.029 A 
ATOM     38  N   UNL A   1      41.600  27.159  28.864  1.00  0.00    -0.354 N 
ATOM     39  C   UNL A   1      42.371  31.104  30.516  1.00  0.00     0.074 A 
ATOM     40  C   UNL A   1      41.169  31.910  30.507  1.00  0.00     0.031 C 
ATOM     41  C   UNL A   1      40.341  25.541  27.966  1.00  0.00     0.029 A 
ATOM     42  C   UNL A   1      41.693  25.864  28.416  1.00  0.00     0.049 A 
ATOM     43  H   UNL A   1      42.353  27.644  29.269  1.00  0.00     0.167 HD
ATOM     44  C   UNL A   1      43.563  31.510  31.011  1.00  0.00     0.037 A 
ATOM     45  C   UNL A   1      42.758  25.042  28.354  1.00  0.00     0.037 A 
ATOM     46  C   UNL A   1      44.748  30.692  31.020  1.00  0.00     0.049 A 
ATOM     47  C   UNL A   1      44.085  25.535  28.865  1.00  0.00     0.074 A 
ATOM     48  C   UNL A   1      46.008  31.003  31.497  1.00  0.00     0.029 A 
ATOM     49  N   UNL A   1      44.816  29.397  30.524  1.00  0.00    -0.354 N 
ATOM     50  N   UNL A   1      44.383  26.696  29.398  1.00  0.00    -0.248 NA
ATOM     51  C   UNL A   1      45.221  24.608  28.763  1.00  0.00     0.031 C 
ATOM     52  C   UNL A   1      46.848  29.910  31.255  1.00  0.00     0.029 A 
ATOM     53  C   UNL A   1      46.101  28.902  30.666  1.00  0.00     0.049 A 
ATOM     54  H   UNL A   1      44.061  28.903  30.130  1.00  0.00     0.167 HD
ATOM     55  C   UNL A   1      45.737  26.636  29.710  1.00  0.00     0.074 A 
ATOM     56  C   UNL A   1      46.194  25.317  29.320  1.00  0.00     0.031 C 
ATOM     57  C   UNL A   1      46.531  27.584  30.265  1.00  0.00     0.037 A 
BRANCH  44  58
ATOM     58  C   UNL A   1      43.649  32.910  31.548  1.00  0.00     0.058 A 
ATOM     59  C   UNL A   1      43.492  33.192  32.915  1.00  0.00     0.135 A 
ATOM     60  C   UNL A   1      43.898  33.988  30.682  1.00  0.00     0.135 A 
ATOM     61  F   UNL A   1      43.229  32.202  33.783  1.00  0.00    -0.206 F 
ATOM     62  C   UNL A   1      43.554  34.495  33.400  1.00  0.00     0.059 A 
ATOM     63  C   UNL A   1      43.987  35.296  31.149  1.00  0.00     0.059 A 
ATOM     64  F   UNL A   1      44.048  33.774  29.365  1.00  0.00    -0.206 F 
ATOM     65  C   UNL A   1      43.798  35.541  32.508  1.00  0.00     0.060 A 
BRANCH  65  66
ATOM     66  S   UNL A   1      43.868  37.227  33.148  1.00  0.00     0.124 S 
ATOM     67  O   UNL A   1      45.137  37.212  33.869  1.00  0.00    -0.237 OA
ATOM     68  O   UNL A   1      43.843  38.028  31.928  1.00  0.00    -0.237 OA
ATOM     69  O   UNL A   1      42.674  37.323  33.982  1.00  0.00    -0.744 OA
ENDBRANCH  65  66
ENDBRANCH  44  58
BRANCH  45  70
ATOM     70  C   UNL A   1      42.613  23.683  27.772  1.00  0.00     0.058 A 
ATOM     71  C   UNL A   1      42.687  23.473  26.387  1.00  0.00     0.135 A 
ATOM     72  C   UNL A   1      42.418  22.562  28.594  1.00  0.00     0.135 A 
ATOM     73  F   UNL A   1      42.863  24.514  25.560  1.00  0.00    -0.206 F 
ATOM     74  C   UNL A   1      42.561  22.201  25.837  1.00  0.00     0.059 A 
ATOM     75  C   UNL A   1      42.314  21.278  28.069  1.00  0.00     0.059 A 
ATOM     76  F   UNL A   1      42.352  22.707  29.927  1.00  0.00    -0.206 F 
ATOM     77  C   UNL A   1      42.378  21.109  26.687  1.00  0.00     0.060 A 
BRANCH  77  78
ATOM     78  S   UNL A   1      42.276  19.455  25.969  1.00  0.00     0.124 S 
ATOM     79  O   UNL A   1      42.725  18.624  27.082  1.00  0.00    -0.237 OA
ATOM     80  O   UNL A   1      40.860  19.354  25.627  1.00  0.00    -0.237 OA
ATOM     81  O   UNL A   1      43.185  19.528  24.829  1.00  0.00    -0.744 OA
ENDBRANCH  77  78
ENDBRANCH  45  70
BRANCH  57  82
ATOM     82  C   UNL A   1      47.969  27.219  30.498  1.00  0.00     0.058 A 
ATOM     83  C   UNL A   1      48.956  27.465  29.531  1.00  0.00     0.135 A 
ATOM     84  C   UNL A   1      48.370  26.646  31.716  1.00  0.00     0.135 A 
ATOM     85  F   UNL A   1      48.622  28.006  28.349  1.00  0.00    -0.206 F 
ATOM     86  C   UNL A   1      50.287  27.131  29.751  1.00  0.00     0.059 A 
ATOM     87  C   UNL A   1      49.700  26.326  31.967  1.00  0.00     0.059 A 
ATOM     88  F   UNL A   1      47.467  26.401  32.678  1.00  0.00    -0.206 F 
ATOM     89  C   UNL A   1      50.649  26.558  30.973  1.00  0.00     0.060 A 
BRANCH  89  90
ATOM     90  S   UNL A   1      52.382  26.143  31.257  1.00  0.00     0.124 S 
ATOM     91  O   UNL A   1      52.919  26.184  29.901  1.00  0.00    -0.237 OA
ATOM     92  O   UNL A   1      52.822  27.216  32.144  1.00  0.00    -0.237 OA
ATOM     93  O   UNL A   1      52.318  24.820  31.869  1.00  0.00    -0.744 OA
ENDBRANCH  89  90
ENDBRANCH  57  82
ENDBRANCH  31  32
ENDBRANCH  24  26
ENDBRANCH  23  24
ENDBRANCH  22  23
ENDBRANCH   1  22
TORSDOF 20
ENDMDL
MODEL 2
REMARK VINA RESULT:     -10.0      3.076      4.916
REMARK SMILES C[C@@H](O)[C@@H](NC(=O)CSc1ccncc1)C(=O)OCCOC(=O)c1ccc(-c2c3nc(c(-c4c(F)cc(S(=O)(=O)[O-])cc4F)c4ccc([nH]4)c(-c4c(F)cc(S(=O)(=O)[O-])cc4F)c4nc(c(-c5c(F)cc(S(=O)(=O)[O-])cc5F)c5ccc2[nH]5)C=C4)C=C3)cc1
REMARK SMILES IDX 19 1 18 2 16 3 17 4 4 5 2 6 1 7 3 8 5 10 6 11 7 13 8 14 9 15
REMARK SMILES IDX 10 16 11 17 15 18 12 19 14 20 13 21 20 22 21 23 22 24 23 25
REMARK SMILES IDX 24 26 25 27 89 28 26 29 88 30 27 31 28 32 29 33 82 34 30 35
REMARK SMILES IDX 87 36 81 37 83 38 31 39 86 40 80 41 79 42 32 44 66 45 45 46
REMARK SMILES IDX 65 47 46 48 49 49 64 50 84 51 47 52 48 53 63 55 85 56 50 57
REMARK SMILES IDX 33 58 34 59 43 60 35 61 36 62 42 63 44 64 37 65 38 66 39 67
REMARK SMILES IDX 40 68 41 69 67 70 68 71 77 72 69 73 70 74 76 75 78 76 71 77
REMARK SMILES IDX 72 78 73 79 74 80 75 81 51 82 52 83 61 84 53 85 54 86 60 87
REMARK SMILES IDX 62 88 55 89 56 90 57 91 58 92 59 93
REMARK H PARENT 3 9 5 12 83 43 49 54
REMARK Flexibility Score: inf
ROOT
ATOM      1  C   UNL A   1      33.286  29.538  27.184  1.00  0.00     0.274 C 
ENDROOT
BRANCH   1   2
ATOM      2  O   UNL A   1      33.211  29.222  25.775  1.00  0.00    -0.460 OA
BRANCH   2   3
ATOM      3  C   UNL A   1      33.395  27.913  25.435  1.00  0.00     0.331 C 
ATOM      4  O   UNL A   1      34.066  27.117  26.084  1.00  0.00    -0.250 OA
BRANCH   3   5
ATOM      5  C   UNL A   1      32.762  27.554  24.081  1.00  0.00     0.221 C 
BRANCH   5   6
ATOM      6  C   UNL A   1      33.760  26.988  23.028  1.00  0.00     0.145 C 
ATOM      7  C   UNL A   1      33.763  25.456  22.991  1.00  0.00     0.041 C 
BRANCH   6   8
ATOM      8  O   UNL A   1      33.364  27.343  21.702  1.00  0.00    -0.391 OA
ATOM      9  H   UNL A   1      34.124  27.711  21.225  1.00  0.00     0.211 HD
ENDBRANCH   6   8
ENDBRANCH   5   6
BRANCH   5  10
ATOM     10  N   UNL A   1      31.465  26.838  24.106  1.00  0.00    -0.340 N 
ATOM     11  C   UNL A   1      30.188  27.124  23.749  1.00  0.00     0.231 C 
ATOM     12  H   UNL A   1      31.551  25.929  24.472  1.00  0.00     0.164 HD
ATOM     13  O   UNL A   1      29.313  26.410  24.257  1.00  0.00    -0.274 OA
BRANCH  11  14
ATOM     14  C   UNL A   1      29.803  28.150  22.719  1.00  0.00     0.174 C 
BRANCH  14  15
ATOM     15  S   UNL A   1      28.151  28.890  22.795  1.00  0.00    -0.116 SA
BRANCH  15  16
ATOM     16  C   UNL A   1      28.191  30.567  22.209  1.00  0.00     0.011 A 
ATOM     17  C   UNL A   1      28.285  31.544  23.208  1.00  0.00     0.035 A 
ATOM     18  C   UNL A   1      27.973  30.996  20.907  1.00  0.00     0.035 A 
ATOM     19  C   UNL A   1      28.169  32.880  22.862  1.00  0.00     0.112 A 
ATOM     20  C   UNL A   1      27.881  32.357  20.654  1.00  0.00     0.112 A 
ATOM     21  N   UNL A   1      27.972  33.310  21.603  1.00  0.00    -0.265 NA
ENDBRANCH  15  16
ENDBRANCH  14  15
ENDBRANCH  11  14
ENDBRANCH   5  10
ENDBRANCH   3   5
ENDBRANCH   2   3
ENDBRANCH   1   2
BRANCH   1  22
ATOM     22  C   UNL A   1      34.568  30.283  27.555  1.00  0.00     0.275 C 
BRANCH  22  23
ATOM     23  O   UNL A   1      35.499  29.422  28.227  1.00  0.00    -0.458 OA
BRANCH  23  24
ATOM     24  C   UNL A   1      36.201  30.034  29.207  1.00  0.00     0.338 C 
ATOM     25  O   UNL A   1      35.736  30.550  30.218  1.00  0.00    -0.246 OA
BRANCH  24  26
ATOM     26  C   UNL A   1      37.638  29.818  29.002  1.00  0.00     0.060 A 
ATOM     27  C   UNL A   1      38.096  29.703  27.687  1.00  0.00     0.016 A 
ATOM     28  C   UNL A   1      38.518  29.677  30.076  1.00  0.00     0.016 A 
ATOM     29  C   UNL A   1      39.432  29.433  27.431  1.00  0.00     0.010 A 
ATOM     30  C   UNL A   1      39.863  29.396  29.819  1.00  0.00     0.010 A 
ATOM     31  C   UNL A   1      40.319  29.257  28.497  1.00  0.00    -0.014 A 
BRANCH  31  32
ATOM     32  C   UNL A   1      41.702  28.831  28.202  1.00  0.00     0.031 A 
ATOM     33  C   UNL A   1      42.807  29.842  28.262  1.00  0.00     0.074 A 
ATOM     34  C   UNL A   1      41.960  27.535  27.953  1.00  0.00     0.049 A 
ATOM     35  N   UNL A   1      44.081  29.689  28.016  1.00  0.00    -0.248 NA
ATOM     36  C   UNL A   1      42.428  31.210  28.653  1.00  0.00     0.031 C 
ATOM     37  C   UNL A   1      40.962  26.465  27.932  1.00  0.00     0.029 A 
ATOM     38  N   UNL A   1      43.142  26.900  27.675  1.00  0.00    -0.354 N 
ATOM     39  C   UNL A   1      44.655  30.939  28.207  1.00  0.00     0.074 A 
ATOM     40  C   UNL A   1      43.587  31.845  28.572  1.00  0.00     0.031 C 
ATOM     41  C   UNL A   1      41.575  25.302  27.652  1.00  0.00     0.029 A 
ATOM     42  C   UNL A   1      42.998  25.554  27.440  1.00  0.00     0.049 A 
ATOM     43  H   UNL A   1      44.010  27.362  27.647  1.00  0.00     0.167 HD
ATOM     44  C   UNL A   1      45.956  31.295  28.089  1.00  0.00     0.037 A 
ATOM     45  C   UNL A   1      43.912  24.636  27.072  1.00  0.00     0.037 A 
ATOM     46  C   UNL A   1      47.007  30.378  27.733  1.00  0.00     0.049 A 
ATOM     47  C   UNL A   1      45.344  25.066  26.898  1.00  0.00     0.074 A 
ATOM     48  C   UNL A   1      48.359  30.631  27.585  1.00  0.00     0.029 A 
ATOM     49  N   UNL A   1      46.821  29.029  27.466  1.00  0.00    -0.354 N 
ATOM     50  N   UNL A   1      45.874  26.255  27.067  1.00  0.00    -0.248 NA
ATOM     51  C   UNL A   1      46.301  24.033  26.480  1.00  0.00     0.031 C 
ATOM     52  C   UNL A   1      48.985  29.442  27.193  1.00  0.00     0.029 A 
ATOM     53  C   UNL A   1      48.030  28.439  27.136  1.00  0.00     0.049 A 
ATOM     54  H   UNL A   1      45.957  28.559  27.506  1.00  0.00     0.167 HD
ATOM     55  C   UNL A   1      47.229  26.111  26.791  1.00  0.00     0.074 A 
ATOM     56  C   UNL A   1      47.438  24.715  26.460  1.00  0.00     0.031 C 
ATOM     57  C   UNL A   1      48.211  27.046  26.807  1.00  0.00     0.037 A 
BRANCH  44  58
ATOM     58  C   UNL A   1      46.301  32.739  28.312  1.00  0.00     0.058 A 
ATOM     59  C   UNL A   1      46.706  33.220  29.567  1.00  0.00     0.135 A 
ATOM     60  C   UNL A   1      46.233  33.657  27.250  1.00  0.00     0.135 A 
ATOM     61  F   UNL A   1      46.766  32.391  30.621  1.00  0.00    -0.206 F 
ATOM     62  C   UNL A   1      47.006  34.564  29.768  1.00  0.00     0.059 A 
ATOM     63  C   UNL A   1      46.551  35.000  27.424  1.00  0.00     0.059 A 
ATOM     64  F   UNL A   1      45.845  33.250  26.031  1.00  0.00    -0.206 F 
ATOM     65  C   UNL A   1      46.921  35.448  28.691  1.00  0.00     0.060 A 
BRANCH  65  66
ATOM     66  S   UNL A   1      47.305  37.190  28.966  1.00  0.00     0.124 S 
ATOM     67  O   UNL A   1      46.648  37.816  27.824  1.00  0.00    -0.237 OA
ATOM     68  O   UNL A   1      46.693  37.445  30.267  1.00  0.00    -0.237 OA
ATOM     69  O   UNL A   1      48.764  37.223  28.947  1.00  0.00    -0.744 OA
ENDBRANCH  65  66
ENDBRANCH  44  58
BRANCH  45  70
ATOM     70  C   UNL A   1      43.495  23.231  26.826  1.00  0.00     0.058 A 
ATOM     71  C   UNL A   1      43.560  22.667  25.544  1.00  0.00     0.135 A 
ATOM     72  C   UNL A   1      43.040  22.419  27.877  1.00  0.00     0.135 A 
ATOM     73  F   UNL A   1      43.979  23.406  24.507  1.00  0.00    -0.206 F 
ATOM     74  C   UNL A   1      43.179  21.349  25.310  1.00  0.00     0.059 A 
ATOM     75  C   UNL A   1      42.677  21.092  27.672  1.00  0.00     0.059 A 
ATOM     76  F   UNL A   1      42.970  22.908  29.125  1.00  0.00    -0.206 F 
ATOM     77  C   UNL A   1      42.742  20.568  26.382  1.00  0.00     0.060 A 
BRANCH  77  78
ATOM     78  S   UNL A   1      42.306  18.842  26.080  1.00  0.00     0.124 S 
ATOM     79  O   UNL A   1      43.200  18.502  24.978  1.00  0.00    -0.237 OA
ATOM     80  O   UNL A   1      42.611  18.217  27.364  1.00  0.00    -0.237 OA
ATOM     81  O   UNL A   1      40.887  18.907  25.745  1.00  0.00    -0.744 OA
ENDBRANCH  77  78
ENDBRANCH  45  70
BRANCH  57  82
ATOM     82  C   UNL A   1      49.600  26.582  26.475  1.00  0.00     0.058 A 
ATOM     83  C   UNL A   1      50.406  25.939  27.427  1.00  0.00     0.135 A 
ATOM     84  C   UNL A   1      50.118  26.752  25.181  1.00  0.00     0.135 A 
ATOM     85  F   UNL A   1      49.958  25.757  28.679  1.00  0.00    -0.206 F 
ATOM     86  C   UNL A   1      51.690  25.505  27.115  1.00  0.00     0.059 A 
ATOM     87  C   UNL A   1      51.390  26.305  24.841  1.00  0.00     0.059 A 
ATOM     88  F   UNL A   1      49.382  27.351  24.232  1.00  0.00    -0.206 F 
ATOM     89  C   UNL A   1      52.174  25.696  25.819  1.00  0.00     0.060 A 
BRANCH  89  90
ATOM     90  S   UNL A   1      53.835  25.114  25.419  1.00  0.00     0.124 S 
ATOM     91  O   UNL A   1      54.628  25.750  26.466  1.00  0.00    -0.237 OA
ATOM     92  O   UNL A   1      53.695  23.665  25.522  1.00  0.00    -0.237 OA
ATOM     93  O   UNL A   1      54.055  25.621  24.068  1.00  0.00    -0.744 OA
ENDBRANCH  89  90
ENDBRANCH  57  82
ENDBRANCH  31  32
ENDBRANCH  24  26
ENDBRANCH  23  24
ENDBRANCH  22  23
ENDBRANCH   1  22
TORSDOF 20
ENDMDL
MODEL 3
REMARK VINA RESULT:      -9.9      2.456      3.192
REMARK SMILES C[C@@H](O)[C@@H](NC(=O)CSc1ccncc1)C(=O)OCCOC(=O)c1ccc(-c2c3nc(c(-c4c(F)cc(S(=O)(=O)[O-])cc4F)c4ccc([nH]4)c(-c4c(F)cc(S(=O)(=O)[O-])cc4F)c4nc(c(-c5c(F)cc(S(=O)(=O)[O-])cc5F)c5ccc2[nH]5)C=C4)C=C3)cc1
REMARK SMILES IDX 19 1 18 2 16 3 17 4 4 5 2 6 1 7 3 8 5 10 6 11 7 13 8 14 9 15
REMARK SMILES IDX 10 16 11 17 15 18 12 19 14 20 13 21 20 22 21 23 22 24 23 25
REMARK SMILES IDX 24 26 25 27 89 28 26 29 88 30 27 31 28 32 29 33 82 34 30 35
REMARK SMILES IDX 87 36 81 37 83 38 31 39 86 40 80 41 79 42 32 44 66 45 45 46
REMARK SMILES IDX 65 47 46 48 49 49 64 50 84 51 47 52 48 53 63 55 85 56 50 57
REMARK SMILES IDX 33 58 34 59 43 60 35 61 36 62 42 63 44 64 37 65 38 66 39 67
REMARK SMILES IDX 40 68 41 69 67 70 68 71 77 72 69 73 70 74 76 75 78 76 71 77
REMARK SMILES IDX 72 78 73 79 74 80 75 81 51 82 52 83 61 84 53 85 54 86 60 87
REMARK SMILES IDX 62 88 55 89 56 90 57 91 58 92 59 93
REMARK H PARENT 3 9 5 12 83 43 49 54
REMARK Flexibility Score: inf
ROOT
ATOM      1  C   UNL A   1      32.265  27.434  25.777  1.00  0.00     0.274 C 
ENDROOT
BRANCH   1   2
ATOM      2  O   UNL A   1      33.155  27.385  24.639  1.00  0.00    -0.460 OA
BRANCH   2   3
ATOM      3  C   UNL A   1      32.881  28.245  23.614  1.00  0.00     0.331 C 
ATOM      4  O   UNL A   1      33.423  29.334  23.461  1.00  0.00    -0.250 OA
BRANCH   3   5
ATOM      5  C   UNL A   1      31.731  27.756  22.720  1.00  0.00     0.221 C 
BRANCH   5   6
ATOM      6  C   UNL A   1      30.658  28.837  22.394  1.00  0.00     0.145 C 
ATOM      7  C   UNL A   1      30.089  29.494  23.656  1.00  0.00     0.041 C 
BRANCH   6   8
ATOM      8  O   UNL A   1      31.236  29.938  21.689  1.00  0.00    -0.391 OA
ATOM      9  H   UNL A   1      30.825  30.013  20.813  1.00  0.00     0.211 HD
ENDBRANCH   6   8
ENDBRANCH   5   6
BRANCH   5  10
ATOM     10  N   UNL A   1      32.088  26.913  21.554  1.00  0.00    -0.340 N 
ATOM     11  C   UNL A   1      32.542  25.648  21.370  1.00  0.00     0.231 C 
ATOM     12  H   UNL A   1      31.964  27.388  20.701  1.00  0.00     0.164 HD
ATOM     13  O   UNL A   1      33.071  25.419  20.275  1.00  0.00    -0.274 OA
BRANCH  11  14
ATOM     14  C   UNL A   1      32.340  24.522  22.347  1.00  0.00     0.174 C 
BRANCH  14  15
ATOM     15  S   UNL A   1      33.706  24.059  23.443  1.00  0.00    -0.116 SA
BRANCH  15  16
ATOM     16  C   UNL A   1      33.087  23.529  25.022  1.00  0.00     0.011 A 
ATOM     17  C   UNL A   1      31.705  23.665  25.195  1.00  0.00     0.035 A 
ATOM     18  C   UNL A   1      33.842  23.165  26.129  1.00  0.00     0.035 A 
ATOM     19  C   UNL A   1      31.150  23.423  26.441  1.00  0.00     0.112 A 
ATOM     20  C   UNL A   1      33.197  22.933  27.336  1.00  0.00     0.112 A 
ATOM     21  N   UNL A   1      31.867  23.057  27.518  1.00  0.00    -0.265 NA
ENDBRANCH  15  16
ENDBRANCH  14  15
ENDBRANCH  11  14
ENDBRANCH   5  10
ENDBRANCH   3   5
ENDBRANCH   2   3
ENDBRANCH   1   2
BRANCH   1  22
ATOM     22  C   UNL A   1      32.752  28.384  26.870  1.00  0.00     0.275 C 
BRANCH  22  23
ATOM     23  O   UNL A   1      34.159  28.643  26.751  1.00  0.00    -0.458 OA
BRANCH  23  24
ATOM     24  C   UNL A   1      34.530  29.862  27.201  1.00  0.00     0.338 C 
ATOM     25  O   UNL A   1      33.862  30.889  27.148  1.00  0.00    -0.246 OA
BRANCH  24  26
ATOM     26  C   UNL A   1      35.780  29.754  27.963  1.00  0.00     0.060 A 
ATOM     27  C   UNL A   1      36.979  29.955  27.275  1.00  0.00     0.016 A 
ATOM     28  C   UNL A   1      35.786  29.411  29.316  1.00  0.00     0.016 A 
ATOM     29  C   UNL A   1      38.195  29.801  27.925  1.00  0.00     0.010 A 
ATOM     30  C   UNL A   1      37.010  29.249  29.970  1.00  0.00     0.010 A 
ATOM     31  C   UNL A   1      38.217  29.427  29.272  1.00  0.00    -0.014 A 
BRANCH  31  32
ATOM     32  C   UNL A   1      39.520  29.133  29.902  1.00  0.00     0.031 A 
ATOM     33  C   UNL A   1      39.943  29.917  31.108  1.00  0.00     0.074 A 
ATOM     34  C   UNL A   1      40.275  28.125  29.430  1.00  0.00     0.049 A 
ATOM     35  N   UNL A   1      41.050  29.840  31.796  1.00  0.00    -0.248 NA
ATOM     36  C   UNL A   1      38.989  30.922  31.607  1.00  0.00     0.031 C 
ATOM     37  C   UNL A   1      39.923  27.265  28.299  1.00  0.00     0.029 A 
ATOM     38  N   UNL A   1      41.492  27.653  29.848  1.00  0.00    -0.354 N 
ATOM     39  C   UNL A   1      40.937  30.793  32.800  1.00  0.00     0.074 A 
ATOM     40  C   UNL A   1      39.660  31.450  32.621  1.00  0.00     0.031 C 
ATOM     41  C   UNL A   1      40.906  26.369  28.111  1.00  0.00     0.029 A 
ATOM     42  C   UNL A   1      41.968  26.616  29.083  1.00  0.00     0.049 A 
ATOM     43  H   UNL A   1      41.976  28.020  30.620  1.00  0.00     0.167 HD
ATOM     44  C   UNL A   1      41.820  31.089  33.782  1.00  0.00     0.037 A 
ATOM     45  C   UNL A   1      43.142  25.960  29.147  1.00  0.00     0.037 A 
ATOM     46  C   UNL A   1      43.084  30.420  33.952  1.00  0.00     0.049 A 
ATOM     47  C   UNL A   1      44.129  26.341  30.217  1.00  0.00     0.074 A 
ATOM     48  C   UNL A   1      44.055  30.640  34.912  1.00  0.00     0.029 A 
ATOM     49  N   UNL A   1      43.551  29.399  33.137  1.00  0.00    -0.354 N 
ATOM     50  N   UNL A   1      44.018  27.255  31.153  1.00  0.00    -0.248 NA
ATOM     51  C   UNL A   1      45.401  25.607  30.238  1.00  0.00     0.031 C 
ATOM     52  C   UNL A   1      45.126  29.777  34.655  1.00  0.00     0.029 A 
ATOM     53  C   UNL A   1      44.805  28.990  33.560  1.00  0.00     0.049 A 
ATOM     54  H   UNL A   1      43.063  29.019  32.370  1.00  0.00     0.167 HD
ATOM     55  C   UNL A   1      45.199  27.196  31.884  1.00  0.00     0.074 A 
ATOM     56  C   UNL A   1      46.002  26.145  31.291  1.00  0.00     0.031 C 
ATOM     57  C   UNL A   1      45.586  27.943  32.948  1.00  0.00     0.037 A 
BRANCH  44  58
ATOM     58  C   UNL A   1      41.463  32.206  34.720  1.00  0.00     0.058 A 
ATOM     59  C   UNL A   1      40.808  31.971  35.940  1.00  0.00     0.135 A 
ATOM     60  C   UNL A   1      41.787  33.535  34.397  1.00  0.00     0.135 A 
ATOM     61  F   UNL A   1      40.455  30.723  36.287  1.00  0.00    -0.206 F 
ATOM     62  C   UNL A   1      40.464  33.014  36.794  1.00  0.00     0.059 A 
ATOM     63  C   UNL A   1      41.473  34.591  35.247  1.00  0.00     0.059 A 
ATOM     64  F   UNL A   1      42.407  33.816  33.240  1.00  0.00    -0.206 F 
ATOM     65  C   UNL A   1      40.797  34.322  36.436  1.00  0.00     0.060 A 
BRANCH  65  66
ATOM     66  S   UNL A   1      40.339  35.668  37.549  1.00  0.00     0.124 S 
ATOM     67  O   UNL A   1      40.009  36.728  36.602  1.00  0.00    -0.237 OA
ATOM     68  O   UNL A   1      39.211  35.099  38.281  1.00  0.00    -0.237 OA
ATOM     69  O   UNL A   1      41.548  35.884  38.336  1.00  0.00    -0.744 OA
ENDBRANCH  65  66
ENDBRANCH  44  58
BRANCH  45  70
ATOM     70  C   UNL A   1      43.450  24.892  28.161  1.00  0.00     0.058 A 
ATOM     71  C   UNL A   1      43.084  23.558  28.394  1.00  0.00     0.135 A 
ATOM     72  C   UNL A   1      44.100  25.190  26.953  1.00  0.00     0.135 A 
ATOM     73  F   UNL A   1      42.468  23.223  29.538  1.00  0.00    -0.206 F 
ATOM     74  C   UNL A   1      43.361  22.556  27.470  1.00  0.00     0.059 A 
ATOM     75  C   UNL A   1      44.367  24.209  26.003  1.00  0.00     0.059 A 
ATOM     76  F   UNL A   1      44.461  26.453  26.677  1.00  0.00    -0.206 F 
ATOM     77  C   UNL A   1      44.001  22.892  26.275  1.00  0.00     0.060 A 
BRANCH  77  78
ATOM     78  S   UNL A   1      44.303  21.596  25.055  1.00  0.00     0.124 S 
ATOM     79  O   UNL A   1      43.212  20.669  25.336  1.00  0.00    -0.237 OA
ATOM     80  O   UNL A   1      44.210  22.329  23.796  1.00  0.00    -0.237 OA
ATOM     81  O   UNL A   1      45.641  21.120  25.397  1.00  0.00    -0.744 OA
ENDBRANCH  77  78
ENDBRANCH  45  70
BRANCH  57  82
ATOM     82  C   UNL A   1      46.929  27.634  33.545  1.00  0.00     0.058 A 
ATOM     83  C   UNL A   1      47.080  26.669  34.553  1.00  0.00     0.135 A 
ATOM     84  C   UNL A   1      48.083  28.287  33.081  1.00  0.00     0.135 A 
ATOM     85  F   UNL A   1      46.007  26.022  35.034  1.00  0.00    -0.206 F 
ATOM     86  C   UNL A   1      48.325  26.381  35.101  1.00  0.00     0.059 A 
ATOM     87  C   UNL A   1      49.341  27.997  33.598  1.00  0.00     0.059 A 
ATOM     88  F   UNL A   1      47.993  29.210  32.111  1.00  0.00    -0.206 F 
ATOM     89  C   UNL A   1      49.450  27.054  34.618  1.00  0.00     0.060 A 
BRANCH  89  90
ATOM     90  S   UNL A   1      51.065  26.661  35.323  1.00  0.00     0.124 S 
ATOM     91  O   UNL A   1      51.660  25.857  34.261  1.00  0.00    -0.237 OA
ATOM     92  O   UNL A   1      51.652  27.983  35.520  1.00  0.00    -0.237 OA
ATOM     93  O   UNL A   1      50.733  25.940  36.548  1.00  0.00    -0.744 OA
ENDBRANCH  89  90
ENDBRANCH  57  82
ENDBRANCH  31  32
ENDBRANCH  24  26
ENDBRANCH  23  24
ENDBRANCH  22  23
ENDBRANCH   1  22
TORSDOF 20
ENDMDL
