MODEL 1
REMARK VINA RESULT:     -10.0      0.000      0.000
REMARK SMILES CCCc1noc(C)c1C(=O)OCCOC(=O)c1ccc(-c2c3nc(c(-c4c(F)cc(S(=O)(=O)[O-])cc4F)c4ccc([nH]4)c(-c4c(F)cc(S(=O)(=O)[O-])cc4F)c4nc(c(-c5c(F)cc(S(=O)(=O)[O-])cc5F)c5ccc2[nH]5)C=C4)C=C3)cc1
REMARK SMILES IDX 14 1 13 2 12 3 10 4 11 5 9 6 4 7 5 8 6 9 7 10 8 11 3 12 2 13
REMARK SMILES IDX 1 14 15 15 16 16 17 17 18 18 19 19 83 20 20 21 82 22 21 23
REMARK SMILES IDX 22 24 23 25 76 26 24 27 81 28 75 29 77 30 25 31 80 32 74 33
REMARK SMILES IDX 73 34 26 36 60 37 39 38 59 39 40 40 43 41 58 42 78 43 41 44
REMARK SMILES IDX 42 45 57 47 79 48 44 49 27 50 28 51 37 52 29 53 30 54 36 55
REMARK SMILES IDX 38 56 31 57 32 58 33 59 34 60 35 61 61 62 62 63 71 64 63 65
REMARK SMILES IDX 64 66 70 67 72 68 65 69 66 70 67 71 68 72 69 73 45 74 46 75
REMARK SMILES IDX 55 76 47 77 48 78 54 79 56 80 49 81 50 82 51 83 52 84 53 85
REMARK H PARENT 77 35 43 46
REMARK Flexibility Score: inf
ROOT
ATOM      1  C   UNL A   1      34.774  33.222  29.576  1.00  0.00     0.275 C 
ENDROOT
BRANCH   1   2
ATOM      2  C   UNL A   1      36.213  33.733  29.574  1.00  0.00     0.275 C 
BRANCH   2   3
ATOM      3  O   UNL A   1      36.992  33.130  30.629  1.00  0.00    -0.458 OA
BRANCH   3   4
ATOM      4  C   UNL A   1      37.407  33.954  31.637  1.00  0.00     0.343 C 
ATOM      5  O   UNL A   1      38.356  34.718  31.556  1.00  0.00    -0.246 OA
BRANCH   4   6
ATOM      6  C   UNL A   1      36.634  33.800  32.846  1.00  0.00     0.125 A 
ATOM      7  C   UNL A   1      35.458  34.485  33.270  1.00  0.00     0.098 A 
ATOM      8  N   UNL A   1      35.103  34.121  34.509  1.00  0.00    -0.084 NA
ATOM      9  O   UNL A   1      36.002  33.152  34.890  1.00  0.00    -0.361 OA
ATOM     10  C   UNL A   1      36.896  32.940  33.892  1.00  0.00     0.148 A 
ATOM     11  C   UNL A   1      37.906  31.904  34.167  1.00  0.00     0.092 C 
BRANCH   7  12
ATOM     12  C   UNL A   1      34.580  35.422  32.512  1.00  0.00     0.060 C 
BRANCH  12  13
ATOM     13  C   UNL A   1      34.136  36.617  33.363  1.00  0.00     0.003 C 
ATOM     14  C   UNL A   1      33.860  37.898  32.597  1.00  0.00     0.004 C 
ENDBRANCH  12  13
ENDBRANCH   7  12
ENDBRANCH   4   6
ENDBRANCH   3   4
ENDBRANCH   2   3
ENDBRANCH   1   2
BRANCH   1  15
ATOM     15  O   UNL A   1      34.766  31.806  29.826  1.00  0.00    -0.458 OA
BRANCH  15  16
ATOM     16  C   UNL A   1      34.806  31.013  28.731  1.00  0.00     0.338 C 
ATOM     17  O   UNL A   1      33.984  30.975  27.829  1.00  0.00    -0.246 OA
BRANCH  16  18
ATOM     18  C   UNL A   1      36.049  30.213  28.705  1.00  0.00     0.060 A 
ATOM     19  C   UNL A   1      36.549  29.675  29.886  1.00  0.00     0.016 A 
ATOM     20  C   UNL A   1      36.842  30.207  27.557  1.00  0.00     0.016 A 
ATOM     21  C   UNL A   1      37.893  29.313  29.959  1.00  0.00     0.010 A 
ATOM     22  C   UNL A   1      38.147  29.696  27.607  1.00  0.00     0.010 A 
ATOM     23  C   UNL A   1      38.725  29.302  28.826  1.00  0.00    -0.014 A 
BRANCH  23  24
ATOM     24  C   UNL A   1      40.181  28.939  28.929  1.00  0.00     0.031 A 
ATOM     25  C   UNL A   1      41.215  29.954  29.383  1.00  0.00     0.074 A 
ATOM     26  C   UNL A   1      40.605  27.688  28.644  1.00  0.00     0.049 A 
ATOM     27  N   UNL A   1      42.520  29.916  29.270  1.00  0.00    -0.248 NA
ATOM     28  C   UNL A   1      40.719  31.179  30.034  1.00  0.00     0.031 C 
ATOM     29  C   UNL A   1      39.750  26.562  28.261  1.00  0.00     0.029 A 
ATOM     30  N   UNL A   1      41.870  27.144  28.640  1.00  0.00    -0.354 N 
ATOM     31  C   UNL A   1      42.992  31.136  29.751  1.00  0.00     0.074 A 
ATOM     32  C   UNL A   1      41.830  31.891  30.170  1.00  0.00     0.031 C 
ATOM     33  C   UNL A   1      40.492  25.457  28.141  1.00  0.00     0.029 A 
ATOM     34  C   UNL A   1      41.895  25.823  28.255  1.00  0.00     0.049 A 
ATOM     35  H   UNL A   1      42.676  27.651  28.889  1.00  0.00     0.167 HD
ATOM     36  C   UNL A   1      44.272  31.585  29.826  1.00  0.00     0.037 A 
ATOM     37  C   UNL A   1      42.913  25.005  27.927  1.00  0.00     0.037 A 
ATOM     38  C   UNL A   1      45.429  30.791  29.481  1.00  0.00     0.049 A 
ATOM     39  C   UNL A   1      44.313  25.535  27.947  1.00  0.00     0.074 A 
ATOM     40  C   UNL A   1      46.767  31.145  29.545  1.00  0.00     0.029 A 
ATOM     41  N   UNL A   1      45.391  29.479  29.031  1.00  0.00    -0.354 N 
ATOM     42  N   UNL A   1      44.735  26.727  28.292  1.00  0.00    -0.248 NA
ATOM     43  C   UNL A   1      45.372  24.622  27.501  1.00  0.00     0.031 C 
ATOM     44  C   UNL A   1      47.532  30.071  29.080  1.00  0.00     0.029 A 
ATOM     45  C   UNL A   1      46.678  29.021  28.787  1.00  0.00     0.049 A 
ATOM     46  H   UNL A   1      44.571  28.950  28.901  1.00  0.00     0.167 HD
ATOM     47  C   UNL A   1      46.113  26.704  28.116  1.00  0.00     0.074 A 
ATOM     48  C   UNL A   1      46.453  25.374  27.651  1.00  0.00     0.031 C 
ATOM     49  C   UNL A   1      47.011  27.698  28.319  1.00  0.00     0.037 A 
BRANCH  36  50
ATOM     50  C   UNL A   1      44.508  33.020  30.242  1.00  0.00     0.058 A 
ATOM     51  C   UNL A   1      44.796  33.393  31.563  1.00  0.00     0.135 A 
ATOM     52  C   UNL A   1      44.503  34.038  29.268  1.00  0.00     0.135 A 
ATOM     53  F   UNL A   1      44.810  32.471  32.538  1.00  0.00    -0.206 F 
ATOM     54  C   UNL A   1      45.039  34.722  31.910  1.00  0.00     0.059 A 
ATOM     55  C   UNL A   1      44.774  35.366  29.588  1.00  0.00     0.059 A 
ATOM     56  F   UNL A   1      44.242  33.744  27.985  1.00  0.00    -0.206 F 
ATOM     57  C   UNL A   1      45.025  35.701  30.915  1.00  0.00     0.060 A 
BRANCH  57  58
ATOM     58  S   UNL A   1      45.335  37.420  31.381  1.00  0.00     0.124 S 
ATOM     59  O   UNL A   1      46.386  37.791  30.439  1.00  0.00    -0.237 OA
ATOM     60  O   UNL A   1      44.035  38.044  31.158  1.00  0.00    -0.237 OA
ATOM     61  O   UNL A   1      45.751  37.326  32.777  1.00  0.00    -0.744 OA
ENDBRANCH  57  58
ENDBRANCH  36  50
BRANCH  37  62
ATOM     62  C   UNL A   1      42.614  23.623  27.461  1.00  0.00     0.058 A 
ATOM     63  C   UNL A   1      42.550  23.316  26.095  1.00  0.00     0.135 A 
ATOM     64  C   UNL A   1      42.459  22.567  28.377  1.00  0.00     0.135 A 
ATOM     65  F   UNL A   1      42.673  24.293  25.182  1.00  0.00    -0.206 F 
ATOM     66  C   UNL A   1      42.362  22.012  25.652  1.00  0.00     0.059 A 
ATOM     67  C   UNL A   1      42.308  21.251  27.959  1.00  0.00     0.059 A 
ATOM     68  F   UNL A   1      42.520  22.806  29.696  1.00  0.00    -0.206 F 
ATOM     69  C   UNL A   1      42.257  20.984  26.592  1.00  0.00     0.060 A 
BRANCH  69  70
ATOM     70  S   UNL A   1      42.116  19.282  26.006  1.00  0.00     0.124 S 
ATOM     71  O   UNL A   1      42.961  19.310  24.819  1.00  0.00    -0.237 OA
ATOM     72  O   UNL A   1      42.631  18.523  27.141  1.00  0.00    -0.237 OA
ATOM     73  O   UNL A   1      40.684  19.130  25.760  1.00  0.00    -0.744 OA
ENDBRANCH  69  70
ENDBRANCH  37  62
BRANCH  49  74
ATOM     74  C   UNL A   1      48.459  27.370  28.079  1.00  0.00     0.058 A 
ATOM     75  C   UNL A   1      49.277  26.844  29.093  1.00  0.00     0.135 A 
ATOM     76  C   UNL A   1      49.032  27.573  26.814  1.00  0.00     0.135 A 
ATOM     77  F   UNL A   1      48.783  26.644  30.324  1.00  0.00    -0.206 F 
ATOM     78  C   UNL A   1      50.620  26.561  28.868  1.00  0.00     0.059 A 
ATOM     79  C   UNL A   1      50.365  27.267  26.558  1.00  0.00     0.059 A 
ATOM     80  F   UNL A   1      48.293  28.067  25.808  1.00  0.00    -0.206 F 
ATOM     81  C   UNL A   1      51.155  26.776  27.596  1.00  0.00     0.060 A 
BRANCH  81  82
ATOM     82  S   UNL A   1      52.895  26.389  27.313  1.00  0.00     0.124 S 
ATOM     83  O   UNL A   1      53.332  27.544  26.537  1.00  0.00    -0.237 OA
ATOM     84  O   UNL A   1      53.421  26.305  28.672  1.00  0.00    -0.237 OA
ATOM     85  O   UNL A   1      52.850  25.124  26.586  1.00  0.00    -0.744 OA
ENDBRANCH  81  82
ENDBRANCH  49  74
ENDBRANCH  23  24
ENDBRANCH  16  18
ENDBRANCH  15  16
ENDBRANCH   1  15
TORSDOF 16
ENDMDL
MODEL 2
REMARK VINA RESULT:      -9.9      2.185      9.111
REMARK SMILES CCCc1noc(C)c1C(=O)OCCOC(=O)c1ccc(-c2c3nc(c(-c4c(F)cc(S(=O)(=O)[O-])cc4F)c4ccc([nH]4)c(-c4c(F)cc(S(=O)(=O)[O-])cc4F)c4nc(c(-c5c(F)cc(S(=O)(=O)[O-])cc5F)c5ccc2[nH]5)C=C4)C=C3)cc1
REMARK SMILES IDX 14 1 13 2 12 3 10 4 11 5 9 6 4 7 5 8 6 9 7 10 8 11 3 12 2 13
REMARK SMILES IDX 1 14 15 15 16 16 17 17 18 18 19 19 83 20 20 21 82 22 21 23
REMARK SMILES IDX 22 24 23 25 76 26 24 27 81 28 75 29 77 30 25 31 80 32 74 33
REMARK SMILES IDX 73 34 26 36 60 37 39 38 59 39 40 40 43 41 58 42 78 43 41 44
REMARK SMILES IDX 42 45 57 47 79 48 44 49 27 50 28 51 37 52 29 53 30 54 36 55
REMARK SMILES IDX 38 56 31 57 32 58 33 59 34 60 35 61 61 62 62 63 71 64 63 65
REMARK SMILES IDX 64 66 70 67 72 68 65 69 66 70 67 71 68 72 69 73 45 74 46 75
REMARK SMILES IDX 55 76 47 77 48 78 54 79 56 80 49 81 50 82 51 83 52 84 53 85
REMARK H PARENT 77 35 43 46
REMARK Flexibility Score: inf
ROOT
ATOM      1  C   UNL A   1      37.809  33.439  33.154  1.00  0.00     0.275 C 
ENDROOT
BRANCH   1   2
ATOM      2  C   UNL A   1      36.583  34.350  33.169  1.00  0.00     0.275 C 
BRANCH   2   3
ATOM      3  O   UNL A   1      35.929  34.382  31.883  1.00  0.00    -0.458 OA
BRANCH   3   4
ATOM      4  C   UNL A   1      34.575  34.203  31.875  1.00  0.00     0.343 C 
ATOM      5  O   UNL A   1      34.011  33.197  32.275  1.00  0.00    -0.246 OA
BRANCH   4   6
ATOM      6  C   UNL A   1      33.861  35.316  31.295  1.00  0.00     0.125 A 
ATOM      7  C   UNL A   1      33.375  35.492  29.966  1.00  0.00     0.098 A 
ATOM      8  N   UNL A   1      32.852  36.714  29.798  1.00  0.00    -0.084 NA
ATOM      9  O   UNL A   1      32.935  37.332  31.025  1.00  0.00    -0.361 OA
ATOM     10  C   UNL A   1      33.508  36.491  31.923  1.00  0.00     0.148 A 
ATOM     11  C   UNL A   1      33.636  37.028  33.288  1.00  0.00     0.092 C 
BRANCH   7  12
ATOM     12  C   UNL A   1      33.294  34.512  28.846  1.00  0.00     0.060 C 
BRANCH  12  13
ATOM     13  C   UNL A   1      34.562  34.508  27.986  1.00  0.00     0.003 C 
ATOM     14  C   UNL A   1      35.361  33.218  28.004  1.00  0.00     0.004 C 
ENDBRANCH  12  13
ENDBRANCH   7  12
ENDBRANCH   4   6
ENDBRANCH   3   4
ENDBRANCH   2   3
ENDBRANCH   1   2
BRANCH   1  15
ATOM     15  O   UNL A   1      37.828  32.678  31.935  1.00  0.00    -0.458 OA
BRANCH  15  16
ATOM     16  C   UNL A   1      37.636  31.345  32.068  1.00  0.00     0.338 C 
ATOM     17  O   UNL A   1      36.754  30.797  32.710  1.00  0.00    -0.246 OA
BRANCH  16  18
ATOM     18  C   UNL A   1      38.610  30.589  31.252  1.00  0.00     0.060 A 
ATOM     19  C   UNL A   1      39.625  29.873  31.876  1.00  0.00     0.016 A 
ATOM     20  C   UNL A   1      38.660  30.792  29.873  1.00  0.00     0.016 A 
ATOM     21  C   UNL A   1      40.768  29.533  31.155  1.00  0.00     0.010 A 
ATOM     22  C   UNL A   1      39.747  30.309  29.130  1.00  0.00     0.010 A 
ATOM     23  C   UNL A   1      40.859  29.730  29.766  1.00  0.00    -0.014 A 
BRANCH  23  24
ATOM     24  C   UNL A   1      42.113  29.387  29.009  1.00  0.00     0.031 A 
ATOM     25  C   UNL A   1      42.319  28.006  28.413  1.00  0.00     0.074 A 
ATOM     26  C   UNL A   1      43.081  30.310  28.818  1.00  0.00     0.049 A 
ATOM     27  N   UNL A   1      43.423  27.446  27.980  1.00  0.00    -0.248 NA
ATOM     28  C   UNL A   1      41.137  27.135  28.302  1.00  0.00     0.031 C 
ATOM     29  C   UNL A   1      43.028  31.707  29.256  1.00  0.00     0.029 A 
ATOM     30  N   UNL A   1      44.304  30.218  28.194  1.00  0.00    -0.354 N 
ATOM     31  C   UNL A   1      43.088  26.139  27.630  1.00  0.00     0.074 A 
ATOM     32  C   UNL A   1      41.672  25.993  27.890  1.00  0.00     0.031 C 
ATOM     33  C   UNL A   1      44.115  32.354  28.822  1.00  0.00     0.029 A 
ATOM     34  C   UNL A   1      45.030  31.386  28.237  1.00  0.00     0.049 A 
ATOM     35  H   UNL A   1      44.627  29.396  27.760  1.00  0.00     0.167 HD
ATOM     36  C   UNL A   1      43.890  25.155  27.147  1.00  0.00     0.037 A 
ATOM     37  C   UNL A   1      46.316  31.654  27.939  1.00  0.00     0.037 A 
ATOM     38  C   UNL A   1      45.284  25.338  26.814  1.00  0.00     0.049 A 
ATOM     39  C   UNL A   1      47.206  30.543  27.475  1.00  0.00     0.074 A 
ATOM     40  C   UNL A   1      46.175  24.411  26.297  1.00  0.00     0.029 A 
ATOM     41  N   UNL A   1      45.986  26.528  26.942  1.00  0.00    -0.354 N 
ATOM     42  N   UNL A   1      46.905  29.286  27.260  1.00  0.00    -0.248 NA
ATOM     43  C   UNL A   1      48.616  30.879  27.245  1.00  0.00     0.031 C 
ATOM     44  C   UNL A   1      47.426  25.024  26.167  1.00  0.00     0.029 A 
ATOM     45  C   UNL A   1      47.302  26.351  26.541  1.00  0.00     0.049 A 
ATOM     46  H   UNL A   1      45.606  27.375  27.271  1.00  0.00     0.167 HD
ATOM     47  C   UNL A   1      48.089  28.680  26.857  1.00  0.00     0.074 A 
ATOM     48  C   UNL A   1      49.104  29.714  26.842  1.00  0.00     0.031 C 
ATOM     49  C   UNL A   1      48.310  27.383  26.533  1.00  0.00     0.037 A 
BRANCH  36  50
ATOM     50  C   UNL A   1      43.312  23.765  26.997  1.00  0.00     0.058 A 
ATOM     51  C   UNL A   1      43.023  22.938  28.092  1.00  0.00     0.135 A 
ATOM     52  C   UNL A   1      42.985  23.280  25.716  1.00  0.00     0.135 A 
ATOM     53  F   UNL A   1      43.316  23.339  29.339  1.00  0.00    -0.206 F 
ATOM     54  C   UNL A   1      42.462  21.672  27.924  1.00  0.00     0.059 A 
ATOM     55  C   UNL A   1      42.395  22.033  25.527  1.00  0.00     0.059 A 
ATOM     56  F   UNL A   1      43.229  24.028  24.628  1.00  0.00    -0.206 F 
ATOM     57  C   UNL A   1      42.152  21.228  26.637  1.00  0.00     0.060 A 
BRANCH  57  58
ATOM     58  S   UNL A   1      41.432  19.583  26.433  1.00  0.00     0.124 S 
ATOM     59  O   UNL A   1      41.719  18.977  27.730  1.00  0.00    -0.237 OA
ATOM     60  O   UNL A   1      40.029  19.886  26.173  1.00  0.00    -0.237 OA
ATOM     61  O   UNL A   1      42.170  19.024  25.304  1.00  0.00    -0.744 OA
ENDBRANCH  57  58
ENDBRANCH  36  50
BRANCH  37  62
ATOM     62  C   UNL A   1      46.845  33.026  28.171  1.00  0.00     0.058 A 
ATOM     63  C   UNL A   1      47.459  33.371  29.382  1.00  0.00     0.135 A 
ATOM     64  C   UNL A   1      46.811  33.997  27.154  1.00  0.00     0.135 A 
ATOM     65  F   UNL A   1      47.500  32.485  30.389  1.00  0.00    -0.206 F 
ATOM     66  C   UNL A   1      48.037  34.621  29.573  1.00  0.00     0.059 A 
ATOM     67  C   UNL A   1      47.414  35.239  27.307  1.00  0.00     0.059 A 
ATOM     68  F   UNL A   1      46.242  33.714  25.972  1.00  0.00    -0.206 F 
ATOM     69  C   UNL A   1      48.022  35.544  28.522  1.00  0.00     0.060 A 
BRANCH  69  70
ATOM     70  S   UNL A   1      48.864  37.125  28.744  1.00  0.00     0.124 S 
ATOM     71  O   UNL A   1      47.828  38.068  28.339  1.00  0.00    -0.237 OA
ATOM     72  O   UNL A   1      49.190  37.103  30.166  1.00  0.00    -0.237 OA
ATOM     73  O   UNL A   1      50.012  37.023  27.846  1.00  0.00    -0.744 OA
ENDBRANCH  69  70
ENDBRANCH  37  62
BRANCH  49  74
ATOM     74  C   UNL A   1      49.701  27.017  26.092  1.00  0.00     0.058 A 
ATOM     75  C   UNL A   1      50.111  27.144  24.755  1.00  0.00     0.135 A 
ATOM     76  C   UNL A   1      50.639  26.545  27.023  1.00  0.00     0.135 A 
ATOM     77  F   UNL A   1      49.250  27.577  23.822  1.00  0.00    -0.206 F 
ATOM     78  C   UNL A   1      51.394  26.786  24.352  1.00  0.00     0.059 A 
ATOM     79  C   UNL A   1      51.937  26.210  26.648  1.00  0.00     0.059 A 
ATOM     80  F   UNL A   1      50.301  26.410  28.315  1.00  0.00    -0.206 F 
ATOM     81  C   UNL A   1      52.300  26.320  25.307  1.00  0.00     0.060 A 
BRANCH  81  82
ATOM     82  S   UNL A   1      53.965  25.874  24.773  1.00  0.00     0.124 S 
ATOM     83  O   UNL A   1      53.936  26.256  23.366  1.00  0.00    -0.237 OA
ATOM     84  O   UNL A   1      54.802  26.702  25.637  1.00  0.00    -0.237 OA
ATOM     85  O   UNL A   1      54.034  24.440  25.034  1.00  0.00    -0.744 OA
ENDBRANCH  81  82
ENDBRANCH  49  74
ENDBRANCH  23  24
ENDBRANCH  16  18
ENDBRANCH  15  16
ENDBRANCH   1  15
TORSDOF 16
ENDMDL
MODEL 3
REMARK VINA RESULT:      -9.8      5.675     12.886
REMARK SMILES CCCc1noc(C)c1C(=O)OCCOC(=O)c1ccc(-c2c3nc(c(-c4c(F)cc(S(=O)(=O)[O-])cc4F)c4ccc([nH]4)c(-c4c(F)cc(S(=O)(=O)[O-])cc4F)c4nc(c(-c5c(F)cc(S(=O)(=O)[O-])cc5F)c5ccc2[nH]5)C=C4)C=C3)cc1
REMARK SMILES IDX 14 1 13 2 12 3 10 4 11 5 9 6 4 7 5 8 6 9 7 10 8 11 3 12 2 13
REMARK SMILES IDX 1 14 15 15 16 16 17 17 18 18 19 19 83 20 20 21 82 22 21 23
REMARK SMILES IDX 22 24 23 25 76 26 24 27 81 28 75 29 77 30 25 31 80 32 74 33
REMARK SMILES IDX 73 34 26 36 60 37 39 38 59 39 40 40 43 41 58 42 78 43 41 44
REMARK SMILES IDX 42 45 57 47 79 48 44 49 27 50 28 51 37 52 29 53 30 54 36 55
REMARK SMILES IDX 38 56 31 57 32 58 33 59 34 60 35 61 61 62 62 63 71 64 63 65
REMARK SMILES IDX 64 66 70 67 72 68 65 69 66 70 67 71 68 72 69 73 45 74 46 75
REMARK SMILES IDX 55 76 47 77 48 78 54 79 56 80 49 81 50 82 51 83 52 84 53 85
REMARK H PARENT 77 35 43 46
REMARK Flexibility Score: inf
ROOT
ATOM      1  C   UNL A   1      44.079  24.758  25.021  1.00  0.00     0.275 C 
ENDROOT
BRANCH   1   2
ATOM      2  C   UNL A   1      43.997  23.372  24.386  1.00  0.00     0.275 C 
BRANCH   2   3
ATOM      3  O   UNL A   1      42.971  22.565  25.000  1.00  0.00    -0.458 OA
BRANCH   3   4
ATOM      4  C   UNL A   1      43.364  21.734  26.011  1.00  0.00     0.343 C 
ATOM      5  O   UNL A   1      44.173  22.034  26.875  1.00  0.00    -0.246 OA
BRANCH   4   6
ATOM      6  C   UNL A   1      42.759  20.425  25.933  1.00  0.00     0.125 A 
ATOM      7  C   UNL A   1      43.352  19.164  25.634  1.00  0.00     0.098 A 
ATOM      8  N   UNL A   1      42.428  18.197  25.561  1.00  0.00    -0.084 NA
ATOM      9  O   UNL A   1      41.229  18.797  25.869  1.00  0.00    -0.361 OA
ATOM     10  C   UNL A   1      41.428  20.116  26.119  1.00  0.00     0.148 A 
ATOM     11  C   UNL A   1      40.219  20.873  26.483  1.00  0.00     0.092 C 
BRANCH   7  12
ATOM     12  C   UNL A   1      44.792  18.798  25.499  1.00  0.00     0.060 C 
BRANCH  12  13
ATOM     13  C   UNL A   1      45.422  19.382  24.231  1.00  0.00     0.003 C 
ATOM     14  C   UNL A   1      46.492  20.435  24.457  1.00  0.00     0.004 C 
ENDBRANCH  12  13
ENDBRANCH   7  12
ENDBRANCH   4   6
ENDBRANCH   3   4
ENDBRANCH   2   3
ENDBRANCH   1   2
BRANCH   1  15
ATOM     15  O   UNL A   1      42.779  25.146  25.497  1.00  0.00    -0.458 OA
BRANCH  15  16
ATOM     16  C   UNL A   1      42.550  26.477  25.571  1.00  0.00     0.338 C 
ATOM     17  O   UNL A   1      42.318  27.230  24.638  1.00  0.00    -0.246 OA
BRANCH  16  18
ATOM     18  C   UNL A   1      42.535  26.931  26.978  1.00  0.00     0.060 A 
ATOM     19  C   UNL A   1      41.789  26.234  27.921  1.00  0.00     0.016 A 
ATOM     20  C   UNL A   1      43.061  28.181  27.305  1.00  0.00     0.016 A 
ATOM     21  C   UNL A   1      41.415  26.868  29.104  1.00  0.00     0.010 A 
ATOM     22  C   UNL A   1      42.804  28.745  28.564  1.00  0.00     0.010 A 
ATOM     23  C   UNL A   1      41.917  28.131  29.464  1.00  0.00    -0.014 A 
BRANCH  23  24
ATOM     24  C   UNL A   1      41.478  28.814  30.730  1.00  0.00     0.031 A 
ATOM     25  C   UNL A   1      40.238  29.690  30.763  1.00  0.00     0.074 A 
ATOM     26  C   UNL A   1      42.164  28.646  31.882  1.00  0.00     0.049 A 
ATOM     27  N   UNL A   1      39.864  30.566  31.663  1.00  0.00    -0.248 NA
ATOM     28  C   UNL A   1      39.303  29.580  29.630  1.00  0.00     0.031 C 
ATOM     29  C   UNL A   1      43.337  27.787  32.061  1.00  0.00     0.029 A 
ATOM     30  N   UNL A   1      41.970  29.185  33.135  1.00  0.00    -0.354 N 
ATOM     31  C   UNL A   1      38.709  31.169  31.169  1.00  0.00     0.074 A 
ATOM     32  C   UNL A   1      38.435  30.548  29.891  1.00  0.00     0.031 C 
ATOM     33  C   UNL A   1      43.704  27.792  33.347  1.00  0.00     0.029 A 
ATOM     34  C   UNL A   1      42.916  28.790  34.052  1.00  0.00     0.049 A 
ATOM     35  H   UNL A   1      41.226  29.792  33.351  1.00  0.00     0.167 HD
ATOM     36  C   UNL A   1      37.956  32.153  31.726  1.00  0.00     0.037 A 
ATOM     37  C   UNL A   1      43.202  29.234  35.291  1.00  0.00     0.037 A 
ATOM     38  C   UNL A   1      38.193  32.707  33.040  1.00  0.00     0.049 A 
ATOM     39  C   UNL A   1      42.409  30.367  35.864  1.00  0.00     0.074 A 
ATOM     40  C   UNL A   1      37.474  33.688  33.703  1.00  0.00     0.029 A 
ATOM     41  N   UNL A   1      39.210  32.315  33.900  1.00  0.00    -0.354 N 
ATOM     42  N   UNL A   1      41.393  31.006  35.338  1.00  0.00    -0.248 NA
ATOM     43  C   UNL A   1      42.820  30.861  37.183  1.00  0.00     0.031 C 
ATOM     44  C   UNL A   1      38.089  33.930  34.936  1.00  0.00     0.029 A 
ATOM     45  C   UNL A   1      39.153  33.055  35.072  1.00  0.00     0.049 A 
ATOM     46  H   UNL A   1      39.875  31.617  33.705  1.00  0.00     0.167 HD
ATOM     47  C   UNL A   1      41.034  31.973  36.269  1.00  0.00     0.074 A 
ATOM     48  C   UNL A   1      41.932  31.822  37.396  1.00  0.00     0.031 C 
ATOM     49  C   UNL A   1      40.052  32.904  36.190  1.00  0.00     0.037 A 
BRANCH  36  50
ATOM     50  C   UNL A   1      36.833  32.750  30.908  1.00  0.00     0.058 A 
ATOM     51  C   UNL A   1      35.480  32.464  31.147  1.00  0.00     0.135 A 
ATOM     52  C   UNL A   1      37.128  33.683  29.896  1.00  0.00     0.135 A 
ATOM     53  F   UNL A   1      35.134  31.578  32.094  1.00  0.00    -0.206 F 
ATOM     54  C   UNL A   1      34.465  33.054  30.395  1.00  0.00     0.059 A 
ATOM     55  C   UNL A   1      36.129  34.309  29.154  1.00  0.00     0.059 A 
ATOM     56  F   UNL A   1      38.402  34.006  29.625  1.00  0.00    -0.206 F 
ATOM     57  C   UNL A   1      34.800  33.975  29.399  1.00  0.00     0.060 A 
BRANCH  57  58
ATOM     58  S   UNL A   1      33.474  34.727  28.428  1.00  0.00     0.124 S 
ATOM     59  O   UNL A   1      32.587  35.218  29.479  1.00  0.00    -0.237 OA
ATOM     60  O   UNL A   1      34.184  35.750  27.669  1.00  0.00    -0.237 OA
ATOM     61  O   UNL A   1      32.953  33.613  27.640  1.00  0.00    -0.744 OA
ENDBRANCH  57  58
ENDBRANCH  36  50
BRANCH  37  62
ATOM     62  C   UNL A   1      44.362  28.653  36.021  1.00  0.00     0.058 A 
ATOM     63  C   UNL A   1      45.647  29.196  35.890  1.00  0.00     0.135 A 
ATOM     64  C   UNL A   1      44.191  27.587  36.922  1.00  0.00     0.135 A 
ATOM     65  F   UNL A   1      45.866  30.201  35.029  1.00  0.00    -0.206 F 
ATOM     66  C   UNL A   1      46.717  28.717  36.637  1.00  0.00     0.059 A 
ATOM     67  C   UNL A   1      45.236  27.116  37.707  1.00  0.00     0.059 A 
ATOM     68  F   UNL A   1      42.978  27.037  37.091  1.00  0.00    -0.206 F 
ATOM     69  C   UNL A   1      46.498  27.686  37.556  1.00  0.00     0.060 A 
BRANCH  69  70
ATOM     70  S   UNL A   1      47.869  27.141  38.594  1.00  0.00     0.124 S 
ATOM     71  O   UNL A   1      47.184  26.297  39.566  1.00  0.00    -0.237 OA
ATOM     72  O   UNL A   1      48.725  26.451  37.635  1.00  0.00    -0.237 OA
ATOM     73  O   UNL A   1      48.413  28.393  39.117  1.00  0.00    -0.744 OA
ENDBRANCH  69  70
ENDBRANCH  37  62
BRANCH  49  74
ATOM     74  C   UNL A   1      39.869  33.805  37.380  1.00  0.00     0.058 A 
ATOM     75  C   UNL A   1      39.040  33.451  38.457  1.00  0.00     0.135 A 
ATOM     76  C   UNL A   1      40.543  35.035  37.448  1.00  0.00     0.135 A 
ATOM     77  F   UNL A   1      38.362  32.294  38.436  1.00  0.00    -0.206 F 
ATOM     78  C   UNL A   1      38.862  34.300  39.544  1.00  0.00     0.059 A 
ATOM     79  C   UNL A   1      40.403  35.885  38.541  1.00  0.00     0.059 A 
ATOM     80  F   UNL A   1      41.352  35.419  36.448  1.00  0.00    -0.206 F 
ATOM     81  C   UNL A   1      39.548  35.515  39.578  1.00  0.00     0.060 A 
BRANCH  81  82
ATOM     82  S   UNL A   1      39.320  36.599  41.002  1.00  0.00     0.124 S 
ATOM     83  O   UNL A   1      38.401  35.818  41.823  1.00  0.00    -0.237 OA
ATOM     84  O   UNL A   1      40.679  36.725  41.520  1.00  0.00    -0.237 OA
ATOM     85  O   UNL A   1      38.762  37.815  40.419  1.00  0.00    -0.744 OA
ENDBRANCH  81  82
ENDBRANCH  49  74
ENDBRANCH  23  24
ENDBRANCH  16  18
ENDBRANCH  15  16
ENDBRANCH   1  15
TORSDOF 16
ENDMDL
