MODEL 1
REMARK VINA RESULT:     -12.4      0.000      0.000
REMARK SMILES O=C(OCCOC(=O)c1ccc(-c2c3nc(c(-c4c(F)cc(S(=O)(=O)[O-])cc4F)c4ccc([nH]4)c(-c4c(F)cc(S(=O)(=O)[O-])cc4F)c4nc(c(-c5c(F)cc(S(=O)(=O)[O-])cc5F)c5ccc2[nH]5)C=C4)C=C3)cc1)C1=Cc2cc(S(F)(F)(F)(F)F)ccc2O[C@@H]1C(F)(F)F
REMARK SMILES IDX 5 1 4 2 3 3 2 4 1 5 75 6 76 7 90 8 77 9 89 10 78 11 88 12
REMARK SMILES IDX 79 13 87 14 86 15 91 16 92 17 93 18 94 19 80 20 81 21 82 22
REMARK SMILES IDX 83 23 84 24 85 25 6 26 7 27 8 28 9 29 10 30 74 31 11 32
REMARK SMILES IDX 73 33 12 34 13 35 14 36 67 37 15 38 72 39 66 40 68 41 16 42
REMARK SMILES IDX 71 43 65 44 64 45 17 47 51 48 30 49 50 50 31 51 34 52 49 53
REMARK SMILES IDX 69 54 32 55 33 56 48 58 70 59 35 60 18 61 19 62 28 63 20 64
REMARK SMILES IDX 21 65 27 66 29 67 22 68 23 69 24 70 25 71 26 72 52 73 53 74
REMARK SMILES IDX 62 75 54 76 55 77 61 78 63 79 56 80 57 81 58 82 59 83 60 84
REMARK SMILES IDX 36 85 37 86 46 87 38 88 39 89 45 90 47 91 40 92 41 93 42 94
REMARK SMILES IDX 43 95 44 96
REMARK H PARENT 68 46 34 57
REMARK Flexibility Score: inf
ROOT
ATOM      1  C   UNL A   1      33.525  28.641  27.188  1.00  0.00     0.275 C 
ENDROOT
BRANCH   1   2
ATOM      2  C   UNL A   1      32.089  28.374  27.607  1.00  0.00     0.275 C 
BRANCH   2   3
ATOM      3  O   UNL A   1      31.802  26.991  27.459  1.00  0.00    -0.459 OA
BRANCH   3   4
ATOM      4  C   UNL A   1      31.115  26.528  26.306  1.00  0.00     0.338 C 
ATOM      5  O   UNL A   1      30.008  25.914  26.429  1.00  0.00    -0.246 OA
BRANCH   4   6
ATOM      6  C   UNL A   1      31.702  26.764  24.925  1.00  0.00     0.087 C 
ATOM      7  C   UNL A   1      32.765  26.029  24.503  1.00  0.00     0.027 C 
ATOM      8  C   UNL A   1      31.102  27.824  24.015  1.00  0.00     0.316 C 
ATOM      9  C   UNL A   1      33.366  24.969  25.412  1.00  0.00     0.019 A 
ATOM     10  O   UNL A   1      31.140  24.475  26.086  1.00  0.00    -0.475 OA
ATOM     11  C   UNL A   1      34.736  24.778  25.482  1.00  0.00     0.036 A 
ATOM     12  C   UNL A   1      32.524  24.160  26.045  1.00  0.00     0.128 A 
ATOM     13  C   UNL A   1      35.113  23.523  26.017  1.00  0.00     0.107 A 
ATOM     14  C   UNL A   1      32.981  23.020  26.663  1.00  0.00     0.048 A 
ATOM     15  C   UNL A   1      34.317  22.738  26.719  1.00  0.00     0.028 A 
BRANCH   8  16
ATOM     16  C   UNL A   1      30.612  27.172  22.733  1.00  0.00     0.430 C 
ATOM     17  F   UNL A   1      31.634  27.014  21.897  1.00  0.00    -0.167 F 
ATOM     18  F   UNL A   1      30.080  25.986  23.013  1.00  0.00    -0.167 F 
ATOM     19  F   UNL A   1      29.692  27.948  22.166  1.00  0.00    -0.167 F 
ENDBRANCH   8  16
BRANCH  13  20
ATOM     20  S   UNL A   1      36.805  22.955  25.716  1.00  0.00     0.310 S 
ATOM     21  F   UNL A   1      37.031  24.027  24.569  1.00  0.00    -0.094 F 
ATOM     22  F   UNL A   1      36.248  21.985  24.606  1.00  0.00    -0.094 F 
ATOM     23  F   UNL A   1      38.257  22.463  25.457  1.00  0.00    -0.094 F 
ATOM     24  F   UNL A   1      37.360  24.031  26.731  1.00  0.00    -0.094 F 
ATOM     25  F   UNL A   1      35.351  23.543  25.908  1.00  0.00    -0.094 F 
ENDBRANCH  13  20
ENDBRANCH   4   6
ENDBRANCH   3   4
ENDBRANCH   2   3
ENDBRANCH   1   2
BRANCH   1  26
ATOM     26  O   UNL A   1      33.743  30.041  27.110  1.00  0.00    -0.458 OA
BRANCH  26  27
ATOM     27  C   UNL A   1      34.609  30.679  28.038  1.00  0.00     0.338 C 
ATOM     28  O   UNL A   1      34.208  31.696  28.686  1.00  0.00    -0.246 OA
BRANCH  27  29
ATOM     29  C   UNL A   1      36.016  30.146  28.255  1.00  0.00     0.060 A 
ATOM     30  C   UNL A   1      37.014  30.286  27.306  1.00  0.00     0.016 A 
ATOM     31  C   UNL A   1      36.278  29.664  29.464  1.00  0.00     0.016 A 
ATOM     32  C   UNL A   1      38.216  29.615  27.633  1.00  0.00     0.010 A 
ATOM     33  C   UNL A   1      37.517  29.147  29.758  1.00  0.00     0.010 A 
ATOM     34  C   UNL A   1      38.534  29.198  28.845  1.00  0.00    -0.014 A 
BRANCH  34  35
ATOM     35  C   UNL A   1      39.955  28.798  29.208  1.00  0.00     0.031 A 
ATOM     36  C   UNL A   1      40.733  29.783  29.817  1.00  0.00     0.074 A 
ATOM     37  C   UNL A   1      40.443  27.568  28.800  1.00  0.00     0.049 A 
ATOM     38  N   UNL A   1      42.027  29.716  30.138  1.00  0.00    -0.248 NA
ATOM     39  C   UNL A   1      40.226  31.103  30.220  1.00  0.00     0.031 C 
ATOM     40  C   UNL A   1      39.662  26.565  28.193  1.00  0.00     0.029 A 
ATOM     41  N   UNL A   1      41.732  27.095  28.900  1.00  0.00    -0.354 N 
ATOM     42  C   UNL A   1      42.415  30.850  30.725  1.00  0.00     0.074 A 
ATOM     43  C   UNL A   1      41.264  31.761  30.780  1.00  0.00     0.031 C 
ATOM     44  C   UNL A   1      40.470  25.508  27.920  1.00  0.00     0.029 A 
ATOM     45  C   UNL A   1      41.771  25.831  28.353  1.00  0.00     0.049 A 
ATOM     46  H   UNL A   1      42.495  27.577  29.295  1.00  0.00     0.167 HD
ATOM     47  C   UNL A   1      43.685  31.158  31.217  1.00  0.00     0.037 A 
ATOM     48  C   UNL A   1      42.867  24.994  28.227  1.00  0.00     0.037 A 
ATOM     49  C   UNL A   1      44.771  30.304  31.130  1.00  0.00     0.049 A 
ATOM     50  C   UNL A   1      44.151  25.326  28.667  1.00  0.00     0.074 A 
ATOM     51  C   UNL A   1      46.056  30.597  31.628  1.00  0.00     0.029 A 
ATOM     52  N   UNL A   1      44.816  29.050  30.561  1.00  0.00    -0.354 N 
ATOM     53  N   UNL A   1      44.531  26.444  29.290  1.00  0.00    -0.248 NA
ATOM     54  C   UNL A   1      45.327  24.461  28.510  1.00  0.00     0.031 C 
ATOM     55  C   UNL A   1      46.866  29.539  31.355  1.00  0.00     0.029 A 
ATOM     56  C   UNL A   1      46.101  28.568  30.681  1.00  0.00     0.049 A 
ATOM     57  H   UNL A   1      44.060  28.580  30.140  1.00  0.00     0.167 HD
ATOM     58  C   UNL A   1      45.834  26.392  29.573  1.00  0.00     0.074 A 
ATOM     59  C   UNL A   1      46.366  25.119  29.069  1.00  0.00     0.031 C 
ATOM     60  C   UNL A   1      46.599  27.355  30.234  1.00  0.00     0.037 A 
BRANCH  47  61
ATOM     61  C   UNL A   1      43.885  32.508  31.886  1.00  0.00     0.058 A 
ATOM     62  C   UNL A   1      43.676  32.673  33.246  1.00  0.00     0.135 A 
ATOM     63  C   UNL A   1      44.115  33.549  31.094  1.00  0.00     0.135 A 
ATOM     64  F   UNL A   1      43.695  31.663  34.110  1.00  0.00    -0.206 F 
ATOM     65  C   UNL A   1      43.442  34.014  33.631  1.00  0.00     0.059 A 
ATOM     66  C   UNL A   1      43.999  34.832  31.573  1.00  0.00     0.059 A 
ATOM     67  F   UNL A   1      44.460  33.347  29.825  1.00  0.00    -0.206 F 
ATOM     68  C   UNL A   1      43.736  35.068  32.893  1.00  0.00     0.060 A 
BRANCH  68  69
ATOM     69  S   UNL A   1      43.790  36.738  33.591  1.00  0.00     0.124 S 
ATOM     70  O   UNL A   1      42.500  37.007  34.370  1.00  0.00    -0.237 OA
ATOM     71  O   UNL A   1      44.989  36.858  34.535  1.00  0.00    -0.237 OA
ATOM     72  O   UNL A   1      43.942  37.880  32.328  1.00  0.00    -0.744 OA
ENDBRANCH  68  69
ENDBRANCH  47  61
BRANCH  48  73
ATOM     73  C   UNL A   1      42.662  23.638  27.573  1.00  0.00     0.058 A 
ATOM     74  C   UNL A   1      42.822  23.400  26.218  1.00  0.00     0.135 A 
ATOM     75  C   UNL A   1      42.432  22.645  28.424  1.00  0.00     0.135 A 
ATOM     76  F   UNL A   1      43.299  24.311  25.373  1.00  0.00    -0.206 F 
ATOM     77  C   UNL A   1      42.434  22.101  25.814  1.00  0.00     0.059 A 
ATOM     78  C   UNL A   1      42.194  21.371  27.965  1.00  0.00     0.059 A 
ATOM     79  F   UNL A   1      42.433  22.885  29.732  1.00  0.00    -0.206 F 
ATOM     80  C   UNL A   1      42.277  21.077  26.633  1.00  0.00     0.060 A 
BRANCH  80  81
ATOM     81  S   UNL A   1      42.179  19.375  26.024  1.00  0.00     0.124 S 
ATOM     82  O   UNL A   1      42.673  18.416  27.111  1.00  0.00    -0.237 OA
ATOM     83  O   UNL A   1      40.727  19.043  25.672  1.00  0.00    -0.237 OA
ATOM     84  O   UNL A   1      43.155  19.210  24.630  1.00  0.00    -0.744 OA
ENDBRANCH  80  81
ENDBRANCH  48  73
BRANCH  60  85
ATOM     85  C   UNL A   1      48.068  27.052  30.479  1.00  0.00     0.058 A 
ATOM     86  C   UNL A   1      49.056  27.441  29.589  1.00  0.00     0.135 A 
ATOM     87  C   UNL A   1      48.372  26.483  31.639  1.00  0.00     0.135 A 
ATOM     88  F   UNL A   1      48.822  28.232  28.547  1.00  0.00    -0.206 F 
ATOM     89  C   UNL A   1      50.337  26.920  29.890  1.00  0.00     0.059 A 
ATOM     90  C   UNL A   1      49.667  26.123  31.924  1.00  0.00     0.059 A 
ATOM     91  F   UNL A   1      47.414  26.259  32.535  1.00  0.00    -0.206 F 
ATOM     92  C   UNL A   1      50.686  26.423  31.063  1.00  0.00     0.060 A 
BRANCH  92  93
ATOM     93  S   UNL A   1      52.420  26.152  31.506  1.00  0.00     0.124 S 
ATOM     94  O   UNL A   1      53.297  26.320  30.263  1.00  0.00    -0.237 OA
ATOM     95  O   UNL A   1      52.840  27.173  32.568  1.00  0.00    -0.237 OA
ATOM     96  O   UNL A   1      52.609  24.572  32.130  1.00  0.00    -0.744 OA
ENDBRANCH  92  93
ENDBRANCH  60  85
ENDBRANCH  34  35
ENDBRANCH  27  29
ENDBRANCH  26  27
ENDBRANCH   1  26
TORSDOF 16
ENDMDL
MODEL 2
REMARK VINA RESULT:     -12.0      4.782     10.413
REMARK SMILES O=C(OCCOC(=O)c1ccc(-c2c3nc(c(-c4c(F)cc(S(=O)(=O)[O-])cc4F)c4ccc([nH]4)c(-c4c(F)cc(S(=O)(=O)[O-])cc4F)c4nc(c(-c5c(F)cc(S(=O)(=O)[O-])cc5F)c5ccc2[nH]5)C=C4)C=C3)cc1)C1=Cc2cc(S(F)(F)(F)(F)F)ccc2O[C@@H]1C(F)(F)F
REMARK SMILES IDX 5 1 4 2 3 3 2 4 1 5 75 6 76 7 90 8 77 9 89 10 78 11 88 12
REMARK SMILES IDX 79 13 87 14 86 15 91 16 92 17 93 18 94 19 80 20 81 21 82 22
REMARK SMILES IDX 83 23 84 24 85 25 6 26 7 27 8 28 9 29 10 30 74 31 11 32
REMARK SMILES IDX 73 33 12 34 13 35 14 36 67 37 15 38 72 39 66 40 68 41 16 42
REMARK SMILES IDX 71 43 65 44 64 45 17 47 51 48 30 49 50 50 31 51 34 52 49 53
REMARK SMILES IDX 69 54 32 55 33 56 48 58 70 59 35 60 18 61 19 62 28 63 20 64
REMARK SMILES IDX 21 65 27 66 29 67 22 68 23 69 24 70 25 71 26 72 52 73 53 74
REMARK SMILES IDX 62 75 54 76 55 77 61 78 63 79 56 80 57 81 58 82 59 83 60 84
REMARK SMILES IDX 36 85 37 86 46 87 38 88 39 89 45 90 47 91 40 92 41 93 42 94
REMARK SMILES IDX 43 95 44 96
REMARK H PARENT 68 46 34 57
REMARK Flexibility Score: inf
ROOT
ATOM      1  C   UNL A   1      38.855  22.871  25.941  1.00  0.00     0.275 C 
ENDROOT
BRANCH   1   2
ATOM      2  C   UNL A   1      37.550  23.640  26.068  1.00  0.00     0.275 C 
BRANCH   2   3
ATOM      3  O   UNL A   1      37.039  23.921  24.774  1.00  0.00    -0.459 OA
BRANCH   3   4
ATOM      4  C   UNL A   1      36.149  23.008  24.148  1.00  0.00     0.338 C 
ATOM      5  O   UNL A   1      36.236  22.791  22.899  1.00  0.00    -0.246 OA
BRANCH   4   6
ATOM      6  C   UNL A   1      35.094  22.289  24.973  1.00  0.00     0.087 C 
ATOM      7  C   UNL A   1      34.047  22.984  25.492  1.00  0.00     0.027 C 
ATOM      8  C   UNL A   1      35.209  20.793  25.217  1.00  0.00     0.316 C 
ATOM      9  C   UNL A   1      33.932  24.480  25.248  1.00  0.00     0.019 A 
ATOM     10  O   UNL A   1      34.743  24.051  23.055  1.00  0.00    -0.475 OA
ATOM     11  C   UNL A   1      33.499  25.338  26.246  1.00  0.00     0.036 A 
ATOM     12  C   UNL A   1      34.149  24.916  24.012  1.00  0.00     0.128 A 
ATOM     13  C   UNL A   1      33.045  26.590  25.770  1.00  0.00     0.107 A 
ATOM     14  C   UNL A   1      33.804  26.197  23.651  1.00  0.00     0.048 A 
ATOM     15  C   UNL A   1      33.316  27.079  24.573  1.00  0.00     0.028 A 
BRANCH   8  16
ATOM     16  C   UNL A   1      33.986  20.091  24.651  1.00  0.00     0.430 C 
ATOM     17  F   UNL A   1      34.336  18.893  24.191  1.00  0.00    -0.167 F 
ATOM     18  F   UNL A   1      33.073  19.950  25.608  1.00  0.00    -0.167 F 
ATOM     19  F   UNL A   1      33.479  20.816  23.657  1.00  0.00    -0.167 F 
ENDBRANCH   8  16
BRANCH  13  20
ATOM     20  S   UNL A   1      32.020  27.590  26.876  1.00  0.00     0.310 S 
ATOM     21  F   UNL A   1      31.700  28.644  25.734  1.00  0.00    -0.094 F 
ATOM     22  F   UNL A   1      33.291  28.453  27.222  1.00  0.00    -0.094 F 
ATOM     23  F   UNL A   1      31.142  28.450  27.829  1.00  0.00    -0.094 F 
ATOM     24  F   UNL A   1      30.730  26.805  26.411  1.00  0.00    -0.094 F 
ATOM     25  F   UNL A   1      32.875  26.783  25.820  1.00  0.00    -0.094 F 
ENDBRANCH  13  20
ENDBRANCH   4   6
ENDBRANCH   3   4
ENDBRANCH   2   3
ENDBRANCH   1   2
BRANCH   1  26
ATOM     26  O   UNL A   1      39.661  23.113  27.085  1.00  0.00    -0.458 OA
BRANCH  26  27
ATOM     27  C   UNL A   1      40.615  24.167  27.071  1.00  0.00     0.338 C 
ATOM     28  O   UNL A   1      41.597  24.122  26.268  1.00  0.00    -0.246 OA
BRANCH  27  29
ATOM     29  C   UNL A   1      40.460  25.344  28.019  1.00  0.00     0.060 A 
ATOM     30  C   UNL A   1      39.314  25.542  28.772  1.00  0.00     0.016 A 
ATOM     31  C   UNL A   1      41.538  26.098  28.196  1.00  0.00     0.016 A 
ATOM     32  C   UNL A   1      39.305  26.758  29.496  1.00  0.00     0.010 A 
ATOM     33  C   UNL A   1      41.498  27.194  29.024  1.00  0.00     0.010 A 
ATOM     34  C   UNL A   1      40.378  27.483  29.753  1.00  0.00    -0.014 A 
BRANCH  34  35
ATOM     35  C   UNL A   1      40.370  28.580  30.806  1.00  0.00     0.031 A 
ATOM     36  C   UNL A   1      41.253  28.412  31.873  1.00  0.00     0.074 A 
ATOM     37  C   UNL A   1      39.419  29.584  30.738  1.00  0.00     0.049 A 
ATOM     38  N   UNL A   1      41.366  29.174  32.963  1.00  0.00    -0.248 NA
ATOM     39  C   UNL A   1      42.241  27.327  31.964  1.00  0.00     0.031 C 
ATOM     40  C   UNL A   1      38.530  29.765  29.660  1.00  0.00     0.029 A 
ATOM     41  N   UNL A   1      39.159  30.566  31.667  1.00  0.00    -0.354 N 
ATOM     42  C   UNL A   1      42.338  28.708  33.752  1.00  0.00     0.074 A 
ATOM     43  C   UNL A   1      42.909  27.510  33.123  1.00  0.00     0.031 C 
ATOM     44  C   UNL A   1      37.739  30.832  29.941  1.00  0.00     0.029 A 
ATOM     45  C   UNL A   1      38.119  31.338  31.198  1.00  0.00     0.049 A 
ATOM     46  H   UNL A   1      39.635  30.694  32.520  1.00  0.00     0.167 HD
ATOM     47  C   UNL A   1      42.768  29.238  34.969  1.00  0.00     0.037 A 
ATOM     48  C   UNL A   1      37.522  32.424  31.818  1.00  0.00     0.037 A 
ATOM     49  C   UNL A   1      42.199  30.349  35.568  1.00  0.00     0.049 A 
ATOM     50  C   UNL A   1      37.915  32.919  33.065  1.00  0.00     0.074 A 
ATOM     51  C   UNL A   1      42.627  30.900  36.792  1.00  0.00     0.029 A 
ATOM     52  N   UNL A   1      41.144  31.107  35.112  1.00  0.00    -0.354 N 
ATOM     53  N   UNL A   1      38.912  32.477  33.834  1.00  0.00    -0.248 NA
ATOM     54  C   UNL A   1      37.268  34.047  33.746  1.00  0.00     0.031 C 
ATOM     55  C   UNL A   1      41.835  31.969  37.074  1.00  0.00     0.029 A 
ATOM     56  C   UNL A   1      40.898  32.103  36.031  1.00  0.00     0.049 A 
ATOM     57  H   UNL A   1      40.649  30.961  34.272  1.00  0.00     0.167 HD
ATOM     58  C   UNL A   1      38.996  33.214  34.943  1.00  0.00     0.074 A 
ATOM     59  C   UNL A   1      37.936  34.230  34.906  1.00  0.00     0.031 C 
ATOM     60  C   UNL A   1      39.918  33.081  35.984  1.00  0.00     0.037 A 
BRANCH  47  61
ATOM     61  C   UNL A   1      43.928  28.555  35.677  1.00  0.00     0.058 A 
ATOM     62  C   UNL A   1      45.242  28.887  35.385  1.00  0.00     0.135 A 
ATOM     63  C   UNL A   1      43.636  27.528  36.466  1.00  0.00     0.135 A 
ATOM     64  F   UNL A   1      45.590  30.037  34.818  1.00  0.00    -0.206 F 
ATOM     65  C   UNL A   1      46.177  27.889  35.746  1.00  0.00     0.059 A 
ATOM     66  C   UNL A   1      44.621  26.671  36.891  1.00  0.00     0.059 A 
ATOM     67  F   UNL A   1      42.377  27.328  36.848  1.00  0.00    -0.206 F 
ATOM     68  C   UNL A   1      45.934  26.904  36.591  1.00  0.00     0.060 A 
BRANCH  68  69
ATOM     69  S   UNL A   1      47.268  25.915  37.313  1.00  0.00     0.124 S 
ATOM     70  O   UNL A   1      48.456  25.880  36.349  1.00  0.00    -0.237 OA
ATOM     71  O   UNL A   1      47.707  26.542  38.639  1.00  0.00    -0.237 OA
ATOM     72  O   UNL A   1      46.711  24.323  37.591  1.00  0.00    -0.744 OA
ENDBRANCH  68  69
ENDBRANCH  47  61
BRANCH  48  73
ATOM     73  C   UNL A   1      36.374  33.116  31.102  1.00  0.00     0.058 A 
ATOM     74  C   UNL A   1      35.043  32.975  31.458  1.00  0.00     0.135 A 
ATOM     75  C   UNL A   1      36.748  33.979  30.166  1.00  0.00     0.135 A 
ATOM     76  F   UNL A   1      34.649  32.320  32.547  1.00  0.00    -0.206 F 
ATOM     77  C   UNL A   1      34.140  33.591  30.560  1.00  0.00     0.059 A 
ATOM     78  C   UNL A   1      35.811  34.649  29.416  1.00  0.00     0.059 A 
ATOM     79  F   UNL A   1      38.043  34.199  29.952  1.00  0.00    -0.206 F 
ATOM     80  C   UNL A   1      34.476  34.512  29.675  1.00  0.00     0.060 A 
BRANCH  80  81
ATOM     81  S   UNL A   1      33.235  35.539  28.849  1.00  0.00     0.124 S 
ATOM     82  O   UNL A   1      32.349  36.212  29.900  1.00  0.00    -0.237 OA
ATOM     83  O   UNL A   1      33.936  36.610  28.010  1.00  0.00    -0.237 OA
ATOM     84  O   UNL A   1      32.270  34.560  27.832  1.00  0.00    -0.744 OA
ENDBRANCH  80  81
ENDBRANCH  48  73
BRANCH  60  85
ATOM     85  C   UNL A   1      39.841  34.071  37.135  1.00  0.00     0.058 A 
ATOM     86  C   UNL A   1      40.499  35.290  37.100  1.00  0.00     0.135 A 
ATOM     87  C   UNL A   1      39.030  33.755  38.138  1.00  0.00     0.135 A 
ATOM     88  F   UNL A   1      41.112  35.751  36.014  1.00  0.00    -0.206 F 
ATOM     89  C   UNL A   1      40.462  35.997  38.325  1.00  0.00     0.059 A 
ATOM     90  C   UNL A   1      38.940  34.562  39.245  1.00  0.00     0.059 A 
ATOM     91  F   UNL A   1      38.298  32.647  38.069  1.00  0.00    -0.206 F 
ATOM     92  C   UNL A   1      39.610  35.753  39.304  1.00  0.00     0.060 A 
BRANCH  92  93
ATOM     93  S   UNL A   1      39.344  36.931  40.652  1.00  0.00     0.124 S 
ATOM     94  O   UNL A   1      40.677  37.577  41.037  1.00  0.00    -0.237 OA
ATOM     95  O   UNL A   1      38.365  38.016  40.195  1.00  0.00    -0.237 OA
ATOM     96  O   UNL A   1      38.695  36.112  42.005  1.00  0.00    -0.744 OA
ENDBRANCH  92  93
ENDBRANCH  60  85
ENDBRANCH  34  35
ENDBRANCH  27  29
ENDBRANCH  26  27
ENDBRANCH   1  26
TORSDOF 16
ENDMDL
MODEL 3
REMARK VINA RESULT:     -12.0      3.314      9.299
REMARK SMILES O=C(OCCOC(=O)c1ccc(-c2c3nc(c(-c4c(F)cc(S(=O)(=O)[O-])cc4F)c4ccc([nH]4)c(-c4c(F)cc(S(=O)(=O)[O-])cc4F)c4nc(c(-c5c(F)cc(S(=O)(=O)[O-])cc5F)c5ccc2[nH]5)C=C4)C=C3)cc1)C1=Cc2cc(S(F)(F)(F)(F)F)ccc2O[C@@H]1C(F)(F)F
REMARK SMILES IDX 5 1 4 2 3 3 2 4 1 5 75 6 76 7 90 8 77 9 89 10 78 11 88 12
REMARK SMILES IDX 79 13 87 14 86 15 91 16 92 17 93 18 94 19 80 20 81 21 82 22
REMARK SMILES IDX 83 23 84 24 85 25 6 26 7 27 8 28 9 29 10 30 74 31 11 32
REMARK SMILES IDX 73 33 12 34 13 35 14 36 67 37 15 38 72 39 66 40 68 41 16 42
REMARK SMILES IDX 71 43 65 44 64 45 17 47 51 48 30 49 50 50 31 51 34 52 49 53
REMARK SMILES IDX 69 54 32 55 33 56 48 58 70 59 35 60 18 61 19 62 28 63 20 64
REMARK SMILES IDX 21 65 27 66 29 67 22 68 23 69 24 70 25 71 26 72 52 73 53 74
REMARK SMILES IDX 62 75 54 76 55 77 61 78 63 79 56 80 57 81 58 82 59 83 60 84
REMARK SMILES IDX 36 85 37 86 46 87 38 88 39 89 45 90 47 91 40 92 41 93 42 94
REMARK SMILES IDX 43 95 44 96
REMARK H PARENT 68 46 34 57
REMARK Flexibility Score: inf
ROOT
ATOM      1  C   UNL A   1      37.352  21.925  24.758  1.00  0.00     0.275 C 
ENDROOT
BRANCH   1   2
ATOM      2  C   UNL A   1      37.084  22.941  23.660  1.00  0.00     0.275 C 
BRANCH   2   3
ATOM      3  O   UNL A   1      36.055  23.827  24.077  1.00  0.00    -0.459 OA
BRANCH   3   4
ATOM      4  C   UNL A   1      34.695  23.505  23.823  1.00  0.00     0.338 C 
ATOM      5  O   UNL A   1      34.289  23.357  22.628  1.00  0.00    -0.246 OA
BRANCH   4   6
ATOM      6  C   UNL A   1      33.725  23.339  24.982  1.00  0.00     0.087 C 
ATOM      7  C   UNL A   1      33.211  24.435  25.600  1.00  0.00     0.027 C 
ATOM      8  C   UNL A   1      33.331  21.947  25.448  1.00  0.00     0.316 C 
ATOM      9  C   UNL A   1      33.605  25.826  25.134  1.00  0.00     0.019 A 
ATOM     10  O   UNL A   1      33.541  24.960  22.922  1.00  0.00    -0.475 OA
ATOM     11  C   UNL A   1      33.828  26.850  26.041  1.00  0.00     0.036 A 
ATOM     12  C   UNL A   1      33.613  26.053  23.825  1.00  0.00     0.128 A 
ATOM     13  C   UNL A   1      33.766  28.144  25.473  1.00  0.00     0.107 A 
ATOM     14  C   UNL A   1      33.691  27.335  23.337  1.00  0.00     0.048 A 
ATOM     15  C   UNL A   1      33.853  28.399  24.179  1.00  0.00     0.028 A 
BRANCH   8  16
ATOM     16  C   UNL A   1      31.827  21.773  25.311  1.00  0.00     0.430 C 
ATOM     17  F   UNL A   1      31.404  22.416  24.227  1.00  0.00    -0.167 F 
ATOM     18  F   UNL A   1      31.538  20.480  25.201  1.00  0.00    -0.167 F 
ATOM     19  F   UNL A   1      31.224  22.273  26.386  1.00  0.00    -0.167 F 
ENDBRANCH   8  16
BRANCH  13  20
ATOM     20  S   UNL A   1      33.551  29.547  26.595  1.00  0.00     0.310 S 
ATOM     21  F   UNL A   1      33.419  28.599  27.860  1.00  0.00    -0.094 F 
ATOM     22  F   UNL A   1      31.992  29.411  26.417  1.00  0.00    -0.094 F 
ATOM     23  F   UNL A   1      33.363  30.754  27.557  1.00  0.00    -0.094 F 
ATOM     24  F   UNL A   1      35.106  29.579  26.872  1.00  0.00    -0.094 F 
ATOM     25  F   UNL A   1      33.749  28.253  25.710  1.00  0.00    -0.094 F 
ENDBRANCH  13  20
ENDBRANCH   4   6
ENDBRANCH   3   4
ENDBRANCH   2   3
ENDBRANCH   1   2
BRANCH   1  26
ATOM     26  O   UNL A   1      37.659  22.603  25.967  1.00  0.00    -0.458 OA
BRANCH  26  27
ATOM     27  C   UNL A   1      39.001  22.971  26.254  1.00  0.00     0.338 C 
ATOM     28  O   UNL A   1      39.956  22.212  25.904  1.00  0.00    -0.246 OA
BRANCH  27  29
ATOM     29  C   UNL A   1      39.292  24.273  26.982  1.00  0.00     0.060 A 
ATOM     30  C   UNL A   1      38.959  24.467  28.313  1.00  0.00     0.016 A 
ATOM     31  C   UNL A   1      40.012  25.167  26.317  1.00  0.00     0.016 A 
ATOM     32  C   UNL A   1      39.191  25.783  28.778  1.00  0.00     0.010 A 
ATOM     33  C   UNL A   1      40.320  26.381  26.882  1.00  0.00     0.010 A 
ATOM     34  C   UNL A   1      39.969  26.662  28.174  1.00  0.00    -0.014 A 
BRANCH  34  35
ATOM     35  C   UNL A   1      40.451  27.921  28.877  1.00  0.00     0.031 A 
ATOM     36  C   UNL A   1      41.735  27.866  29.422  1.00  0.00     0.074 A 
ATOM     37  C   UNL A   1      39.575  28.975  29.068  1.00  0.00     0.049 A 
ATOM     38  N   UNL A   1      42.344  28.791  30.166  1.00  0.00    -0.248 NA
ATOM     39  C   UNL A   1      42.656  26.732  29.250  1.00  0.00     0.031 C 
ATOM     40  C   UNL A   1      38.281  29.043  28.514  1.00  0.00     0.029 A 
ATOM     41  N   UNL A   1      39.777  30.121  29.803  1.00  0.00    -0.354 N 
ATOM     42  C   UNL A   1      43.576  28.388  30.485  1.00  0.00     0.074 A 
ATOM     43  C   UNL A   1      43.791  27.055  29.906  1.00  0.00     0.031 C 
ATOM     44  C   UNL A   1      37.708  30.206  28.919  1.00  0.00     0.029 A 
ATOM     45  C   UNL A   1      38.634  30.887  29.733  1.00  0.00     0.049 A 
ATOM     46  H   UNL A   1      40.599  30.353  30.295  1.00  0.00     0.167 HD
ATOM     47  C   UNL A   1      44.527  29.081  31.236  1.00  0.00     0.037 A 
ATOM     48  C   UNL A   1      38.393  32.109  30.338  1.00  0.00     0.037 A 
ATOM     49  C   UNL A   1      44.301  30.323  31.805  1.00  0.00     0.049 A 
ATOM     50  C   UNL A   1      39.324  32.776  31.138  1.00  0.00     0.074 A 
ATOM     51  C   UNL A   1      45.252  31.038  32.559  1.00  0.00     0.029 A 
ATOM     52  N   UNL A   1      43.149  31.078  31.755  1.00  0.00    -0.354 N 
ATOM     53  N   UNL A   1      40.569  32.391  31.425  1.00  0.00    -0.248 NA
ATOM     54  C   UNL A   1      39.068  34.056  31.811  1.00  0.00     0.031 C 
ATOM     55  C   UNL A   1      44.679  32.203  32.965  1.00  0.00     0.029 A 
ATOM     56  C   UNL A   1      43.360  32.234  32.473  1.00  0.00     0.049 A 
ATOM     57  H   UNL A   1      42.318  30.832  31.288  1.00  0.00     0.167 HD
ATOM     58  C   UNL A   1      41.162  33.298  32.203  1.00  0.00     0.074 A 
ATOM     59  C   UNL A   1      40.203  34.379  32.468  1.00  0.00     0.031 C 
ATOM     60  C   UNL A   1      42.467  33.269  32.700  1.00  0.00     0.037 A 
BRANCH  47  61
ATOM     61  C   UNL A   1      45.888  28.435  31.440  1.00  0.00     0.058 A 
ATOM     62  C   UNL A   1      46.920  28.635  30.537  1.00  0.00     0.135 A 
ATOM     63  C   UNL A   1      45.998  27.554  32.427  1.00  0.00     0.135 A 
ATOM     64  F   UNL A   1      46.960  29.667  29.700  1.00  0.00    -0.206 F 
ATOM     65  C   UNL A   1      47.926  27.642  30.588  1.00  0.00     0.059 A 
ATOM     66  C   UNL A   1      47.077  26.705  32.490  1.00  0.00     0.059 A 
ATOM     67  F   UNL A   1      45.055  27.492  33.364  1.00  0.00    -0.206 F 
ATOM     68  C   UNL A   1      48.105  26.808  31.595  1.00  0.00     0.060 A 
BRANCH  68  69
ATOM     69  S   UNL A   1      49.630  25.850  31.782  1.00  0.00     0.124 S 
ATOM     70  O   UNL A   1      50.762  26.777  32.234  1.00  0.00    -0.237 OA
ATOM     71  O   UNL A   1      49.420  24.755  32.829  1.00  0.00    -0.237 OA
ATOM     72  O   UNL A   1      50.043  25.137  30.284  1.00  0.00    -0.744 OA
ENDBRANCH  68  69
ENDBRANCH  47  61
BRANCH  48  73
ATOM     73  C   UNL A   1      37.038  32.762  30.119  1.00  0.00     0.058 A 
ATOM     74  C   UNL A   1      35.965  32.626  30.984  1.00  0.00     0.135 A 
ATOM     75  C   UNL A   1      36.986  33.589  29.083  1.00  0.00     0.135 A 
ATOM     76  F   UNL A   1      36.056  32.012  32.162  1.00  0.00    -0.206 F 
ATOM     77  C   UNL A   1      34.764  33.197  30.503  1.00  0.00     0.059 A 
ATOM     78  C   UNL A   1      35.811  34.221  28.749  1.00  0.00     0.059 A 
ATOM     79  F   UNL A   1      38.080  33.811  28.360  1.00  0.00    -0.206 F 
ATOM     80  C   UNL A   1      34.694  34.084  29.527  1.00  0.00     0.060 A 
BRANCH  80  81
ATOM     81  S   UNL A   1      33.202  35.066  29.233  1.00  0.00     0.124 S 
ATOM     82  O   UNL A   1      32.354  34.393  28.151  1.00  0.00    -0.237 OA
ATOM     83  O   UNL A   1      32.394  35.164  30.529  1.00  0.00    -0.237 OA
ATOM     84  O   UNL A   1      33.645  36.635  28.718  1.00  0.00    -0.744 OA
ENDBRANCH  80  81
ENDBRANCH  48  73
BRANCH  60  85
ATOM     85  C   UNL A   1      42.936  34.445  33.541  1.00  0.00     0.058 A 
ATOM     86  C   UNL A   1      42.887  34.425  34.925  1.00  0.00     0.135 A 
ATOM     87  C   UNL A   1      43.490  35.460  32.887  1.00  0.00     0.135 A 
ATOM     88  F   UNL A   1      42.578  33.336  35.623  1.00  0.00    -0.206 F 
ATOM     89  C   UNL A   1      43.195  35.667  35.528  1.00  0.00     0.059 A 
ATOM     90  C   UNL A   1      43.893  36.589  33.557  1.00  0.00     0.059 A 
ATOM     91  F   UNL A   1      43.658  35.381  31.569  1.00  0.00    -0.206 F 
ATOM     92  C   UNL A   1      43.818  36.660  34.921  1.00  0.00     0.060 A 
BRANCH  92  93
ATOM     93  S   UNL A   1      44.534  38.043  35.843  1.00  0.00     0.124 S 
ATOM     94  O   UNL A   1      46.061  37.947  35.804  1.00  0.00    -0.237 OA
ATOM     95  O   UNL A   1      44.089  39.364  35.208  1.00  0.00    -0.237 OA
ATOM     96  O   UNL A   1      44.000  37.983  37.466  1.00  0.00    -0.744 OA
ENDBRANCH  92  93
ENDBRANCH  60  85
ENDBRANCH  34  35
ENDBRANCH  27  29
ENDBRANCH  26  27
ENDBRANCH   1  26
TORSDOF 16
ENDMDL
