MODEL 1
REMARK VINA RESULT:     -11.7      0.000      0.000
REMARK SMILES C[C@@H]1CCC[C@@]1(C(=O)OCCOC(=O)c1ccc(-c2c3nc(c(-c4c(F)cc(S(=O)(=O)[O-])cc4F)c4ccc([nH]4)c(-c4c(F)cc(S(=O)(=O)[O-])cc4F)c4nc(c(-c5c(F)cc(S(=O)(=O)[O-])cc5F)c5ccc2[nH]5)C=C4)C=C3)cc1)c1ccc(Cl)cc1Cl
REMARK SMILES IDX 11 1 10 2 9 3 7 4 8 5 6 6 1 7 2 8 3 9 4 10 5 11 81 12 82 13
REMARK SMILES IDX 87 14 83 15 86 16 88 17 84 18 85 19 12 20 13 21 14 22 15 23
REMARK SMILES IDX 16 24 80 25 17 26 79 27 18 28 19 29 20 30 73 31 21 32 78 33
REMARK SMILES IDX 72 34 74 35 22 36 77 37 71 38 70 39 23 41 57 42 36 43 56 44
REMARK SMILES IDX 37 45 40 46 55 47 75 48 38 49 39 50 54 52 76 53 41 54 24 55
REMARK SMILES IDX 25 56 34 57 26 58 27 59 33 60 35 61 28 62 29 63 30 64 31 65
REMARK SMILES IDX 32 66 58 67 59 68 68 69 60 70 61 71 67 72 69 73 62 74 63 75
REMARK SMILES IDX 64 76 65 77 66 78 42 79 43 80 52 81 44 82 45 83 51 84 53 85
REMARK SMILES IDX 46 86 47 87 48 88 49 89 50 90
REMARK H PARENT 74 40 40 51
REMARK Flexibility Score: inf
ROOT
ATOM      1  C   UNL A   1      32.621  29.685  27.169  1.00  0.00     0.275 C 
ENDROOT
BRANCH   1   2
ATOM      2  C   UNL A   1      32.584  28.200  27.501  1.00  0.00     0.274 C 
BRANCH   2   3
ATOM      3  O   UNL A   1      32.628  27.394  26.305  1.00  0.00    -0.461 OA
BRANCH   3   4
ATOM      4  C   UNL A   1      31.442  26.910  25.844  1.00  0.00     0.317 C 
ATOM      5  O   UNL A   1      30.490  26.632  26.566  1.00  0.00    -0.251 OA
BRANCH   4   6
ATOM      6  C   UNL A   1      31.450  26.640  24.321  1.00  0.00     0.097 C 
ATOM      7  C   UNL A   1      31.711  24.054  24.888  1.00  0.00     0.009 C 
ATOM      8  C   UNL A   1      31.230  25.136  23.901  1.00  0.00     0.008 C 
ATOM      9  C   UNL A   1      32.067  24.949  22.620  1.00  0.00     0.005 C 
ATOM     10  C   UNL A   1      33.280  25.852  22.779  1.00  0.00     0.002 C 
ATOM     11  C   UNL A   1      32.945  26.843  23.894  1.00  0.00     0.024 C 
BRANCH   6  12
ATOM     12  C   UNL A   1      30.511  27.645  23.547  1.00  0.00    -0.012 A 
ATOM     13  C   UNL A   1      31.098  28.744  22.869  1.00  0.00     0.008 A 
ATOM     14  C   UNL A   1      29.094  27.592  23.475  1.00  0.00     0.046 A 
ATOM     15  C   UNL A   1      30.356  29.711  22.180  1.00  0.00     0.021 A 
ATOM     16  C   UNL A   1      28.348  28.591  22.818  1.00  0.00     0.041 A 
ATOM     17  Cl  UNL A   1      28.084  26.343  24.111  1.00  0.00    -0.084 Cl
ATOM     18  C   UNL A   1      28.979  29.638  22.169  1.00  0.00     0.042 A 
ATOM     19  Cl  UNL A   1      28.053  30.829  21.348  1.00  0.00    -0.084 Cl
ENDBRANCH   6  12
ENDBRANCH   4   6
ENDBRANCH   3   4
ENDBRANCH   2   3
ENDBRANCH   1   2
BRANCH   1  20
ATOM     20  O   UNL A   1      33.984  30.103  27.004  1.00  0.00    -0.458 OA
BRANCH  20  21
ATOM     21  C   UNL A   1      34.550  30.691  28.077  1.00  0.00     0.338 C 
ATOM     22  O   UNL A   1      34.087  31.597  28.756  1.00  0.00    -0.246 OA
BRANCH  21  23
ATOM     23  C   UNL A   1      35.879  30.114  28.318  1.00  0.00     0.060 A 
ATOM     24  C   UNL A   1      36.253  29.673  29.590  1.00  0.00     0.016 A 
ATOM     25  C   UNL A   1      36.798  30.109  27.270  1.00  0.00     0.016 A 
ATOM     26  C   UNL A   1      37.575  29.306  29.839  1.00  0.00     0.010 A 
ATOM     27  C   UNL A   1      38.099  29.668  27.503  1.00  0.00     0.010 A 
ATOM     28  C   UNL A   1      38.509  29.298  28.795  1.00  0.00    -0.014 A 
BRANCH  28  29
ATOM     29  C   UNL A   1      39.930  28.938  29.021  1.00  0.00     0.031 A 
ATOM     30  C   UNL A   1      40.897  30.002  29.459  1.00  0.00     0.074 A 
ATOM     31  C   UNL A   1      40.361  27.688  28.770  1.00  0.00     0.049 A 
ATOM     32  N   UNL A   1      42.203  29.995  29.434  1.00  0.00    -0.248 NA
ATOM     33  C   UNL A   1      40.310  31.250  29.976  1.00  0.00     0.031 C 
ATOM     34  C   UNL A   1      39.512  26.557  28.387  1.00  0.00     0.029 A 
ATOM     35  N   UNL A   1      41.630  27.168  28.769  1.00  0.00    -0.354 N 
ATOM     36  C   UNL A   1      42.597  31.253  29.876  1.00  0.00     0.074 A 
ATOM     37  C   UNL A   1      41.390  31.994  30.174  1.00  0.00     0.031 C 
ATOM     38  C   UNL A   1      40.285  25.480  28.178  1.00  0.00     0.029 A 
ATOM     39  C   UNL A   1      41.684  25.863  28.338  1.00  0.00     0.049 A 
ATOM     40  H   UNL A   1      42.425  27.677  29.049  1.00  0.00     0.167 HD
ATOM     41  C   UNL A   1      43.853  31.742  30.009  1.00  0.00     0.037 A 
ATOM     42  C   UNL A   1      42.741  25.081  28.047  1.00  0.00     0.037 A 
ATOM     43  C   UNL A   1      45.042  30.977  29.739  1.00  0.00     0.049 A 
ATOM     44  C   UNL A   1      44.125  25.647  28.184  1.00  0.00     0.074 A 
ATOM     45  C   UNL A   1      46.365  31.371  29.837  1.00  0.00     0.029 A 
ATOM     46  N   UNL A   1      45.049  29.651  29.329  1.00  0.00    -0.354 N 
ATOM     47  N   UNL A   1      44.487  26.857  28.541  1.00  0.00    -0.248 NA
ATOM     48  C   UNL A   1      45.243  24.751  27.862  1.00  0.00     0.031 C 
ATOM     49  C   UNL A   1      47.172  30.287  29.469  1.00  0.00     0.029 A 
ATOM     50  C   UNL A   1      46.352  29.211  29.171  1.00  0.00     0.049 A 
ATOM     51  H   UNL A   1      44.246  29.103  29.175  1.00  0.00     0.167 HD
ATOM     52  C   UNL A   1      45.875  26.865  28.500  1.00  0.00     0.074 A 
ATOM     53  C   UNL A   1      46.288  25.536  28.093  1.00  0.00     0.031 C 
ATOM     54  C   UNL A   1      46.732  27.879  28.773  1.00  0.00     0.037 A 
BRANCH  41  55
ATOM     55  C   UNL A   1      44.002  33.177  30.428  1.00  0.00     0.058 A 
ATOM     56  C   UNL A   1      44.174  33.545  31.771  1.00  0.00     0.135 A 
ATOM     57  C   UNL A   1      43.989  34.200  29.465  1.00  0.00     0.135 A 
ATOM     58  F   UNL A   1      44.172  32.609  32.732  1.00  0.00    -0.206 F 
ATOM     59  C   UNL A   1      44.309  34.878  32.148  1.00  0.00     0.059 A 
ATOM     60  C   UNL A   1      44.142  35.538  29.817  1.00  0.00     0.059 A 
ATOM     61  F   UNL A   1      43.823  33.904  28.166  1.00  0.00    -0.206 F 
ATOM     62  C   UNL A   1      44.287  35.868  31.163  1.00  0.00     0.060 A 
BRANCH  62  63
ATOM     63  S   UNL A   1      44.460  37.596  31.662  1.00  0.00     0.124 S 
ATOM     64  O   UNL A   1      45.903  37.700  31.851  1.00  0.00    -0.237 OA
ATOM     65  O   UNL A   1      43.920  38.313  30.511  1.00  0.00    -0.237 OA
ATOM     66  O   UNL A   1      43.659  37.679  32.879  1.00  0.00    -0.744 OA
ENDBRANCH  62  63
ENDBRANCH  41  55
BRANCH  42  67
ATOM     67  C   UNL A   1      42.516  23.697  27.561  1.00  0.00     0.058 A 
ATOM     68  C   UNL A   1      42.428  23.421  26.189  1.00  0.00     0.135 A 
ATOM     69  C   UNL A   1      42.440  22.616  28.454  1.00  0.00     0.135 A 
ATOM     70  F   UNL A   1      42.486  24.424  25.299  1.00  0.00    -0.206 F 
ATOM     71  C   UNL A   1      42.275  22.121  25.717  1.00  0.00     0.059 A 
ATOM     72  C   UNL A   1      42.310  21.306  28.006  1.00  0.00     0.059 A 
ATOM     73  F   UNL A   1      42.534  22.828  29.776  1.00  0.00    -0.206 F 
ATOM     74  C   UNL A   1      42.224  21.070  26.634  1.00  0.00     0.060 A 
BRANCH  74  75
ATOM     75  S   UNL A   1      42.113  19.376  26.013  1.00  0.00     0.124 S 
ATOM     76  O   UNL A   1      43.026  19.421  24.877  1.00  0.00    -0.237 OA
ATOM     77  O   UNL A   1      42.563  18.594  27.162  1.00  0.00    -0.237 OA
ATOM     78  O   UNL A   1      40.699  19.234  25.685  1.00  0.00    -0.744 OA
ENDBRANCH  74  75
ENDBRANCH  42  67
BRANCH  54  79
ATOM     79  C   UNL A   1      48.197  27.577  28.672  1.00  0.00     0.058 A 
ATOM     80  C   UNL A   1      48.907  27.774  27.478  1.00  0.00     0.135 A 
ATOM     81  C   UNL A   1      48.906  27.126  29.796  1.00  0.00     0.135 A 
ATOM     82  F   UNL A   1      48.268  28.197  26.376  1.00  0.00    -0.206 F 
ATOM     83  C   UNL A   1      50.271  27.518  27.397  1.00  0.00     0.059 A 
ATOM     84  C   UNL A   1      50.273  26.879  29.742  1.00  0.00     0.059 A 
ATOM     85  F   UNL A   1      48.270  26.930  30.962  1.00  0.00    -0.206 F 
ATOM     86  C   UNL A   1      50.945  27.068  28.534  1.00  0.00     0.060 A 
BRANCH  86  87
ATOM     87  S   UNL A   1      52.722  26.766  28.431  1.00  0.00     0.124 S 
ATOM     88  O   UNL A   1      53.227  28.097  28.114  1.00  0.00    -0.237 OA
ATOM     89  O   UNL A   1      53.037  26.271  29.767  1.00  0.00    -0.237 OA
ATOM     90  O   UNL A   1      52.834  25.778  27.361  1.00  0.00    -0.744 OA
ENDBRANCH  86  87
ENDBRANCH  54  79
ENDBRANCH  28  29
ENDBRANCH  21  23
ENDBRANCH  20  21
ENDBRANCH   1  20
TORSDOF 15
ENDMDL
MODEL 2
REMARK VINA RESULT:     -11.6      0.297      1.236
REMARK SMILES C[C@@H]1CCC[C@@]1(C(=O)OCCOC(=O)c1ccc(-c2c3nc(c(-c4c(F)cc(S(=O)(=O)[O-])cc4F)c4ccc([nH]4)c(-c4c(F)cc(S(=O)(=O)[O-])cc4F)c4nc(c(-c5c(F)cc(S(=O)(=O)[O-])cc5F)c5ccc2[nH]5)C=C4)C=C3)cc1)c1ccc(Cl)cc1Cl
REMARK SMILES IDX 11 1 10 2 9 3 7 4 8 5 6 6 1 7 2 8 3 9 4 10 5 11 81 12 82 13
REMARK SMILES IDX 87 14 83 15 86 16 88 17 84 18 85 19 12 20 13 21 14 22 15 23
REMARK SMILES IDX 16 24 80 25 17 26 79 27 18 28 19 29 20 30 73 31 21 32 78 33
REMARK SMILES IDX 72 34 74 35 22 36 77 37 71 38 70 39 23 41 57 42 36 43 56 44
REMARK SMILES IDX 37 45 40 46 55 47 75 48 38 49 39 50 54 52 76 53 41 54 24 55
REMARK SMILES IDX 25 56 34 57 26 58 27 59 33 60 35 61 28 62 29 63 30 64 31 65
REMARK SMILES IDX 32 66 58 67 59 68 68 69 60 70 61 71 67 72 69 73 62 74 63 75
REMARK SMILES IDX 64 76 65 77 66 78 42 79 43 80 52 81 44 82 45 83 51 84 53 85
REMARK SMILES IDX 46 86 47 87 48 88 49 89 50 90
REMARK H PARENT 74 40 40 51
REMARK Flexibility Score: inf
ROOT
ATOM      1  C   UNL A   1      32.473  29.914  27.242  1.00  0.00     0.275 C 
ENDROOT
BRANCH   1   2
ATOM      2  C   UNL A   1      31.576  28.687  27.313  1.00  0.00     0.274 C 
BRANCH   2   3
ATOM      3  O   UNL A   1      32.086  27.617  26.489  1.00  0.00    -0.461 OA
BRANCH   3   4
ATOM      4  C   UNL A   1      31.170  26.813  25.886  1.00  0.00     0.317 C 
ATOM      5  O   UNL A   1      30.316  26.173  26.493  1.00  0.00    -0.251 OA
BRANCH   4   6
ATOM      6  C   UNL A   1      31.380  26.697  24.358  1.00  0.00     0.097 C 
ATOM      7  C   UNL A   1      31.818  24.098  24.723  1.00  0.00     0.009 C 
ATOM      8  C   UNL A   1      31.354  25.228  23.783  1.00  0.00     0.008 C 
ATOM      9  C   UNL A   1      32.347  25.239  22.604  1.00  0.00     0.005 C 
ATOM     10  C   UNL A   1      33.442  26.221  22.991  1.00  0.00     0.002 C 
ATOM     11  C   UNL A   1      32.887  27.064  24.139  1.00  0.00     0.024 C 
BRANCH   6  12
ATOM     12  C   UNL A   1      30.445  27.690  23.565  1.00  0.00    -0.012 A 
ATOM     13  C   UNL A   1      31.035  28.787  22.885  1.00  0.00     0.008 A 
ATOM     14  C   UNL A   1      29.030  27.631  23.477  1.00  0.00     0.046 A 
ATOM     15  C   UNL A   1      30.297  29.745  22.179  1.00  0.00     0.021 A 
ATOM     16  C   UNL A   1      28.287  28.621  22.804  1.00  0.00     0.041 A 
ATOM     17  Cl  UNL A   1      28.018  26.383  24.111  1.00  0.00    -0.084 Cl
ATOM     18  C   UNL A   1      28.920  29.665  22.153  1.00  0.00     0.042 A 
ATOM     19  Cl  UNL A   1      27.999  30.846  21.312  1.00  0.00    -0.084 Cl
ENDBRANCH   6  12
ENDBRANCH   4   6
ENDBRANCH   3   4
ENDBRANCH   2   3
ENDBRANCH   1   2
BRANCH   1  20
ATOM     20  O   UNL A   1      33.835  29.525  27.469  1.00  0.00    -0.458 OA
BRANCH  20  21
ATOM     21  C   UNL A   1      34.595  30.414  28.140  1.00  0.00     0.338 C 
ATOM     22  O   UNL A   1      34.272  31.536  28.508  1.00  0.00    -0.246 OA
BRANCH  21  23
ATOM     23  C   UNL A   1      35.941  29.864  28.346  1.00  0.00     0.060 A 
ATOM     24  C   UNL A   1      36.337  29.378  29.595  1.00  0.00     0.016 A 
ATOM     25  C   UNL A   1      36.852  29.932  27.294  1.00  0.00     0.016 A 
ATOM     26  C   UNL A   1      37.670  29.037  29.818  1.00  0.00     0.010 A 
ATOM     27  C   UNL A   1      38.167  29.518  27.498  1.00  0.00     0.010 A 
ATOM     28  C   UNL A   1      38.596  29.102  28.769  1.00  0.00    -0.014 A 
BRANCH  28  29
ATOM     29  C   UNL A   1      40.028  28.772  28.970  1.00  0.00     0.031 A 
ATOM     30  C   UNL A   1      40.980  29.856  29.395  1.00  0.00     0.074 A 
ATOM     31  C   UNL A   1      40.481  27.532  28.707  1.00  0.00     0.049 A 
ATOM     32  N   UNL A   1      42.285  29.877  29.347  1.00  0.00    -0.248 NA
ATOM     33  C   UNL A   1      40.375  31.089  29.925  1.00  0.00     0.031 C 
ATOM     34  C   UNL A   1      39.651  26.385  28.336  1.00  0.00     0.029 A 
ATOM     35  N   UNL A   1      41.761  27.040  28.683  1.00  0.00    -0.354 N 
ATOM     36  C   UNL A   1      42.659  31.142  29.787  1.00  0.00     0.074 A 
ATOM     37  C   UNL A   1      41.441  31.856  30.108  1.00  0.00     0.031 C 
ATOM     38  C   UNL A   1      40.443  25.325  28.109  1.00  0.00     0.029 A 
ATOM     39  C   UNL A   1      41.836  25.737  28.247  1.00  0.00     0.049 A 
ATOM     40  H   UNL A   1      42.550  27.565  28.951  1.00  0.00     0.167 HD
ATOM     41  C   UNL A   1      43.906  31.658  29.900  1.00  0.00     0.037 A 
ATOM     42  C   UNL A   1      42.905  24.980  27.936  1.00  0.00     0.037 A 
ATOM     43  C   UNL A   1      45.107  30.919  29.607  1.00  0.00     0.049 A 
ATOM     44  C   UNL A   1      44.278  25.576  28.051  1.00  0.00     0.074 A 
ATOM     45  C   UNL A   1      46.422  31.342  29.684  1.00  0.00     0.029 A 
ATOM     46  N   UNL A   1      45.135  29.594  29.193  1.00  0.00    -0.354 N 
ATOM     47  N   UNL A   1      44.620  26.791  28.406  1.00  0.00    -0.248 NA
ATOM     48  C   UNL A   1      45.410  24.705  27.708  1.00  0.00     0.031 C 
ATOM     49  C   UNL A   1      47.246  30.276  29.299  1.00  0.00     0.029 A 
ATOM     50  C   UNL A   1      46.444  29.183  29.012  1.00  0.00     0.049 A 
ATOM     51  H   UNL A   1      44.341  29.030  29.051  1.00  0.00     0.167 HD
ATOM     52  C   UNL A   1      46.007  26.830  28.341  1.00  0.00     0.074 A 
ATOM     53  C   UNL A   1      46.441  25.511  27.922  1.00  0.00     0.031 C 
ATOM     54  C   UNL A   1      46.846  27.861  28.603  1.00  0.00     0.037 A 
BRANCH  41  55
ATOM     55  C   UNL A   1      44.030  33.095  30.321  1.00  0.00     0.058 A 
ATOM     56  C   UNL A   1      44.161  33.466  31.668  1.00  0.00     0.135 A 
ATOM     57  C   UNL A   1      44.038  34.116  29.357  1.00  0.00     0.135 A 
ATOM     58  F   UNL A   1      44.139  32.530  32.630  1.00  0.00    -0.206 F 
ATOM     59  C   UNL A   1      44.274  34.800  32.047  1.00  0.00     0.059 A 
ATOM     60  C   UNL A   1      44.170  35.456  29.711  1.00  0.00     0.059 A 
ATOM     61  F   UNL A   1      43.912  33.817  28.054  1.00  0.00    -0.206 F 
ATOM     62  C   UNL A   1      44.272  35.788  31.060  1.00  0.00     0.060 A 
BRANCH  62  63
ATOM     63  S   UNL A   1      44.417  37.518  31.562  1.00  0.00     0.124 S 
ATOM     64  O   UNL A   1      43.720  38.195  30.471  1.00  0.00    -0.237 OA
ATOM     65  O   UNL A   1      43.734  37.532  32.852  1.00  0.00    -0.237 OA
ATOM     66  O   UNL A   1      45.858  37.736  31.617  1.00  0.00    -0.744 OA
ENDBRANCH  62  63
ENDBRANCH  41  55
BRANCH  42  67
ATOM     67  C   UNL A   1      42.701  23.593  27.449  1.00  0.00     0.058 A 
ATOM     68  C   UNL A   1      42.741  23.297  26.079  1.00  0.00     0.135 A 
ATOM     69  C   UNL A   1      42.519  22.527  28.346  1.00  0.00     0.135 A 
ATOM     70  F   UNL A   1      42.905  24.285  25.186  1.00  0.00    -0.206 F 
ATOM     71  C   UNL A   1      42.610  21.993  25.613  1.00  0.00     0.059 A 
ATOM     72  C   UNL A   1      42.407  21.212  27.905  1.00  0.00     0.059 A 
ATOM     73  F   UNL A   1      42.487  22.758  29.668  1.00  0.00    -0.206 F 
ATOM     74  C   UNL A   1      42.450  20.957  26.534  1.00  0.00     0.060 A 
BRANCH  74  75
ATOM     75  S   UNL A   1      42.368  19.256  25.929  1.00  0.00     0.124 S 
ATOM     76  O   UNL A   1      40.937  19.096  25.699  1.00  0.00    -0.237 OA
ATOM     77  O   UNL A   1      43.204  19.311  24.732  1.00  0.00    -0.237 OA
ATOM     78  O   UNL A   1      42.923  18.482  27.035  1.00  0.00    -0.744 OA
ENDBRANCH  74  75
ENDBRANCH  42  67
BRANCH  54  79
ATOM     79  C   UNL A   1      48.316  27.592  28.476  1.00  0.00     0.058 A 
ATOM     80  C   UNL A   1      49.073  27.130  29.563  1.00  0.00     0.135 A 
ATOM     81  C   UNL A   1      48.962  27.758  27.243  1.00  0.00     0.135 A 
ATOM     82  F   UNL A   1      48.498  26.963  30.765  1.00  0.00    -0.206 F 
ATOM     83  C   UNL A   1      50.430  26.856  29.434  1.00  0.00     0.059 A 
ATOM     84  C   UNL A   1      50.315  27.474  27.086  1.00  0.00     0.059 A 
ATOM     85  F   UNL A   1      48.276  28.191  26.173  1.00  0.00    -0.206 F 
ATOM     86  C   UNL A   1      51.043  27.033  28.192  1.00  0.00     0.060 A 
BRANCH  86  87
ATOM     87  S   UNL A   1      52.798  26.647  28.023  1.00  0.00     0.124 S 
ATOM     88  O   UNL A   1      52.759  25.494  27.131  1.00  0.00    -0.237 OA
ATOM     89  O   UNL A   1      53.339  27.874  27.449  1.00  0.00    -0.237 OA
ATOM     90  O   UNL A   1      53.215  26.369  29.395  1.00  0.00    -0.744 OA
ENDBRANCH  86  87
ENDBRANCH  54  79
ENDBRANCH  28  29
ENDBRANCH  21  23
ENDBRANCH  20  21
ENDBRANCH   1  20
TORSDOF 15
ENDMDL
MODEL 3
REMARK VINA RESULT:     -11.6      1.377      2.660
REMARK SMILES C[C@@H]1CCC[C@@]1(C(=O)OCCOC(=O)c1ccc(-c2c3nc(c(-c4c(F)cc(S(=O)(=O)[O-])cc4F)c4ccc([nH]4)c(-c4c(F)cc(S(=O)(=O)[O-])cc4F)c4nc(c(-c5c(F)cc(S(=O)(=O)[O-])cc5F)c5ccc2[nH]5)C=C4)C=C3)cc1)c1ccc(Cl)cc1Cl
REMARK SMILES IDX 11 1 10 2 9 3 7 4 8 5 6 6 1 7 2 8 3 9 4 10 5 11 81 12 82 13
REMARK SMILES IDX 87 14 83 15 86 16 88 17 84 18 85 19 12 20 13 21 14 22 15 23
REMARK SMILES IDX 16 24 80 25 17 26 79 27 18 28 19 29 20 30 73 31 21 32 78 33
REMARK SMILES IDX 72 34 74 35 22 36 77 37 71 38 70 39 23 41 57 42 36 43 56 44
REMARK SMILES IDX 37 45 40 46 55 47 75 48 38 49 39 50 54 52 76 53 41 54 24 55
REMARK SMILES IDX 25 56 34 57 26 58 27 59 33 60 35 61 28 62 29 63 30 64 31 65
REMARK SMILES IDX 32 66 58 67 59 68 68 69 60 70 61 71 67 72 69 73 62 74 63 75
REMARK SMILES IDX 64 76 65 77 66 78 42 79 43 80 52 81 44 82 45 83 51 84 53 85
REMARK SMILES IDX 46 86 47 87 48 88 49 89 50 90
REMARK H PARENT 74 40 40 51
REMARK Flexibility Score: inf
ROOT
ATOM      1  C   UNL A   1      32.769  30.372  27.258  1.00  0.00     0.275 C 
ENDROOT
BRANCH   1   2
ATOM      2  C   UNL A   1      32.128  28.993  27.207  1.00  0.00     0.274 C 
BRANCH   2   3
ATOM      3  O   UNL A   1      32.728  28.175  26.181  1.00  0.00    -0.461 OA
BRANCH   3   4
ATOM      4  C   UNL A   1      31.969  27.908  25.083  1.00  0.00     0.317 C 
ATOM      5  O   UNL A   1      30.934  28.506  24.805  1.00  0.00    -0.251 OA
BRANCH   4   6
ATOM      6  C   UNL A   1      32.484  26.696  24.272  1.00  0.00     0.097 C 
ATOM      7  C   UNL A   1      33.667  28.428  22.636  1.00  0.00     0.009 C 
ATOM      8  C   UNL A   1      33.638  27.013  23.244  1.00  0.00     0.008 C 
ATOM      9  C   UNL A   1      33.406  26.045  22.066  1.00  0.00     0.005 C 
ATOM     10  C   UNL A   1      31.899  25.865  21.966  1.00  0.00     0.002 C 
ATOM     11  C   UNL A   1      31.311  26.353  23.290  1.00  0.00     0.024 C 
BRANCH   6  12
ATOM     12  C   UNL A   1      32.804  25.465  25.205  1.00  0.00    -0.012 A 
ATOM     13  C   UNL A   1      34.142  25.000  25.288  1.00  0.00     0.008 A 
ATOM     14  C   UNL A   1      31.869  24.720  25.971  1.00  0.00     0.046 A 
ATOM     15  C   UNL A   1      34.530  23.897  26.058  1.00  0.00     0.021 A 
ATOM     16  C   UNL A   1      32.255  23.585  26.711  1.00  0.00     0.041 A 
ATOM     17  Cl  UNL A   1      30.189  25.075  26.160  1.00  0.00    -0.084 Cl
ATOM     18  C   UNL A   1      33.579  23.183  26.758  1.00  0.00     0.042 A 
ATOM     19  Cl  UNL A   1      34.035  21.813  27.689  1.00  0.00    -0.084 Cl
ENDBRANCH   6  12
ENDBRANCH   4   6
ENDBRANCH   3   4
ENDBRANCH   2   3
ENDBRANCH   1   2
BRANCH   1  20
ATOM     20  O   UNL A   1      34.197  30.234  27.296  1.00  0.00    -0.458 OA
BRANCH  20  21
ATOM     21  C   UNL A   1      34.809  30.769  28.372  1.00  0.00     0.338 C 
ATOM     22  O   UNL A   1      34.380  31.648  29.108  1.00  0.00    -0.246 OA
BRANCH  21  23
ATOM     23  C   UNL A   1      36.141  30.172  28.536  1.00  0.00     0.060 A 
ATOM     24  C   UNL A   1      36.580  29.723  29.784  1.00  0.00     0.016 A 
ATOM     25  C   UNL A   1      36.998  30.157  27.438  1.00  0.00     0.016 A 
ATOM     26  C   UNL A   1      37.908  29.337  29.956  1.00  0.00     0.010 A 
ATOM     27  C   UNL A   1      38.304  29.697  27.595  1.00  0.00     0.010 A 
ATOM     28  C   UNL A   1      38.781  29.318  28.861  1.00  0.00    -0.014 A 
BRANCH  28  29
ATOM     29  C   UNL A   1      40.207  28.937  29.005  1.00  0.00     0.031 A 
ATOM     30  C   UNL A   1      41.217  29.990  29.370  1.00  0.00     0.074 A 
ATOM     31  C   UNL A   1      40.602  27.677  28.745  1.00  0.00     0.049 A 
ATOM     32  N   UNL A   1      42.518  29.960  29.265  1.00  0.00    -0.248 NA
ATOM     33  C   UNL A   1      40.682  31.253  29.904  1.00  0.00     0.031 C 
ATOM     34  C   UNL A   1      39.714  26.556  28.429  1.00  0.00     0.029 A 
ATOM     35  N   UNL A   1      41.860  27.135  28.674  1.00  0.00    -0.354 N 
ATOM     36  C   UNL A   1      42.958  31.217  29.667  1.00  0.00     0.074 A 
ATOM     37  C   UNL A   1      41.783  31.982  30.027  1.00  0.00     0.031 C 
ATOM     38  C   UNL A   1      40.455  25.464  28.187  1.00  0.00     0.029 A 
ATOM     39  C   UNL A   1      41.867  25.825  28.257  1.00  0.00     0.049 A 
ATOM     40  H   UNL A   1      42.679  27.635  28.898  1.00  0.00     0.167 HD
ATOM     41  C   UNL A   1      44.228  31.687  29.716  1.00  0.00     0.037 A 
ATOM     42  C   UNL A   1      42.892  25.022  27.913  1.00  0.00     0.037 A 
ATOM     43  C   UNL A   1      45.386  30.898  29.385  1.00  0.00     0.049 A 
ATOM     44  C   UNL A   1      44.291  25.567  27.958  1.00  0.00     0.074 A 
ATOM     45  C   UNL A   1      46.718  31.272  29.398  1.00  0.00     0.029 A 
ATOM     46  N   UNL A   1      45.347  29.567  28.993  1.00  0.00    -0.354 N 
ATOM     47  N   UNL A   1      44.693  26.774  28.277  1.00  0.00    -0.248 NA
ATOM     48  C   UNL A   1      45.373  24.648  27.581  1.00  0.00     0.031 C 
ATOM     49  C   UNL A   1      47.484  30.170  28.995  1.00  0.00     0.029 A 
ATOM     50  C   UNL A   1      46.630  29.104  28.762  1.00  0.00     0.049 A 
ATOM     51  H   UNL A   1      44.527  29.031  28.895  1.00  0.00     0.167 HD
ATOM     52  C   UNL A   1      46.076  26.759  28.152  1.00  0.00     0.074 A 
ATOM     53  C   UNL A   1      46.442  25.417  27.737  1.00  0.00     0.031 C 
ATOM     54  C   UNL A   1      46.964  27.761  28.359  1.00  0.00     0.037 A 
BRANCH  41  55
ATOM     55  C   UNL A   1      44.424  33.124  30.107  1.00  0.00     0.058 A 
ATOM     56  C   UNL A   1      44.664  33.507  31.435  1.00  0.00     0.135 A 
ATOM     57  C   UNL A   1      44.391  34.133  29.130  1.00  0.00     0.135 A 
ATOM     58  F   UNL A   1      44.685  32.585  32.410  1.00  0.00    -0.206 F 
ATOM     59  C   UNL A   1      44.842  34.842  31.786  1.00  0.00     0.059 A 
ATOM     60  C   UNL A   1      44.587  35.472  29.455  1.00  0.00     0.059 A 
ATOM     61  F   UNL A   1      44.161  33.822  27.844  1.00  0.00    -0.206 F 
ATOM     62  C   UNL A   1      44.797  35.818  30.789  1.00  0.00     0.060 A 
BRANCH  62  63
ATOM     63  S   UNL A   1      45.028  37.549  31.253  1.00  0.00     0.124 S 
ATOM     64  O   UNL A   1      43.844  37.789  32.072  1.00  0.00    -0.237 OA
ATOM     65  O   UNL A   1      46.298  37.517  31.973  1.00  0.00    -0.237 OA
ATOM     66  O   UNL A   1      45.057  38.243  29.970  1.00  0.00    -0.744 OA
ENDBRANCH  62  63
ENDBRANCH  41  55
BRANCH  42  67
ATOM     67  C   UNL A   1      42.615  23.636  27.460  1.00  0.00     0.058 A 
ATOM     68  C   UNL A   1      42.535  23.328  26.094  1.00  0.00     0.135 A 
ATOM     69  C   UNL A   1      42.482  22.583  28.380  1.00  0.00     0.135 A 
ATOM     70  F   UNL A   1      42.648  24.303  25.180  1.00  0.00    -0.206 F 
ATOM     71  C   UNL A   1      42.334  22.023  25.654  1.00  0.00     0.059 A 
ATOM     72  C   UNL A   1      42.303  21.268  27.963  1.00  0.00     0.059 A 
ATOM     73  F   UNL A   1      42.566  22.826  29.697  1.00  0.00    -0.206 F 
ATOM     74  C   UNL A   1      42.227  20.999  26.597  1.00  0.00     0.060 A 
BRANCH  74  75
ATOM     75  S   UNL A   1      42.053  19.296  26.018  1.00  0.00     0.124 S 
ATOM     76  O   UNL A   1      42.526  18.545  27.175  1.00  0.00    -0.237 OA
ATOM     77  O   UNL A   1      40.622  19.206  25.741  1.00  0.00    -0.237 OA
ATOM     78  O   UNL A   1      42.915  19.256  24.841  1.00  0.00    -0.744 OA
ENDBRANCH  74  75
ENDBRANCH  42  67
BRANCH  54  79
ATOM     79  C   UNL A   1      48.416  27.434  28.174  1.00  0.00     0.058 A 
ATOM     80  C   UNL A   1      49.189  26.910  29.221  1.00  0.00     0.135 A 
ATOM     81  C   UNL A   1      49.027  27.608  26.923  1.00  0.00     0.135 A 
ATOM     82  F   UNL A   1      48.648  26.734  30.437  1.00  0.00    -0.206 F 
ATOM     83  C   UNL A   1      50.528  26.582  29.037  1.00  0.00     0.059 A 
ATOM     84  C   UNL A   1      50.359  27.272  26.712  1.00  0.00     0.059 A 
ATOM     85  F   UNL A   1      48.324  28.100  25.890  1.00  0.00    -0.206 F 
ATOM     86  C   UNL A   1      51.105  26.770  27.779  1.00  0.00     0.060 A 
BRANCH  86  87
ATOM     87  S   UNL A   1      52.835  26.315  27.538  1.00  0.00     0.124 S 
ATOM     88  O   UNL A   1      53.335  27.456  26.781  1.00  0.00    -0.237 OA
ATOM     89  O   UNL A   1      53.326  26.198  28.907  1.00  0.00    -0.237 OA
ATOM     90  O   UNL A   1      52.753  25.057  26.800  1.00  0.00    -0.744 OA
ENDBRANCH  86  87
ENDBRANCH  54  79
ENDBRANCH  28  29
ENDBRANCH  21  23
ENDBRANCH  20  21
ENDBRANCH   1  20
TORSDOF 15
ENDMDL
