MODEL 1
REMARK VINA RESULT:      -9.8      0.000      0.000
REMARK SMILES C#CCNC(=O)C[N@@H+](CC(=O)OCCOC(=O)c1ccc(-c2c3nc(c(-c4c(F)cc(S(=O)(=O)[O-])cc4F)c4ccc([nH]4)c(-c4c(F)cc(S(=O)(=O)[O-])cc4F)c4nc(c(-c5c(F)cc(S(=O)(=O)[O-])cc5F)c5ccc2[nH]5)C=C4)C=C3)cc1)C(C)(C)C
REMARK SMILES IDX 13 1 12 2 10 3 11 4 9 5 8 6 7 8 5 9 4 10 6 12 3 13 2 14 1 15
REMARK SMILES IDX 84 16 85 17 86 18 87 19 14 20 15 21 16 22 17 23 18 24 19 25
REMARK SMILES IDX 83 26 20 27 82 28 21 29 22 30 23 31 76 32 24 33 81 34 75 35
REMARK SMILES IDX 77 36 25 37 80 38 74 39 73 40 26 42 60 43 39 44 59 45 40 46
REMARK SMILES IDX 43 47 58 48 78 49 41 50 42 51 57 53 79 54 44 55 27 56 28 57
REMARK SMILES IDX 37 58 29 59 30 60 36 61 38 62 31 63 32 64 33 65 34 66 35 67
REMARK SMILES IDX 61 68 62 69 71 70 63 71 64 72 70 73 72 74 65 75 66 76 67 77
REMARK SMILES IDX 68 78 69 79 45 80 46 81 55 82 47 83 48 84 54 85 56 86 49 87
REMARK SMILES IDX 50 88 51 89 52 90 53 91
REMARK H PARENT 8 7 4 11 77 41 43 52
REMARK Flexibility Score: inf
ROOT
ATOM      1  C   UNL A   1      32.391  30.056  27.140  1.00  0.00     0.274 C 
ENDROOT
BRANCH   1   2
ATOM      2  O   UNL A   1      32.252  29.020  26.142  1.00  0.00    -0.458 OA
BRANCH   2   3
ATOM      3  C   UNL A   1      31.602  27.906  26.547  1.00  0.00     0.361 C 
ATOM      4  O   UNL A   1      31.408  27.626  27.731  1.00  0.00    -0.245 OA
BRANCH   3   5
ATOM      5  C   UNL A   1      31.097  26.970  25.459  1.00  0.00     0.387 C 
BRANCH   5   6
ATOM      6  N   UNL A   1      31.856  26.744  24.209  1.00  0.00    -0.314 N 
ATOM      7  H   UNL A   1      32.671  27.338  24.354  1.00  0.00     0.349 HD
BRANCH   6   8
ATOM      8  C   UNL A   1      31.210  27.308  23.018  1.00  0.00     0.364 C 
BRANCH   8   9
ATOM      9  C   UNL A   1      31.594  28.771  22.756  1.00  0.00     0.275 C 
ATOM     10  N   UNL A   1      30.642  29.711  22.482  1.00  0.00    -0.340 N 
ATOM     11  H   UNL A   1      30.961  30.640  22.439  1.00  0.00     0.164 HD
ATOM     12  O   UNL A   1      32.778  29.121  22.734  1.00  0.00    -0.268 OA
BRANCH  10  13
ATOM     13  C   UNL A   1      29.234  29.525  22.248  1.00  0.00     0.206 C 
BRANCH  13  14
ATOM     14  C   UNL A   1      28.392  30.603  22.911  1.00  0.00    -0.085 C 
ATOM     15  C   UNL A   1      27.670  31.528  23.479  1.00  0.00     0.006 C 
ENDBRANCH  13  14
ENDBRANCH  10  13
ENDBRANCH   8   9
ENDBRANCH   6   8
BRANCH   6  16
ATOM     16  C   UNL A   1      32.742  25.559  24.067  1.00  0.00     0.090 C 
ATOM     17  C   UNL A   1      33.776  25.438  25.203  1.00  0.00     0.078 C 
ATOM     18  C   UNL A   1      31.945  24.227  24.081  1.00  0.00     0.078 C 
ATOM     19  C   UNL A   1      33.455  25.552  22.692  1.00  0.00     0.078 C 
ENDBRANCH   6  16
ENDBRANCH   5   6
ENDBRANCH   3   5
ENDBRANCH   2   3
ENDBRANCH   1   2
BRANCH   1  20
ATOM     20  C   UNL A   1      33.837  30.537  27.256  1.00  0.00     0.275 C 
BRANCH  20  21
ATOM     21  O   UNL A   1      34.616  29.653  28.087  1.00  0.00    -0.458 OA
BRANCH  21  22
ATOM     22  C   UNL A   1      35.549  30.293  28.820  1.00  0.00     0.338 C 
ATOM     23  O   UNL A   1      35.392  31.315  29.473  1.00  0.00    -0.246 OA
BRANCH  22  24
ATOM     24  C   UNL A   1      36.870  29.674  28.746  1.00  0.00     0.060 A 
ATOM     25  C   UNL A   1      37.526  29.269  29.909  1.00  0.00     0.016 A 
ATOM     26  C   UNL A   1      37.554  29.784  27.532  1.00  0.00     0.016 A 
ATOM     27  C   UNL A   1      38.899  29.027  29.865  1.00  0.00     0.010 A 
ATOM     28  C   UNL A   1      38.915  29.499  27.482  1.00  0.00     0.010 A 
ATOM     29  C   UNL A   1      39.602  29.145  28.652  1.00  0.00    -0.014 A 
BRANCH  29  30
ATOM     30  C   UNL A   1      41.040  28.805  28.579  1.00  0.00     0.031 A 
ATOM     31  C   UNL A   1      42.106  29.835  28.821  1.00  0.00     0.074 A 
ATOM     32  C   UNL A   1      41.367  27.543  28.249  1.00  0.00     0.049 A 
ATOM     33  N   UNL A   1      43.402  29.718  28.687  1.00  0.00    -0.248 NA
ATOM     34  C   UNL A   1      41.664  31.165  29.266  1.00  0.00     0.031 C 
ATOM     35  C   UNL A   1      40.406  26.469  27.996  1.00  0.00     0.029 A 
ATOM     36  N   UNL A   1      42.588  26.953  28.066  1.00  0.00    -0.354 N 
ATOM     37  C   UNL A   1      43.933  30.961  29.009  1.00  0.00     0.074 A 
ATOM     38  C   UNL A   1      42.817  31.819  29.351  1.00  0.00     0.031 C 
ATOM     39  C   UNL A   1      41.074  25.344  27.704  1.00  0.00     0.029 A 
ATOM     40  C   UNL A   1      42.504  25.633  27.701  1.00  0.00     0.049 A 
ATOM     41  H   UNL A   1      43.442  27.429  28.182  1.00  0.00     0.167 HD
ATOM     42  C   UNL A   1      45.234  31.345  29.011  1.00  0.00     0.037 A 
ATOM     43  C   UNL A   1      43.469  24.756  27.374  1.00  0.00     0.037 A 
ATOM     44  C   UNL A   1      46.336  30.478  28.675  1.00  0.00     0.049 A 
ATOM     45  C   UNL A   1      44.896  25.205  27.382  1.00  0.00     0.074 A 
ATOM     46  C   UNL A   1      47.689  30.772  28.646  1.00  0.00     0.029 A 
ATOM     47  N   UNL A   1      46.211  29.145  28.310  1.00  0.00    -0.354 N 
ATOM     48  N   UNL A   1      45.380  26.390  27.666  1.00  0.00    -0.248 NA
ATOM     49  C   UNL A   1      45.906  24.207  27.014  1.00  0.00     0.031 C 
ATOM     50  C   UNL A   1      48.380  29.621  28.245  1.00  0.00     0.029 A 
ATOM     51  C   UNL A   1      47.460  28.604  28.046  1.00  0.00     0.049 A 
ATOM     52  H   UNL A   1      45.361  28.654  28.248  1.00  0.00     0.167 HD
ATOM     53  C   UNL A   1      46.753  26.285  27.500  1.00  0.00     0.074 A 
ATOM     54  C   UNL A   1      47.024  24.914  27.115  1.00  0.00     0.031 C 
ATOM     55  C   UNL A   1      47.703  27.242  27.645  1.00  0.00     0.037 A 
BRANCH  42  56
ATOM     56  C   UNL A   1      45.540  32.772  29.363  1.00  0.00     0.058 A 
ATOM     57  C   UNL A   1      45.599  33.776  28.386  1.00  0.00     0.135 A 
ATOM     58  C   UNL A   1      45.728  33.149  30.703  1.00  0.00     0.135 A 
ATOM     59  F   UNL A   1      45.437  33.466  27.090  1.00  0.00    -0.206 F 
ATOM     60  C   UNL A   1      45.845  35.104  28.722  1.00  0.00     0.059 A 
ATOM     61  C   UNL A   1      45.964  34.473  31.064  1.00  0.00     0.059 A 
ATOM     62  F   UNL A   1      45.682  32.226  31.677  1.00  0.00    -0.206 F 
ATOM     63  C   UNL A   1      46.032  35.443  30.064  1.00  0.00     0.060 A 
BRANCH  63  64
ATOM     64  S   UNL A   1      46.344  37.169  30.497  1.00  0.00     0.124 S 
ATOM     65  O   UNL A   1      46.494  37.775  29.178  1.00  0.00    -0.237 OA
ATOM     66  O   UNL A   1      45.136  37.537  31.228  1.00  0.00    -0.237 OA
ATOM     67  O   UNL A   1      47.560  37.100  31.300  1.00  0.00    -0.744 OA
ENDBRANCH  63  64
ENDBRANCH  42  56
BRANCH  43  68
ATOM     68  C   UNL A   1      43.082  23.376  26.999  1.00  0.00     0.058 A 
ATOM     69  C   UNL A   1      43.159  22.947  25.668  1.00  0.00     0.135 A 
ATOM     70  C   UNL A   1      42.736  22.435  27.980  1.00  0.00     0.135 A 
ATOM     71  F   UNL A   1      43.488  23.817  24.701  1.00  0.00    -0.206 F 
ATOM     72  C   UNL A   1      42.919  21.623  25.320  1.00  0.00     0.059 A 
ATOM     73  C   UNL A   1      42.509  21.102  27.658  1.00  0.00     0.059 A 
ATOM     74  F   UNL A   1      42.674  22.799  29.270  1.00  0.00    -0.206 F 
ATOM     75  C   UNL A   1      42.604  20.705  26.325  1.00  0.00     0.060 A 
BRANCH  75  76
ATOM     76  S   UNL A   1      42.413  18.961  25.896  1.00  0.00     0.124 S 
ATOM     77  O   UNL A   1      43.182  18.879  24.660  1.00  0.00    -0.237 OA
ATOM     78  O   UNL A   1      42.990  18.284  27.053  1.00  0.00    -0.237 OA
ATOM     79  O   UNL A   1      40.967  18.815  25.756  1.00  0.00    -0.744 OA
ENDBRANCH  75  76
ENDBRANCH  43  68
BRANCH  55  80
ATOM     80  C   UNL A   1      49.115  26.827  27.368  1.00  0.00     0.058 A 
ATOM     81  C   UNL A   1      49.946  26.360  28.397  1.00  0.00     0.135 A 
ATOM     82  C   UNL A   1      49.642  26.896  26.070  1.00  0.00     0.135 A 
ATOM     83  F   UNL A   1      49.485  26.286  29.657  1.00  0.00    -0.206 F 
ATOM     84  C   UNL A   1      51.265  25.996  28.154  1.00  0.00     0.059 A 
ATOM     85  C   UNL A   1      50.956  26.525  25.801  1.00  0.00     0.059 A 
ATOM     86  F   UNL A   1      48.884  27.336  25.054  1.00  0.00    -0.206 F 
ATOM     87  C   UNL A   1      51.763  26.091  26.853  1.00  0.00     0.060 A 
BRANCH  87  88
ATOM     88  S   UNL A   1      53.477  25.617  26.537  1.00  0.00     0.124 S 
ATOM     89  O   UNL A   1      53.309  24.286  25.961  1.00  0.00    -0.237 OA
ATOM     90  O   UNL A   1      53.931  26.653  25.615  1.00  0.00    -0.237 OA
ATOM     91  O   UNL A   1      54.085  25.658  27.863  1.00  0.00    -0.744 OA
ENDBRANCH  87  88
ENDBRANCH  55  80
ENDBRANCH  29  30
ENDBRANCH  22  24
ENDBRANCH  21  22
ENDBRANCH  20  21
ENDBRANCH   1  20
TORSDOF 20
ENDMDL
MODEL 2
REMARK VINA RESULT:      -9.8      6.723     11.922
REMARK SMILES C#CCNC(=O)C[N@@H+](CC(=O)OCCOC(=O)c1ccc(-c2c3nc(c(-c4c(F)cc(S(=O)(=O)[O-])cc4F)c4ccc([nH]4)c(-c4c(F)cc(S(=O)(=O)[O-])cc4F)c4nc(c(-c5c(F)cc(S(=O)(=O)[O-])cc5F)c5ccc2[nH]5)C=C4)C=C3)cc1)C(C)(C)C
REMARK SMILES IDX 13 1 12 2 10 3 11 4 9 5 8 6 7 8 5 9 4 10 6 12 3 13 2 14 1 15
REMARK SMILES IDX 84 16 85 17 86 18 87 19 14 20 15 21 16 22 17 23 18 24 19 25
REMARK SMILES IDX 83 26 20 27 82 28 21 29 22 30 23 31 76 32 24 33 81 34 75 35
REMARK SMILES IDX 77 36 25 37 80 38 74 39 73 40 26 42 60 43 39 44 59 45 40 46
REMARK SMILES IDX 43 47 58 48 78 49 41 50 42 51 57 53 79 54 44 55 27 56 28 57
REMARK SMILES IDX 37 58 29 59 30 60 36 61 38 62 31 63 32 64 33 65 34 66 35 67
REMARK SMILES IDX 61 68 62 69 71 70 63 71 64 72 70 73 72 74 65 75 66 76 67 77
REMARK SMILES IDX 68 78 69 79 45 80 46 81 55 82 47 83 48 84 54 85 56 86 49 87
REMARK SMILES IDX 50 88 51 89 52 90 53 91
REMARK H PARENT 8 7 4 11 77 41 43 52
REMARK Flexibility Score: inf
ROOT
ATOM      1  C   UNL A   1      37.646  22.430  25.209  1.00  0.00     0.274 C 
ENDROOT
BRANCH   1   2
ATOM      2  O   UNL A   1      36.530  21.904  25.962  1.00  0.00    -0.458 OA
BRANCH   2   3
ATOM      3  C   UNL A   1      35.859  20.887  25.374  1.00  0.00     0.361 C 
ATOM      4  O   UNL A   1      36.398  20.045  24.655  1.00  0.00    -0.245 OA
BRANCH   3   5
ATOM      5  C   UNL A   1      34.362  20.810  25.633  1.00  0.00     0.387 C 
BRANCH   5   6
ATOM      6  N   UNL A   1      33.461  21.949  25.353  1.00  0.00    -0.314 N 
ATOM      7  H   UNL A   1      32.545  21.505  25.404  1.00  0.00     0.349 HD
BRANCH   6   8
ATOM      8  C   UNL A   1      33.543  22.439  23.971  1.00  0.00     0.364 C 
BRANCH   8   9
ATOM      9  C   UNL A   1      32.332  22.042  23.115  1.00  0.00     0.275 C 
ATOM     10  N   UNL A   1      31.396  22.966  22.747  1.00  0.00    -0.340 N 
ATOM     11  H   UNL A   1      30.718  22.653  22.107  1.00  0.00     0.164 HD
ATOM     12  O   UNL A   1      32.150  20.867  22.782  1.00  0.00    -0.268 OA
BRANCH  10  13
ATOM     13  C   UNL A   1      31.268  24.336  23.170  1.00  0.00     0.206 C 
BRANCH  13  14
ATOM     14  C   UNL A   1      32.116  25.279  22.333  1.00  0.00    -0.085 C 
ATOM     15  C   UNL A   1      32.843  26.089  21.614  1.00  0.00     0.006 C 
ENDBRANCH  13  14
ENDBRANCH  10  13
ENDBRANCH   8   9
ENDBRANCH   6   8
BRANCH   6  16
ATOM     16  C   UNL A   1      33.067  22.887  26.437  1.00  0.00     0.090 C 
ATOM     17  C   UNL A   1      33.697  22.535  27.798  1.00  0.00     0.078 C 
ATOM     18  C   UNL A   1      33.506  24.345  26.136  1.00  0.00     0.078 C 
ATOM     19  C   UNL A   1      31.527  22.981  26.568  1.00  0.00     0.078 C 
ENDBRANCH   6  16
ENDBRANCH   5   6
ENDBRANCH   3   5
ENDBRANCH   2   3
ENDBRANCH   1   2
BRANCH   1  20
ATOM     20  C   UNL A   1      38.808  22.820  26.123  1.00  0.00     0.275 C 
BRANCH  20  21
ATOM     21  O   UNL A   1      38.848  24.245  26.336  1.00  0.00    -0.458 OA
BRANCH  21  22
ATOM     22  C   UNL A   1      40.098  24.726  26.495  1.00  0.00     0.338 C 
ATOM     23  O   UNL A   1      41.062  24.509  25.776  1.00  0.00    -0.246 OA
BRANCH  22  24
ATOM     24  C   UNL A   1      40.256  25.544  27.694  1.00  0.00     0.060 A 
ATOM     25  C   UNL A   1      39.299  25.498  28.710  1.00  0.00     0.016 A 
ATOM     26  C   UNL A   1      41.208  26.565  27.645  1.00  0.00     0.016 A 
ATOM     27  C   UNL A   1      39.262  26.524  29.655  1.00  0.00     0.010 A 
ATOM     28  C   UNL A   1      41.197  27.563  28.615  1.00  0.00     0.010 A 
ATOM     29  C   UNL A   1      40.209  27.564  29.610  1.00  0.00    -0.014 A 
BRANCH  29  30
ATOM     30  C   UNL A   1      40.231  28.607  30.659  1.00  0.00     0.031 A 
ATOM     31  C   UNL A   1      41.179  28.537  31.821  1.00  0.00     0.074 A 
ATOM     32  C   UNL A   1      39.340  29.610  30.560  1.00  0.00     0.049 A 
ATOM     33  N   UNL A   1      41.244  29.313  32.872  1.00  0.00    -0.248 NA
ATOM     34  C   UNL A   1      42.180  27.460  31.804  1.00  0.00     0.031 C 
ATOM     35  C   UNL A   1      38.376  29.769  29.469  1.00  0.00     0.029 A 
ATOM     36  N   UNL A   1      39.096  30.676  31.383  1.00  0.00    -0.354 N 
ATOM     37  C   UNL A   1      42.277  28.810  33.655  1.00  0.00     0.074 A 
ATOM     38  C   UNL A   1      42.814  27.662  32.954  1.00  0.00     0.031 C 
ATOM     39  C   UNL A   1      37.654  30.878  29.682  1.00  0.00     0.029 A 
ATOM     40  C   UNL A   1      38.070  31.476  30.946  1.00  0.00     0.049 A 
ATOM     41  H   UNL A   1      39.605  30.851  32.207  1.00  0.00     0.167 HD
ATOM     42  C   UNL A   1      42.724  29.266  34.851  1.00  0.00     0.037 A 
ATOM     43  C   UNL A   1      37.506  32.557  31.512  1.00  0.00     0.037 A 
ATOM     44  C   UNL A   1      42.184  30.415  35.535  1.00  0.00     0.049 A 
ATOM     45  C   UNL A   1      38.017  33.040  32.832  1.00  0.00     0.074 A 
ATOM     46  C   UNL A   1      42.567  30.957  36.750  1.00  0.00     0.029 A 
ATOM     47  N   UNL A   1      41.143  31.201  35.060  1.00  0.00    -0.354 N 
ATOM     48  N   UNL A   1      38.978  32.539  33.571  1.00  0.00    -0.248 NA
ATOM     49  C   UNL A   1      37.363  34.222  33.403  1.00  0.00     0.031 C 
ATOM     50  C   UNL A   1      41.745  32.059  37.019  1.00  0.00     0.029 A 
ATOM     51  C   UNL A   1      40.864  32.218  35.960  1.00  0.00     0.049 A 
ATOM     52  H   UNL A   1      40.671  31.059  34.208  1.00  0.00     0.167 HD
ATOM     53  C   UNL A   1      39.038  33.338  34.703  1.00  0.00     0.074 A 
ATOM     54  C   UNL A   1      38.033  34.370  34.540  1.00  0.00     0.031 C 
ATOM     55  C   UNL A   1      39.846  33.221  35.785  1.00  0.00     0.037 A 
BRANCH  42  56
ATOM     56  C   UNL A   1      43.838  28.510  35.514  1.00  0.00     0.058 A 
ATOM     57  C   UNL A   1      45.185  28.820  35.274  1.00  0.00     0.135 A 
ATOM     58  C   UNL A   1      43.555  27.493  36.441  1.00  0.00     0.135 A 
ATOM     59  F   UNL A   1      45.509  29.776  34.389  1.00  0.00    -0.206 F 
ATOM     60  C   UNL A   1      46.214  28.142  35.921  1.00  0.00     0.059 A 
ATOM     61  C   UNL A   1      44.568  26.809  37.108  1.00  0.00     0.059 A 
ATOM     62  F   UNL A   1      42.283  27.156  36.706  1.00  0.00    -0.206 F 
ATOM     63  C   UNL A   1      45.896  27.133  36.833  1.00  0.00     0.060 A 
BRANCH  63  64
ATOM     64  S   UNL A   1      47.234  26.260  37.676  1.00  0.00     0.124 S 
ATOM     65  O   UNL A   1      47.832  27.335  38.461  1.00  0.00    -0.237 OA
ATOM     66  O   UNL A   1      46.519  25.242  38.440  1.00  0.00    -0.237 OA
ATOM     67  O   UNL A   1      48.050  25.755  36.577  1.00  0.00    -0.744 OA
ENDBRANCH  63  64
ENDBRANCH  42  56
BRANCH  43  68
ATOM     68  C   UNL A   1      36.384  33.226  30.812  1.00  0.00     0.058 A 
ATOM     69  C   UNL A   1      35.074  33.116  31.294  1.00  0.00     0.135 A 
ATOM     70  C   UNL A   1      36.620  34.071  29.718  1.00  0.00     0.135 A 
ATOM     71  F   UNL A   1      34.808  32.320  32.340  1.00  0.00    -0.206 F 
ATOM     72  C   UNL A   1      34.031  33.837  30.723  1.00  0.00     0.059 A 
ATOM     73  C   UNL A   1      35.597  34.814  29.141  1.00  0.00     0.059 A 
ATOM     74  F   UNL A   1      37.865  34.222  29.239  1.00  0.00    -0.206 F 
ATOM     75  C   UNL A   1      34.305  34.691  29.652  1.00  0.00     0.060 A 
BRANCH  75  76
ATOM     76  S   UNL A   1      32.980  35.722  28.987  1.00  0.00     0.124 S 
ATOM     77  O   UNL A   1      32.323  34.797  28.071  1.00  0.00    -0.237 OA
ATOM     78  O   UNL A   1      32.224  36.081  30.183  1.00  0.00    -0.237 OA
ATOM     79  O   UNL A   1      33.705  36.825  28.363  1.00  0.00    -0.744 OA
ENDBRANCH  75  76
ENDBRANCH  43  68
BRANCH  55  80
ATOM     80  C   UNL A   1      39.654  34.233  36.873  1.00  0.00     0.058 A 
ATOM     81  C   UNL A   1      40.205  35.519  36.767  1.00  0.00     0.135 A 
ATOM     82  C   UNL A   1      38.921  33.918  38.025  1.00  0.00     0.135 A 
ATOM     83  F   UNL A   1      40.923  35.861  35.686  1.00  0.00    -0.206 F 
ATOM     84  C   UNL A   1      40.053  36.456  37.783  1.00  0.00     0.059 A 
ATOM     85  C   UNL A   1      38.745  34.844  39.048  1.00  0.00     0.059 A 
ATOM     86  F   UNL A   1      38.375  32.700  38.168  1.00  0.00    -0.206 F 
ATOM     87  C   UNL A   1      39.329  36.106  38.923  1.00  0.00     0.060 A 
BRANCH  87  88
ATOM     88  S   UNL A   1      39.130  37.324  40.242  1.00  0.00     0.124 S 
ATOM     89  O   UNL A   1      38.531  36.515  41.298  1.00  0.00    -0.237 OA
ATOM     90  O   UNL A   1      40.501  37.763  40.481  1.00  0.00    -0.237 OA
ATOM     91  O   UNL A   1      38.255  38.325  39.642  1.00  0.00    -0.744 OA
ENDBRANCH  87  88
ENDBRANCH  55  80
ENDBRANCH  29  30
ENDBRANCH  22  24
ENDBRANCH  21  22
ENDBRANCH  20  21
ENDBRANCH   1  20
TORSDOF 20
ENDMDL
MODEL 3
REMARK VINA RESULT:      -9.7      6.703     12.119
REMARK SMILES C#CCNC(=O)C[N@@H+](CC(=O)OCCOC(=O)c1ccc(-c2c3nc(c(-c4c(F)cc(S(=O)(=O)[O-])cc4F)c4ccc([nH]4)c(-c4c(F)cc(S(=O)(=O)[O-])cc4F)c4nc(c(-c5c(F)cc(S(=O)(=O)[O-])cc5F)c5ccc2[nH]5)C=C4)C=C3)cc1)C(C)(C)C
REMARK SMILES IDX 13 1 12 2 10 3 11 4 9 5 8 6 7 8 5 9 4 10 6 12 3 13 2 14 1 15
REMARK SMILES IDX 84 16 85 17 86 18 87 19 14 20 15 21 16 22 17 23 18 24 19 25
REMARK SMILES IDX 83 26 20 27 82 28 21 29 22 30 23 31 76 32 24 33 81 34 75 35
REMARK SMILES IDX 77 36 25 37 80 38 74 39 73 40 26 42 60 43 39 44 59 45 40 46
REMARK SMILES IDX 43 47 58 48 78 49 41 50 42 51 57 53 79 54 44 55 27 56 28 57
REMARK SMILES IDX 37 58 29 59 30 60 36 61 38 62 31 63 32 64 33 65 34 66 35 67
REMARK SMILES IDX 61 68 62 69 71 70 63 71 64 72 70 73 72 74 65 75 66 76 67 77
REMARK SMILES IDX 68 78 69 79 45 80 46 81 55 82 47 83 48 84 54 85 56 86 49 87
REMARK SMILES IDX 50 88 51 89 52 90 53 91
REMARK H PARENT 8 7 4 11 77 41 43 52
REMARK Flexibility Score: inf
ROOT
ATOM      1  C   UNL A   1      37.873  22.490  25.175  1.00  0.00     0.274 C 
ENDROOT
BRANCH   1   2
ATOM      2  O   UNL A   1      36.452  22.752  25.162  1.00  0.00    -0.458 OA
BRANCH   2   3
ATOM      3  C   UNL A   1      35.878  22.790  23.938  1.00  0.00     0.361 C 
ATOM      4  O   UNL A   1      36.503  23.026  22.903  1.00  0.00    -0.245 OA
BRANCH   3   5
ATOM      5  C   UNL A   1      34.382  22.523  23.871  1.00  0.00     0.387 C 
BRANCH   5   6
ATOM      6  N   UNL A   1      33.438  23.115  24.844  1.00  0.00    -0.314 N 
ATOM      7  H   UNL A   1      34.076  23.511  25.534  1.00  0.00     0.349 HD
BRANCH   6   8
ATOM      8  C   UNL A   1      32.670  22.118  25.600  1.00  0.00     0.364 C 
BRANCH   8   9
ATOM      9  C   UNL A   1      33.554  21.119  26.359  1.00  0.00     0.275 C 
ATOM     10  N   UNL A   1      33.631  19.811  25.972  1.00  0.00    -0.340 N 
ATOM     11  H   UNL A   1      34.304  19.268  26.440  1.00  0.00     0.164 HD
ATOM     12  O   UNL A   1      34.176  21.462  27.368  1.00  0.00    -0.268 OA
BRANCH  10  13
ATOM     13  C   UNL A   1      32.859  19.121  24.972  1.00  0.00     0.206 C 
BRANCH  13  14
ATOM     14  C   UNL A   1      33.661  18.037  24.270  1.00  0.00    -0.085 C 
ATOM     15  C   UNL A   1      34.350  17.108  23.669  1.00  0.00     0.006 C 
ENDBRANCH  13  14
ENDBRANCH  10  13
ENDBRANCH   8   9
ENDBRANCH   6   8
BRANCH   6  16
ATOM     16  C   UNL A   1      32.854  24.461  24.608  1.00  0.00     0.090 C 
ATOM     17  C   UNL A   1      33.555  25.233  23.474  1.00  0.00     0.078 C 
ATOM     18  C   UNL A   1      31.358  24.387  24.204  1.00  0.00     0.078 C 
ATOM     19  C   UNL A   1      32.848  25.307  25.906  1.00  0.00     0.078 C 
ENDBRANCH   6  16
ENDBRANCH   5   6
ENDBRANCH   3   5
ENDBRANCH   2   3
ENDBRANCH   1   2
BRANCH   1  20
ATOM     20  C   UNL A   1      38.533  23.022  26.447  1.00  0.00     0.275 C 
BRANCH  20  21
ATOM     21  O   UNL A   1      38.937  24.398  26.289  1.00  0.00    -0.458 OA
BRANCH  21  22
ATOM     22  C   UNL A   1      40.214  24.625  26.657  1.00  0.00     0.338 C 
ATOM     23  O   UNL A   1      41.219  24.181  26.123  1.00  0.00    -0.246 OA
BRANCH  22  24
ATOM     24  C   UNL A   1      40.333  25.456  27.852  1.00  0.00     0.060 A 
ATOM     25  C   UNL A   1      39.276  25.540  28.760  1.00  0.00     0.016 A 
ATOM     26  C   UNL A   1      41.390  26.369  27.887  1.00  0.00     0.016 A 
ATOM     27  C   UNL A   1      39.252  26.590  29.678  1.00  0.00     0.010 A 
ATOM     28  C   UNL A   1      41.385  27.390  28.832  1.00  0.00     0.010 A 
ATOM     29  C   UNL A   1      40.304  27.523  29.717  1.00  0.00    -0.014 A 
BRANCH  29  30
ATOM     30  C   UNL A   1      40.329  28.588  30.743  1.00  0.00     0.031 A 
ATOM     31  C   UNL A   1      41.279  28.541  31.905  1.00  0.00     0.074 A 
ATOM     32  C   UNL A   1      39.440  29.591  30.624  1.00  0.00     0.049 A 
ATOM     33  N   UNL A   1      41.346  29.339  32.940  1.00  0.00    -0.248 NA
ATOM     34  C   UNL A   1      42.278  27.462  31.910  1.00  0.00     0.031 C 
ATOM     35  C   UNL A   1      38.476  29.728  29.531  1.00  0.00     0.029 A 
ATOM     36  N   UNL A   1      39.199  30.674  31.425  1.00  0.00    -0.354 N 
ATOM     37  C   UNL A   1      42.378  28.850  33.732  1.00  0.00     0.074 A 
ATOM     38  C   UNL A   1      42.913  27.686  33.055  1.00  0.00     0.031 C 
ATOM     39  C   UNL A   1      37.755  30.842  29.722  1.00  0.00     0.029 A 
ATOM     40  C   UNL A   1      38.174  31.466  30.972  1.00  0.00     0.049 A 
ATOM     41  H   UNL A   1      39.709  30.865  32.245  1.00  0.00     0.167 HD
ATOM     42  C   UNL A   1      42.827  29.330  34.918  1.00  0.00     0.037 A 
ATOM     43  C   UNL A   1      37.613  32.560  31.516  1.00  0.00     0.037 A 
ATOM     44  C   UNL A   1      42.290  30.494  35.579  1.00  0.00     0.049 A 
ATOM     45  C   UNL A   1      38.126  33.069  32.826  1.00  0.00     0.074 A 
ATOM     46  C   UNL A   1      42.675  31.060  36.782  1.00  0.00     0.029 A 
ATOM     47  N   UNL A   1      41.250  31.272  35.089  1.00  0.00    -0.354 N 
ATOM     48  N   UNL A   1      39.086  32.582  33.574  1.00  0.00    -0.248 NA
ATOM     49  C   UNL A   1      37.474  34.264  33.373  1.00  0.00     0.031 C 
ATOM     50  C   UNL A   1      41.855  32.169  37.028  1.00  0.00     0.029 A 
ATOM     51  C   UNL A   1      40.974  32.307  35.968  1.00  0.00     0.049 A 
ATOM     52  H   UNL A   1      40.778  31.112  34.240  1.00  0.00     0.167 HD
ATOM     53  C   UNL A   1      39.148  33.404  34.689  1.00  0.00     0.074 A 
ATOM     54  C   UNL A   1      38.145  34.435  34.505  1.00  0.00     0.031 C 
ATOM     55  C   UNL A   1      39.958  33.309  35.772  1.00  0.00     0.037 A 
BRANCH  42  56
ATOM     56  C   UNL A   1      43.941  28.585  35.596  1.00  0.00     0.058 A 
ATOM     57  C   UNL A   1      43.688  27.542  36.499  1.00  0.00     0.135 A 
ATOM     58  C   UNL A   1      45.281  28.886  35.301  1.00  0.00     0.135 A 
ATOM     59  F   UNL A   1      42.425  27.223  36.822  1.00  0.00    -0.206 F 
ATOM     60  C   UNL A   1      44.723  26.829  37.095  1.00  0.00     0.059 A 
ATOM     61  C   UNL A   1      46.333  28.179  35.877  1.00  0.00     0.059 A 
ATOM     62  F   UNL A   1      45.578  29.877  34.445  1.00  0.00    -0.206 F 
ATOM     63  C   UNL A   1      46.045  27.158  36.783  1.00  0.00     0.060 A 
BRANCH  63  64
ATOM     64  S   UNL A   1      47.386  26.226  37.553  1.00  0.00     0.124 S 
ATOM     65  O   UNL A   1      48.501  26.532  36.662  1.00  0.00    -0.237 OA
ATOM     66  O   UNL A   1      47.461  26.818  38.886  1.00  0.00    -0.237 OA
ATOM     67  O   UNL A   1      46.906  24.849  37.511  1.00  0.00    -0.744 OA
ENDBRANCH  63  64
ENDBRANCH  42  56
BRANCH  43  68
ATOM     68  C   UNL A   1      36.491  33.216  30.804  1.00  0.00     0.058 A 
ATOM     69  C   UNL A   1      35.179  33.105  31.280  1.00  0.00     0.135 A 
ATOM     70  C   UNL A   1      36.728  34.050  29.702  1.00  0.00     0.135 A 
ATOM     71  F   UNL A   1      34.911  32.319  32.333  1.00  0.00    -0.206 F 
ATOM     72  C   UNL A   1      34.135  33.815  30.696  1.00  0.00     0.059 A 
ATOM     73  C   UNL A   1      35.705  34.782  29.112  1.00  0.00     0.059 A 
ATOM     74  F   UNL A   1      37.975  34.201  29.228  1.00  0.00    -0.206 F 
ATOM     75  C   UNL A   1      34.411  34.659  29.618  1.00  0.00     0.060 A 
BRANCH  75  76
ATOM     76  S   UNL A   1      33.084  35.676  28.934  1.00  0.00     0.124 S 
ATOM     77  O   UNL A   1      32.336  36.025  30.136  1.00  0.00    -0.237 OA
ATOM     78  O   UNL A   1      33.815  36.768  28.299  1.00  0.00    -0.237 OA
ATOM     79  O   UNL A   1      32.415  34.764  28.011  1.00  0.00    -0.744 OA
ENDBRANCH  75  76
ENDBRANCH  43  68
BRANCH  55  80
ATOM     80  C   UNL A   1      39.769  34.343  36.839  1.00  0.00     0.058 A 
ATOM     81  C   UNL A   1      40.404  35.591  36.755  1.00  0.00     0.135 A 
ATOM     82  C   UNL A   1      38.952  34.089  37.950  1.00  0.00     0.135 A 
ATOM     83  F   UNL A   1      41.204  35.875  35.714  1.00  0.00    -0.206 F 
ATOM     84  C   UNL A   1      40.255  36.548  37.752  1.00  0.00     0.059 A 
ATOM     85  C   UNL A   1      38.778  35.036  38.953  1.00  0.00     0.059 A 
ATOM     86  F   UNL A   1      38.324  32.909  38.071  1.00  0.00    -0.206 F 
ATOM     87  C   UNL A   1      39.446  36.257  38.852  1.00  0.00     0.060 A 
BRANCH  87  88
ATOM     88  S   UNL A   1      39.250  37.500  40.147  1.00  0.00     0.124 S 
ATOM     89  O   UNL A   1      40.570  38.123  40.155  1.00  0.00    -0.237 OA
ATOM     90  O   UNL A   1      38.163  38.328  39.635  1.00  0.00    -0.237 OA
ATOM     91  O   UNL A   1      38.921  36.705  41.326  1.00  0.00    -0.744 OA
ENDBRANCH  87  88
ENDBRANCH  55  80
ENDBRANCH  29  30
ENDBRANCH  22  24
ENDBRANCH  21  22
ENDBRANCH  20  21
ENDBRANCH   1  20
TORSDOF 20
ENDMDL
