MODEL 1
REMARK VINA RESULT:     -10.9      0.000      0.000
REMARK SMILES Cc1nc(-c2ccc3c(c2)CCN3S(=O)(=O)c2ccc(F)c(C(=O)OCCOC(=O)c3ccc(-c4c5nc(c(-c6c(F)cc(S(=O)(=O)[O-])cc6F)c6ccc([nH]6)c(-c6c(F)cc(S(=O)(=O)[O-])cc6F)c6nc(c(-c7c(F)cc(S(=O)(=O)[O-])cc7F)c7ccc4[nH]7)C=C6)C=C5)cc3)c2)cs1
REMARK SMILES IDX 26 1 25 2 23 3 24 4 22 5 17 6 18 7 97 8 19 9 20 10 21 11
REMARK SMILES IDX 14 12 15 13 16 14 13 15 5 16 6 17 10 18 7 19 9 20 8 21 11 22
REMARK SMILES IDX 12 23 4 24 1 25 2 26 3 27 99 28 98 29 27 30 28 31 29 32
REMARK SMILES IDX 30 33 31 34 32 35 96 36 33 37 95 38 34 39 35 40 36 41 89 42
REMARK SMILES IDX 37 43 94 44 88 45 90 46 38 47 93 48 87 49 86 50 39 52 73 53
REMARK SMILES IDX 52 54 72 55 53 56 56 57 71 58 91 59 54 60 55 61 70 63 92 64
REMARK SMILES IDX 57 65 40 66 41 67 50 68 42 69 43 70 49 71 51 72 44 73 45 74
REMARK SMILES IDX 46 75 47 76 48 77 74 78 75 79 84 80 76 81 77 82 83 83 85 84
REMARK SMILES IDX 78 85 79 86 80 87 81 88 82 89 58 90 59 91 68 92 60 93 61 94
REMARK SMILES IDX 67 95 69 96 62 97 63 98 64 99 65 100 66 101
REMARK H PARENT 90 51 56 62
REMARK Flexibility Score: inf
ROOT
ATOM      1  C   UNL A   1      32.429  32.936  27.576  1.00  0.00     0.275 C 
ENDROOT
BRANCH   1   2
ATOM      2  O   UNL A   1      33.486  33.906  27.711  1.00  0.00    -0.458 OA
BRANCH   2   3
ATOM      3  C   UNL A   1      33.623  34.467  28.934  1.00  0.00     0.341 C 
ATOM      4  O   UNL A   1      32.796  35.145  29.523  1.00  0.00    -0.246 OA
BRANCH   3   5
ATOM      5  C   UNL A   1      34.873  34.025  29.579  1.00  0.00     0.097 A 
ATOM      6  C   UNL A   1      36.107  33.701  31.644  1.00  0.00     0.089 A 
ATOM      7  C   UNL A   1      37.197  33.193  30.932  1.00  0.00     0.025 A 
ATOM      8  C   UNL A   1      34.958  34.124  30.970  1.00  0.00     0.041 A 
ATOM      9  C   UNL A   1      37.133  33.155  29.532  1.00  0.00     0.041 A 
ATOM     10  C   UNL A   1      35.973  33.564  28.863  1.00  0.00     0.137 A 
ATOM     11  F   UNL A   1      35.971  33.558  27.523  1.00  0.00    -0.206 F 
BRANCH   6  12
ATOM     12  S   UNL A   1      36.149  33.862  33.412  1.00  0.00     0.264 S 
ATOM     13  O   UNL A   1      35.222  32.875  33.930  1.00  0.00    -0.201 OA
ATOM     14  O   UNL A   1      35.972  35.265  33.714  1.00  0.00    -0.201 OA
BRANCH  12  15
ATOM     15  N   UNL A   1      37.696  33.416  33.917  1.00  0.00    -0.266 N 
ATOM     16  C   UNL A   1      40.206  30.119  33.423  1.00  0.00     0.001 A 
ATOM     17  C   UNL A   1      38.830  29.896  33.289  1.00  0.00     0.012 A 
ATOM     18  C   UNL A   1      40.690  31.428  33.507  1.00  0.00     0.016 A 
ATOM     19  C   UNL A   1      37.925  30.955  33.349  1.00  0.00     0.028 A 
ATOM     20  C   UNL A   1      39.772  32.476  33.540  1.00  0.00    -0.021 A 
ATOM     21  C   UNL A   1      38.398  32.246  33.490  1.00  0.00     0.055 A 
ATOM     22  C   UNL A   1      40.074  33.931  33.703  1.00  0.00     0.060 C 
ATOM     23  C   UNL A   1      38.680  34.556  33.879  1.00  0.00     0.140 C 
BRANCH  16  24
ATOM     24  C   UNL A   1      41.059  28.953  33.565  1.00  0.00     0.081 A 
ATOM     25  C   UNL A   1      41.857  25.991  35.525  1.00  0.00     0.079 C 
ATOM     26  C   UNL A   1      41.796  27.135  34.578  1.00  0.00     0.090 A 
ATOM     27  N   UNL A   1      40.828  28.023  34.562  1.00  0.00    -0.242 NA
ATOM     28  S   UNL A   1      43.052  27.386  33.432  1.00  0.00    -0.127 S 
ATOM     29  C   UNL A   1      42.231  28.779  32.859  1.00  0.00     0.095 A 
ENDBRANCH  16  24
ENDBRANCH  12  15
ENDBRANCH   6  12
ENDBRANCH   3   5
ENDBRANCH   2   3
ENDBRANCH   1   2
BRANCH   1  30
ATOM     30  C   UNL A   1      33.000  31.582  27.156  1.00  0.00     0.275 C 
BRANCH  30  31
ATOM     31  O   UNL A   1      33.821  31.043  28.209  1.00  0.00    -0.458 OA
BRANCH  31  32
ATOM     32  C   UNL A   1      34.334  29.814  27.974  1.00  0.00     0.338 C 
ATOM     33  O   UNL A   1      33.757  28.843  27.513  1.00  0.00    -0.246 OA
BRANCH  32  34
ATOM     34  C   UNL A   1      35.771  29.806  28.285  1.00  0.00     0.060 A 
ATOM     35  C   UNL A   1      36.666  30.069  27.255  1.00  0.00     0.016 A 
ATOM     36  C   UNL A   1      36.242  29.374  29.523  1.00  0.00     0.016 A 
ATOM     37  C   UNL A   1      38.017  29.774  27.412  1.00  0.00     0.010 A 
ATOM     38  C   UNL A   1      37.621  29.198  29.715  1.00  0.00     0.010 A 
ATOM     39  C   UNL A   1      38.526  29.346  28.647  1.00  0.00    -0.014 A 
BRANCH  39  40
ATOM     40  C   UNL A   1      39.979  29.015  28.796  1.00  0.00     0.031 A 
ATOM     41  C   UNL A   1      40.943  30.032  29.365  1.00  0.00     0.074 A 
ATOM     42  C   UNL A   1      40.448  27.791  28.464  1.00  0.00     0.049 A 
ATOM     43  N   UNL A   1      42.252  30.005  29.403  1.00  0.00    -0.248 NA
ATOM     44  C   UNL A   1      40.360  31.250  29.953  1.00  0.00     0.031 C 
ATOM     45  C   UNL A   1      39.638  26.681  27.959  1.00  0.00     0.029 A 
ATOM     46  N   UNL A   1      41.718  27.266  28.521  1.00  0.00    -0.354 N 
ATOM     47  C   UNL A   1      42.647  31.215  29.965  1.00  0.00     0.074 A 
ATOM     48  C   UNL A   1      41.441  31.962  30.243  1.00  0.00     0.031 C 
ATOM     49  C   UNL A   1      40.411  25.593  27.820  1.00  0.00     0.029 A 
ATOM     50  C   UNL A   1      41.793  25.952  28.116  1.00  0.00     0.049 A 
ATOM     51  H   UNL A   1      42.500  27.781  28.823  1.00  0.00     0.167 HD
ATOM     52  C   UNL A   1      43.900  31.659  30.230  1.00  0.00     0.037 A 
ATOM     53  C   UNL A   1      42.851  25.132  27.953  1.00  0.00     0.037 A 
ATOM     54  C   UNL A   1      45.096  30.880  30.024  1.00  0.00     0.049 A 
ATOM     55  C   UNL A   1      44.233  25.659  28.212  1.00  0.00     0.074 A 
ATOM     56  C   UNL A   1      46.411  31.245  30.263  1.00  0.00     0.029 A 
ATOM     57  N   UNL A   1      45.125  29.575  29.557  1.00  0.00    -0.354 N 
ATOM     58  N   UNL A   1      44.594  26.840  28.654  1.00  0.00    -0.248 NA
ATOM     59  C   UNL A   1      45.356  24.755  27.923  1.00  0.00     0.031 C 
ATOM     60  C   UNL A   1      47.235  30.173  29.910  1.00  0.00     0.029 A 
ATOM     61  C   UNL A   1      46.433  29.123  29.494  1.00  0.00     0.049 A 
ATOM     62  H   UNL A   1      44.332  29.046  29.309  1.00  0.00     0.167 HD
ATOM     63  C   UNL A   1      45.983  26.819  28.702  1.00  0.00     0.074 A 
ATOM     64  C   UNL A   1      46.398  25.501  28.267  1.00  0.00     0.031 C 
ATOM     65  C   UNL A   1      46.836  27.808  29.065  1.00  0.00     0.037 A 
BRANCH  52  66
ATOM     66  C   UNL A   1      44.063  33.061  30.758  1.00  0.00     0.058 A 
ATOM     67  C   UNL A   1      43.916  33.318  32.132  1.00  0.00     0.135 A 
ATOM     68  C   UNL A   1      44.280  34.157  29.910  1.00  0.00     0.135 A 
ATOM     69  F   UNL A   1      43.709  32.308  32.992  1.00  0.00    -0.206 F 
ATOM     70  C   UNL A   1      43.958  34.613  32.642  1.00  0.00     0.059 A 
ATOM     71  C   UNL A   1      44.353  35.459  30.401  1.00  0.00     0.059 A 
ATOM     72  F   UNL A   1      44.446  33.967  28.591  1.00  0.00    -0.206 F 
ATOM     73  C   UNL A   1      44.174  35.678  31.768  1.00  0.00     0.060 A 
BRANCH  73  74
ATOM     74  S   UNL A   1      44.246  37.349  32.448  1.00  0.00     0.124 S 
ATOM     75  O   UNL A   1      45.658  37.473  32.794  1.00  0.00    -0.237 OA
ATOM     76  O   UNL A   1      43.794  38.160  31.321  1.00  0.00    -0.237 OA
ATOM     77  O   UNL A   1      43.323  37.295  33.579  1.00  0.00    -0.744 OA
ENDBRANCH  73  74
ENDBRANCH  52  66
BRANCH  53  78
ATOM     78  C   UNL A   1      42.639  23.736  27.479  1.00  0.00     0.058 A 
ATOM     79  C   UNL A   1      42.473  22.675  28.384  1.00  0.00     0.135 A 
ATOM     80  C   UNL A   1      42.629  23.431  26.109  1.00  0.00     0.135 A 
ATOM     81  F   UNL A   1      42.474  22.910  29.706  1.00  0.00    -0.206 F 
ATOM     82  C   UNL A   1      42.349  21.360  27.953  1.00  0.00     0.059 A 
ATOM     83  C   UNL A   1      42.473  22.126  25.651  1.00  0.00     0.059 A 
ATOM     84  F   UNL A   1      42.761  24.413  25.204  1.00  0.00    -0.206 F 
ATOM     85  C   UNL A   1      42.355  21.094  26.583  1.00  0.00     0.060 A 
BRANCH  85  86
ATOM     86  S   UNL A   1      42.199  19.378  26.043  1.00  0.00     0.124 S 
ATOM     87  O   UNL A   1      40.759  19.268  25.834  1.00  0.00    -0.237 OA
ATOM     88  O   UNL A   1      43.020  19.360  24.836  1.00  0.00    -0.237 OA
ATOM     89  O   UNL A   1      42.730  18.619  27.171  1.00  0.00    -0.744 OA
ENDBRANCH  85  86
ENDBRANCH  53  78
BRANCH  65  90
ATOM     90  C   UNL A   1      48.307  27.505  29.032  1.00  0.00     0.058 A 
ATOM     91  C   UNL A   1      48.957  27.006  30.171  1.00  0.00     0.135 A 
ATOM     92  C   UNL A   1      49.087  27.770  27.895  1.00  0.00     0.135 A 
ATOM     93  F   UNL A   1      48.260  26.738  31.286  1.00  0.00    -0.206 F 
ATOM     94  C   UNL A   1      50.332  26.799  30.192  1.00  0.00     0.059 A 
ATOM     95  C   UNL A   1      50.459  27.546  27.884  1.00  0.00     0.059 A 
ATOM     96  F   UNL A   1      48.509  28.234  26.775  1.00  0.00    -0.206 F 
ATOM     97  C   UNL A   1      51.076  27.075  29.044  1.00  0.00     0.060 A 
BRANCH  97  98
ATOM     98  S   UNL A   1      52.858  26.787  29.083  1.00  0.00     0.124 S 
ATOM     99  O   UNL A   1      53.382  28.149  29.065  1.00  0.00    -0.237 OA
ATOM    100  O   UNL A   1      53.026  26.059  30.337  1.00  0.00    -0.237 OA
ATOM    101  O   UNL A   1      53.102  26.004  27.875  1.00  0.00    -0.744 OA
ENDBRANCH  97  98
ENDBRANCH  65  90
ENDBRANCH  39  40
ENDBRANCH  32  34
ENDBRANCH  31  32
ENDBRANCH  30  31
ENDBRANCH   1  30
TORSDOF 17
ENDMDL
MODEL 2
REMARK VINA RESULT:     -10.7      4.488     12.533
REMARK SMILES Cc1nc(-c2ccc3c(c2)CCN3S(=O)(=O)c2ccc(F)c(C(=O)OCCOC(=O)c3ccc(-c4c5nc(c(-c6c(F)cc(S(=O)(=O)[O-])cc6F)c6ccc([nH]6)c(-c6c(F)cc(S(=O)(=O)[O-])cc6F)c6nc(c(-c7c(F)cc(S(=O)(=O)[O-])cc7F)c7ccc4[nH]7)C=C6)C=C5)cc3)c2)cs1
REMARK SMILES IDX 26 1 25 2 23 3 24 4 22 5 17 6 18 7 97 8 19 9 20 10 21 11
REMARK SMILES IDX 14 12 15 13 16 14 13 15 5 16 6 17 10 18 7 19 9 20 8 21 11 22
REMARK SMILES IDX 12 23 4 24 1 25 2 26 3 27 99 28 98 29 27 30 28 31 29 32
REMARK SMILES IDX 30 33 31 34 32 35 96 36 33 37 95 38 34 39 35 40 36 41 89 42
REMARK SMILES IDX 37 43 94 44 88 45 90 46 38 47 93 48 87 49 86 50 39 52 73 53
REMARK SMILES IDX 52 54 72 55 53 56 56 57 71 58 91 59 54 60 55 61 70 63 92 64
REMARK SMILES IDX 57 65 40 66 41 67 50 68 42 69 43 70 49 71 51 72 44 73 45 74
REMARK SMILES IDX 46 75 47 76 48 77 74 78 75 79 84 80 76 81 77 82 83 83 85 84
REMARK SMILES IDX 78 85 79 86 80 87 81 88 82 89 58 90 59 91 68 92 60 93 61 94
REMARK SMILES IDX 67 95 69 96 62 97 63 98 64 99 65 100 66 101
REMARK H PARENT 90 51 56 62
REMARK Flexibility Score: inf
ROOT
ATOM      1  C   UNL A   1      45.633  23.381  27.060  1.00  0.00     0.275 C 
ENDROOT
BRANCH   1   2
ATOM      2  O   UNL A   1      46.066  22.882  25.780  1.00  0.00    -0.458 OA
BRANCH   2   3
ATOM      3  C   UNL A   1      45.089  22.634  24.878  1.00  0.00     0.341 C 
ATOM      4  O   UNL A   1      44.797  23.320  23.912  1.00  0.00    -0.246 OA
BRANCH   3   5
ATOM      5  C   UNL A   1      44.486  21.308  25.106  1.00  0.00     0.097 A 
ATOM      6  C   UNL A   1      42.549  20.038  25.835  1.00  0.00     0.089 A 
ATOM      7  C   UNL A   1      43.214  18.839  25.563  1.00  0.00     0.025 A 
ATOM      8  C   UNL A   1      43.187  21.264  25.619  1.00  0.00     0.041 A 
ATOM      9  C   UNL A   1      44.539  18.887  25.110  1.00  0.00     0.041 A 
ATOM     10  C   UNL A   1      45.166  20.117  24.878  1.00  0.00     0.137 A 
ATOM     11  F   UNL A   1      46.450  20.118  24.492  1.00  0.00    -0.206 F 
BRANCH   6  12
ATOM     12  S   UNL A   1      40.901  20.057  26.495  1.00  0.00     0.264 S 
ATOM     13  O   UNL A   1      41.040  19.953  27.933  1.00  0.00    -0.201 OA
ATOM     14  O   UNL A   1      40.138  19.074  25.757  1.00  0.00    -0.201 OA
BRANCH  12  15
ATOM     15  N   UNL A   1      40.246  21.575  26.159  1.00  0.00    -0.266 N 
ATOM     16  C   UNL A   1      36.552  23.071  24.920  1.00  0.00     0.001 A 
ATOM     17  C   UNL A   1      36.845  21.742  24.587  1.00  0.00     0.012 A 
ATOM     18  C   UNL A   1      37.388  23.763  25.803  1.00  0.00     0.016 A 
ATOM     19  C   UNL A   1      38.015  21.133  25.038  1.00  0.00     0.028 A 
ATOM     20  C   UNL A   1      38.540  23.129  26.263  1.00  0.00    -0.021 A 
ATOM     21  C   UNL A   1      38.872  21.834  25.864  1.00  0.00     0.055 A 
ATOM     22  C   UNL A   1      39.596  23.713  27.144  1.00  0.00     0.060 C 
ATOM     23  C   UNL A   1      40.695  22.639  27.127  1.00  0.00     0.140 C 
BRANCH  16  24
ATOM     24  C   UNL A   1      35.432  23.696  24.241  1.00  0.00     0.081 A 
ATOM     25  C   UNL A   1      32.994  26.399  24.255  1.00  0.00     0.079 C 
ATOM     26  C   UNL A   1      33.816  25.184  24.018  1.00  0.00     0.090 A 
ATOM     27  N   UNL A   1      34.894  24.882  24.705  1.00  0.00    -0.242 NA
ATOM     28  S   UNL A   1      33.365  24.048  22.809  1.00  0.00    -0.127 S 
ATOM     29  C   UNL A   1      34.725  23.087  23.225  1.00  0.00     0.095 A 
ENDBRANCH  16  24
ENDBRANCH  12  15
ENDBRANCH   6  12
ENDBRANCH   3   5
ENDBRANCH   2   3
ENDBRANCH   1   2
BRANCH   1  30
ATOM     30  C   UNL A   1      45.083  24.799  26.921  1.00  0.00     0.275 C 
BRANCH  30  31
ATOM     31  O   UNL A   1      43.650  24.764  26.790  1.00  0.00    -0.458 OA
BRANCH  31  32
ATOM     32  C   UNL A   1      43.090  25.859  26.225  1.00  0.00     0.338 C 
ATOM     33  O   UNL A   1      43.029  26.132  25.038  1.00  0.00    -0.246 OA
BRANCH  32  34
ATOM     34  C   UNL A   1      42.461  26.688  27.263  1.00  0.00     0.060 A 
ATOM     35  C   UNL A   1      42.896  28.000  27.406  1.00  0.00     0.016 A 
ATOM     36  C   UNL A   1      41.587  26.138  28.198  1.00  0.00     0.016 A 
ATOM     37  C   UNL A   1      42.569  28.723  28.550  1.00  0.00     0.010 A 
ATOM     38  C   UNL A   1      41.159  26.916  29.285  1.00  0.00     0.010 A 
ATOM     39  C   UNL A   1      41.685  28.204  29.506  1.00  0.00    -0.014 A 
BRANCH  39  40
ATOM     40  C   UNL A   1      41.356  28.986  30.741  1.00  0.00     0.031 A 
ATOM     41  C   UNL A   1      40.158  29.908  30.768  1.00  0.00     0.074 A 
ATOM     42  C   UNL A   1      42.098  28.852  31.863  1.00  0.00     0.049 A 
ATOM     43  N   UNL A   1      39.816  30.798  31.666  1.00  0.00    -0.248 NA
ATOM     44  C   UNL A   1      39.230  29.833  29.627  1.00  0.00     0.031 C 
ATOM     45  C   UNL A   1      43.248  27.959  32.018  1.00  0.00     0.029 A 
ATOM     46  N   UNL A   1      41.984  29.451  33.097  1.00  0.00    -0.354 N 
ATOM     47  C   UNL A   1      38.673  31.423  31.175  1.00  0.00     0.074 A 
ATOM     48  C   UNL A   1      38.383  30.819  29.893  1.00  0.00     0.031 C 
ATOM     49  C   UNL A   1      43.686  28.014  33.285  1.00  0.00     0.029 A 
ATOM     50  C   UNL A   1      42.927  29.028  34.007  1.00  0.00     0.049 A 
ATOM     51  H   UNL A   1      41.293  30.118  33.309  1.00  0.00     0.167 HD
ATOM     52  C   UNL A   1      37.930  32.404  31.744  1.00  0.00     0.037 A 
ATOM     53  C   UNL A   1      43.190  29.433  35.265  1.00  0.00     0.037 A 
ATOM     54  C   UNL A   1      38.177  32.950  33.056  1.00  0.00     0.049 A 
ATOM     55  C   UNL A   1      42.382  30.551  35.859  1.00  0.00     0.074 A 
ATOM     56  C   UNL A   1      37.479  33.946  33.717  1.00  0.00     0.029 A 
ATOM     57  N   UNL A   1      39.180  32.529  33.916  1.00  0.00    -0.354 N 
ATOM     58  N   UNL A   1      41.363  31.195  35.342  1.00  0.00    -0.248 NA
ATOM     59  C   UNL A   1      42.776  31.021  37.195  1.00  0.00     0.031 C 
ATOM     60  C   UNL A   1      38.079  34.151  34.962  1.00  0.00     0.029 A 
ATOM     61  C   UNL A   1      39.124  33.251  35.098  1.00  0.00     0.049 A 
ATOM     62  H   UNL A   1      39.835  31.820  33.718  1.00  0.00     0.167 HD
ATOM     63  C   UNL A   1      40.990  32.140  36.290  1.00  0.00     0.074 A 
ATOM     64  C   UNL A   1      41.877  31.970  37.423  1.00  0.00     0.031 C 
ATOM     65  C   UNL A   1      40.007  33.071  36.222  1.00  0.00     0.037 A 
BRANCH  52  66
ATOM     66  C   UNL A   1      36.783  32.979  30.954  1.00  0.00     0.058 A 
ATOM     67  C   UNL A   1      37.023  33.953  29.970  1.00  0.00     0.135 A 
ATOM     68  C   UNL A   1      35.449  32.636  31.220  1.00  0.00     0.135 A 
ATOM     69  F   UNL A   1      38.279  34.319  29.672  1.00  0.00    -0.206 F 
ATOM     70  C   UNL A   1      35.981  34.580  29.293  1.00  0.00     0.059 A 
ATOM     71  C   UNL A   1      34.391  33.231  30.536  1.00  0.00     0.059 A 
ATOM     72  F   UNL A   1      35.163  31.698  32.138  1.00  0.00    -0.206 F 
ATOM     73  C   UNL A   1      34.667  34.214  29.585  1.00  0.00     0.060 A 
BRANCH  73  74
ATOM     74  S   UNL A   1      33.328  35.023  28.682  1.00  0.00     0.124 S 
ATOM     75  O   UNL A   1      32.789  33.921  27.892  1.00  0.00    -0.237 OA
ATOM     76  O   UNL A   1      32.475  35.505  29.765  1.00  0.00    -0.237 OA
ATOM     77  O   UNL A   1      34.011  36.067  27.924  1.00  0.00    -0.744 OA
ENDBRANCH  73  74
ENDBRANCH  52  66
BRANCH  53  78
ATOM     78  C   UNL A   1      44.301  28.800  36.029  1.00  0.00     0.058 A 
ATOM     79  C   UNL A   1      45.618  29.276  35.930  1.00  0.00     0.135 A 
ATOM     80  C   UNL A   1      44.071  27.687  36.851  1.00  0.00     0.135 A 
ATOM     81  F   UNL A   1      45.895  30.339  35.159  1.00  0.00    -0.206 F 
ATOM     82  C   UNL A   1      46.673  28.647  36.581  1.00  0.00     0.059 A 
ATOM     83  C   UNL A   1      45.105  27.059  37.540  1.00  0.00     0.059 A 
ATOM     84  F   UNL A   1      42.825  27.208  36.998  1.00  0.00    -0.206 F 
ATOM     85  C   UNL A   1      46.407  27.534  37.381  1.00  0.00     0.060 A 
BRANCH  85  86
ATOM     86  S   UNL A   1      47.791  26.728  38.214  1.00  0.00     0.124 S 
ATOM     87  O   UNL A   1      47.778  25.409  37.592  1.00  0.00    -0.237 OA
ATOM     88  O   UNL A   1      48.912  27.591  37.852  1.00  0.00    -0.237 OA
ATOM     89  O   UNL A   1      47.405  26.764  39.621  1.00  0.00    -0.744 OA
ENDBRANCH  85  86
ENDBRANCH  53  78
BRANCH  65  90
ATOM     90  C   UNL A   1      39.816  33.969  37.411  1.00  0.00     0.058 A 
ATOM     91  C   UNL A   1      40.524  35.177  37.511  1.00  0.00     0.135 A 
ATOM     92  C   UNL A   1      38.984  33.604  38.481  1.00  0.00     0.135 A 
ATOM     93  F   UNL A   1      41.335  35.572  36.518  1.00  0.00    -0.206 F 
ATOM     94  C   UNL A   1      40.429  35.983  38.641  1.00  0.00     0.059 A 
ATOM     95  C   UNL A   1      38.853  34.408  39.609  1.00  0.00     0.059 A 
ATOM     96  F   UNL A   1      38.275  32.465  38.426  1.00  0.00    -0.206 F 
ATOM     97  C   UNL A   1      39.593  35.589  39.687  1.00  0.00     0.060 A 
BRANCH  97  98
ATOM     98  S   UNL A   1      39.470  36.655  41.138  1.00  0.00     0.124 S 
ATOM     99  O   UNL A   1      38.575  35.886  41.998  1.00  0.00    -0.237 OA
ATOM    100  O   UNL A   1      40.859  36.737  41.580  1.00  0.00    -0.237 OA
ATOM    101  O   UNL A   1      38.915  37.895  40.604  1.00  0.00    -0.744 OA
ENDBRANCH  97  98
ENDBRANCH  65  90
ENDBRANCH  39  40
ENDBRANCH  32  34
ENDBRANCH  31  32
ENDBRANCH  30  31
ENDBRANCH   1  30
TORSDOF 17
ENDMDL
MODEL 3
REMARK VINA RESULT:     -10.5      2.847      4.217
REMARK SMILES Cc1nc(-c2ccc3c(c2)CCN3S(=O)(=O)c2ccc(F)c(C(=O)OCCOC(=O)c3ccc(-c4c5nc(c(-c6c(F)cc(S(=O)(=O)[O-])cc6F)c6ccc([nH]6)c(-c6c(F)cc(S(=O)(=O)[O-])cc6F)c6nc(c(-c7c(F)cc(S(=O)(=O)[O-])cc7F)c7ccc4[nH]7)C=C6)C=C5)cc3)c2)cs1
REMARK SMILES IDX 26 1 25 2 23 3 24 4 22 5 17 6 18 7 97 8 19 9 20 10 21 11
REMARK SMILES IDX 14 12 15 13 16 14 13 15 5 16 6 17 10 18 7 19 9 20 8 21 11 22
REMARK SMILES IDX 12 23 4 24 1 25 2 26 3 27 99 28 98 29 27 30 28 31 29 32
REMARK SMILES IDX 30 33 31 34 32 35 96 36 33 37 95 38 34 39 35 40 36 41 89 42
REMARK SMILES IDX 37 43 94 44 88 45 90 46 38 47 93 48 87 49 86 50 39 52 73 53
REMARK SMILES IDX 52 54 72 55 53 56 56 57 71 58 91 59 54 60 55 61 70 63 92 64
REMARK SMILES IDX 57 65 40 66 41 67 50 68 42 69 43 70 49 71 51 72 44 73 45 74
REMARK SMILES IDX 46 75 47 76 48 77 74 78 75 79 84 80 76 81 77 82 83 83 85 84
REMARK SMILES IDX 78 85 79 86 80 87 81 88 82 89 58 90 59 91 68 92 60 93 61 94
REMARK SMILES IDX 67 95 69 96 62 97 63 98 64 99 65 100 66 101
REMARK H PARENT 90 51 56 62
REMARK Flexibility Score: inf
ROOT
ATOM      1  C   UNL A   1      33.829  34.203  27.808  1.00  0.00     0.275 C 
ENDROOT
BRANCH   1   2
ATOM      2  O   UNL A   1      34.179  35.488  28.359  1.00  0.00    -0.458 OA
BRANCH   2   3
ATOM      3  C   UNL A   1      33.234  36.084  29.122  1.00  0.00     0.341 C 
ATOM      4  O   UNL A   1      32.140  36.479  28.751  1.00  0.00    -0.246 OA
BRANCH   3   5
ATOM      5  C   UNL A   1      33.617  36.066  30.545  1.00  0.00     0.097 A 
ATOM      6  C   UNL A   1      34.475  34.781  32.418  1.00  0.00     0.089 A 
ATOM      7  C   UNL A   1      34.403  35.907  33.244  1.00  0.00     0.025 A 
ATOM      8  C   UNL A   1      34.074  34.859  31.081  1.00  0.00     0.041 A 
ATOM      9  C   UNL A   1      33.885  37.099  32.720  1.00  0.00     0.041 A 
ATOM     10  C   UNL A   1      33.501  37.176  31.376  1.00  0.00     0.137 A 
ATOM     11  F   UNL A   1      32.966  38.320  30.927  1.00  0.00    -0.206 F 
BRANCH   6  12
ATOM     12  S   UNL A   1      35.038  33.214  33.034  1.00  0.00     0.264 S 
ATOM     13  O   UNL A   1      34.706  32.237  32.017  1.00  0.00    -0.201 OA
ATOM     14  O   UNL A   1      34.524  33.078  34.379  1.00  0.00    -0.201 OA
BRANCH  12  15
ATOM     15  N   UNL A   1      36.721  33.291  33.130  1.00  0.00    -0.266 N 
ATOM     16  C   UNL A   1      39.852  34.316  30.568  1.00  0.00     0.001 A 
ATOM     17  C   UNL A   1      38.659  33.886  29.974  1.00  0.00     0.012 A 
ATOM     18  C   UNL A   1      39.886  34.578  31.942  1.00  0.00     0.016 A 
ATOM     19  C   UNL A   1      37.534  33.610  30.749  1.00  0.00     0.028 A 
ATOM     20  C   UNL A   1      38.743  34.320  32.696  1.00  0.00    -0.021 A 
ATOM     21  C   UNL A   1      37.582  33.813  32.115  1.00  0.00     0.055 A 
ATOM     22  C   UNL A   1      38.594  34.457  34.177  1.00  0.00     0.060 C 
ATOM     23  C   UNL A   1      37.213  33.837  34.445  1.00  0.00     0.140 C 
BRANCH  16  24
ATOM     24  C   UNL A   1      41.032  34.375  29.726  1.00  0.00     0.081 A 
ATOM     25  C   UNL A   1      44.438  33.213  29.179  1.00  0.00     0.079 C 
ATOM     26  C   UNL A   1      43.114  33.888  29.175  1.00  0.00     0.090 A 
ATOM     27  N   UNL A   1      42.126  33.568  29.979  1.00  0.00    -0.242 NA
ATOM     28  S   UNL A   1      42.805  35.196  28.103  1.00  0.00    -0.127 S 
ATOM     29  C   UNL A   1      41.222  35.334  28.751  1.00  0.00     0.095 A 
ENDBRANCH  16  24
ENDBRANCH  12  15
ENDBRANCH   6  12
ENDBRANCH   3   5
ENDBRANCH   2   3
ENDBRANCH   1   2
BRANCH   1  30
ATOM     30  C   UNL A   1      34.969  33.207  28.014  1.00  0.00     0.275 C 
BRANCH  30  31
ATOM     31  O   UNL A   1      34.463  31.987  28.585  1.00  0.00    -0.458 OA
BRANCH  31  32
ATOM     32  C   UNL A   1      34.647  30.875  27.838  1.00  0.00     0.338 C 
ATOM     33  O   UNL A   1      33.966  30.486  26.904  1.00  0.00    -0.246 OA
BRANCH  32  34
ATOM     34  C   UNL A   1      35.880  30.191  28.257  1.00  0.00     0.060 A 
ATOM     35  C   UNL A   1      35.945  29.695  29.553  1.00  0.00     0.016 A 
ATOM     36  C   UNL A   1      37.018  30.194  27.453  1.00  0.00     0.016 A 
ATOM     37  C   UNL A   1      37.172  29.324  30.098  1.00  0.00     0.010 A 
ATOM     38  C   UNL A   1      38.227  29.701  27.967  1.00  0.00     0.010 A 
ATOM     39  C   UNL A   1      38.335  29.306  29.315  1.00  0.00    -0.014 A 
BRANCH  39  40
ATOM     40  C   UNL A   1      39.651  28.923  29.919  1.00  0.00     0.031 A 
ATOM     41  C   UNL A   1      40.152  29.614  31.168  1.00  0.00     0.074 A 
ATOM     42  C   UNL A   1      40.393  27.927  29.385  1.00  0.00     0.049 A 
ATOM     43  N   UNL A   1      41.333  29.554  31.732  1.00  0.00    -0.248 NA
ATOM     44  C   UNL A   1      39.208  30.503  31.865  1.00  0.00     0.031 C 
ATOM     45  C   UNL A   1      40.022  27.122  28.220  1.00  0.00     0.029 A 
ATOM     46  N   UNL A   1      41.608  27.404  29.765  1.00  0.00    -0.354 N 
ATOM     47  C   UNL A   1      41.291  30.433  32.810  1.00  0.00     0.074 A 
ATOM     48  C   UNL A   1      39.971  31.024  32.817  1.00  0.00     0.031 C 
ATOM     49  C   UNL A   1      40.945  26.170  28.023  1.00  0.00     0.029 A 
ATOM     50  C   UNL A   1      42.034  26.361  28.974  1.00  0.00     0.049 A 
ATOM     51  H   UNL A   1      42.124  27.744  30.531  1.00  0.00     0.167 HD
ATOM     52  C   UNL A   1      42.261  30.716  33.714  1.00  0.00     0.037 A 
ATOM     53  C   UNL A   1      43.185  25.659  28.974  1.00  0.00     0.037 A 
ATOM     54  C   UNL A   1      43.548  30.068  33.750  1.00  0.00     0.049 A 
ATOM     55  C   UNL A   1      44.262  26.018  29.957  1.00  0.00     0.074 A 
ATOM     56  C   UNL A   1      44.596  30.287  34.628  1.00  0.00     0.029 A 
ATOM     57  N   UNL A   1      43.954  29.058  32.892  1.00  0.00    -0.354 N 
ATOM     58  N   UNL A   1      44.239  26.919  30.910  1.00  0.00    -0.248 NA
ATOM     59  C   UNL A   1      45.534  25.289  29.848  1.00  0.00     0.031 C 
ATOM     60  C   UNL A   1      45.647  29.434  34.281  1.00  0.00     0.029 A 
ATOM     61  C   UNL A   1      45.239  28.650  33.214  1.00  0.00     0.049 A 
ATOM     62  H   UNL A   1      43.410  28.683  32.161  1.00  0.00     0.167 HD
ATOM     63  C   UNL A   1      45.488  26.861  31.518  1.00  0.00     0.074 A 
ATOM     64  C   UNL A   1      46.235  25.821  30.841  1.00  0.00     0.031 C 
ATOM     65  C   UNL A   1      45.972  27.609  32.538  1.00  0.00     0.037 A 
BRANCH  52  66
ATOM     66  C   UNL A   1      41.990  31.787  34.738  1.00  0.00     0.058 A 
ATOM     67  C   UNL A   1      41.373  31.458  35.956  1.00  0.00     0.135 A 
ATOM     68  C   UNL A   1      42.260  33.142  34.490  1.00  0.00     0.135 A 
ATOM     69  F   UNL A   1      41.093  30.178  36.250  1.00  0.00    -0.206 F 
ATOM     70  C   UNL A   1      41.015  32.434  36.882  1.00  0.00     0.059 A 
ATOM     71  C   UNL A   1      41.935  34.133  35.413  1.00  0.00     0.059 A 
ATOM     72  F   UNL A   1      42.865  33.511  33.349  1.00  0.00    -0.206 F 
ATOM     73  C   UNL A   1      41.298  33.770  36.601  1.00  0.00     0.060 A 
BRANCH  73  74
ATOM     74  S   UNL A   1      40.845  35.022  37.821  1.00  0.00     0.124 S 
ATOM     75  O   UNL A   1      40.008  35.921  37.034  1.00  0.00    -0.237 OA
ATOM     76  O   UNL A   1      40.152  34.229  38.832  1.00  0.00    -0.237 OA
ATOM     77  O   UNL A   1      42.133  35.567  38.241  1.00  0.00    -0.744 OA
ENDBRANCH  73  74
ENDBRANCH  52  66
BRANCH  53  78
ATOM     78  C   UNL A   1      43.389  24.572  27.977  1.00  0.00     0.058 A 
ATOM     79  C   UNL A   1      42.989  23.253  28.243  1.00  0.00     0.135 A 
ATOM     80  C   UNL A   1      44.018  24.827  26.749  1.00  0.00     0.135 A 
ATOM     81  F   UNL A   1      42.382  22.953  29.402  1.00  0.00    -0.206 F 
ATOM     82  C   UNL A   1      43.242  22.218  27.349  1.00  0.00     0.059 A 
ATOM     83  C   UNL A   1      44.253  23.814  25.823  1.00  0.00     0.059 A 
ATOM     84  F   UNL A   1      44.399  26.075  26.437  1.00  0.00    -0.206 F 
ATOM     85  C   UNL A   1      43.880  22.508  26.142  1.00  0.00     0.060 A 
BRANCH  85  86
ATOM     86  S   UNL A   1      44.204  21.150  24.998  1.00  0.00     0.124 S 
ATOM     87  O   UNL A   1      43.095  20.249  25.291  1.00  0.00    -0.237 OA
ATOM     88  O   UNL A   1      44.153  21.821  23.703  1.00  0.00    -0.237 OA
ATOM     89  O   UNL A   1      45.524  20.675  25.403  1.00  0.00    -0.744 OA
ENDBRANCH  85  86
ENDBRANCH  53  78
BRANCH  65  90
ATOM     90  C   UNL A   1      47.370  27.324  33.008  1.00  0.00     0.058 A 
ATOM     91  C   UNL A   1      48.464  27.997  32.441  1.00  0.00     0.135 A 
ATOM     92  C   UNL A   1      47.635  26.337  33.971  1.00  0.00     0.135 A 
ATOM     93  F   UNL A   1      48.267  28.947  31.513  1.00  0.00    -0.206 F 
ATOM     94  C   UNL A   1      49.772  27.688  32.797  1.00  0.00     0.059 A 
ATOM     95  C   UNL A   1      48.934  26.031  34.363  1.00  0.00     0.059 A 
ATOM     96  F   UNL A   1      46.622  25.676  34.555  1.00  0.00    -0.206 F 
ATOM     97  C   UNL A   1      49.998  26.701  33.758  1.00  0.00     0.060 A 
BRANCH  97  98
ATOM     98  S   UNL A   1      51.702  26.324  34.220  1.00  0.00     0.124 S 
ATOM     99  O   UNL A   1      51.787  24.900  33.913  1.00  0.00    -0.237 OA
ATOM    100  O   UNL A   1      52.463  27.209  33.343  1.00  0.00    -0.237 OA
ATOM    101  O   UNL A   1      51.752  26.665  35.639  1.00  0.00    -0.744 OA
ENDBRANCH  97  98
ENDBRANCH  65  90
ENDBRANCH  39  40
ENDBRANCH  32  34
ENDBRANCH  31  32
ENDBRANCH  30  31
ENDBRANCH   1  30
TORSDOF 17
ENDMDL
