MODEL 1
REMARK VINA RESULT:     -12.7      0.000      0.000
REMARK SMILES Cc1cccc(-c2noc(C[N@@H+](C)Cc3ncccc3C(=O)OCCOC(=O)c3ccc(-c4c5nc(c(-c6c(F)cc(S(=O)(=O)[O-])cc6F)c6ccc([nH]6)c(-c6c(F)cc(S(=O)(=O)[O-])cc6F)c6nc(c(-c7c(F)cc(S(=O)(=O)[O-])cc7F)c7ccc4[nH]7)C=C6)C=C5)cc3)n2)c1
REMARK SMILES IDX 24 1 23 2 21 3 22 4 20 5 15 6 16 7 17 8 19 9 18 10 14 11
REMARK SMILES IDX 12 12 13 13 11 15 10 16 7 17 8 18 95 19 9 20 6 21 1 22 2 23
REMARK SMILES IDX 3 24 96 25 4 26 5 27 25 28 26 29 27 30 28 31 29 32 30 33
REMARK SMILES IDX 94 34 31 35 93 36 32 37 33 38 34 39 87 40 35 41 92 42 86 43
REMARK SMILES IDX 88 44 36 45 91 46 85 47 84 48 37 50 71 51 50 52 70 53 51 54
REMARK SMILES IDX 54 55 69 56 89 57 52 58 53 59 68 61 90 62 55 63 38 64 39 65
REMARK SMILES IDX 48 66 40 67 41 68 47 69 49 70 42 71 43 72 44 73 45 74 46 75
REMARK SMILES IDX 72 76 73 77 82 78 74 79 75 80 81 81 83 82 76 83 77 84 78 85
REMARK SMILES IDX 79 86 80 87 56 88 57 89 66 90 58 91 59 92 65 93 67 94 60 95
REMARK SMILES IDX 61 96 62 97 63 98 64 99
REMARK H PARENT 12 14 88 49 54 60
REMARK Flexibility Score: inf
ROOT
ATOM      1  C   UNL A   1      32.172  30.686  26.977  1.00  0.00     0.275 C 
ENDROOT
BRANCH   1   2
ATOM      2  O   UNL A   1      31.821  30.745  25.570  1.00  0.00    -0.458 OA
BRANCH   2   3
ATOM      3  C   UNL A   1      31.276  29.654  24.990  1.00  0.00     0.340 C 
ATOM      4  O   UNL A   1      31.316  28.523  25.450  1.00  0.00    -0.246 OA
BRANCH   3   5
ATOM      5  C   UNL A   1      30.347  30.061  23.904  1.00  0.00     0.087 A 
ATOM      6  C   UNL A   1      30.262  29.485  22.619  1.00  0.00     0.109 A 
ATOM      7  N   UNL A   1      29.185  29.730  21.807  1.00  0.00    -0.254 NA
ATOM      8  C   UNL A   1      28.234  30.584  22.237  1.00  0.00     0.111 A 
ATOM      9  C   UNL A   1      29.359  30.983  24.287  1.00  0.00     0.019 A 
ATOM     10  C   UNL A   1      28.296  31.260  23.438  1.00  0.00     0.021 A 
BRANCH   6  11
ATOM     11  C   UNL A   1      31.470  28.893  21.902  1.00  0.00     0.320 C 
BRANCH  11  12
ATOM     12  N   UNL A   1      32.196  27.722  22.424  1.00  0.00    -0.325 N 
ATOM     13  C   UNL A   1      33.642  27.818  22.342  1.00  0.00     0.333 C 
ATOM     14  H   UNL A   1      32.008  27.748  23.427  1.00  0.00     0.348 HD
BRANCH  12  15
ATOM     15  C   UNL A   1      31.655  26.434  21.989  1.00  0.00     0.364 C 
BRANCH  15  16
ATOM     16  C   UNL A   1      32.544  25.263  22.268  1.00  0.00     0.282 A 
ATOM     17  C   UNL A   1      33.819  23.795  23.047  1.00  0.00     0.202 A 
ATOM     18  N   UNL A   1      33.843  23.554  21.726  1.00  0.00    -0.057 NA
ATOM     19  N   UNL A   1      32.900  24.752  23.423  1.00  0.00    -0.186 NA
ATOM     20  O   UNL A   1      33.037  24.571  21.200  1.00  0.00    -0.333 OA
BRANCH  17  21
ATOM     21  C   UNL A   1      34.634  23.090  24.027  1.00  0.00     0.023 A 
ATOM     22  C   UNL A   1      37.768  23.749  26.103  1.00  0.00     0.044 C 
ATOM     23  C   UNL A   1      36.604  23.045  25.474  1.00  0.00    -0.050 A 
ATOM     24  C   UNL A   1      36.379  21.686  25.723  1.00  0.00     0.003 A 
ATOM     25  C   UNL A   1      35.741  23.731  24.606  1.00  0.00     0.015 A 
ATOM     26  C   UNL A   1      35.284  21.037  25.151  1.00  0.00     0.001 A 
ATOM     27  C   UNL A   1      34.403  21.740  24.322  1.00  0.00     0.012 A 
ENDBRANCH  17  21
ENDBRANCH  15  16
ENDBRANCH  12  15
ENDBRANCH  11  12
ENDBRANCH   6  11
ENDBRANCH   3   5
ENDBRANCH   2   3
ENDBRANCH   1   2
BRANCH   1  28
ATOM     28  C   UNL A   1      33.594  30.168  27.288  1.00  0.00     0.275 C 
BRANCH  28  29
ATOM     29  O   UNL A   1      34.642  31.144  27.225  1.00  0.00    -0.458 OA
BRANCH  29  30
ATOM     30  C   UNL A   1      35.108  31.523  28.437  1.00  0.00     0.338 C 
ATOM     31  O   UNL A   1      34.509  32.201  29.260  1.00  0.00    -0.246 OA
BRANCH  30  32
ATOM     32  C   UNL A   1      36.208  30.610  28.791  1.00  0.00     0.060 A 
ATOM     33  C   UNL A   1      36.280  29.868  29.976  1.00  0.00     0.016 A 
ATOM     34  C   UNL A   1      37.074  30.323  27.734  1.00  0.00     0.016 A 
ATOM     35  C   UNL A   1      37.318  28.954  30.120  1.00  0.00     0.010 A 
ATOM     36  C   UNL A   1      37.823  29.200  27.738  1.00  0.00     0.010 A 
ATOM     37  C   UNL A   1      38.120  28.713  28.997  1.00  0.00    -0.014 A 
BRANCH  37  38
ATOM     38  C   UNL A   1      39.574  28.638  29.063  1.00  0.00     0.031 A 
ATOM     39  C   UNL A   1      40.151  27.368  28.635  1.00  0.00     0.074 A 
ATOM     40  C   UNL A   1      40.152  29.854  29.237  1.00  0.00     0.049 A 
ATOM     41  N   UNL A   1      40.694  26.496  29.419  1.00  0.00    -0.248 NA
ATOM     42  C   UNL A   1      39.958  26.878  27.260  1.00  0.00     0.031 C 
ATOM     43  C   UNL A   1      41.516  30.315  29.101  1.00  0.00     0.029 A 
ATOM     44  N   UNL A   1      39.483  30.999  29.695  1.00  0.00    -0.354 N 
ATOM     45  C   UNL A   1      41.336  25.642  28.547  1.00  0.00     0.074 A 
ATOM     46  C   UNL A   1      40.568  25.694  27.321  1.00  0.00     0.031 C 
ATOM     47  C   UNL A   1      41.639  31.486  29.766  1.00  0.00     0.029 A 
ATOM     48  C   UNL A   1      40.349  31.859  30.352  1.00  0.00     0.049 A 
ATOM     49  H   UNL A   1      38.523  31.172  29.566  1.00  0.00     0.167 HD
ATOM     50  C   UNL A   1      42.699  25.521  28.592  1.00  0.00     0.037 A 
ATOM     51  C   UNL A   1      40.083  32.054  31.677  1.00  0.00     0.037 A 
ATOM     52  C   UNL A   1      43.269  26.565  29.456  1.00  0.00     0.049 A 
ATOM     53  C   UNL A   1      40.842  31.042  32.506  1.00  0.00     0.074 A 
ATOM     54  C   UNL A   1      43.935  27.744  29.161  1.00  0.00     0.029 A 
ATOM     55  N   UNL A   1      42.863  26.685  30.784  1.00  0.00    -0.354 N 
ATOM     56  N   UNL A   1      41.419  29.982  32.003  1.00  0.00    -0.248 NA
ATOM     57  C   UNL A   1      41.109  31.192  33.931  1.00  0.00     0.031 C 
ATOM     58  C   UNL A   1      43.902  28.580  30.308  1.00  0.00     0.029 A 
ATOM     59  C   UNL A   1      43.184  27.931  31.296  1.00  0.00     0.049 A 
ATOM     60  H   UNL A   1      42.406  25.976  31.292  1.00  0.00     0.167 HD
ATOM     61  C   UNL A   1      42.158  29.350  32.962  1.00  0.00     0.074 A 
ATOM     62  C   UNL A   1      41.932  30.150  34.155  1.00  0.00     0.031 C 
ATOM     63  C   UNL A   1      42.919  28.246  32.696  1.00  0.00     0.037 A 
BRANCH  50  64
ATOM     64  C   UNL A   1      43.457  24.769  27.512  1.00  0.00     0.058 A 
ATOM     65  C   UNL A   1      43.679  23.381  27.579  1.00  0.00     0.135 A 
ATOM     66  C   UNL A   1      43.958  25.397  26.346  1.00  0.00     0.135 A 
ATOM     67  F   UNL A   1      43.181  22.636  28.572  1.00  0.00    -0.206 F 
ATOM     68  C   UNL A   1      44.409  22.685  26.612  1.00  0.00     0.059 A 
ATOM     69  C   UNL A   1      44.731  24.732  25.390  1.00  0.00     0.059 A 
ATOM     70  F   UNL A   1      43.689  26.686  26.083  1.00  0.00    -0.206 F 
ATOM     71  C   UNL A   1      44.944  23.369  25.528  1.00  0.00     0.060 A 
BRANCH  71  72
ATOM     72  S   UNL A   1      45.857  22.441  24.281  1.00  0.00     0.124 S 
ATOM     73  O   UNL A   1      44.794  21.997  23.385  1.00  0.00    -0.237 OA
ATOM     74  O   UNL A   1      46.754  23.461  23.748  1.00  0.00    -0.237 OA
ATOM     75  O   UNL A   1      46.501  21.380  25.050  1.00  0.00    -0.744 OA
ENDBRANCH  71  72
ENDBRANCH  50  64
BRANCH  51  76
ATOM     76  C   UNL A   1      38.723  32.652  31.916  1.00  0.00     0.058 A 
ATOM     77  C   UNL A   1      37.788  31.826  32.583  1.00  0.00     0.135 A 
ATOM     78  C   UNL A   1      38.382  34.010  31.822  1.00  0.00     0.135 A 
ATOM     79  F   UNL A   1      38.020  30.506  32.681  1.00  0.00    -0.206 F 
ATOM     80  C   UNL A   1      36.660  32.323  33.232  1.00  0.00     0.059 A 
ATOM     81  C   UNL A   1      37.236  34.535  32.456  1.00  0.00     0.059 A 
ATOM     82  F   UNL A   1      39.199  34.870  31.195  1.00  0.00    -0.206 F 
ATOM     83  C   UNL A   1      36.410  33.688  33.199  1.00  0.00     0.060 A 
BRANCH  83  84
ATOM     84  S   UNL A   1      35.063  34.313  34.244  1.00  0.00     0.124 S 
ATOM     85  O   UNL A   1      35.548  33.993  35.582  1.00  0.00    -0.237 OA
ATOM     86  O   UNL A   1      35.066  35.734  33.904  1.00  0.00    -0.237 OA
ATOM     87  O   UNL A   1      33.916  33.537  33.794  1.00  0.00    -0.744 OA
ENDBRANCH  83  84
ENDBRANCH  51  76
BRANCH  63  88
ATOM     88  C   UNL A   1      43.603  27.395  33.732  1.00  0.00     0.058 A 
ATOM     89  C   UNL A   1      42.928  26.509  34.583  1.00  0.00     0.135 A 
ATOM     90  C   UNL A   1      45.021  27.343  33.782  1.00  0.00     0.135 A 
ATOM     91  F   UNL A   1      41.595  26.381  34.545  1.00  0.00    -0.206 F 
ATOM     92  C   UNL A   1      43.606  25.685  35.477  1.00  0.00     0.059 A 
ATOM     93  C   UNL A   1      45.714  26.470  34.604  1.00  0.00     0.059 A 
ATOM     94  F   UNL A   1      45.787  28.135  33.017  1.00  0.00    -0.206 F 
ATOM     95  C   UNL A   1      44.998  25.670  35.477  1.00  0.00     0.060 A 
BRANCH  95  96
ATOM     96  S   UNL A   1      45.881  24.581  36.600  1.00  0.00     0.124 S 
ATOM     97  O   UNL A   1      44.984  23.430  36.646  1.00  0.00    -0.237 OA
ATOM     98  O   UNL A   1      47.150  24.367  35.910  1.00  0.00    -0.237 OA
ATOM     99  O   UNL A   1      45.968  25.367  37.827  1.00  0.00    -0.744 OA
ENDBRANCH  95  96
ENDBRANCH  63  88
ENDBRANCH  37  38
ENDBRANCH  30  32
ENDBRANCH  29  30
ENDBRANCH  28  29
ENDBRANCH   1  28
TORSDOF 19
ENDMDL
MODEL 2
REMARK VINA RESULT:     -12.6      3.566     10.446
REMARK SMILES Cc1cccc(-c2noc(C[N@@H+](C)Cc3ncccc3C(=O)OCCOC(=O)c3ccc(-c4c5nc(c(-c6c(F)cc(S(=O)(=O)[O-])cc6F)c6ccc([nH]6)c(-c6c(F)cc(S(=O)(=O)[O-])cc6F)c6nc(c(-c7c(F)cc(S(=O)(=O)[O-])cc7F)c7ccc4[nH]7)C=C6)C=C5)cc3)n2)c1
REMARK SMILES IDX 24 1 23 2 21 3 22 4 20 5 15 6 16 7 17 8 19 9 18 10 14 11
REMARK SMILES IDX 12 12 13 13 11 15 10 16 7 17 8 18 95 19 9 20 6 21 1 22 2 23
REMARK SMILES IDX 3 24 96 25 4 26 5 27 25 28 26 29 27 30 28 31 29 32 30 33
REMARK SMILES IDX 94 34 31 35 93 36 32 37 33 38 34 39 87 40 35 41 92 42 86 43
REMARK SMILES IDX 88 44 36 45 91 46 85 47 84 48 37 50 71 51 50 52 70 53 51 54
REMARK SMILES IDX 54 55 69 56 89 57 52 58 53 59 68 61 90 62 55 63 38 64 39 65
REMARK SMILES IDX 48 66 40 67 41 68 47 69 49 70 42 71 43 72 44 73 45 74 46 75
REMARK SMILES IDX 72 76 73 77 82 78 74 79 75 80 81 81 83 82 76 83 77 84 78 85
REMARK SMILES IDX 79 86 80 87 56 88 57 89 66 90 58 91 59 92 65 93 67 94 60 95
REMARK SMILES IDX 61 96 62 97 63 98 64 99
REMARK H PARENT 12 14 88 49 54 60
REMARK Flexibility Score: inf
ROOT
ATOM      1  C   UNL A   1      37.468  22.797  25.434  1.00  0.00     0.275 C 
ENDROOT
BRANCH   1   2
ATOM      2  O   UNL A   1      36.134  22.320  25.749  1.00  0.00    -0.458 OA
BRANCH   2   3
ATOM      3  C   UNL A   1      35.263  22.109  24.738  1.00  0.00     0.340 C 
ATOM      4  O   UNL A   1      35.353  22.599  23.623  1.00  0.00    -0.246 OA
BRANCH   3   5
ATOM      5  C   UNL A   1      34.381  20.955  25.055  1.00  0.00     0.087 A 
ATOM      6  C   UNL A   1      33.085  21.023  25.607  1.00  0.00     0.109 A 
ATOM      7  N   UNL A   1      32.250  19.936  25.581  1.00  0.00    -0.254 NA
ATOM      8  C   UNL A   1      32.716  18.777  25.072  1.00  0.00     0.111 A 
ATOM      9  C   UNL A   1      34.839  19.715  24.582  1.00  0.00     0.019 A 
ATOM     10  C   UNL A   1      34.002  18.607  24.603  1.00  0.00     0.021 A 
BRANCH   6  11
ATOM     11  C   UNL A   1      32.661  22.121  26.576  1.00  0.00     0.320 C 
BRANCH  11  12
ATOM     12  N   UNL A   1      31.719  23.186  26.192  1.00  0.00    -0.325 N 
ATOM     13  C   UNL A   1      30.324  22.890  26.464  1.00  0.00     0.333 C 
ATOM     14  H   UNL A   1      31.936  23.945  26.840  1.00  0.00     0.348 HD
BRANCH  12  15
ATOM     15  C   UNL A   1      31.964  23.760  24.869  1.00  0.00     0.364 C 
BRANCH  15  16
ATOM     16  C   UNL A   1      32.517  25.151  24.890  1.00  0.00     0.282 A 
ATOM     17  C   UNL A   1      33.111  27.117  25.304  1.00  0.00     0.202 A 
ATOM     18  N   UNL A   1      33.363  26.989  23.991  1.00  0.00    -0.057 NA
ATOM     19  N   UNL A   1      32.731  25.941  25.916  1.00  0.00    -0.186 NA
ATOM     20  O   UNL A   1      32.912  25.695  23.703  1.00  0.00    -0.333 OA
BRANCH  17  21
ATOM     21  C   UNL A   1      33.268  28.354  26.056  1.00  0.00     0.023 A 
ATOM     22  C   UNL A   1      31.400  31.652  26.505  1.00  0.00     0.044 C 
ATOM     23  C   UNL A   1      32.463  30.599  26.593  1.00  0.00    -0.050 A 
ATOM     24  C   UNL A   1      33.655  30.853  27.281  1.00  0.00     0.003 A 
ATOM     25  C   UNL A   1      32.290  29.357  25.963  1.00  0.00     0.015 A 
ATOM     26  C   UNL A   1      34.637  29.864  27.377  1.00  0.00     0.001 A 
ATOM     27  C   UNL A   1      34.437  28.613  26.784  1.00  0.00     0.012 A 
ENDBRANCH  17  21
ENDBRANCH  15  16
ENDBRANCH  12  15
ENDBRANCH  11  12
ENDBRANCH   6  11
ENDBRANCH   3   5
ENDBRANCH   2   3
ENDBRANCH   1   2
BRANCH   1  28
ATOM     28  C   UNL A   1      38.622  21.836  25.798  1.00  0.00     0.275 C 
BRANCH  28  29
ATOM     29  O   UNL A   1      39.434  22.229  26.912  1.00  0.00    -0.458 OA
BRANCH  29  30
ATOM     30  C   UNL A   1      40.602  22.811  26.556  1.00  0.00     0.338 C 
ATOM     31  O   UNL A   1      41.406  22.376  25.744  1.00  0.00    -0.246 OA
BRANCH  30  32
ATOM     32  C   UNL A   1      40.513  24.235  26.919  1.00  0.00     0.060 A 
ATOM     33  C   UNL A   1      40.701  25.300  26.029  1.00  0.00     0.016 A 
ATOM     34  C   UNL A   1      39.964  24.470  28.181  1.00  0.00     0.016 A 
ATOM     35  C   UNL A   1      40.465  26.592  26.487  1.00  0.00     0.010 A 
ATOM     36  C   UNL A   1      39.395  25.657  28.479  1.00  0.00     0.010 A 
ATOM     37  C   UNL A   1      39.889  26.726  27.756  1.00  0.00    -0.014 A 
BRANCH  37  38
ATOM     38  C   UNL A   1      40.359  27.692  28.741  1.00  0.00     0.031 A 
ATOM     39  C   UNL A   1      39.465  28.819  28.984  1.00  0.00     0.074 A 
ATOM     40  C   UNL A   1      41.407  27.227  29.469  1.00  0.00     0.049 A 
ATOM     41  N   UNL A   1      39.683  30.036  28.608  1.00  0.00    -0.248 NA
ATOM     42  C   UNL A   1      38.104  28.603  29.505  1.00  0.00     0.031 C 
ATOM     43  C   UNL A   1      42.026  27.685  30.693  1.00  0.00     0.029 A 
ATOM     44  N   UNL A   1      42.218  26.143  29.100  1.00  0.00    -0.354 N 
ATOM     45  C   UNL A   1      38.737  30.758  29.305  1.00  0.00     0.074 A 
ATOM     46  C   UNL A   1      37.628  29.849  29.506  1.00  0.00     0.031 C 
ATOM     47  C   UNL A   1      43.258  27.136  30.780  1.00  0.00     0.029 A 
ATOM     48  C   UNL A   1      43.496  26.270  29.623  1.00  0.00     0.049 A 
ATOM     49  H   UNL A   1      41.920  25.390  28.542  1.00  0.00     0.167 HD
ATOM     50  C   UNL A   1      39.135  31.694  30.223  1.00  0.00     0.037 A 
ATOM     51  C   UNL A   1      44.493  26.401  28.700  1.00  0.00     0.037 A 
ATOM     52  C   UNL A   1      40.579  31.574  30.470  1.00  0.00     0.049 A 
ATOM     53  C   UNL A   1      44.729  27.865  28.405  1.00  0.00     0.074 A 
ATOM     54  C   UNL A   1      41.292  31.035  31.530  1.00  0.00     0.029 A 
ATOM     55  N   UNL A   1      41.489  31.674  29.418  1.00  0.00    -0.354 N 
ATOM     56  N   UNL A   1      43.907  28.817  28.764  1.00  0.00    -0.248 NA
ATOM     57  C   UNL A   1      45.944  28.388  27.792  1.00  0.00     0.031 C 
ATOM     58  C   UNL A   1      42.622  30.790  31.100  1.00  0.00     0.029 A 
ATOM     59  C   UNL A   1      42.719  31.141  29.766  1.00  0.00     0.049 A 
ATOM     60  H   UNL A   1      41.284  32.072  28.541  1.00  0.00     0.167 HD
ATOM     61  C   UNL A   1      44.461  30.038  28.506  1.00  0.00     0.074 A 
ATOM     62  C   UNL A   1      45.741  29.714  27.897  1.00  0.00     0.031 C 
ATOM     63  C   UNL A   1      43.844  31.211  28.841  1.00  0.00     0.037 A 
BRANCH  50  64
ATOM     64  C   UNL A   1      38.138  32.345  31.164  1.00  0.00     0.058 A 
ATOM     65  C   UNL A   1      37.715  31.726  32.356  1.00  0.00     0.135 A 
ATOM     66  C   UNL A   1      37.592  33.631  30.936  1.00  0.00     0.135 A 
ATOM     67  F   UNL A   1      38.218  30.552  32.754  1.00  0.00    -0.206 F 
ATOM     68  C   UNL A   1      36.768  32.297  33.210  1.00  0.00     0.059 A 
ATOM     69  C   UNL A   1      36.609  34.201  31.749  1.00  0.00     0.059 A 
ATOM     70  F   UNL A   1      38.020  34.395  29.917  1.00  0.00    -0.206 F 
ATOM     71  C   UNL A   1      36.209  33.528  32.893  1.00  0.00     0.060 A 
BRANCH  71  72
ATOM     72  S   UNL A   1      35.010  34.254  34.027  1.00  0.00     0.124 S 
ATOM     73  O   UNL A   1      35.519  33.830  35.328  1.00  0.00    -0.237 OA
ATOM     74  O   UNL A   1      35.138  35.676  33.726  1.00  0.00    -0.237 OA
ATOM     75  O   UNL A   1      33.748  33.640  33.626  1.00  0.00    -0.744 OA
ENDBRANCH  71  72
ENDBRANCH  50  64
BRANCH  51  76
ATOM     76  C   UNL A   1      44.592  25.217  27.777  1.00  0.00     0.058 A 
ATOM     77  C   UNL A   1      44.220  25.444  26.431  1.00  0.00     0.135 A 
ATOM     78  C   UNL A   1      45.280  24.019  28.029  1.00  0.00     0.135 A 
ATOM     79  F   UNL A   1      43.524  26.547  26.112  1.00  0.00    -0.206 F 
ATOM     80  C   UNL A   1      44.616  24.617  25.382  1.00  0.00     0.059 A 
ATOM     81  C   UNL A   1      45.677  23.156  26.985  1.00  0.00     0.059 A 
ATOM     82  F   UNL A   1      45.662  23.708  29.276  1.00  0.00    -0.206 F 
ATOM     83  C   UNL A   1      45.381  23.492  25.661  1.00  0.00     0.060 A 
BRANCH  83  84
ATOM     84  S   UNL A   1      46.062  22.577  24.249  1.00  0.00     0.124 S 
ATOM     85  O   UNL A   1      46.629  21.400  24.900  1.00  0.00    -0.237 OA
ATOM     86  O   UNL A   1      44.860  22.330  23.455  1.00  0.00    -0.237 OA
ATOM     87  O   UNL A   1      47.031  23.510  23.693  1.00  0.00    -0.744 OA
ENDBRANCH  83  84
ENDBRANCH  51  76
BRANCH  63  88
ATOM     88  C   UNL A   1      44.304  32.582  28.422  1.00  0.00     0.058 A 
ATOM     89  C   UNL A   1      44.938  33.489  29.283  1.00  0.00     0.135 A 
ATOM     90  C   UNL A   1      44.251  32.959  27.055  1.00  0.00     0.135 A 
ATOM     91  F   UNL A   1      45.154  33.196  30.573  1.00  0.00    -0.206 F 
ATOM     92  C   UNL A   1      45.415  34.718  28.837  1.00  0.00     0.059 A 
ATOM     93  C   UNL A   1      44.795  34.141  26.578  1.00  0.00     0.059 A 
ATOM     94  F   UNL A   1      43.678  32.181  26.126  1.00  0.00    -0.206 F 
ATOM     95  C   UNL A   1      45.342  35.033  27.483  1.00  0.00     0.060 A 
BRANCH  95  96
ATOM     96  S   UNL A   1      45.991  36.601  26.893  1.00  0.00     0.124 S 
ATOM     97  O   UNL A   1      44.760  37.316  26.573  1.00  0.00    -0.237 OA
ATOM     98  O   UNL A   1      46.731  37.099  28.050  1.00  0.00    -0.237 OA
ATOM     99  O   UNL A   1      46.814  36.212  25.752  1.00  0.00    -0.744 OA
ENDBRANCH  95  96
ENDBRANCH  63  88
ENDBRANCH  37  38
ENDBRANCH  30  32
ENDBRANCH  29  30
ENDBRANCH  28  29
ENDBRANCH   1  28
TORSDOF 19
ENDMDL
MODEL 3
REMARK VINA RESULT:     -12.4      3.423     10.310
REMARK SMILES Cc1cccc(-c2noc(C[N@@H+](C)Cc3ncccc3C(=O)OCCOC(=O)c3ccc(-c4c5nc(c(-c6c(F)cc(S(=O)(=O)[O-])cc6F)c6ccc([nH]6)c(-c6c(F)cc(S(=O)(=O)[O-])cc6F)c6nc(c(-c7c(F)cc(S(=O)(=O)[O-])cc7F)c7ccc4[nH]7)C=C6)C=C5)cc3)n2)c1
REMARK SMILES IDX 24 1 23 2 21 3 22 4 20 5 15 6 16 7 17 8 19 9 18 10 14 11
REMARK SMILES IDX 12 12 13 13 11 15 10 16 7 17 8 18 95 19 9 20 6 21 1 22 2 23
REMARK SMILES IDX 3 24 96 25 4 26 5 27 25 28 26 29 27 30 28 31 29 32 30 33
REMARK SMILES IDX 94 34 31 35 93 36 32 37 33 38 34 39 87 40 35 41 92 42 86 43
REMARK SMILES IDX 88 44 36 45 91 46 85 47 84 48 37 50 71 51 50 52 70 53 51 54
REMARK SMILES IDX 54 55 69 56 89 57 52 58 53 59 68 61 90 62 55 63 38 64 39 65
REMARK SMILES IDX 48 66 40 67 41 68 47 69 49 70 42 71 43 72 44 73 45 74 46 75
REMARK SMILES IDX 72 76 73 77 82 78 74 79 75 80 81 81 83 82 76 83 77 84 78 85
REMARK SMILES IDX 79 86 80 87 56 88 57 89 66 90 58 91 59 92 65 93 67 94 60 95
REMARK SMILES IDX 61 96 62 97 63 98 64 99
REMARK H PARENT 12 14 88 49 54 60
REMARK Flexibility Score: inf
ROOT
ATOM      1  C   UNL A   1      37.546  22.408  25.760  1.00  0.00     0.275 C 
ENDROOT
BRANCH   1   2
ATOM      2  O   UNL A   1      36.817  22.038  24.561  1.00  0.00    -0.458 OA
BRANCH   2   3
ATOM      3  C   UNL A   1      36.241  23.013  23.823  1.00  0.00     0.340 C 
ATOM      4  O   UNL A   1      36.507  23.257  22.656  1.00  0.00    -0.246 OA
BRANCH   3   5
ATOM      5  C   UNL A   1      35.024  23.523  24.507  1.00  0.00     0.087 A 
ATOM      6  C   UNL A   1      33.828  22.808  24.723  1.00  0.00     0.109 A 
ATOM      7  N   UNL A   1      32.889  23.259  25.614  1.00  0.00    -0.254 NA
ATOM      8  C   UNL A   1      33.103  24.437  26.236  1.00  0.00     0.111 A 
ATOM      9  C   UNL A   1      35.179  24.768  25.137  1.00  0.00     0.019 A 
ATOM     10  C   UNL A   1      34.201  25.239  26.002  1.00  0.00     0.021 A 
BRANCH   6  11
ATOM     11  C   UNL A   1      33.320  21.743  23.758  1.00  0.00     0.320 C 
BRANCH  11  12
ATOM     12  N   UNL A   1      32.494  22.076  22.584  1.00  0.00    -0.325 N 
ATOM     13  C   UNL A   1      31.740  20.964  22.037  1.00  0.00     0.333 C 
ATOM     14  H   UNL A   1      31.775  22.694  22.963  1.00  0.00     0.348 HD
BRANCH  12  15
ATOM     15  C   UNL A   1      33.176  22.891  21.579  1.00  0.00     0.364 C 
BRANCH  15  16
ATOM     16  C   UNL A   1      32.929  24.361  21.702  1.00  0.00     0.282 A 
ATOM     17  C   UNL A   1      32.319  26.306  22.187  1.00  0.00     0.202 A 
ATOM     18  N   UNL A   1      32.953  26.466  21.013  1.00  0.00    -0.057 NA
ATOM     19  N   UNL A   1      32.426  25.034  22.709  1.00  0.00    -0.186 NA
ATOM     20  O   UNL A   1      33.310  25.158  20.661  1.00  0.00    -0.333 OA
BRANCH  17  21
ATOM     21  C   UNL A   1      31.622  27.369  22.897  1.00  0.00     0.023 A 
ATOM     22  C   UNL A   1      28.472  29.479  22.453  1.00  0.00     0.044 C 
ATOM     23  C   UNL A   1      29.773  28.966  22.993  1.00  0.00    -0.050 A 
ATOM     24  C   UNL A   1      30.379  29.589  24.090  1.00  0.00     0.003 A 
ATOM     25  C   UNL A   1      30.415  27.874  22.388  1.00  0.00     0.015 A 
ATOM     26  C   UNL A   1      31.582  29.098  24.603  1.00  0.00     0.001 A 
ATOM     27  C   UNL A   1      32.191  27.981  24.022  1.00  0.00     0.012 A 
ENDBRANCH  17  21
ENDBRANCH  15  16
ENDBRANCH  12  15
ENDBRANCH  11  12
ENDBRANCH   6  11
ENDBRANCH   3   5
ENDBRANCH   2   3
ENDBRANCH   1   2
BRANCH   1  28
ATOM     28  C   UNL A   1      38.888  21.673  25.976  1.00  0.00     0.275 C 
BRANCH  28  29
ATOM     29  O   UNL A   1      39.733  22.206  27.004  1.00  0.00    -0.458 OA
BRANCH  29  30
ATOM     30  C   UNL A   1      40.815  22.866  26.531  1.00  0.00     0.338 C 
ATOM     31  O   UNL A   1      41.559  22.485  25.638  1.00  0.00    -0.246 OA
BRANCH  30  32
ATOM     32  C   UNL A   1      40.667  24.282  26.907  1.00  0.00     0.060 A 
ATOM     33  C   UNL A   1      40.772  25.359  26.019  1.00  0.00     0.016 A 
ATOM     34  C   UNL A   1      40.148  24.481  28.187  1.00  0.00     0.016 A 
ATOM     35  C   UNL A   1      40.486  26.636  26.493  1.00  0.00     0.010 A 
ATOM     36  C   UNL A   1      39.531  25.637  28.513  1.00  0.00     0.010 A 
ATOM     37  C   UNL A   1      39.946  26.734  27.782  1.00  0.00    -0.014 A 
BRANCH  37  38
ATOM     38  C   UNL A   1      40.399  27.716  28.758  1.00  0.00     0.031 A 
ATOM     39  C   UNL A   1      39.477  28.820  29.004  1.00  0.00     0.074 A 
ATOM     40  C   UNL A   1      41.467  27.283  29.477  1.00  0.00     0.049 A 
ATOM     41  N   UNL A   1      39.659  30.040  28.621  1.00  0.00    -0.248 NA
ATOM     42  C   UNL A   1      38.128  28.570  29.539  1.00  0.00     0.031 C 
ATOM     43  C   UNL A   1      42.084  27.764  30.693  1.00  0.00     0.029 A 
ATOM     44  N   UNL A   1      42.304  26.220  29.105  1.00  0.00    -0.354 N 
ATOM     45  C   UNL A   1      38.701  30.740  29.324  1.00  0.00     0.074 A 
ATOM     46  C   UNL A   1      37.619  29.802  29.540  1.00  0.00     0.031 C 
ATOM     47  C   UNL A   1      43.332  27.249  30.771  1.00  0.00     0.029 A 
ATOM     48  C   UNL A   1      43.582  26.384  29.615  1.00  0.00     0.049 A 
ATOM     49  H   UNL A   1      42.020  25.456  28.554  1.00  0.00     0.167 HD
ATOM     50  C   UNL A   1      39.082  31.690  30.233  1.00  0.00     0.037 A 
ATOM     51  C   UNL A   1      44.566  26.538  28.682  1.00  0.00     0.037 A 
ATOM     52  C   UNL A   1      40.531  31.611  30.467  1.00  0.00     0.049 A 
ATOM     53  C   UNL A   1      44.760  28.006  28.379  1.00  0.00     0.074 A 
ATOM     54  C   UNL A   1      41.268  31.097  31.523  1.00  0.00     0.029 A 
ATOM     55  N   UNL A   1      41.428  31.731  29.406  1.00  0.00    -0.354 N 
ATOM     56  N   UNL A   1      43.916  28.937  28.741  1.00  0.00    -0.248 NA
ATOM     57  C   UNL A   1      45.954  28.559  27.752  1.00  0.00     0.031 C 
ATOM     58  C   UNL A   1      42.601  30.885  31.081  1.00  0.00     0.029 A 
ATOM     59  C   UNL A   1      42.675  31.233  29.745  1.00  0.00     0.049 A 
ATOM     60  H   UNL A   1      41.203  32.119  28.530  1.00  0.00     0.167 HD
ATOM     61  C   UNL A   1      44.434  30.172  28.472  1.00  0.00     0.074 A 
ATOM     62  C   UNL A   1      45.716  29.880  27.853  1.00  0.00     0.031 C 
ATOM     63  C   UNL A   1      43.789  31.329  28.808  1.00  0.00     0.037 A 
BRANCH  50  64
ATOM     64  C   UNL A   1      38.076  32.319  31.182  1.00  0.00     0.058 A 
ATOM     65  C   UNL A   1      37.371  33.493  30.858  1.00  0.00     0.135 A 
ATOM     66  C   UNL A   1      37.745  31.752  32.436  1.00  0.00     0.135 A 
ATOM     67  F   UNL A   1      37.505  34.088  29.667  1.00  0.00    -0.206 F 
ATOM     68  C   UNL A   1      36.472  34.102  31.737  1.00  0.00     0.059 A 
ATOM     69  C   UNL A   1      36.887  32.368  33.352  1.00  0.00     0.059 A 
ATOM     70  F   UNL A   1      38.231  30.556  32.807  1.00  0.00    -0.206 F 
ATOM     71  C   UNL A   1      36.246  33.542  32.988  1.00  0.00     0.060 A 
BRANCH  71  72
ATOM     72  S   UNL A   1      35.062  34.334  34.093  1.00  0.00     0.124 S 
ATOM     73  O   UNL A   1      35.561  33.949  35.410  1.00  0.00    -0.237 OA
ATOM     74  O   UNL A   1      35.219  35.741  33.739  1.00  0.00    -0.237 OA
ATOM     75  O   UNL A   1      33.788  33.730  33.714  1.00  0.00    -0.744 OA
ENDBRANCH  71  72
ENDBRANCH  50  64
BRANCH  51  76
ATOM     76  C   UNL A   1      44.688  25.352  27.763  1.00  0.00     0.058 A 
ATOM     77  C   UNL A   1      44.297  25.563  26.420  1.00  0.00     0.135 A 
ATOM     78  C   UNL A   1      45.412  24.176  28.013  1.00  0.00     0.135 A 
ATOM     79  F   UNL A   1      43.567  26.645  26.104  1.00  0.00    -0.206 F 
ATOM     80  C   UNL A   1      44.704  24.742  25.371  1.00  0.00     0.059 A 
ATOM     81  C   UNL A   1      45.822  23.319  26.969  1.00  0.00     0.059 A 
ATOM     82  F   UNL A   1      45.815  23.881  29.258  1.00  0.00    -0.206 F 
ATOM     83  C   UNL A   1      45.504  23.640  25.647  1.00  0.00     0.060 A 
BRANCH  83  84
ATOM     84  S   UNL A   1      46.194  22.737  24.232  1.00  0.00     0.124 S 
ATOM     85  O   UNL A   1      45.019  22.560  23.386  1.00  0.00    -0.237 OA
ATOM     86  O   UNL A   1      47.183  23.690  23.732  1.00  0.00    -0.237 OA
ATOM     87  O   UNL A   1      46.711  21.521  24.844  1.00  0.00    -0.744 OA
ENDBRANCH  83  84
ENDBRANCH  51  76
BRANCH  63  88
ATOM     88  C   UNL A   1      44.208  32.710  28.379  1.00  0.00     0.058 A 
ATOM     89  C   UNL A   1      44.116  33.178  27.060  1.00  0.00     0.135 A 
ATOM     90  C   UNL A   1      44.578  33.672  29.354  1.00  0.00     0.135 A 
ATOM     91  F   UNL A   1      43.665  32.397  26.069  1.00  0.00    -0.206 F 
ATOM     92  C   UNL A   1      44.445  34.487  26.719  1.00  0.00     0.059 A 
ATOM     93  C   UNL A   1      44.827  35.000  29.045  1.00  0.00     0.059 A 
ATOM     94  F   UNL A   1      44.697  33.357  30.652  1.00  0.00    -0.206 F 
ATOM     95  C   UNL A   1      44.795  35.391  27.718  1.00  0.00     0.060 A 
BRANCH  95  96
ATOM     96  S   UNL A   1      45.182  37.092  27.291  1.00  0.00     0.124 S 
ATOM     97  O   UNL A   1      43.896  37.557  26.780  1.00  0.00    -0.237 OA
ATOM     98  O   UNL A   1      45.597  37.659  28.571  1.00  0.00    -0.237 OA
ATOM     99  O   UNL A   1      46.245  36.953  26.301  1.00  0.00    -0.744 OA
ENDBRANCH  95  96
ENDBRANCH  63  88
ENDBRANCH  37  38
ENDBRANCH  30  32
ENDBRANCH  29  30
ENDBRANCH  28  29
ENDBRANCH   1  28
TORSDOF 19
ENDMDL
