MODEL 1
REMARK VINA RESULT:     -12.1      0.000      0.000
REMARK SMILES C[C@@H]1CC[C@H](C)[N@H+]1Cc1cc2c(cc1Cl)C=C(C(=O)OCCOC(=O)c1ccc(-c3c4nc(c(-c5c(F)cc(S(=O)(=O)[O-])cc5F)c5ccc([nH]5)c(-c5c(F)cc(S(=O)(=O)[O-])cc5F)c5nc(c(-c6c(F)cc(S(=O)(=O)[O-])cc6F)c6ccc3[nH]6)C=C5)C=C4)cc1)[C@@H](C(F)(F)F)O2
REMARK SMILES IDX 22 1 21 2 20 3 18 4 19 5 17 6 9 7 10 8 14 9 11 10 13 11
REMARK SMILES IDX 15 12 12 13 97 14 16 15 92 16 8 17 7 18 6 19 5 20 4 21 3 22
REMARK SMILES IDX 2 23 1 25 93 26 94 27 95 28 96 29 23 30 24 31 25 32 26 33
REMARK SMILES IDX 27 34 91 35 28 36 90 37 29 38 30 39 31 40 84 41 32 42 89 43
REMARK SMILES IDX 83 44 85 45 33 46 88 47 82 48 81 49 34 51 68 52 47 53 67 54
REMARK SMILES IDX 48 55 51 56 66 57 86 58 49 59 50 60 65 62 87 63 52 64 35 65
REMARK SMILES IDX 36 66 45 67 37 68 38 69 44 70 46 71 39 72 40 73 41 74 42 75
REMARK SMILES IDX 43 76 69 77 70 78 79 79 71 80 72 81 78 82 80 83 73 84 74 85
REMARK SMILES IDX 75 86 76 87 77 88 53 89 54 90 63 91 55 92 56 93 62 94 64 95
REMARK SMILES IDX 57 96 58 97 59 98 60 99 61 100
REMARK H PARENT 7 24 85 50 51 61
REMARK Flexibility Score: inf
ROOT
ATOM      1  C   UNL A   1      37.802  20.876  24.980  1.00  0.00     0.275 C 
ENDROOT
BRANCH   1   2
ATOM      2  C   UNL A   1      36.278  20.755  25.069  1.00  0.00     0.275 C 
BRANCH   2   3
ATOM      3  O   UNL A   1      35.606  21.772  24.292  1.00  0.00    -0.459 OA
BRANCH   3   4
ATOM      4  C   UNL A   1      35.041  22.752  25.033  1.00  0.00     0.338 C 
ATOM      5  O   UNL A   1      35.093  22.852  26.250  1.00  0.00    -0.246 OA
BRANCH   4   6
ATOM      6  C   UNL A   1      34.362  23.758  24.200  1.00  0.00     0.087 C 
ATOM      7  C   UNL A   1      31.786  27.939  23.108  1.00  0.00     0.029 A 
ATOM      8  C   UNL A   1      32.022  26.727  22.404  1.00  0.00     0.058 A 
ATOM      9  C   UNL A   1      32.295  28.052  24.411  1.00  0.00     0.050 A 
ATOM     10  C   UNL A   1      32.818  25.717  22.952  1.00  0.00     0.128 A 
ATOM     11  C   UNL A   1      33.200  27.115  24.889  1.00  0.00     0.033 A 
ATOM     12  Cl  UNL A   1      31.760  29.229  25.555  1.00  0.00    -0.084 Cl
ATOM     13  C   UNL A   1      33.473  25.968  24.148  1.00  0.00     0.019 A 
ATOM     14  O   UNL A   1      32.952  24.524  22.286  1.00  0.00    -0.475 OA
ATOM     15  C   UNL A   1      34.391  25.000  24.685  1.00  0.00     0.027 C 
ATOM     16  C   UNL A   1      33.468  23.378  23.057  1.00  0.00     0.316 C 
BRANCH   7  17
ATOM     17  C   UNL A   1      31.024  29.068  22.432  1.00  0.00     0.301 C 
BRANCH  17  18
ATOM     18  N   UNL A   1      29.691  29.401  22.972  1.00  0.00    -0.327 N 
ATOM     19  C   UNL A   1      28.463  27.411  23.766  1.00  0.00     0.075 C 
ATOM     20  C   UNL A   1      28.611  28.450  22.663  1.00  0.00     0.181 C 
ATOM     21  C   UNL A   1      27.350  29.302  22.518  1.00  0.00     0.071 C 
ATOM     22  C   UNL A   1      27.887  30.609  21.978  1.00  0.00     0.071 C 
ATOM     23  C   UNL A   1      29.212  30.768  22.713  1.00  0.00     0.181 C 
ATOM     24  H   UNL A   1      29.897  29.325  23.968  1.00  0.00     0.348 HD
ATOM     25  C   UNL A   1      29.053  31.511  24.039  1.00  0.00     0.075 C 
ENDBRANCH  17  18
ENDBRANCH   7  17
BRANCH  16  26
ATOM     26  C   UNL A   1      32.317  22.480  23.537  1.00  0.00     0.430 C 
ATOM     27  F   UNL A   1      31.941  22.789  24.801  1.00  0.00    -0.167 F 
ATOM     28  F   UNL A   1      31.215  22.641  22.760  1.00  0.00    -0.167 F 
ATOM     29  F   UNL A   1      32.637  21.168  23.516  1.00  0.00    -0.167 F 
ENDBRANCH  16  26
ENDBRANCH   4   6
ENDBRANCH   3   4
ENDBRANCH   2   3
ENDBRANCH   1   2
BRANCH   1  30
ATOM     30  O   UNL A   1      38.285  22.005  25.733  1.00  0.00    -0.458 OA
BRANCH  30  31
ATOM     31  C   UNL A   1      39.434  21.792  26.412  1.00  0.00     0.338 C 
ATOM     32  O   UNL A   1      40.066  20.751  26.484  1.00  0.00    -0.246 OA
BRANCH  31  33
ATOM     33  C   UNL A   1      39.902  23.043  27.027  1.00  0.00     0.060 A 
ATOM     34  C   UNL A   1      40.916  23.045  27.978  1.00  0.00     0.016 A 
ATOM     35  C   UNL A   1      39.449  24.244  26.498  1.00  0.00     0.016 A 
ATOM     36  C   UNL A   1      41.461  24.268  28.391  1.00  0.00     0.010 A 
ATOM     37  C   UNL A   1      40.126  25.430  26.762  1.00  0.00     0.010 A 
ATOM     38  C   UNL A   1      41.110  25.477  27.754  1.00  0.00    -0.014 A 
BRANCH  38  39
ATOM     39  C   UNL A   1      41.735  26.780  28.142  1.00  0.00     0.031 A 
ATOM     40  C   UNL A   1      43.170  27.098  27.774  1.00  0.00     0.074 A 
ATOM     41  C   UNL A   1      41.027  27.680  28.858  1.00  0.00     0.049 A 
ATOM     42  N   UNL A   1      43.864  28.185  28.010  1.00  0.00    -0.248 NA
ATOM     43  C   UNL A   1      43.948  26.044  27.101  1.00  0.00     0.031 C 
ATOM     44  C   UNL A   1      39.677  27.471  29.386  1.00  0.00     0.029 A 
ATOM     45  N   UNL A   1      41.333  28.962  29.247  1.00  0.00    -0.354 N 
ATOM     46  C   UNL A   1      45.152  27.926  27.550  1.00  0.00     0.074 A 
ATOM     47  C   UNL A   1      45.169  26.553  27.105  1.00  0.00     0.031 C 
ATOM     48  C   UNL A   1      39.239  28.609  29.946  1.00  0.00     0.029 A 
ATOM     49  C   UNL A   1      40.288  29.619  29.857  1.00  0.00     0.049 A 
ATOM     50  H   UNL A   1      42.217  29.374  29.102  1.00  0.00     0.167 HD
ATOM     51  C   UNL A   1      46.213  28.762  27.451  1.00  0.00     0.037 A 
ATOM     52  C   UNL A   1      40.173  30.895  30.275  1.00  0.00     0.037 A 
ATOM     53  C   UNL A   1      46.173  30.151  27.818  1.00  0.00     0.049 A 
ATOM     54  C   UNL A   1      41.329  31.836  30.084  1.00  0.00     0.074 A 
ATOM     55  C   UNL A   1      47.154  31.112  27.661  1.00  0.00     0.029 A 
ATOM     56  N   UNL A   1      45.084  30.781  28.404  1.00  0.00    -0.354 N 
ATOM     57  N   UNL A   1      42.508  31.595  29.563  1.00  0.00    -0.248 NA
ATOM     58  C   UNL A   1      41.140  33.223  30.533  1.00  0.00     0.031 C 
ATOM     59  C   UNL A   1      46.672  32.317  28.183  1.00  0.00     0.029 A 
ATOM     60  C   UNL A   1      45.376  32.114  28.630  1.00  0.00     0.049 A 
ATOM     61  H   UNL A   1      44.231  30.343  28.626  1.00  0.00     0.167 HD
ATOM     62  C   UNL A   1      43.201  32.799  29.616  1.00  0.00     0.074 A 
ATOM     63  C   UNL A   1      42.301  33.773  30.199  1.00  0.00     0.031 C 
ATOM     64  C   UNL A   1      44.470  33.070  29.221  1.00  0.00     0.037 A 
BRANCH  51  65
ATOM     65  C   UNL A   1      47.493  28.200  26.886  1.00  0.00     0.058 A 
ATOM     66  C   UNL A   1      48.566  27.833  27.715  1.00  0.00     0.135 A 
ATOM     67  C   UNL A   1      47.651  28.022  25.501  1.00  0.00     0.135 A 
ATOM     68  F   UNL A   1      48.477  27.991  29.046  1.00  0.00    -0.206 F 
ATOM     69  C   UNL A   1      49.766  27.361  27.193  1.00  0.00     0.059 A 
ATOM     70  C   UNL A   1      48.832  27.519  24.958  1.00  0.00     0.059 A 
ATOM     71  F   UNL A   1      46.658  28.347  24.660  1.00  0.00    -0.206 F 
ATOM     72  C   UNL A   1      49.891  27.212  25.811  1.00  0.00     0.060 A 
BRANCH  72  73
ATOM     73  S   UNL A   1      51.462  26.614  25.151  1.00  0.00     0.124 S 
ATOM     74  O   UNL A   1      51.248  26.760  23.715  1.00  0.00    -0.237 OA
ATOM     75  O   UNL A   1      52.421  27.539  25.745  1.00  0.00    -0.237 OA
ATOM     76  O   UNL A   1      51.534  25.240  25.639  1.00  0.00    -0.744 OA
ENDBRANCH  72  73
ENDBRANCH  51  65
BRANCH  52  77
ATOM     77  C   UNL A   1      38.878  31.361  30.840  1.00  0.00     0.058 A 
ATOM     78  C   UNL A   1      38.694  31.449  32.228  1.00  0.00     0.135 A 
ATOM     79  C   UNL A   1      37.837  31.810  30.013  1.00  0.00     0.135 A 
ATOM     80  F   UNL A   1      39.657  31.023  33.060  1.00  0.00    -0.206 F 
ATOM     81  C   UNL A   1      37.533  31.982  32.777  1.00  0.00     0.059 A 
ATOM     82  C   UNL A   1      36.675  32.367  30.539  1.00  0.00     0.059 A 
ATOM     83  F   UNL A   1      37.971  31.761  28.679  1.00  0.00    -0.206 F 
ATOM     84  C   UNL A   1      36.534  32.453  31.924  1.00  0.00     0.060 A 
BRANCH  84  85
ATOM     85  S   UNL A   1      35.084  33.250  32.650  1.00  0.00     0.124 S 
ATOM     86  O   UNL A   1      33.995  32.554  31.976  1.00  0.00    -0.237 OA
ATOM     87  O   UNL A   1      35.252  32.950  34.069  1.00  0.00    -0.237 OA
ATOM     88  O   UNL A   1      35.256  34.654  32.289  1.00  0.00    -0.744 OA
ENDBRANCH  84  85
ENDBRANCH  52  77
BRANCH  64  89
ATOM     89  C   UNL A   1      44.973  34.472  29.409  1.00  0.00     0.058 A 
ATOM     90  C   UNL A   1      44.779  35.454  28.427  1.00  0.00     0.135 A 
ATOM     91  C   UNL A   1      45.580  34.857  30.616  1.00  0.00     0.135 A 
ATOM     92  F   UNL A   1      44.208  35.134  27.255  1.00  0.00    -0.206 F 
ATOM     93  C   UNL A   1      45.178  36.771  28.629  1.00  0.00     0.059 A 
ATOM     94  C   UNL A   1      45.965  36.174  30.848  1.00  0.00     0.059 A 
ATOM     95  F   UNL A   1      45.778  33.958  31.591  1.00  0.00    -0.206 F 
ATOM     96  C   UNL A   1      45.765  37.122  29.846  1.00  0.00     0.060 A 
BRANCH  96  97
ATOM     97  S   UNL A   1      46.233  38.845  30.111  1.00  0.00     0.124 S 
ATOM     98  O   UNL A   1      45.082  39.551  29.554  1.00  0.00    -0.237 OA
ATOM     99  O   UNL A   1      46.375  38.910  31.562  1.00  0.00    -0.237 OA
ATOM    100  O   UNL A   1      47.475  38.982  29.358  1.00  0.00    -0.744 OA
ENDBRANCH  96  97
ENDBRANCH  64  89
ENDBRANCH  38  39
ENDBRANCH  31  33
ENDBRANCH  30  31
ENDBRANCH   1  30
TORSDOF 17
ENDMDL
MODEL 2
REMARK VINA RESULT:     -12.1      3.495      9.562
REMARK SMILES C[C@@H]1CC[C@H](C)[N@H+]1Cc1cc2c(cc1Cl)C=C(C(=O)OCCOC(=O)c1ccc(-c3c4nc(c(-c5c(F)cc(S(=O)(=O)[O-])cc5F)c5ccc([nH]5)c(-c5c(F)cc(S(=O)(=O)[O-])cc5F)c5nc(c(-c6c(F)cc(S(=O)(=O)[O-])cc6F)c6ccc3[nH]6)C=C5)C=C4)cc1)[C@@H](C(F)(F)F)O2
REMARK SMILES IDX 22 1 21 2 20 3 18 4 19 5 17 6 9 7 10 8 14 9 11 10 13 11
REMARK SMILES IDX 15 12 12 13 97 14 16 15 92 16 8 17 7 18 6 19 5 20 4 21 3 22
REMARK SMILES IDX 2 23 1 25 93 26 94 27 95 28 96 29 23 30 24 31 25 32 26 33
REMARK SMILES IDX 27 34 91 35 28 36 90 37 29 38 30 39 31 40 84 41 32 42 89 43
REMARK SMILES IDX 83 44 85 45 33 46 88 47 82 48 81 49 34 51 68 52 47 53 67 54
REMARK SMILES IDX 48 55 51 56 66 57 86 58 49 59 50 60 65 62 87 63 52 64 35 65
REMARK SMILES IDX 36 66 45 67 37 68 38 69 44 70 46 71 39 72 40 73 41 74 42 75
REMARK SMILES IDX 43 76 69 77 70 78 79 79 71 80 72 81 78 82 80 83 73 84 74 85
REMARK SMILES IDX 75 86 76 87 77 88 53 89 54 90 63 91 55 92 56 93 62 94 64 95
REMARK SMILES IDX 57 96 58 97 59 98 60 99 61 100
REMARK H PARENT 7 24 85 50 51 61
REMARK Flexibility Score: inf
ROOT
ATOM      1  C   UNL A   1      34.650  30.863  28.516  1.00  0.00     0.275 C 
ENDROOT
BRANCH   1   2
ATOM      2  C   UNL A   1      34.056  30.800  27.106  1.00  0.00     0.275 C 
BRANCH   2   3
ATOM      3  O   UNL A   1      32.998  29.820  27.006  1.00  0.00    -0.459 OA
BRANCH   3   4
ATOM      4  C   UNL A   1      33.032  29.079  25.876  1.00  0.00     0.338 C 
ATOM      5  O   UNL A   1      33.314  29.487  24.759  1.00  0.00    -0.246 OA
BRANCH   4   6
ATOM      6  C   UNL A   1      32.728  27.661  26.130  1.00  0.00     0.087 C 
ATOM      7  C   UNL A   1      33.226  22.663  25.858  1.00  0.00     0.029 A 
ATOM      8  C   UNL A   1      32.146  23.518  26.211  1.00  0.00     0.058 A 
ATOM      9  C   UNL A   1      34.422  23.258  25.429  1.00  0.00     0.050 A 
ATOM     10  C   UNL A   1      32.300  24.906  26.224  1.00  0.00     0.128 A 
ATOM     11  C   UNL A   1      34.615  24.623  25.582  1.00  0.00     0.033 A 
ATOM     12  Cl  UNL A   1      35.660  22.417  24.566  1.00  0.00    -0.084 Cl
ATOM     13  C   UNL A   1      33.563  25.433  26.000  1.00  0.00     0.019 A 
ATOM     14  O   UNL A   1      31.214  25.706  26.481  1.00  0.00    -0.475 OA
ATOM     15  C   UNL A   1      33.786  26.849  26.120  1.00  0.00     0.027 C 
ATOM     16  C   UNL A   1      31.325  27.130  26.115  1.00  0.00     0.316 C 
BRANCH   7  17
ATOM     17  C   UNL A   1      33.065  21.155  25.978  1.00  0.00     0.301 C 
BRANCH  17  18
ATOM     18  N   UNL A   1      33.295  20.352  24.761  1.00  0.00    -0.327 N 
ATOM     19  C   UNL A   1      32.550  21.503  22.708  1.00  0.00     0.075 C 
ATOM     20  C   UNL A   1      32.246  20.419  23.732  1.00  0.00     0.181 C 
ATOM     21  C   UNL A   1      32.216  19.031  23.093  1.00  0.00     0.071 C 
ATOM     22  C   UNL A   1      32.615  18.125  24.237  1.00  0.00     0.071 C 
ATOM     23  C   UNL A   1      33.664  18.944  24.977  1.00  0.00     0.181 C 
ATOM     24  H   UNL A   1      34.116  20.839  24.401  1.00  0.00     0.348 HD
ATOM     25  C   UNL A   1      35.074  18.699  24.440  1.00  0.00     0.075 C 
ENDBRANCH  17  18
ENDBRANCH   7  17
BRANCH  16  26
ATOM     26  C   UNL A   1      30.652  27.399  24.759  1.00  0.00     0.430 C 
ATOM     27  F   UNL A   1      31.457  27.049  23.728  1.00  0.00    -0.167 F 
ATOM     28  F   UNL A   1      29.516  26.668  24.623  1.00  0.00    -0.167 F 
ATOM     29  F   UNL A   1      30.319  28.698  24.592  1.00  0.00    -0.167 F 
ENDBRANCH  16  26
ENDBRANCH   4   6
ENDBRANCH   3   4
ENDBRANCH   2   3
ENDBRANCH   1   2
BRANCH   1  30
ATOM     30  O   UNL A   1      35.542  29.759  28.761  1.00  0.00    -0.458 OA
BRANCH  30  31
ATOM     31  C   UNL A   1      36.319  29.883  29.860  1.00  0.00     0.338 C 
ATOM     32  O   UNL A   1      35.948  30.007  31.016  1.00  0.00    -0.246 OA
BRANCH  31  33
ATOM     33  C   UNL A   1      37.739  29.772  29.496  1.00  0.00     0.060 A 
ATOM     34  C   UNL A   1      38.694  29.373  30.424  1.00  0.00     0.016 A 
ATOM     35  C   UNL A   1      38.083  29.884  28.155  1.00  0.00     0.016 A 
ATOM     36  C   UNL A   1      39.995  29.094  29.986  1.00  0.00     0.010 A 
ATOM     37  C   UNL A   1      39.313  29.416  27.703  1.00  0.00     0.010 A 
ATOM     38  C   UNL A   1      40.314  29.063  28.612  1.00  0.00    -0.014 A 
BRANCH  38  39
ATOM     39  C   UNL A   1      41.684  28.702  28.130  1.00  0.00     0.031 A 
ATOM     40  C   UNL A   1      42.800  29.728  28.111  1.00  0.00     0.074 A 
ATOM     41  C   UNL A   1      41.932  27.456  27.675  1.00  0.00     0.049 A 
ATOM     42  N   UNL A   1      44.051  29.583  27.748  1.00  0.00    -0.248 NA
ATOM     43  C   UNL A   1      42.461  31.108  28.500  1.00  0.00     0.031 C 
ATOM     44  C   UNL A   1      40.934  26.395  27.522  1.00  0.00     0.029 A 
ATOM     45  N   UNL A   1      43.105  26.859  27.278  1.00  0.00    -0.354 N 
ATOM     46  C   UNL A   1      44.623  30.850  27.830  1.00  0.00     0.074 A 
ATOM     47  C   UNL A   1      43.567  31.765  28.189  1.00  0.00     0.031 C 
ATOM     48  C   UNL A   1      41.548  25.259  27.156  1.00  0.00     0.029 A 
ATOM     49  C   UNL A   1      42.976  25.516  27.005  1.00  0.00     0.049 A 
ATOM     50  H   UNL A   1      43.958  27.346  27.198  1.00  0.00     0.167 HD
ATOM     51  C   UNL A   1      45.918  31.218  27.677  1.00  0.00     0.037 A 
ATOM     52  C   UNL A   1      43.902  24.587  26.692  1.00  0.00     0.037 A 
ATOM     53  C   UNL A   1      46.985  30.295  27.399  1.00  0.00     0.049 A 
ATOM     54  C   UNL A   1      45.346  24.992  26.608  1.00  0.00     0.074 A 
ATOM     55  C   UNL A   1      48.343  30.544  27.330  1.00  0.00     0.029 A 
ATOM     56  N   UNL A   1      46.812  28.940  27.159  1.00  0.00    -0.354 N 
ATOM     57  N   UNL A   1      45.879  26.178  26.779  1.00  0.00    -0.248 NA
ATOM     58  C   UNL A   1      46.317  23.934  26.292  1.00  0.00     0.031 C 
ATOM     59  C   UNL A   1      48.990  29.345  27.014  1.00  0.00     0.029 A 
ATOM     60  C   UNL A   1      48.038  28.342  26.925  1.00  0.00     0.049 A 
ATOM     61  H   UNL A   1      45.945  28.473  27.156  1.00  0.00     0.167 HD
ATOM     62  C   UNL A   1      47.247  26.011  26.597  1.00  0.00     0.074 A 
ATOM     63  C   UNL A   1      47.463  24.604  26.325  1.00  0.00     0.031 C 
ATOM     64  C   UNL A   1      48.234  26.940  26.646  1.00  0.00     0.037 A 
BRANCH  51  65
ATOM     65  C   UNL A   1      46.252  32.679  27.848  1.00  0.00     0.058 A 
ATOM     66  C   UNL A   1      46.768  33.181  29.055  1.00  0.00     0.135 A 
ATOM     67  C   UNL A   1      46.060  33.589  26.795  1.00  0.00     0.135 A 
ATOM     68  F   UNL A   1      46.963  32.360  30.100  1.00  0.00    -0.206 F 
ATOM     69  C   UNL A   1      47.031  34.535  29.230  1.00  0.00     0.059 A 
ATOM     70  C   UNL A   1      46.348  34.945  26.937  1.00  0.00     0.059 A 
ATOM     71  F   UNL A   1      45.578  33.167  25.616  1.00  0.00    -0.206 F 
ATOM     72  C   UNL A   1      46.813  35.411  28.166  1.00  0.00     0.060 A 
BRANCH  72  73
ATOM     73  S   UNL A   1      47.144  37.168  28.420  1.00  0.00     0.124 S 
ATOM     74  O   UNL A   1      48.107  37.127  29.516  1.00  0.00    -0.237 OA
ATOM     75  O   UNL A   1      47.677  37.574  27.124  1.00  0.00    -0.237 OA
ATOM     76  O   UNL A   1      45.833  37.716  28.755  1.00  0.00    -0.744 OA
ENDBRANCH  72  73
ENDBRANCH  51  65
BRANCH  52  77
ATOM     77  C   UNL A   1      43.481  23.171  26.521  1.00  0.00     0.058 A 
ATOM     78  C   UNL A   1      43.538  22.556  25.262  1.00  0.00     0.135 A 
ATOM     79  C   UNL A   1      43.103  22.381  27.617  1.00  0.00     0.135 A 
ATOM     80  F   UNL A   1      43.886  23.271  24.181  1.00  0.00    -0.206 F 
ATOM     81  C   UNL A   1      43.254  21.204  25.096  1.00  0.00     0.059 A 
ATOM     82  C   UNL A   1      42.833  21.022  27.481  1.00  0.00     0.059 A 
ATOM     83  F   UNL A   1      43.047  22.919  28.845  1.00  0.00    -0.206 F 
ATOM     84  C   UNL A   1      42.916  20.441  26.215  1.00  0.00     0.060 A 
BRANCH  84  85
ATOM     85  S   UNL A   1      42.665  18.665  26.004  1.00  0.00     0.124 S 
ATOM     86  O   UNL A   1      43.534  18.376  24.870  1.00  0.00    -0.237 OA
ATOM     87  O   UNL A   1      43.103  18.140  27.294  1.00  0.00    -0.237 OA
ATOM     88  O   UNL A   1      41.232  18.556  25.746  1.00  0.00    -0.744 OA
ENDBRANCH  84  85
ENDBRANCH  52  77
BRANCH  64  89
ATOM     89  C   UNL A   1      49.640  26.477  26.394  1.00  0.00     0.058 A 
ATOM     90  C   UNL A   1      50.416  25.915  27.418  1.00  0.00     0.135 A 
ATOM     91  C   UNL A   1      50.185  26.519  25.101  1.00  0.00     0.135 A 
ATOM     92  F   UNL A   1      49.941  25.856  28.673  1.00  0.00    -0.206 F 
ATOM     93  C   UNL A   1      51.691  25.418  27.171  1.00  0.00     0.059 A 
ATOM     94  C   UNL A   1      51.448  26.005  24.827  1.00  0.00     0.059 A 
ATOM     95  F   UNL A   1      49.478  27.037  24.085  1.00  0.00    -0.206 F 
ATOM     96  C   UNL A   1      52.196  25.463  25.871  1.00  0.00     0.060 A 
BRANCH  96  97
ATOM     97  S   UNL A   1      53.833  24.768  25.558  1.00  0.00     0.124 S 
ATOM     98  O   UNL A   1      54.320  25.634  24.488  1.00  0.00    -0.237 OA
ATOM     99  O   UNL A   1      54.492  24.927  26.851  1.00  0.00    -0.237 OA
ATOM    100  O   UNL A   1      53.551  23.390  25.170  1.00  0.00    -0.744 OA
ENDBRANCH  96  97
ENDBRANCH  64  89
ENDBRANCH  38  39
ENDBRANCH  31  33
ENDBRANCH  30  31
ENDBRANCH   1  30
TORSDOF 17
ENDMDL
MODEL 3
REMARK VINA RESULT:     -12.0      5.904     12.919
REMARK SMILES C[C@@H]1CC[C@H](C)[N@H+]1Cc1cc2c(cc1Cl)C=C(C(=O)OCCOC(=O)c1ccc(-c3c4nc(c(-c5c(F)cc(S(=O)(=O)[O-])cc5F)c5ccc([nH]5)c(-c5c(F)cc(S(=O)(=O)[O-])cc5F)c5nc(c(-c6c(F)cc(S(=O)(=O)[O-])cc6F)c6ccc3[nH]6)C=C5)C=C4)cc1)[C@@H](C(F)(F)F)O2
REMARK SMILES IDX 22 1 21 2 20 3 18 4 19 5 17 6 9 7 10 8 14 9 11 10 13 11
REMARK SMILES IDX 15 12 12 13 97 14 16 15 92 16 8 17 7 18 6 19 5 20 4 21 3 22
REMARK SMILES IDX 2 23 1 25 93 26 94 27 95 28 96 29 23 30 24 31 25 32 26 33
REMARK SMILES IDX 27 34 91 35 28 36 90 37 29 38 30 39 31 40 84 41 32 42 89 43
REMARK SMILES IDX 83 44 85 45 33 46 88 47 82 48 81 49 34 51 68 52 47 53 67 54
REMARK SMILES IDX 48 55 51 56 66 57 86 58 49 59 50 60 65 62 87 63 52 64 35 65
REMARK SMILES IDX 36 66 45 67 37 68 38 69 44 70 46 71 39 72 40 73 41 74 42 75
REMARK SMILES IDX 43 76 69 77 70 78 79 79 71 80 72 81 78 82 80 83 73 84 74 85
REMARK SMILES IDX 75 86 76 87 77 88 53 89 54 90 63 91 55 92 56 93 62 94 64 95
REMARK SMILES IDX 57 96 58 97 59 98 60 99 61 100
REMARK H PARENT 7 24 85 50 51 61
REMARK Flexibility Score: inf
ROOT
ATOM      1  C   UNL A   1      33.270  33.599  28.007  1.00  0.00     0.275 C 
ENDROOT
BRANCH   1   2
ATOM      2  C   UNL A   1      33.910  34.560  29.011  1.00  0.00     0.275 C 
BRANCH   2   3
ATOM      3  O   UNL A   1      34.670  33.862  30.023  1.00  0.00    -0.459 OA
BRANCH   3   4
ATOM      4  C   UNL A   1      34.596  34.416  31.254  1.00  0.00     0.338 C 
ATOM      5  O   UNL A   1      33.569  34.681  31.861  1.00  0.00    -0.246 OA
BRANCH   4   6
ATOM      6  C   UNL A   1      35.926  34.643  31.843  1.00  0.00     0.087 C 
ATOM      7  C   UNL A   1      40.910  34.250  32.399  1.00  0.00     0.029 A 
ATOM      8  C   UNL A   1      39.859  34.642  33.272  1.00  0.00     0.058 A 
ATOM      9  C   UNL A   1      40.566  33.811  31.112  1.00  0.00     0.050 A 
ATOM     10  C   UNL A   1      38.533  34.683  32.833  1.00  0.00     0.128 A 
ATOM     11  C   UNL A   1      39.274  33.992  30.637  1.00  0.00     0.033 A 
ATOM     12  Cl  UNL A   1      41.622  32.907  30.087  1.00  0.00    -0.084 Cl
ATOM     13  C   UNL A   1      38.275  34.448  31.492  1.00  0.00     0.019 A 
ATOM     14  O   UNL A   1      37.533  34.978  33.726  1.00  0.00    -0.475 OA
ATOM     15  C   UNL A   1      36.939  34.595  30.977  1.00  0.00     0.027 C 
ATOM     16  C   UNL A   1      36.154  34.643  33.326  1.00  0.00     0.316 C 
BRANCH   7  17
ATOM     17  C   UNL A   1      42.354  34.339  32.869  1.00  0.00     0.301 C 
BRANCH  17  18
ATOM     18  N   UNL A   1      43.016  35.655  32.774  1.00  0.00    -0.327 N 
ATOM     19  C   UNL A   1      43.543  36.288  30.447  1.00  0.00     0.075 C 
ATOM     20  C   UNL A   1      44.086  35.771  31.771  1.00  0.00     0.181 C 
ATOM     21  C   UNL A   1      45.106  36.734  32.377  1.00  0.00     0.071 C 
ATOM     22  C   UNL A   1      44.978  36.471  33.861  1.00  0.00     0.071 C 
ATOM     23  C   UNL A   1      43.484  36.235  34.043  1.00  0.00     0.181 C 
ATOM     24  H   UNL A   1      42.224  36.210  32.449  1.00  0.00     0.348 HD
ATOM     25  C   UNL A   1      42.724  37.531  34.321  1.00  0.00     0.075 C 
ENDBRANCH  17  18
ENDBRANCH   7  17
BRANCH  16  26
ATOM     26  C   UNL A   1      35.716  33.306  33.946  1.00  0.00     0.430 C 
ATOM     27  F   UNL A   1      35.693  32.315  33.024  1.00  0.00    -0.167 F 
ATOM     28  F   UNL A   1      36.582  32.909  34.914  1.00  0.00    -0.167 F 
ATOM     29  F   UNL A   1      34.488  33.370  34.506  1.00  0.00    -0.167 F 
ENDBRANCH  16  26
ENDBRANCH   4   6
ENDBRANCH   3   4
ENDBRANCH   2   3
ENDBRANCH   1   2
BRANCH   1  30
ATOM     30  O   UNL A   1      34.265  32.830  27.306  1.00  0.00    -0.458 OA
BRANCH  30  31
ATOM     31  C   UNL A   1      34.215  31.495  27.522  1.00  0.00     0.338 C 
ATOM     32  O   UNL A   1      33.274  30.749  27.309  1.00  0.00    -0.246 OA
BRANCH  31  33
ATOM     33  C   UNL A   1      35.518  31.007  27.996  1.00  0.00     0.060 A 
ATOM     34  C   UNL A   1      36.614  31.856  28.099  1.00  0.00     0.016 A 
ATOM     35  C   UNL A   1      35.585  29.725  28.525  1.00  0.00     0.016 A 
ATOM     36  C   UNL A   1      37.775  31.397  28.735  1.00  0.00     0.010 A 
ATOM     37  C   UNL A   1      36.660  29.349  29.324  1.00  0.00     0.010 A 
ATOM     38  C   UNL A   1      37.801  30.154  29.401  1.00  0.00    -0.014 A 
BRANCH  38  39
ATOM     39  C   UNL A   1      39.014  29.682  30.140  1.00  0.00     0.031 A 
ATOM     40  C   UNL A   1      39.266  30.102  31.574  1.00  0.00     0.074 A 
ATOM     41  C   UNL A   1      39.919  28.897  29.518  1.00  0.00     0.049 A 
ATOM     42  N   UNL A   1      40.251  29.770  32.372  1.00  0.00    -0.248 NA
ATOM     43  C   UNL A   1      38.321  31.056  32.180  1.00  0.00     0.031 C 
ATOM     44  C   UNL A   1      39.875  28.507  28.107  1.00  0.00     0.029 A 
ATOM     45  N   UNL A   1      41.042  28.266  29.996  1.00  0.00    -0.354 N 
ATOM     46  C   UNL A   1      40.060  30.500  33.542  1.00  0.00     0.074 A 
ATOM     47  C   UNL A   1      38.920  31.357  33.320  1.00  0.00     0.031 C 
ATOM     48  C   UNL A   1      40.864  27.634  27.858  1.00  0.00     0.029 A 
ATOM     49  C   UNL A   1      41.641  27.434  29.077  1.00  0.00     0.049 A 
ATOM     50  H   UNL A   1      41.386  28.395  30.910  1.00  0.00     0.167 HD
ATOM     51  C   UNL A   1      40.731  30.431  34.717  1.00  0.00     0.037 A 
ATOM     52  C   UNL A   1      42.680  26.585  29.203  1.00  0.00     0.037 A 
ATOM     53  C   UNL A   1      41.815  29.520  34.966  1.00  0.00     0.049 A 
ATOM     54  C   UNL A   1      43.364  26.455  30.534  1.00  0.00     0.074 A 
ATOM     55  C   UNL A   1      42.494  29.292  36.149  1.00  0.00     0.029 A 
ATOM     56  N   UNL A   1      42.369  28.675  34.016  1.00  0.00    -0.354 N 
ATOM     57  N   UNL A   1      43.108  27.087  31.654  1.00  0.00    -0.248 NA
ATOM     58  C   UNL A   1      44.473  25.494  30.623  1.00  0.00     0.031 C 
ATOM     59  C   UNL A   1      43.482  28.332  35.906  1.00  0.00     0.029 A 
ATOM     60  C   UNL A   1      43.392  27.935  34.581  1.00  0.00     0.049 A 
ATOM     61  H   UNL A   1      42.076  28.611  33.078  1.00  0.00     0.167 HD
ATOM     62  C   UNL A   1      44.021  26.600  32.583  1.00  0.00     0.074 A 
ATOM     63  C   UNL A   1      44.819  25.602  31.900  1.00  0.00     0.031 C 
ATOM     64  C   UNL A   1      44.184  26.951  33.883  1.00  0.00     0.037 A 
BRANCH  51  65
ATOM     65  C   UNL A   1      40.280  31.340  35.832  1.00  0.00     0.058 A 
ATOM     66  C   UNL A   1      41.066  32.421  36.266  1.00  0.00     0.135 A 
ATOM     67  C   UNL A   1      39.047  31.134  36.474  1.00  0.00     0.135 A 
ATOM     68  F   UNL A   1      42.259  32.660  35.697  1.00  0.00    -0.206 F 
ATOM     69  C   UNL A   1      40.674  33.230  37.327  1.00  0.00     0.059 A 
ATOM     70  C   UNL A   1      38.619  31.954  37.517  1.00  0.00     0.059 A 
ATOM     71  F   UNL A   1      38.249  30.123  36.098  1.00  0.00    -0.206 F 
ATOM     72  C   UNL A   1      39.450  32.986  37.950  1.00  0.00     0.060 A 
BRANCH  72  73
ATOM     73  S   UNL A   1      38.968  34.037  39.337  1.00  0.00     0.124 S 
ATOM     74  O   UNL A   1      38.902  35.348  38.698  1.00  0.00    -0.237 OA
ATOM     75  O   UNL A   1      37.687  33.461  39.733  1.00  0.00    -0.237 OA
ATOM     76  O   UNL A   1      40.056  33.858  40.293  1.00  0.00    -0.744 OA
ENDBRANCH  72  73
ENDBRANCH  51  65
BRANCH  52  77
ATOM     77  C   UNL A   1      43.071  25.738  28.043  1.00  0.00     0.058 A 
ATOM     78  C   UNL A   1      44.041  26.180  27.131  1.00  0.00     0.135 A 
ATOM     79  C   UNL A   1      42.557  24.444  27.874  1.00  0.00     0.135 A 
ATOM     80  F   UNL A   1      44.557  27.413  27.246  1.00  0.00    -0.206 F 
ATOM     81  C   UNL A   1      44.501  25.364  26.103  1.00  0.00     0.059 A 
ATOM     82  C   UNL A   1      43.015  23.601  26.866  1.00  0.00     0.059 A 
ATOM     83  F   UNL A   1      41.638  23.970  28.730  1.00  0.00    -0.206 F 
ATOM     84  C   UNL A   1      43.992  24.069  25.987  1.00  0.00     0.060 A 
BRANCH  84  85
ATOM     85  S   UNL A   1      44.683  22.981  24.721  1.00  0.00     0.124 S 
ATOM     86  O   UNL A   1      45.701  23.835  24.121  1.00  0.00    -0.237 OA
ATOM     87  O   UNL A   1      45.178  21.862  25.519  1.00  0.00    -0.237 OA
ATOM     88  O   UNL A   1      43.534  22.677  23.875  1.00  0.00    -0.744 OA
ENDBRANCH  84  85
ENDBRANCH  52  77
BRANCH  64  89
ATOM     89  C   UNL A   1      45.270  26.263  34.659  1.00  0.00     0.058 A 
ATOM     90  C   UNL A   1      46.557  26.811  34.753  1.00  0.00     0.135 A 
ATOM     91  C   UNL A   1      44.998  25.090  35.383  1.00  0.00     0.135 A 
ATOM     92  F   UNL A   1      46.868  27.928  34.076  1.00  0.00    -0.206 F 
ATOM     93  C   UNL A   1      47.544  26.215  35.531  1.00  0.00     0.059 A 
ATOM     94  C   UNL A   1      45.963  24.491  36.186  1.00  0.00     0.059 A 
ATOM     95  F   UNL A   1      43.779  24.532  35.335  1.00  0.00    -0.206 F 
ATOM     96  C   UNL A   1      47.235  25.058  36.248  1.00  0.00     0.060 A 
BRANCH  96  97
ATOM     97  S   UNL A   1      48.513  24.324  37.291  1.00  0.00     0.124 S 
ATOM     98  O   UNL A   1      47.895  24.401  38.611  1.00  0.00    -0.237 OA
ATOM     99  O   UNL A   1      48.643  22.984  36.729  1.00  0.00    -0.237 OA
ATOM    100  O   UNL A   1      49.664  25.198  37.087  1.00  0.00    -0.744 OA
ENDBRANCH  96  97
ENDBRANCH  64  89
ENDBRANCH  38  39
ENDBRANCH  31  33
ENDBRANCH  30  31
ENDBRANCH   1  30
TORSDOF 17
ENDMDL
