MODEL 1
REMARK VINA RESULT:     -11.5      0.000      0.000
REMARK SMILES Cc1c(CC(=O)N[C@H](CO)C(=O)OCCOC(=O)c2ccc(-c3c4nc(c(-c5c(F)cc(S(=O)(=O)[O-])cc5F)c5ccc([nH]5)c(-c5c(F)cc(S(=O)(=O)[O-])cc5F)c5nc(c(-c6c(F)cc(S(=O)(=O)[O-])cc6F)c6ccc3[nH]6)C=C5)C=C4)cc2)cc(-c2ccc(S(C)(=O)=O)cc2)n1-c1cccc(F)c1
REMARK SMILES IDX 14 1 13 2 11 3 12 4 8 5 7 6 5 7 6 8 4 10 3 11 1 12 2 13
REMARK SMILES IDX 97 14 85 15 86 16 98 17 99 18 104 19 100 20 102 21 101 22
REMARK SMILES IDX 103 23 87 24 88 25 96 26 89 27 95 28 90 29 91 30 92 31 93 32
REMARK SMILES IDX 94 33 9 34 10 35 15 37 16 38 17 39 18 40 19 41 20 42 84 43
REMARK SMILES IDX 21 44 83 45 22 46 23 47 24 48 77 49 25 50 82 51 76 52 78 53
REMARK SMILES IDX 26 54 81 55 75 56 74 57 27 59 61 60 40 61 60 62 41 63 44 64
REMARK SMILES IDX 59 65 79 66 42 67 43 68 58 70 80 71 45 72 28 73 29 74 38 75
REMARK SMILES IDX 30 76 31 77 37 78 39 79 32 80 33 81 34 82 35 83 36 84 62 85
REMARK SMILES IDX 63 86 72 87 64 88 65 89 71 90 73 91 66 92 67 93 68 94 69 95
REMARK SMILES IDX 70 96 46 97 47 98 56 99 48 100 49 101 55 102 57 103 50 104
REMARK SMILES IDX 51 105 52 106 53 107 54 108
REMARK H PARENT 7 9 10 36 78 58 44 69
REMARK Flexibility Score: inf
ROOT
ATOM      1  C   UNL A   1      37.775  20.540  24.951  1.00  0.00     0.274 C 
ENDROOT
BRANCH   1   2
ATOM      2  O   UNL A   1      36.487  20.884  24.380  1.00  0.00    -0.460 OA
BRANCH   2   3
ATOM      3  C   UNL A   1      35.410  20.712  25.217  1.00  0.00     0.331 C 
ATOM      4  O   UNL A   1      35.376  21.107  26.379  1.00  0.00    -0.250 OA
BRANCH   3   5
ATOM      5  C   UNL A   1      34.262  19.942  24.518  1.00  0.00     0.218 C 
BRANCH   5   6
ATOM      6  N   UNL A   1      32.951  20.252  25.130  1.00  0.00    -0.341 N 
ATOM      7  C   UNL A   1      32.059  21.238  24.828  1.00  0.00     0.225 C 
ATOM      8  O   UNL A   1      31.003  21.279  25.467  1.00  0.00    -0.275 OA
ATOM      9  H   UNL A   1      32.682  19.656  25.867  1.00  0.00     0.164 HD
BRANCH   7  10
ATOM     10  C   UNL A   1      32.339  22.222  23.703  1.00  0.00     0.137 C 
BRANCH  10  11
ATOM     11  C   UNL A   1      31.979  23.634  24.062  1.00  0.00    -0.017 A 
ATOM     12  C   UNL A   1      33.383  23.984  26.224  1.00  0.00     0.065 C 
ATOM     13  C   UNL A   1      32.481  24.403  25.105  1.00  0.00     0.024 A 
ATOM     14  N   UNL A   1      31.933  25.677  25.003  1.00  0.00    -0.313 N 
ATOM     15  C   UNL A   1      31.027  24.440  23.375  1.00  0.00     0.033 A 
ATOM     16  C   UNL A   1      31.040  25.706  23.928  1.00  0.00     0.053 A 
BRANCH  14  17
ATOM     17  C   UNL A   1      32.243  26.792  25.829  1.00  0.00     0.049 A 
ATOM     18  C   UNL A   1      31.267  27.305  26.695  1.00  0.00     0.027 A 
ATOM     19  C   UNL A   1      33.465  27.450  25.665  1.00  0.00     0.065 A 
ATOM     20  C   UNL A   1      31.516  28.481  27.403  1.00  0.00     0.005 A 
ATOM     21  C   UNL A   1      33.693  28.623  26.375  1.00  0.00     0.125 A 
ATOM     22  C   UNL A   1      32.732  29.142  27.239  1.00  0.00     0.039 A 
ATOM     23  F   UNL A   1      34.846  29.283  26.205  1.00  0.00    -0.207 F 
ENDBRANCH  14  17
BRANCH  16  24
ATOM     24  C   UNL A   1      30.381  26.927  23.437  1.00  0.00    -0.001 A 
ATOM     25  C   UNL A   1      31.152  27.954  22.872  1.00  0.00     0.011 A 
ATOM     26  C   UNL A   1      29.001  27.114  23.565  1.00  0.00     0.011 A 
ATOM     27  C   UNL A   1      30.585  29.176  22.522  1.00  0.00     0.021 A 
ATOM     28  C   UNL A   1      28.419  28.342  23.216  1.00  0.00     0.021 A 
ATOM     29  C   UNL A   1      29.226  29.382  22.736  1.00  0.00     0.067 A 
BRANCH  29  30
ATOM     30  S   UNL A   1      28.516  30.960  22.318  1.00  0.00     0.175 S 
ATOM     31  C   UNL A   1      27.426  31.323  23.653  1.00  0.00     0.163 C 
ATOM     32  O   UNL A   1      29.584  31.954  22.418  1.00  0.00    -0.224 OA
ATOM     33  O   UNL A   1      27.723  30.796  21.133  1.00  0.00    -0.224 OA
ENDBRANCH  29  30
ENDBRANCH  16  24
ENDBRANCH  10  11
ENDBRANCH   7  10
ENDBRANCH   5   6
BRANCH   5  34
ATOM     34  C   UNL A   1      34.510  18.432  24.620  1.00  0.00     0.193 C 
BRANCH  34  35
ATOM     35  O   UNL A   1      35.835  18.136  25.037  1.00  0.00    -0.394 OA
ATOM     36  H   UNL A   1      35.864  17.241  25.410  1.00  0.00     0.210 HD
ENDBRANCH  34  35
ENDBRANCH   5  34
ENDBRANCH   3   5
ENDBRANCH   2   3
ENDBRANCH   1   2
BRANCH   1  37
ATOM     37  C   UNL A   1      38.543  21.771  25.491  1.00  0.00     0.275 C 
BRANCH  37  38
ATOM     38  O   UNL A   1      39.244  21.626  26.762  1.00  0.00    -0.458 OA
BRANCH  38  39
ATOM     39  C   UNL A   1      40.551  21.253  26.671  1.00  0.00     0.338 C 
ATOM     40  O   UNL A   1      40.896  20.121  26.359  1.00  0.00    -0.246 OA
BRANCH  39  41
ATOM     41  C   UNL A   1      41.536  22.386  26.867  1.00  0.00     0.060 A 
ATOM     42  C   UNL A   1      42.774  22.195  26.292  1.00  0.00     0.016 A 
ATOM     43  C   UNL A   1      41.378  23.575  27.614  1.00  0.00     0.016 A 
ATOM     44  C   UNL A   1      43.774  23.181  26.410  1.00  0.00     0.010 A 
ATOM     45  C   UNL A   1      42.457  24.548  27.799  1.00  0.00     0.010 A 
ATOM     46  C   UNL A   1      43.710  24.387  27.195  1.00  0.00    -0.014 A 
BRANCH  46  47
ATOM     47  C   UNL A   1      45.071  25.188  27.385  1.00  0.00     0.031 A 
ATOM     48  C   UNL A   1      45.058  25.677  28.796  1.00  0.00     0.074 A 
ATOM     49  C   UNL A   1      46.205  25.627  26.715  1.00  0.00     0.049 A 
ATOM     50  N   UNL A   1      44.067  26.392  29.249  1.00  0.00    -0.248 NA
ATOM     51  C   UNL A   1      45.912  25.082  29.829  1.00  0.00     0.031 C 
ATOM     52  C   UNL A   1      46.584  25.446  25.309  1.00  0.00     0.029 A 
ATOM     53  N   UNL A   1      47.325  26.374  27.181  1.00  0.00    -0.354 N 
ATOM     54  C   UNL A   1      44.281  26.535  30.591  1.00  0.00     0.074 A 
ATOM     55  C   UNL A   1      45.331  25.583  30.922  1.00  0.00     0.031 C 
ATOM     56  C   UNL A   1      47.833  25.943  25.061  1.00  0.00     0.029 A 
ATOM     57  C   UNL A   1      48.395  26.569  26.256  1.00  0.00     0.049 A 
ATOM     58  H   UNL A   1      47.360  26.737  28.096  1.00  0.00     0.167 HD
ATOM     59  C   UNL A   1      43.989  27.734  31.160  1.00  0.00     0.037 A 
ATOM     60  C   UNL A   1      49.606  27.226  26.414  1.00  0.00     0.037 A 
ATOM     61  C   UNL A   1      45.187  28.420  31.548  1.00  0.00     0.049 A 
ATOM     62  C   UNL A   1      49.483  28.100  27.594  1.00  0.00     0.074 A 
ATOM     63  C   UNL A   1      46.302  28.069  32.282  1.00  0.00     0.029 A 
ATOM     64  N   UNL A   1      45.569  29.453  30.717  1.00  0.00    -0.354 N 
ATOM     65  N   UNL A   1      48.823  29.215  27.566  1.00  0.00    -0.248 NA
ATOM     66  C   UNL A   1      50.183  27.817  28.845  1.00  0.00     0.031 C 
ATOM     67  C   UNL A   1      47.405  28.558  31.531  1.00  0.00     0.029 A 
ATOM     68  C   UNL A   1      46.932  29.384  30.518  1.00  0.00     0.049 A 
ATOM     69  H   UNL A   1      44.967  30.128  30.330  1.00  0.00     0.167 HD
ATOM     70  C   UNL A   1      48.660  29.537  28.875  1.00  0.00     0.074 A 
ATOM     71  C   UNL A   1      49.696  28.814  29.585  1.00  0.00     0.031 C 
ATOM     72  C   UNL A   1      47.441  29.951  29.287  1.00  0.00     0.037 A 
BRANCH  59  73
ATOM     73  C   UNL A   1      42.758  28.411  30.623  1.00  0.00     0.058 A 
ATOM     74  C   UNL A   1      41.603  28.442  31.411  1.00  0.00     0.135 A 
ATOM     75  C   UNL A   1      42.656  28.913  29.307  1.00  0.00     0.135 A 
ATOM     76  F   UNL A   1      41.645  28.013  32.684  1.00  0.00    -0.206 F 
ATOM     77  C   UNL A   1      40.387  28.893  30.904  1.00  0.00     0.059 A 
ATOM     78  C   UNL A   1      41.441  29.320  28.762  1.00  0.00     0.059 A 
ATOM     79  F   UNL A   1      43.749  29.007  28.533  1.00  0.00    -0.206 F 
ATOM     80  C   UNL A   1      40.308  29.300  29.569  1.00  0.00     0.060 A 
BRANCH  80  81
ATOM     81  S   UNL A   1      38.690  29.727  28.889  1.00  0.00     0.124 S 
ATOM     82  O   UNL A   1      37.813  28.740  29.516  1.00  0.00    -0.237 OA
ATOM     83  O   UNL A   1      38.520  31.096  29.360  1.00  0.00    -0.237 OA
ATOM     84  O   UNL A   1      38.864  29.558  27.450  1.00  0.00    -0.744 OA
ENDBRANCH  80  81
ENDBRANCH  59  73
BRANCH  60  85
ATOM     85  C   UNL A   1      50.974  27.441  25.740  1.00  0.00     0.058 A 
ATOM     86  C   UNL A   1      51.696  26.329  25.191  1.00  0.00     0.135 A 
ATOM     87  C   UNL A   1      51.408  28.685  25.265  1.00  0.00     0.135 A 
ATOM     88  F   UNL A   1      51.437  25.073  25.582  1.00  0.00    -0.206 F 
ATOM     89  C   UNL A   1      52.639  26.430  24.159  1.00  0.00     0.059 A 
ATOM     90  C   UNL A   1      52.389  28.815  24.247  1.00  0.00     0.059 A 
ATOM     91  F   UNL A   1      50.824  29.810  25.705  1.00  0.00    -0.206 F 
ATOM     92  C   UNL A   1      52.955  27.681  23.659  1.00  0.00     0.060 A 
BRANCH  92  93
ATOM     93  S   UNL A   1      53.992  27.771  22.169  1.00  0.00     0.124 S 
ATOM     94  O   UNL A   1      54.996  28.761  22.539  1.00  0.00    -0.237 OA
ATOM     95  O   UNL A   1      54.474  26.398  22.044  1.00  0.00    -0.237 OA
ATOM     96  O   UNL A   1      53.054  28.188  21.130  1.00  0.00    -0.744 OA
ENDBRANCH  92  93
ENDBRANCH  60  85
BRANCH  72  97
ATOM     97  C   UNL A   1      46.628  30.822  28.333  1.00  0.00     0.058 A 
ATOM     98  C   UNL A   1      45.990  30.423  27.135  1.00  0.00     0.135 A 
ATOM     99  C   UNL A   1      46.541  32.191  28.641  1.00  0.00     0.135 A 
ATOM    100  F   UNL A   1      45.863  29.133  26.788  1.00  0.00    -0.206 F 
ATOM    101  C   UNL A   1      45.422  31.345  26.248  1.00  0.00     0.059 A 
ATOM    102  C   UNL A   1      45.922  33.117  27.804  1.00  0.00     0.059 A 
ATOM    103  F   UNL A   1      47.067  32.653  29.788  1.00  0.00    -0.206 F 
ATOM    104  C   UNL A   1      45.411  32.694  26.582  1.00  0.00     0.060 A 
BRANCH 104 105
ATOM    105  S   UNL A   1      44.721  33.894  25.422  1.00  0.00     0.124 S 
ATOM    106  O   UNL A   1      44.103  33.024  24.426  1.00  0.00    -0.237 OA
ATOM    107  O   UNL A   1      43.794  34.656  26.251  1.00  0.00    -0.237 OA
ATOM    108  O   UNL A   1      45.897  34.626  24.958  1.00  0.00    -0.744 OA
ENDBRANCH 104 105
ENDBRANCH  72  97
ENDBRANCH  46  47
ENDBRANCH  39  41
ENDBRANCH  38  39
ENDBRANCH  37  38
ENDBRANCH   1  37
TORSDOF 22
ENDMDL
MODEL 2
REMARK VINA RESULT:     -10.8      8.612     15.077
REMARK SMILES Cc1c(CC(=O)N[C@H](CO)C(=O)OCCOC(=O)c2ccc(-c3c4nc(c(-c5c(F)cc(S(=O)(=O)[O-])cc5F)c5ccc([nH]5)c(-c5c(F)cc(S(=O)(=O)[O-])cc5F)c5nc(c(-c6c(F)cc(S(=O)(=O)[O-])cc6F)c6ccc3[nH]6)C=C5)C=C4)cc2)cc(-c2ccc(S(C)(=O)=O)cc2)n1-c1cccc(F)c1
REMARK SMILES IDX 14 1 13 2 11 3 12 4 8 5 7 6 5 7 6 8 4 10 3 11 1 12 2 13
REMARK SMILES IDX 97 14 85 15 86 16 98 17 99 18 104 19 100 20 102 21 101 22
REMARK SMILES IDX 103 23 87 24 88 25 96 26 89 27 95 28 90 29 91 30 92 31 93 32
REMARK SMILES IDX 94 33 9 34 10 35 15 37 16 38 17 39 18 40 19 41 20 42 84 43
REMARK SMILES IDX 21 44 83 45 22 46 23 47 24 48 77 49 25 50 82 51 76 52 78 53
REMARK SMILES IDX 26 54 81 55 75 56 74 57 27 59 61 60 40 61 60 62 41 63 44 64
REMARK SMILES IDX 59 65 79 66 42 67 43 68 58 70 80 71 45 72 28 73 29 74 38 75
REMARK SMILES IDX 30 76 31 77 37 78 39 79 32 80 33 81 34 82 35 83 36 84 62 85
REMARK SMILES IDX 63 86 72 87 64 88 65 89 71 90 73 91 66 92 67 93 68 94 69 95
REMARK SMILES IDX 70 96 46 97 47 98 56 99 48 100 49 101 55 102 57 103 50 104
REMARK SMILES IDX 51 105 52 106 53 107 54 108
REMARK H PARENT 7 9 10 36 78 58 44 69
REMARK Flexibility Score: inf
ROOT
ATOM      1  C   UNL A   1      43.429  38.941  26.940  1.00  0.00     0.274 C 
ENDROOT
BRANCH   1   2
ATOM      2  O   UNL A   1      43.318  40.323  27.363  1.00  0.00    -0.460 OA
BRANCH   2   3
ATOM      3  C   UNL A   1      43.045  41.223  26.359  1.00  0.00     0.331 C 
ATOM      4  O   UNL A   1      42.052  41.164  25.638  1.00  0.00    -0.250 OA
BRANCH   3   5
ATOM      5  C   UNL A   1      44.153  42.299  26.240  1.00  0.00     0.218 C 
BRANCH   5   6
ATOM      6  N   UNL A   1      45.057  42.021  25.103  1.00  0.00    -0.341 N 
ATOM      7  C   UNL A   1      44.938  42.370  23.790  1.00  0.00     0.225 C 
ATOM      8  O   UNL A   1      45.848  42.047  23.020  1.00  0.00    -0.275 OA
ATOM      9  H   UNL A   1      45.866  41.507  25.327  1.00  0.00     0.164 HD
BRANCH   7  10
ATOM     10  C   UNL A   1      43.744  43.177  23.305  1.00  0.00     0.137 C 
BRANCH  10  11
ATOM     11  C   UNL A   1      44.008  43.884  22.007  1.00  0.00    -0.017 A 
ATOM     12  C   UNL A   1      42.167  42.855  20.483  1.00  0.00     0.065 C 
ATOM     13  C   UNL A   1      43.287  43.789  20.822  1.00  0.00     0.024 A 
ATOM     14  N   UNL A   1      43.834  44.687  19.913  1.00  0.00    -0.313 N 
ATOM     15  C   UNL A   1      45.079  44.790  21.767  1.00  0.00     0.033 A 
ATOM     16  C   UNL A   1      44.938  45.314  20.496  1.00  0.00     0.053 A 
BRANCH  14  17
ATOM     17  C   UNL A   1      43.345  44.960  18.606  1.00  0.00     0.049 A 
ATOM     18  C   UNL A   1      42.396  45.975  18.420  1.00  0.00     0.027 A 
ATOM     19  C   UNL A   1      43.707  44.122  17.548  1.00  0.00     0.065 A 
ATOM     20  C   UNL A   1      41.808  46.155  17.168  1.00  0.00     0.005 A 
ATOM     21  C   UNL A   1      43.107  44.314  16.308  1.00  0.00     0.125 A 
ATOM     22  C   UNL A   1      42.164  45.319  16.110  1.00  0.00     0.039 A 
ATOM     23  F   UNL A   1      43.419  43.498  15.293  1.00  0.00    -0.207 F 
ENDBRANCH  14  17
BRANCH  16  24
ATOM     24  C   UNL A   1      45.679  46.424  19.876  1.00  0.00    -0.001 A 
ATOM     25  C   UNL A   1      45.280  47.748  20.117  1.00  0.00     0.011 A 
ATOM     26  C   UNL A   1      46.749  46.192  19.005  1.00  0.00     0.011 A 
ATOM     27  C   UNL A   1      45.866  48.815  19.443  1.00  0.00     0.021 A 
ATOM     28  C   UNL A   1      47.347  47.261  18.320  1.00  0.00     0.021 A 
ATOM     29  C   UNL A   1      46.870  48.564  18.514  1.00  0.00     0.067 A 
BRANCH  29  30
ATOM     30  S   UNL A   1      47.589  49.932  17.631  1.00  0.00     0.175 S 
ATOM     31  C   UNL A   1      47.672  51.231  18.816  1.00  0.00     0.163 C 
ATOM     32  O   UNL A   1      48.981  49.582  17.351  1.00  0.00    -0.224 OA
ATOM     33  O   UNL A   1      46.673  50.333  16.601  1.00  0.00    -0.224 OA
ENDBRANCH  29  30
ENDBRANCH  16  24
ENDBRANCH  10  11
ENDBRANCH   7  10
ENDBRANCH   5   6
BRANCH   5  34
ATOM     34  C   UNL A   1      44.982  42.337  27.531  1.00  0.00     0.193 C 
BRANCH  34  35
ATOM     35  O   UNL A   1      44.186  42.644  28.667  1.00  0.00    -0.394 OA
ATOM     36  H   UNL A   1      43.379  43.101  28.383  1.00  0.00     0.210 HD
ENDBRANCH  34  35
ENDBRANCH   5  34
ENDBRANCH   3   5
ENDBRANCH   2   3
ENDBRANCH   1   2
BRANCH   1  37
ATOM     37  C   UNL A   1      42.537  37.985  27.769  1.00  0.00     0.275 C 
BRANCH  37  38
ATOM     38  O   UNL A   1      43.144  36.756  28.267  1.00  0.00    -0.458 OA
BRANCH  38  39
ATOM     39  C   UNL A   1      42.273  35.757  28.582  1.00  0.00     0.338 C 
ATOM     40  O   UNL A   1      41.078  35.953  28.760  1.00  0.00    -0.246 OA
BRANCH  39  41
ATOM     41  C   UNL A   1      42.885  34.372  28.569  1.00  0.00     0.060 A 
ATOM     42  C   UNL A   1      43.680  34.091  27.479  1.00  0.00     0.016 A 
ATOM     43  C   UNL A   1      42.694  33.313  29.484  1.00  0.00     0.016 A 
ATOM     44  C   UNL A   1      44.302  32.832  27.357  1.00  0.00     0.010 A 
ATOM     45  C   UNL A   1      43.277  31.982  29.296  1.00  0.00     0.010 A 
ATOM     46  C   UNL A   1      44.115  31.689  28.213  1.00  0.00    -0.014 A 
BRANCH  46  47
ATOM     47  C   UNL A   1      44.709  30.306  27.699  1.00  0.00     0.031 A 
ATOM     48  C   UNL A   1      43.538  29.525  27.198  1.00  0.00     0.074 A 
ATOM     49  C   UNL A   1      45.880  29.567  27.602  1.00  0.00     0.049 A 
ATOM     50  N   UNL A   1      42.508  29.296  27.962  1.00  0.00    -0.248 NA
ATOM     51  C   UNL A   1      43.303  29.319  25.765  1.00  0.00     0.031 C 
ATOM     52  C   UNL A   1      47.237  29.912  28.041  1.00  0.00     0.029 A 
ATOM     53  N   UNL A   1      46.116  28.273  27.056  1.00  0.00    -0.354 N 
ATOM     54  C   UNL A   1      41.565  28.709  27.165  1.00  0.00     0.074 A 
ATOM     55  C   UNL A   1      42.037  28.893  25.801  1.00  0.00     0.031 C 
ATOM     56  C   UNL A   1      48.140  28.955  27.671  1.00  0.00     0.029 A 
ATOM     57  C   UNL A   1      47.475  27.837  27.004  1.00  0.00     0.049 A 
ATOM     58  H   UNL A   1      45.380  27.707  26.728  1.00  0.00     0.167 HD
ATOM     59  C   UNL A   1      40.818  27.706  27.695  1.00  0.00     0.037 A 
ATOM     60  C   UNL A   1      48.018  26.657  26.522  1.00  0.00     0.037 A 
ATOM     61  C   UNL A   1      41.169  26.445  27.109  1.00  0.00     0.049 A 
ATOM     62  C   UNL A   1      46.925  25.673  26.430  1.00  0.00     0.074 A 
ATOM     63  C   UNL A   1      41.302  25.989  25.813  1.00  0.00     0.029 A 
ATOM     64  N   UNL A   1      41.951  25.627  27.898  1.00  0.00    -0.354 N 
ATOM     65  N   UNL A   1      46.433  25.081  27.472  1.00  0.00    -0.248 NA
ATOM     66  C   UNL A   1      46.392  25.225  25.144  1.00  0.00     0.031 C 
ATOM     67  C   UNL A   1      42.514  25.246  25.807  1.00  0.00     0.029 A 
ATOM     68  C   UNL A   1      42.942  25.069  27.118  1.00  0.00     0.049 A 
ATOM     69  H   UNL A   1      41.822  25.468  28.861  1.00  0.00     0.167 HD
ATOM     70  C   UNL A   1      45.270  24.540  27.028  1.00  0.00     0.074 A 
ATOM     71  C   UNL A   1      45.412  24.438  25.591  1.00  0.00     0.031 C 
ATOM     72  C   UNL A   1      44.163  24.684  27.792  1.00  0.00     0.037 A 
BRANCH  59  73
ATOM     73  C   UNL A   1      40.426  27.895  29.135  1.00  0.00     0.058 A 
ATOM     74  C   UNL A   1      39.078  28.100  29.448  1.00  0.00     0.135 A 
ATOM     75  C   UNL A   1      41.359  28.004  30.189  1.00  0.00     0.135 A 
ATOM     76  F   UNL A   1      38.138  27.973  28.497  1.00  0.00    -0.206 F 
ATOM     77  C   UNL A   1      38.676  28.458  30.734  1.00  0.00     0.059 A 
ATOM     78  C   UNL A   1      40.987  28.409  31.467  1.00  0.00     0.059 A 
ATOM     79  F   UNL A   1      42.654  27.719  29.976  1.00  0.00    -0.206 F 
ATOM     80  C   UNL A   1      39.641  28.641  31.729  1.00  0.00     0.060 A 
BRANCH  80  81
ATOM     81  S   UNL A   1      39.112  29.259  33.342  1.00  0.00     0.124 S 
ATOM     82  O   UNL A   1      40.129  28.713  34.239  1.00  0.00    -0.237 OA
ATOM     83  O   UNL A   1      39.171  30.702  33.142  1.00  0.00    -0.237 OA
ATOM     84  O   UNL A   1      37.781  28.687  33.512  1.00  0.00    -0.744 OA
ENDBRANCH  80  81
ENDBRANCH  59  73
BRANCH  60  85
ATOM     85  C   UNL A   1      49.358  25.989  26.156  1.00  0.00     0.058 A 
ATOM     86  C   UNL A   1      50.052  26.363  24.957  1.00  0.00     0.135 A 
ATOM     87  C   UNL A   1      50.163  25.323  27.090  1.00  0.00     0.135 A 
ATOM     88  F   UNL A   1      49.412  26.963  23.944  1.00  0.00    -0.206 F 
ATOM     89  C   UNL A   1      51.435  26.233  24.771  1.00  0.00     0.059 A 
ATOM     90  C   UNL A   1      51.559  25.145  26.906  1.00  0.00     0.059 A 
ATOM     91  F   UNL A   1      49.636  24.910  28.252  1.00  0.00    -0.206 F 
ATOM     92  C   UNL A   1      52.195  25.656  25.772  1.00  0.00     0.060 A 
BRANCH  92  93
ATOM     93  S   UNL A   1      54.006  25.715  25.614  1.00  0.00     0.124 S 
ATOM     94  O   UNL A   1      54.449  24.869  26.716  1.00  0.00    -0.237 OA
ATOM     95  O   UNL A   1      54.217  25.172  24.275  1.00  0.00    -0.237 OA
ATOM     96  O   UNL A   1      54.310  27.137  25.755  1.00  0.00    -0.744 OA
ENDBRANCH  92  93
ENDBRANCH  60  85
BRANCH  72  97
ATOM     97  C   UNL A   1      44.334  24.620  29.307  1.00  0.00     0.058 A 
ATOM     98  C   UNL A   1      44.055  23.526  30.161  1.00  0.00     0.135 A 
ATOM     99  C   UNL A   1      44.770  25.794  29.947  1.00  0.00     0.135 A 
ATOM    100  F   UNL A   1      43.775  22.303  29.685  1.00  0.00    -0.206 F 
ATOM    101  C   UNL A   1      44.082  23.640  31.555  1.00  0.00     0.059 A 
ATOM    102  C   UNL A   1      44.867  25.908  31.333  1.00  0.00     0.059 A 
ATOM    103  F   UNL A   1      45.113  26.867  29.215  1.00  0.00    -0.206 F 
ATOM    104  C   UNL A   1      44.470  24.843  32.133  1.00  0.00     0.060 A 
BRANCH 104 105
ATOM    105  S   UNL A   1      44.463  25.011  33.931  1.00  0.00     0.124 S 
ATOM    106  O   UNL A   1      45.519  25.997  34.143  1.00  0.00    -0.237 OA
ATOM    107  O   UNL A   1      43.108  25.474  34.212  1.00  0.00    -0.237 OA
ATOM    108  O   UNL A   1      44.775  23.662  34.395  1.00  0.00    -0.744 OA
ENDBRANCH 104 105
ENDBRANCH  72  97
ENDBRANCH  46  47
ENDBRANCH  39  41
ENDBRANCH  38  39
ENDBRANCH  37  38
ENDBRANCH   1  37
TORSDOF 22
ENDMDL
MODEL 3
REMARK VINA RESULT:     -10.7      5.140      9.618
REMARK SMILES Cc1c(CC(=O)N[C@H](CO)C(=O)OCCOC(=O)c2ccc(-c3c4nc(c(-c5c(F)cc(S(=O)(=O)[O-])cc5F)c5ccc([nH]5)c(-c5c(F)cc(S(=O)(=O)[O-])cc5F)c5nc(c(-c6c(F)cc(S(=O)(=O)[O-])cc6F)c6ccc3[nH]6)C=C5)C=C4)cc2)cc(-c2ccc(S(C)(=O)=O)cc2)n1-c1cccc(F)c1
REMARK SMILES IDX 14 1 13 2 11 3 12 4 8 5 7 6 5 7 6 8 4 10 3 11 1 12 2 13
REMARK SMILES IDX 97 14 85 15 86 16 98 17 99 18 104 19 100 20 102 21 101 22
REMARK SMILES IDX 103 23 87 24 88 25 96 26 89 27 95 28 90 29 91 30 92 31 93 32
REMARK SMILES IDX 94 33 9 34 10 35 15 37 16 38 17 39 18 40 19 41 20 42 84 43
REMARK SMILES IDX 21 44 83 45 22 46 23 47 24 48 77 49 25 50 82 51 76 52 78 53
REMARK SMILES IDX 26 54 81 55 75 56 74 57 27 59 61 60 40 61 60 62 41 63 44 64
REMARK SMILES IDX 59 65 79 66 42 67 43 68 58 70 80 71 45 72 28 73 29 74 38 75
REMARK SMILES IDX 30 76 31 77 37 78 39 79 32 80 33 81 34 82 35 83 36 84 62 85
REMARK SMILES IDX 63 86 72 87 64 88 65 89 71 90 73 91 66 92 67 93 68 94 69 95
REMARK SMILES IDX 70 96 46 97 47 98 56 99 48 100 49 101 55 102 57 103 50 104
REMARK SMILES IDX 51 105 52 106 53 107 54 108
REMARK H PARENT 7 9 10 36 78 58 44 69
REMARK Flexibility Score: inf
ROOT
ATOM      1  C   UNL A   1      36.008  34.326  33.163  1.00  0.00     0.274 C 
ENDROOT
BRANCH   1   2
ATOM      2  O   UNL A   1      35.820  35.701  32.745  1.00  0.00    -0.460 OA
BRANCH   2   3
ATOM      3  C   UNL A   1      34.511  36.092  32.587  1.00  0.00     0.331 C 
ATOM      4  O   UNL A   1      34.091  37.210  32.875  1.00  0.00    -0.250 OA
BRANCH   3   5
ATOM      5  C   UNL A   1      33.637  34.944  32.025  1.00  0.00     0.218 C 
BRANCH   5   6
ATOM      6  N   UNL A   1      32.851  35.387  30.853  1.00  0.00    -0.341 N 
ATOM      7  C   UNL A   1      33.240  35.561  29.558  1.00  0.00     0.225 C 
ATOM      8  O   UNL A   1      32.386  35.914  28.739  1.00  0.00    -0.275 OA
ATOM      9  H   UNL A   1      31.904  35.586  31.035  1.00  0.00     0.164 HD
BRANCH   7  10
ATOM     10  C   UNL A   1      34.672  35.277  29.132  1.00  0.00     0.137 C 
BRANCH  10  11
ATOM     11  C   UNL A   1      34.900  33.836  28.779  1.00  0.00    -0.017 A 
ATOM     12  C   UNL A   1      37.258  33.429  29.802  1.00  0.00     0.065 C 
ATOM     13  C   UNL A   1      35.980  33.034  29.127  1.00  0.00     0.024 A 
ATOM     14  N   UNL A   1      35.728  31.748  28.664  1.00  0.00    -0.313 N 
ATOM     15  C   UNL A   1      34.023  33.032  27.998  1.00  0.00     0.033 A 
ATOM     16  C   UNL A   1      34.513  31.740  27.973  1.00  0.00     0.053 A 
BRANCH  14  17
ATOM     17  C   UNL A   1      36.545  30.604  28.877  1.00  0.00     0.049 A 
ATOM     18  C   UNL A   1      36.529  29.963  30.124  1.00  0.00     0.027 A 
ATOM     19  C   UNL A   1      37.458  30.219  27.892  1.00  0.00     0.065 A 
ATOM     20  C   UNL A   1      37.429  28.930  30.386  1.00  0.00     0.005 A 
ATOM     21  C   UNL A   1      38.350  29.190  28.172  1.00  0.00     0.125 A 
ATOM     22  C   UNL A   1      38.344  28.546  29.407  1.00  0.00     0.039 A 
ATOM     23  F   UNL A   1      39.253  28.832  27.250  1.00  0.00    -0.207 F 
ENDBRANCH  14  17
BRANCH  16  24
ATOM     24  C   UNL A   1      33.861  30.523  27.465  1.00  0.00    -0.001 A 
ATOM     25  C   UNL A   1      34.639  29.403  27.132  1.00  0.00     0.011 A 
ATOM     26  C   UNL A   1      32.479  30.468  27.257  1.00  0.00     0.011 A 
ATOM     27  C   UNL A   1      34.076  28.286  26.523  1.00  0.00     0.021 A 
ATOM     28  C   UNL A   1      31.900  29.347  26.642  1.00  0.00     0.021 A 
ATOM     29  C   UNL A   1      32.714  28.278  26.240  1.00  0.00     0.067 A 
BRANCH  29  30
ATOM     30  S   UNL A   1      32.009  26.860  25.428  1.00  0.00     0.175 S 
ATOM     31  C   UNL A   1      33.270  26.304  24.332  1.00  0.00     0.163 C 
ATOM     32  O   UNL A   1      31.884  25.805  26.433  1.00  0.00    -0.224 OA
ATOM     33  O   UNL A   1      30.899  27.304  24.633  1.00  0.00    -0.224 OA
ENDBRANCH  29  30
ENDBRANCH  16  24
ENDBRANCH  10  11
ENDBRANCH   7  10
ENDBRANCH   5   6
BRANCH   5  34
ATOM     34  C   UNL A   1      32.670  34.447  33.109  1.00  0.00     0.193 C 
BRANCH  34  35
ATOM     35  O   UNL A   1      32.883  33.080  33.428  1.00  0.00    -0.394 OA
ATOM     36  H   UNL A   1      32.175  32.543  33.040  1.00  0.00     0.210 HD
ENDBRANCH  34  35
ENDBRANCH   5  34
ENDBRANCH   3   5
ENDBRANCH   2   3
ENDBRANCH   1   2
BRANCH   1  37
ATOM     37  C   UNL A   1      36.373  34.197  34.662  1.00  0.00     0.275 C 
BRANCH  37  38
ATOM     38  O   UNL A   1      37.680  33.640  34.995  1.00  0.00    -0.458 OA
BRANCH  38  39
ATOM     39  C   UNL A   1      38.741  34.220  34.368  1.00  0.00     0.338 C 
ATOM     40  O   UNL A   1      39.050  35.392  34.538  1.00  0.00    -0.246 OA
BRANCH  39  41
ATOM     41  C   UNL A   1      39.575  33.262  33.545  1.00  0.00     0.060 A 
ATOM     42  C   UNL A   1      38.974  32.055  33.259  1.00  0.00     0.016 A 
ATOM     43  C   UNL A   1      40.905  33.412  33.093  1.00  0.00     0.016 A 
ATOM     44  C   UNL A   1      39.656  31.082  32.501  1.00  0.00     0.010 A 
ATOM     45  C   UNL A   1      41.629  32.355  32.382  1.00  0.00     0.010 A 
ATOM     46  C   UNL A   1      41.024  31.136  32.053  1.00  0.00    -0.014 A 
BRANCH  46  47
ATOM     47  C   UNL A   1      41.636  29.793  31.462  1.00  0.00     0.031 A 
ATOM     48  C   UNL A   1      41.990  28.956  32.648  1.00  0.00     0.074 A 
ATOM     49  C   UNL A   1      41.998  29.162  30.280  1.00  0.00     0.049 A 
ATOM     50  N   UNL A   1      42.773  29.414  33.583  1.00  0.00    -0.248 NA
ATOM     51  C   UNL A   1      41.204  27.776  33.024  1.00  0.00     0.031 C 
ATOM     52  C   UNL A   1      41.905  29.650  28.899  1.00  0.00     0.029 A 
ATOM     53  N   UNL A   1      42.560  27.874  30.052  1.00  0.00    -0.354 N 
ATOM     54  C   UNL A   1      42.764  28.479  34.581  1.00  0.00     0.074 A 
ATOM     55  C   UNL A   1      41.668  27.578  34.261  1.00  0.00     0.031 C 
ATOM     56  C   UNL A   1      42.270  28.684  28.004  1.00  0.00     0.029 A 
ATOM     57  C   UNL A   1      42.711  27.472  28.690  1.00  0.00     0.049 A 
ATOM     58  H   UNL A   1      42.829  27.287  30.796  1.00  0.00     0.167 HD
ATOM     59  C   UNL A   1      43.931  28.227  35.229  1.00  0.00     0.037 A 
ATOM     60  C   UNL A   1      43.202  26.291  28.155  1.00  0.00     0.037 A 
ATOM     61  C   UNL A   1      44.431  26.926  34.892  1.00  0.00     0.049 A 
ATOM     62  C   UNL A   1      43.972  25.613  29.213  1.00  0.00     0.074 A 
ATOM     63  C   UNL A   1      43.883  25.659  34.878  1.00  0.00     0.029 A 
ATOM     64  N   UNL A   1      45.484  26.912  34.001  1.00  0.00    -0.354 N 
ATOM     65  N   UNL A   1      45.154  26.002  29.569  1.00  0.00    -0.248 NA
ATOM     66  C   UNL A   1      43.492  24.393  29.859  1.00  0.00     0.031 C 
ATOM     67  C   UNL A   1      44.305  25.090  33.645  1.00  0.00     0.029 A 
ATOM     68  C   UNL A   1      45.272  25.912  33.075  1.00  0.00     0.049 A 
ATOM     69  H   UNL A   1      46.258  27.519  34.022  1.00  0.00     0.167 HD
ATOM     70  C   UNL A   1      45.370  25.369  30.751  1.00  0.00     0.074 A 
ATOM     71  C   UNL A   1      44.467  24.238  30.756  1.00  0.00     0.031 C 
ATOM     72  C   UNL A   1      45.886  26.084  31.777  1.00  0.00     0.037 A 
BRANCH  59  73
ATOM     73  C   UNL A   1      44.797  29.432  35.476  1.00  0.00     0.058 A 
ATOM     74  C   UNL A   1      45.534  29.966  34.413  1.00  0.00     0.135 A 
ATOM     75  C   UNL A   1      45.011  29.989  36.755  1.00  0.00     0.135 A 
ATOM     76  F   UNL A   1      45.348  29.505  33.165  1.00  0.00    -0.206 F 
ATOM     77  C   UNL A   1      46.485  30.964  34.616  1.00  0.00     0.059 A 
ATOM     78  C   UNL A   1      45.991  30.950  36.990  1.00  0.00     0.059 A 
ATOM     79  F   UNL A   1      44.263  29.593  37.798  1.00  0.00    -0.206 F 
ATOM     80  C   UNL A   1      46.729  31.428  35.912  1.00  0.00     0.060 A 
BRANCH  80  81
ATOM     81  S   UNL A   1      48.076  32.603  36.171  1.00  0.00     0.124 S 
ATOM     82  O   UNL A   1      47.964  33.474  35.002  1.00  0.00    -0.237 OA
ATOM     83  O   UNL A   1      47.698  33.216  37.439  1.00  0.00    -0.237 OA
ATOM     84  O   UNL A   1      49.268  31.763  36.192  1.00  0.00    -0.744 OA
ENDBRANCH  80  81
ENDBRANCH  59  73
BRANCH  60  85
ATOM     85  C   UNL A   1      43.314  25.503  26.836  1.00  0.00     0.058 A 
ATOM     86  C   UNL A   1      44.536  25.518  26.083  1.00  0.00     0.135 A 
ATOM     87  C   UNL A   1      42.454  24.451  26.495  1.00  0.00     0.135 A 
ATOM     88  F   UNL A   1      45.443  26.490  26.253  1.00  0.00    -0.206 F 
ATOM     89  C   UNL A   1      44.934  24.504  25.200  1.00  0.00     0.059 A 
ATOM     90  C   UNL A   1      42.819  23.433  25.575  1.00  0.00     0.059 A 
ATOM     91  F   UNL A   1      41.272  24.325  27.117  1.00  0.00    -0.206 F 
ATOM     92  C   UNL A   1      44.083  23.437  24.979  1.00  0.00     0.060 A 
BRANCH  92  93
ATOM     93  S   UNL A   1      44.713  22.023  24.024  1.00  0.00     0.124 S 
ATOM     94  O   UNL A   1      44.103  20.884  24.701  1.00  0.00    -0.237 OA
ATOM     95  O   UNL A   1      44.209  22.307  22.683  1.00  0.00    -0.237 OA
ATOM     96  O   UNL A   1      46.162  22.136  24.171  1.00  0.00    -0.744 OA
ENDBRANCH  92  93
ENDBRANCH  60  85
BRANCH  72  97
ATOM     97  C   UNL A   1      46.932  27.145  31.446  1.00  0.00     0.058 A 
ATOM     98  C   UNL A   1      46.731  28.375  30.777  1.00  0.00     0.135 A 
ATOM     99  C   UNL A   1      48.264  26.854  31.794  1.00  0.00     0.135 A 
ATOM    100  F   UNL A   1      45.504  28.853  30.516  1.00  0.00    -0.206 F 
ATOM    101  C   UNL A   1      47.794  29.189  30.371  1.00  0.00     0.059 A 
ATOM    102  C   UNL A   1      49.332  27.684  31.457  1.00  0.00     0.059 A 
ATOM    103  F   UNL A   1      48.546  25.735  32.482  1.00  0.00    -0.206 F 
ATOM    104  C   UNL A   1      49.094  28.824  30.698  1.00  0.00     0.060 A 
BRANCH 104 105
ATOM    105  S   UNL A   1      50.474  29.845  30.138  1.00  0.00     0.124 S 
ATOM    106  O   UNL A   1      50.752  30.649  31.325  1.00  0.00    -0.237 OA
ATOM    107  O   UNL A   1      51.493  28.860  29.795  1.00  0.00    -0.237 OA
ATOM    108  O   UNL A   1      49.910  30.583  29.011  1.00  0.00    -0.744 OA
ENDBRANCH 104 105
ENDBRANCH  72  97
ENDBRANCH  46  47
ENDBRANCH  39  41
ENDBRANCH  38  39
ENDBRANCH  37  38
ENDBRANCH   1  37
TORSDOF 22
ENDMDL
