MODEL 1
REMARK VINA RESULT:     -11.7      0.000      0.000
REMARK SMILES CC(=O)c1ccccc1S(=O)(=O)N1CCC(C(=O)OCCOC(=O)c2ccc(-c3c4nc(c(-c5c(F)cc(S(=O)(=O)[O-])cc5F)c5ccc([nH]5)c(-c5c(F)cc(S(=O)(=O)[O-])cc5F)c5nc(c(-c6c(F)cc(S(=O)(=O)[O-])cc6F)c6ccc3[nH]6)C=C5)C=C4)cc2)CC1
REMARK SMILES IDX 20 1 19 2 17 3 18 4 16 5 13 6 14 7 92 8 15 9 91 10 10 11
REMARK SMILES IDX 11 12 12 13 9 14 4 15 5 16 6 17 8 18 7 19 2 20 1 21 3 22
REMARK SMILES IDX 21 23 22 24 23 25 24 26 25 27 26 28 90 29 27 30 89 31 28 32
REMARK SMILES IDX 29 33 30 34 83 35 31 36 88 37 82 38 84 39 32 40 87 41 81 42
REMARK SMILES IDX 80 43 33 45 67 46 46 47 66 48 47 49 50 50 65 51 85 52 48 53
REMARK SMILES IDX 49 54 64 56 86 57 51 58 34 59 35 60 44 61 36 62 37 63 43 64
REMARK SMILES IDX 45 65 38 66 39 67 40 68 41 69 42 70 68 71 69 72 78 73 70 74
REMARK SMILES IDX 71 75 77 76 79 77 72 78 73 79 74 80 75 81 76 82 52 83 53 84
REMARK SMILES IDX 62 85 54 86 55 87 61 88 63 89 56 90 57 91 58 92 59 93 60 94
REMARK H PARENT 84 44 50 55
REMARK Flexibility Score: inf
ROOT
ATOM      1  C   UNL A   1      39.627  21.268  26.122  1.00  0.00     0.274 C 
ENDROOT
BRANCH   1   2
ATOM      2  O   UNL A   1      38.563  21.960  25.440  1.00  0.00    -0.462 OA
BRANCH   2   3
ATOM      3  C   UNL A   1      37.550  21.190  24.967  1.00  0.00     0.309 C 
ATOM      4  O   UNL A   1      37.668  20.012  24.648  1.00  0.00    -0.252 OA
BRANCH   3   5
ATOM      5  C   UNL A   1      36.230  21.930  24.876  1.00  0.00     0.102 C 
ATOM      6  N   UNL A   1      33.770  23.107  24.627  1.00  0.00    -0.198 NA
ATOM      7  C   UNL A   1      34.553  23.132  23.367  1.00  0.00     0.103 C 
ATOM      8  C   UNL A   1      33.752  21.767  25.302  1.00  0.00     0.103 C 
ATOM      9  C   UNL A   1      36.011  22.742  23.599  1.00  0.00     0.032 C 
ATOM     10  C   UNL A   1      35.056  20.989  25.091  1.00  0.00     0.032 C 
BRANCH   6  11
ATOM     11  S   UNL A   1      32.256  23.893  24.532  1.00  0.00     0.243 S 
ATOM     12  O   UNL A   1      31.320  23.150  25.352  1.00  0.00    -0.207 OA
ATOM     13  O   UNL A   1      31.967  24.140  23.133  1.00  0.00    -0.207 OA
BRANCH  11  14
ATOM     14  C   UNL A   1      32.389  25.508  25.248  1.00  0.00     0.093 A 
ATOM     15  C   UNL A   1      31.326  26.308  25.658  1.00  0.00     0.037 A 
ATOM     16  C   UNL A   1      31.575  27.547  26.272  1.00  0.00     0.013 A 
ATOM     17  C   UNL A   1      32.883  27.965  26.518  1.00  0.00     0.001 A 
ATOM     18  C   UNL A   1      33.706  25.943  25.495  1.00  0.00     0.022 A 
ATOM     19  C   UNL A   1      33.950  27.158  26.136  1.00  0.00     0.001 A 
BRANCH  15  20
ATOM     20  C   UNL A   1      29.911  25.928  25.577  1.00  0.00     0.161 C 
ATOM     21  C   UNL A   1      29.212  26.197  24.273  1.00  0.00     0.093 C 
ATOM     22  O   UNL A   1      29.401  25.305  26.501  1.00  0.00    -0.294 OA
ENDBRANCH  15  20
ENDBRANCH  11  14
ENDBRANCH   6  11
ENDBRANCH   3   5
ENDBRANCH   2   3
ENDBRANCH   1   2
BRANCH   1  23
ATOM     23  C   UNL A   1      40.427  22.229  27.006  1.00  0.00     0.275 C 
BRANCH  23  24
ATOM     24  O   UNL A   1      40.013  23.597  26.831  1.00  0.00    -0.458 OA
BRANCH  24  25
ATOM     25  C   UNL A   1      41.018  24.482  26.633  1.00  0.00     0.338 C 
ATOM     26  O   UNL A   1      41.785  24.529  25.687  1.00  0.00    -0.246 OA
BRANCH  25  27
ATOM     27  C   UNL A   1      41.027  25.477  27.716  1.00  0.00     0.060 A 
ATOM     28  C   UNL A   1      39.894  25.599  28.521  1.00  0.00     0.016 A 
ATOM     29  C   UNL A   1      42.107  26.347  27.874  1.00  0.00     0.016 A 
ATOM     30  C   UNL A   1      39.821  26.609  29.477  1.00  0.00     0.010 A 
ATOM     31  C   UNL A   1      42.043  27.345  28.853  1.00  0.00     0.010 A 
ATOM     32  C   UNL A   1      40.895  27.490  29.653  1.00  0.00    -0.014 A 
BRANCH  32  33
ATOM     33  C   UNL A   1      40.830  28.555  30.687  1.00  0.00     0.031 A 
ATOM     34  C   UNL A   1      41.785  28.549  31.847  1.00  0.00     0.074 A 
ATOM     35  C   UNL A   1      39.895  29.518  30.585  1.00  0.00     0.049 A 
ATOM     36  N   UNL A   1      41.827  29.343  32.885  1.00  0.00    -0.248 NA
ATOM     37  C   UNL A   1      42.827  27.510  31.841  1.00  0.00     0.031 C 
ATOM     38  C   UNL A   1      38.933  29.646  29.490  1.00  0.00     0.029 A 
ATOM     39  N   UNL A   1      39.595  30.566  31.418  1.00  0.00    -0.354 N 
ATOM     40  C   UNL A   1      42.878  28.887  33.672  1.00  0.00     0.074 A 
ATOM     41  C   UNL A   1      43.439  27.736  32.995  1.00  0.00     0.031 C 
ATOM     42  C   UNL A   1      38.157  30.717  29.711  1.00  0.00     0.029 A 
ATOM     43  C   UNL A   1      38.529  31.320  30.989  1.00  0.00     0.049 A 
ATOM     44  H   UNL A   1      40.096  30.760  32.243  1.00  0.00     0.167 HD
ATOM     45  C   UNL A   1      43.330  29.384  34.850  1.00  0.00     0.037 A 
ATOM     46  C   UNL A   1      37.905  32.362  31.569  1.00  0.00     0.037 A 
ATOM     47  C   UNL A   1      42.773  30.539  35.508  1.00  0.00     0.049 A 
ATOM     48  C   UNL A   1      38.385  32.855  32.904  1.00  0.00     0.074 A 
ATOM     49  C   UNL A   1      43.195  31.153  36.675  1.00  0.00     0.029 A 
ATOM     50  N   UNL A   1      41.664  31.247  35.066  1.00  0.00    -0.354 N 
ATOM     51  N   UNL A   1      39.397  32.432  33.623  1.00  0.00    -0.248 NA
ATOM     52  C   UNL A   1      37.633  33.959  33.513  1.00  0.00     0.031 C 
ATOM     53  C   UNL A   1      42.310  32.197  36.966  1.00  0.00     0.029 A 
ATOM     54  C   UNL A   1      41.366  32.268  35.955  1.00  0.00     0.049 A 
ATOM     55  H   UNL A   1      41.163  31.053  34.241  1.00  0.00     0.167 HD
ATOM     56  C   UNL A   1      39.415  33.231  34.761  1.00  0.00     0.074 A 
ATOM     57  C   UNL A   1      38.318  34.169  34.629  1.00  0.00     0.031 C 
ATOM     58  C   UNL A   1      40.266  33.192  35.817  1.00  0.00     0.037 A 
BRANCH  45  59
ATOM     59  C   UNL A   1      44.461  28.656  35.524  1.00  0.00     0.058 A 
ATOM     60  C   UNL A   1      45.806  28.963  35.261  1.00  0.00     0.135 A 
ATOM     61  C   UNL A   1      44.193  27.647  36.463  1.00  0.00     0.135 A 
ATOM     62  F   UNL A   1      46.121  29.911  34.365  1.00  0.00    -0.206 F 
ATOM     63  C   UNL A   1      46.844  28.269  35.877  1.00  0.00     0.059 A 
ATOM     64  C   UNL A   1      45.214  26.957  37.110  1.00  0.00     0.059 A 
ATOM     65  F   UNL A   1      42.925  27.315  36.755  1.00  0.00    -0.206 F 
ATOM     66  C   UNL A   1      46.537  27.262  36.795  1.00  0.00     0.060 A 
BRANCH  66  67
ATOM     67  S   UNL A   1      47.893  26.353  37.567  1.00  0.00     0.124 S 
ATOM     68  O   UNL A   1      47.546  26.462  38.981  1.00  0.00    -0.237 OA
ATOM     69  O   UNL A   1      47.754  25.024  36.982  1.00  0.00    -0.237 OA
ATOM     70  O   UNL A   1      49.080  27.097  37.154  1.00  0.00    -0.744 OA
ENDBRANCH  66  67
ENDBRANCH  45  59
BRANCH  46  71
ATOM     71  C   UNL A   1      36.753  33.003  30.882  1.00  0.00     0.058 A 
ATOM     72  C   UNL A   1      35.442  32.788  31.327  1.00  0.00     0.135 A 
ATOM     73  C   UNL A   1      36.943  33.872  29.795  1.00  0.00     0.135 A 
ATOM     74  F   UNL A   1      35.212  31.956  32.355  1.00  0.00    -0.206 F 
ATOM     75  C   UNL A   1      34.356  33.411  30.721  1.00  0.00     0.059 A 
ATOM     76  C   UNL A   1      35.875  34.525  29.187  1.00  0.00     0.059 A 
ATOM     77  F   UNL A   1      38.180  34.118  29.337  1.00  0.00    -0.206 F 
ATOM     78  C   UNL A   1      34.585  34.284  29.655  1.00  0.00     0.060 A 
BRANCH  78  79
ATOM     79  S   UNL A   1      33.174  35.140  28.922  1.00  0.00     0.124 S 
ATOM     80  O   UNL A   1      32.340  35.389  30.092  1.00  0.00    -0.237 OA
ATOM     81  O   UNL A   1      33.802  36.314  28.324  1.00  0.00    -0.237 OA
ATOM     82  O   UNL A   1      32.648  34.166  27.969  1.00  0.00    -0.744 OA
ENDBRANCH  78  79
ENDBRANCH  46  71
BRANCH  58  83
ATOM     83  C   UNL A   1      40.057  34.205  36.908  1.00  0.00     0.058 A 
ATOM     84  C   UNL A   1      40.606  35.494  36.829  1.00  0.00     0.135 A 
ATOM     85  C   UNL A   1      39.261  33.898  38.023  1.00  0.00     0.135 A 
ATOM     86  F   UNL A   1      41.383  35.836  35.791  1.00  0.00    -0.206 F 
ATOM     87  C   UNL A   1      40.386  36.439  37.828  1.00  0.00     0.059 A 
ATOM     88  C   UNL A   1      39.007  34.835  39.020  1.00  0.00     0.059 A 
ATOM     89  F   UNL A   1      38.706  32.681  38.144  1.00  0.00    -0.206 F 
ATOM     90  C   UNL A   1      39.583  36.101  38.918  1.00  0.00     0.060 A 
BRANCH  90  91
ATOM     91  S   UNL A   1      39.273  37.348  40.187  1.00  0.00     0.124 S 
ATOM     92  O   UNL A   1      40.623  37.822  40.469  1.00  0.00    -0.237 OA
ATOM     93  O   UNL A   1      38.402  38.291  39.492  1.00  0.00    -0.237 OA
ATOM     94  O   UNL A   1      38.636  36.590  41.259  1.00  0.00    -0.744 OA
ENDBRANCH  90  91
ENDBRANCH  58  83
ENDBRANCH  32  33
ENDBRANCH  25  27
ENDBRANCH  24  25
ENDBRANCH  23  24
ENDBRANCH   1  23
TORSDOF 17
ENDMDL
MODEL 2
REMARK VINA RESULT:     -11.7      6.529     11.968
REMARK SMILES CC(=O)c1ccccc1S(=O)(=O)N1CCC(C(=O)OCCOC(=O)c2ccc(-c3c4nc(c(-c5c(F)cc(S(=O)(=O)[O-])cc5F)c5ccc([nH]5)c(-c5c(F)cc(S(=O)(=O)[O-])cc5F)c5nc(c(-c6c(F)cc(S(=O)(=O)[O-])cc6F)c6ccc3[nH]6)C=C5)C=C4)cc2)CC1
REMARK SMILES IDX 20 1 19 2 17 3 18 4 16 5 13 6 14 7 92 8 15 9 91 10 10 11
REMARK SMILES IDX 11 12 12 13 9 14 4 15 5 16 6 17 8 18 7 19 2 20 1 21 3 22
REMARK SMILES IDX 21 23 22 24 23 25 24 26 25 27 26 28 90 29 27 30 89 31 28 32
REMARK SMILES IDX 29 33 30 34 83 35 31 36 88 37 82 38 84 39 32 40 87 41 81 42
REMARK SMILES IDX 80 43 33 45 67 46 46 47 66 48 47 49 50 50 65 51 85 52 48 53
REMARK SMILES IDX 49 54 64 56 86 57 51 58 34 59 35 60 44 61 36 62 37 63 43 64
REMARK SMILES IDX 45 65 38 66 39 67 40 68 41 69 42 70 68 71 69 72 78 73 70 74
REMARK SMILES IDX 71 75 77 76 79 77 72 78 73 79 74 80 75 81 76 82 52 83 53 84
REMARK SMILES IDX 62 85 54 86 55 87 61 88 63 89 56 90 57 91 58 92 59 93 60 94
REMARK H PARENT 84 44 50 55
REMARK Flexibility Score: inf
ROOT
ATOM      1  C   UNL A   1      33.187  30.332  27.218  1.00  0.00     0.274 C 
ENDROOT
BRANCH   1   2
ATOM      2  O   UNL A   1      33.258  29.826  25.871  1.00  0.00    -0.462 OA
BRANCH   2   3
ATOM      3  C   UNL A   1      32.174  29.142  25.426  1.00  0.00     0.309 C 
ATOM      4  O   UNL A   1      31.135  29.667  25.042  1.00  0.00    -0.252 OA
BRANCH   3   5
ATOM      5  C   UNL A   1      32.369  27.638  25.439  1.00  0.00     0.102 C 
ATOM      6  N   UNL A   1      32.712  24.930  25.657  1.00  0.00    -0.198 NA
ATOM      7  C   UNL A   1      33.959  25.693  25.911  1.00  0.00     0.103 C 
ATOM      8  C   UNL A   1      31.516  25.465  26.386  1.00  0.00     0.103 C 
ATOM      9  C   UNL A   1      33.819  27.158  25.503  1.00  0.00     0.032 C 
ATOM     10  C   UNL A   1      31.566  26.988  26.553  1.00  0.00     0.032 C 
BRANCH   6  11
ATOM     11  S   UNL A   1      32.901  23.233  25.715  1.00  0.00     0.243 S 
ATOM     12  O   UNL A   1      31.895  22.648  24.850  1.00  0.00    -0.207 OA
ATOM     13  O   UNL A   1      32.987  22.840  27.107  1.00  0.00    -0.207 OA
BRANCH  11  14
ATOM     14  C   UNL A   1      34.476  22.795  25.032  1.00  0.00     0.093 A 
ATOM     15  C   UNL A   1      34.896  23.040  23.728  1.00  0.00     0.037 A 
ATOM     16  C   UNL A   1      36.201  22.696  23.335  1.00  0.00     0.013 A 
ATOM     17  C   UNL A   1      37.097  22.151  24.253  1.00  0.00     0.001 A 
ATOM     18  C   UNL A   1      35.387  22.237  25.951  1.00  0.00     0.022 A 
ATOM     19  C   UNL A   1      36.692  21.928  25.566  1.00  0.00     0.001 A 
BRANCH  15  20
ATOM     20  C   UNL A   1      34.098  23.726  22.705  1.00  0.00     0.161 C 
ATOM     21  C   UNL A   1      33.097  22.890  21.957  1.00  0.00     0.093 C 
ATOM     22  O   UNL A   1      34.182  24.943  22.593  1.00  0.00    -0.294 OA
ENDBRANCH  15  20
ENDBRANCH  11  14
ENDBRANCH   6  11
ENDBRANCH   3   5
ENDBRANCH   2   3
ENDBRANCH   1   2
BRANCH   1  23
ATOM     23  C   UNL A   1      34.535  30.910  27.658  1.00  0.00     0.275 C 
BRANCH  23  24
ATOM     24  O   UNL A   1      35.371  29.919  28.285  1.00  0.00    -0.458 OA
BRANCH  24  25
ATOM     25  C   UNL A   1      36.096  30.360  29.339  1.00  0.00     0.338 C 
ATOM     26  O   UNL A   1      35.676  30.881  30.358  1.00  0.00    -0.246 OA
BRANCH  25  27
ATOM     27  C   UNL A   1      37.518  30.053  29.130  1.00  0.00     0.060 A 
ATOM     28  C   UNL A   1      37.975  29.857  27.826  1.00  0.00     0.016 A 
ATOM     29  C   UNL A   1      38.373  29.865  30.217  1.00  0.00     0.016 A 
ATOM     30  C   UNL A   1      39.287  29.448  27.599  1.00  0.00     0.010 A 
ATOM     31  C   UNL A   1      39.698  29.480  29.987  1.00  0.00     0.010 A 
ATOM     32  C   UNL A   1      40.161  29.257  28.677  1.00  0.00    -0.014 A 
BRANCH  32  33
ATOM     33  C   UNL A   1      41.566  28.842  28.438  1.00  0.00     0.031 A 
ATOM     34  C   UNL A   1      42.679  29.851  28.496  1.00  0.00     0.074 A 
ATOM     35  C   UNL A   1      41.835  27.555  28.149  1.00  0.00     0.049 A 
ATOM     36  N   UNL A   1      43.951  29.693  28.236  1.00  0.00    -0.248 NA
ATOM     37  C   UNL A   1      42.311  31.218  28.897  1.00  0.00     0.031 C 
ATOM     38  C   UNL A   1      40.844  26.479  28.094  1.00  0.00     0.029 A 
ATOM     39  N   UNL A   1      43.020  26.934  27.842  1.00  0.00    -0.354 N 
ATOM     40  C   UNL A   1      44.534  30.943  28.411  1.00  0.00     0.074 A 
ATOM     41  C   UNL A   1      43.471  31.851  28.789  1.00  0.00     0.031 C 
ATOM     42  C   UNL A   1      41.462  25.330  27.782  1.00  0.00     0.029 A 
ATOM     43  C   UNL A   1      42.882  25.596  27.564  1.00  0.00     0.049 A 
ATOM     44  H   UNL A   1      43.885  27.403  27.824  1.00  0.00     0.167 HD
ATOM     45  C   UNL A   1      45.835  31.296  28.269  1.00  0.00     0.037 A 
ATOM     46  C   UNL A   1      43.789  24.689  27.154  1.00  0.00     0.037 A 
ATOM     47  C   UNL A   1      46.888  30.380  27.907  1.00  0.00     0.049 A 
ATOM     48  C   UNL A   1      45.214  25.119  26.943  1.00  0.00     0.074 A 
ATOM     49  C   UNL A   1      48.244  30.628  27.792  1.00  0.00     0.029 A 
ATOM     50  N   UNL A   1      46.701  29.041  27.587  1.00  0.00    -0.354 N 
ATOM     51  N   UNL A   1      45.756  26.297  27.139  1.00  0.00    -0.248 NA
ATOM     52  C   UNL A   1      46.147  24.101  26.444  1.00  0.00     0.031 C 
ATOM     53  C   UNL A   1      48.869  29.456  27.351  1.00  0.00     0.029 A 
ATOM     54  C   UNL A   1      47.910  28.462  27.240  1.00  0.00     0.049 A 
ATOM     55  H   UNL A   1      45.835  28.573  27.606  1.00  0.00     0.167 HD
ATOM     56  C   UNL A   1      47.099  26.157  26.807  1.00  0.00     0.074 A 
ATOM     57  C   UNL A   1      47.288  24.777  26.407  1.00  0.00     0.031 C 
ATOM     58  C   UNL A   1      48.085  27.088  26.835  1.00  0.00     0.037 A 
BRANCH  45  59
ATOM     59  C   UNL A   1      46.189  32.744  28.469  1.00  0.00     0.058 A 
ATOM     60  C   UNL A   1      46.167  33.669  27.412  1.00  0.00     0.135 A 
ATOM     61  C   UNL A   1      46.537  33.219  29.744  1.00  0.00     0.135 A 
ATOM     62  F   UNL A   1      45.851  33.270  26.170  1.00  0.00    -0.206 F 
ATOM     63  C   UNL A   1      46.514  35.003  27.605  1.00  0.00     0.059 A 
ATOM     64  C   UNL A   1      46.864  34.553  29.966  1.00  0.00     0.059 A 
ATOM     65  F   UNL A   1      46.571  32.378  30.791  1.00  0.00    -0.206 F 
ATOM     66  C   UNL A   1      46.869  35.433  28.886  1.00  0.00     0.060 A 
BRANCH  66  67
ATOM     67  S   UNL A   1      47.342  37.161  29.117  1.00  0.00     0.124 S 
ATOM     68  O   UNL A   1      48.017  37.447  27.855  1.00  0.00    -0.237 OA
ATOM     69  O   UNL A   1      46.053  37.817  29.309  1.00  0.00    -0.237 OA
ATOM     70  O   UNL A   1      48.205  37.122  30.295  1.00  0.00    -0.744 OA
ENDBRANCH  66  67
ENDBRANCH  45  59
BRANCH  46  71
ATOM     71  C   UNL A   1      43.368  23.284  26.915  1.00  0.00     0.058 A 
ATOM     72  C   UNL A   1      43.269  22.777  25.613  1.00  0.00     0.135 A 
ATOM     73  C   UNL A   1      43.094  22.413  27.982  1.00  0.00     0.135 A 
ATOM     74  F   UNL A   1      43.510  23.576  24.563  1.00  0.00    -0.206 F 
ATOM     75  C   UNL A   1      42.915  21.453  25.373  1.00  0.00     0.059 A 
ATOM     76  C   UNL A   1      42.760  21.080  27.768  1.00  0.00     0.059 A 
ATOM     77  F   UNL A   1      43.183  22.849  29.248  1.00  0.00    -0.206 F 
ATOM     78  C   UNL A   1      42.669  20.610  26.459  1.00  0.00     0.060 A 
BRANCH  78  79
ATOM     79  S   UNL A   1      42.277  18.878  26.136  1.00  0.00     0.124 S 
ATOM     80  O   UNL A   1      42.551  18.268  27.431  1.00  0.00    -0.237 OA
ATOM     81  O   UNL A   1      40.872  18.946  25.747  1.00  0.00    -0.237 OA
ATOM     82  O   UNL A   1      43.199  18.519  25.062  1.00  0.00    -0.744 OA
ENDBRANCH  78  79
ENDBRANCH  46  71
BRANCH  58  83
ATOM     83  C   UNL A   1      49.465  26.642  26.438  1.00  0.00     0.058 A 
ATOM     84  C   UNL A   1      50.295  25.939  27.325  1.00  0.00     0.135 A 
ATOM     85  C   UNL A   1      49.945  26.879  25.140  1.00  0.00     0.135 A 
ATOM     86  F   UNL A   1      49.889  25.695  28.581  1.00  0.00    -0.206 F 
ATOM     87  C   UNL A   1      51.560  25.502  26.944  1.00  0.00     0.059 A 
ATOM     88  C   UNL A   1      51.196  26.428  24.730  1.00  0.00     0.059 A 
ATOM     89  F   UNL A   1      49.189  27.540  24.249  1.00  0.00    -0.206 F 
ATOM     90  C   UNL A   1      52.001  25.749  25.643  1.00  0.00     0.060 A 
BRANCH  90  91
ATOM     91  S   UNL A   1      53.629  25.142  25.148  1.00  0.00     0.124 S 
ATOM     92  O   UNL A   1      53.663  25.508  23.737  1.00  0.00    -0.237 OA
ATOM     93  O   UNL A   1      54.522  25.896  26.021  1.00  0.00    -0.237 OA
ATOM     94  O   UNL A   1      53.554  23.710  25.425  1.00  0.00    -0.744 OA
ENDBRANCH  90  91
ENDBRANCH  58  83
ENDBRANCH  32  33
ENDBRANCH  25  27
ENDBRANCH  24  25
ENDBRANCH  23  24
ENDBRANCH   1  23
TORSDOF 17
ENDMDL
MODEL 3
REMARK VINA RESULT:     -11.7      0.828      1.730
REMARK SMILES CC(=O)c1ccccc1S(=O)(=O)N1CCC(C(=O)OCCOC(=O)c2ccc(-c3c4nc(c(-c5c(F)cc(S(=O)(=O)[O-])cc5F)c5ccc([nH]5)c(-c5c(F)cc(S(=O)(=O)[O-])cc5F)c5nc(c(-c6c(F)cc(S(=O)(=O)[O-])cc6F)c6ccc3[nH]6)C=C5)C=C4)cc2)CC1
REMARK SMILES IDX 20 1 19 2 17 3 18 4 16 5 13 6 14 7 92 8 15 9 91 10 10 11
REMARK SMILES IDX 11 12 12 13 9 14 4 15 5 16 6 17 8 18 7 19 2 20 1 21 3 22
REMARK SMILES IDX 21 23 22 24 23 25 24 26 25 27 26 28 90 29 27 30 89 31 28 32
REMARK SMILES IDX 29 33 30 34 83 35 31 36 88 37 82 38 84 39 32 40 87 41 81 42
REMARK SMILES IDX 80 43 33 45 67 46 46 47 66 48 47 49 50 50 65 51 85 52 48 53
REMARK SMILES IDX 49 54 64 56 86 57 51 58 34 59 35 60 44 61 36 62 37 63 43 64
REMARK SMILES IDX 45 65 38 66 39 67 40 68 41 69 42 70 68 71 69 72 78 73 70 74
REMARK SMILES IDX 71 75 77 76 79 77 72 78 73 79 74 80 75 81 76 82 52 83 53 84
REMARK SMILES IDX 62 85 54 86 55 87 61 88 63 89 56 90 57 91 58 92 59 93 60 94
REMARK H PARENT 84 44 50 55
REMARK Flexibility Score: inf
ROOT
ATOM      1  C   UNL A   1      39.243  21.469  26.154  1.00  0.00     0.274 C 
ENDROOT
BRANCH   1   2
ATOM      2  O   UNL A   1      38.055  22.184  25.766  1.00  0.00    -0.462 OA
BRANCH   2   3
ATOM      3  C   UNL A   1      37.067  21.446  25.196  1.00  0.00     0.309 C 
ATOM      4  O   UNL A   1      37.244  20.368  24.639  1.00  0.00    -0.252 OA
BRANCH   3   5
ATOM      5  C   UNL A   1      35.697  22.083  25.322  1.00  0.00     0.102 C 
ATOM      6  N   UNL A   1      33.258  23.256  25.740  1.00  0.00    -0.198 NA
ATOM      7  C   UNL A   1      33.288  21.826  26.137  1.00  0.00     0.103 C 
ATOM      8  C   UNL A   1      34.425  24.049  26.250  1.00  0.00     0.103 C 
ATOM      9  C   UNL A   1      34.546  21.125  25.631  1.00  0.00     0.032 C 
ATOM     10  C   UNL A   1      35.707  23.214  26.337  1.00  0.00     0.032 C 
BRANCH   6  11
ATOM     11  S   UNL A   1      31.734  24.006  25.921  1.00  0.00     0.243 S 
ATOM     12  O   UNL A   1      31.360  23.913  27.319  1.00  0.00    -0.207 OA
ATOM     13  O   UNL A   1      30.855  23.487  24.893  1.00  0.00    -0.207 OA
BRANCH  11  14
ATOM     14  C   UNL A   1      31.881  25.731  25.548  1.00  0.00     0.093 A 
ATOM     15  C   UNL A   1      32.154  26.274  24.295  1.00  0.00     0.037 A 
ATOM     16  C   UNL A   1      32.179  27.669  24.125  1.00  0.00     0.013 A 
ATOM     17  C   UNL A   1      31.889  28.518  25.192  1.00  0.00     0.001 A 
ATOM     18  C   UNL A   1      31.595  26.598  26.621  1.00  0.00     0.022 A 
ATOM     19  C   UNL A   1      31.588  27.982  26.441  1.00  0.00     0.001 A 
BRANCH  15  20
ATOM     20  C   UNL A   1      32.346  25.494  23.067  1.00  0.00     0.161 C 
ATOM     21  C   UNL A   1      33.729  24.959  22.816  1.00  0.00     0.093 C 
ATOM     22  O   UNL A   1      31.374  25.205  22.379  1.00  0.00    -0.294 OA
ENDBRANCH  15  20
ENDBRANCH  11  14
ENDBRANCH   6  11
ENDBRANCH   3   5
ENDBRANCH   2   3
ENDBRANCH   1   2
BRANCH   1  23
ATOM     23  C   UNL A   1      40.267  22.414  26.791  1.00  0.00     0.275 C 
BRANCH  23  24
ATOM     24  O   UNL A   1      39.878  23.795  26.670  1.00  0.00    -0.458 OA
BRANCH  24  25
ATOM     25  C   UNL A   1      40.902  24.676  26.581  1.00  0.00     0.338 C 
ATOM     26  O   UNL A   1      41.810  24.673  25.768  1.00  0.00    -0.246 OA
BRANCH  25  27
ATOM     27  C   UNL A   1      40.739  25.734  27.588  1.00  0.00     0.060 A 
ATOM     28  C   UNL A   1      41.696  26.748  27.653  1.00  0.00     0.016 A 
ATOM     29  C   UNL A   1      39.703  25.675  28.522  1.00  0.00     0.016 A 
ATOM     30  C   UNL A   1      41.639  27.698  28.670  1.00  0.00     0.010 A 
ATOM     31  C   UNL A   1      39.631  26.646  29.526  1.00  0.00     0.010 A 
ATOM     32  C   UNL A   1      40.605  27.658  29.614  1.00  0.00    -0.014 A 
BRANCH  32  33
ATOM     33  C   UNL A   1      40.528  28.682  30.686  1.00  0.00     0.031 A 
ATOM     34  C   UNL A   1      41.439  28.607  31.879  1.00  0.00     0.074 A 
ATOM     35  C   UNL A   1      39.620  29.671  30.591  1.00  0.00     0.049 A 
ATOM     36  N   UNL A   1      41.463  29.359  32.949  1.00  0.00    -0.248 NA
ATOM     37  C   UNL A   1      42.456  27.544  31.867  1.00  0.00     0.031 C 
ATOM     38  C   UNL A   1      38.701  29.866  29.468  1.00  0.00     0.029 A 
ATOM     39  N   UNL A   1      39.315  30.694  31.453  1.00  0.00    -0.354 N 
ATOM     40  C   UNL A   1      42.473  28.846  33.753  1.00  0.00     0.074 A 
ATOM     41  C   UNL A   1      43.031  27.709  33.051  1.00  0.00     0.031 C 
ATOM     42  C   UNL A   1      37.943  30.947  29.705  1.00  0.00     0.029 A 
ATOM     43  C   UNL A   1      38.283  31.490  31.017  1.00  0.00     0.049 A 
ATOM     44  H   UNL A   1      39.790  30.843  32.302  1.00  0.00     0.167 HD
ATOM     45  C   UNL A   1      42.894  29.286  34.965  1.00  0.00     0.037 A 
ATOM     46  C   UNL A   1      37.662  32.524  31.616  1.00  0.00     0.037 A 
ATOM     47  C   UNL A   1      42.341  30.428  35.649  1.00  0.00     0.049 A 
ATOM     48  C   UNL A   1      38.106  32.953  32.986  1.00  0.00     0.074 A 
ATOM     49  C   UNL A   1      42.735  30.985  36.853  1.00  0.00     0.029 A 
ATOM     50  N   UNL A   1      41.266  31.180  35.196  1.00  0.00    -0.354 N 
ATOM     51  N   UNL A   1      39.081  32.476  33.723  1.00  0.00    -0.248 NA
ATOM     52  C   UNL A   1      37.358  34.051  33.612  1.00  0.00     0.031 C 
ATOM     53  C   UNL A   1      41.865  32.039  37.154  1.00  0.00     0.029 A 
ATOM     54  C   UNL A   1      40.960  32.172  36.114  1.00  0.00     0.049 A 
ATOM     55  H   UNL A   1      40.790  31.031  34.347  1.00  0.00     0.167 HD
ATOM     56  C   UNL A   1      39.077  33.230  34.892  1.00  0.00     0.074 A 
ATOM     57  C   UNL A   1      38.008  34.200  34.759  1.00  0.00     0.031 C 
ATOM     58  C   UNL A   1      39.887  33.128  35.974  1.00  0.00     0.037 A 
BRANCH  45  59
ATOM     59  C   UNL A   1      43.983  28.504  35.648  1.00  0.00     0.058 A 
ATOM     60  C   UNL A   1      45.344  28.775  35.432  1.00  0.00     0.135 A 
ATOM     61  C   UNL A   1      43.657  27.478  36.550  1.00  0.00     0.135 A 
ATOM     62  F   UNL A   1      45.713  29.738  34.573  1.00  0.00    -0.206 F 
ATOM     63  C   UNL A   1      46.342  28.033  36.057  1.00  0.00     0.059 A 
ATOM     64  C   UNL A   1      44.638  26.739  37.205  1.00  0.00     0.059 A 
ATOM     65  F   UNL A   1      42.371  27.178  36.797  1.00  0.00    -0.206 F 
ATOM     66  C   UNL A   1      45.977  27.011  36.936  1.00  0.00     0.060 A 
BRANCH  66  67
ATOM     67  S   UNL A   1      47.282  26.038  37.719  1.00  0.00     0.124 S 
ATOM     68  O   UNL A   1      47.332  24.868  36.848  1.00  0.00    -0.237 OA
ATOM     69  O   UNL A   1      48.431  26.934  37.642  1.00  0.00    -0.237 OA
ATOM     70  O   UNL A   1      46.767  25.797  39.064  1.00  0.00    -0.744 OA
ENDBRANCH  66  67
ENDBRANCH  45  59
BRANCH  46  71
ATOM     71  C   UNL A   1      36.552  33.220  30.915  1.00  0.00     0.058 A 
ATOM     72  C   UNL A   1      35.222  33.027  31.310  1.00  0.00     0.135 A 
ATOM     73  C   UNL A   1      36.801  34.119  29.865  1.00  0.00     0.135 A 
ATOM     74  F   UNL A   1      34.935  32.169  32.301  1.00  0.00    -0.206 F 
ATOM     75  C   UNL A   1      34.174  33.701  30.692  1.00  0.00     0.059 A 
ATOM     76  C   UNL A   1      35.772  34.822  29.247  1.00  0.00     0.059 A 
ATOM     77  F   UNL A   1      38.059  34.345  29.456  1.00  0.00    -0.206 F 
ATOM     78  C   UNL A   1      34.460  34.602  29.665  1.00  0.00     0.060 A 
BRANCH  78  79
ATOM     79  S   UNL A   1      33.098  35.521  28.917  1.00  0.00     0.124 S 
ATOM     80  O   UNL A   1      33.814  36.512  28.121  1.00  0.00    -0.237 OA
ATOM     81  O   UNL A   1      32.401  34.482  28.165  1.00  0.00    -0.237 OA
ATOM     82  O   UNL A   1      32.371  36.043  30.070  1.00  0.00    -0.744 OA
ENDBRANCH  78  79
ENDBRANCH  46  71
BRANCH  58  83
ATOM     83  C   UNL A   1      39.664  34.103  37.097  1.00  0.00     0.058 A 
ATOM     84  C   UNL A   1      38.903  33.763  38.226  1.00  0.00     0.135 A 
ATOM     85  C   UNL A   1      40.257  35.376  37.065  1.00  0.00     0.135 A 
ATOM     86  F   UNL A   1      38.305  32.564  38.303  1.00  0.00    -0.206 F 
ATOM     87  C   UNL A   1      38.723  34.658  39.277  1.00  0.00     0.059 A 
ATOM     88  C   UNL A   1      40.111  36.276  38.116  1.00  0.00     0.059 A 
ATOM     89  F   UNL A   1      41.001  35.748  36.012  1.00  0.00    -0.206 F 
ATOM     90  C   UNL A   1      39.334  35.911  39.213  1.00  0.00     0.060 A 
BRANCH  90  91
ATOM     91  S   UNL A   1      39.125  37.049  40.602  1.00  0.00     0.124 S 
ATOM     92  O   UNL A   1      40.504  37.443  40.868  1.00  0.00    -0.237 OA
ATOM     93  O   UNL A   1      38.268  38.083  40.032  1.00  0.00    -0.237 OA
ATOM     94  O   UNL A   1      38.500  36.220  41.627  1.00  0.00    -0.744 OA
ENDBRANCH  90  91
ENDBRANCH  58  83
ENDBRANCH  32  33
ENDBRANCH  25  27
ENDBRANCH  24  25
ENDBRANCH  23  24
ENDBRANCH   1  23
TORSDOF 17
ENDMDL
