MODEL 1
REMARK VINA RESULT:     -10.5      0.000      0.000
REMARK SMILES CCc1ccccc1O[C@H]1CCC[C@@]([NH2+]C)(C(=O)OCCOC(=O)c2ccc(-c3c4nc(c(-c5c(F)cc(S(=O)(=O)[O-])cc5F)c5ccc([nH]5)c(-c5c(F)cc(S(=O)(=O)[O-])cc5F)c5nc(c(-c6c(F)cc(S(=O)(=O)[O-])cc6F)c6ccc3[nH]6)C=C5)C=C4)cc2)C1
REMARK SMILES IDX 20 1 19 2 17 3 18 4 14 5 10 6 11 7 91 8 12 9 13 10 9 11 8 12
REMARK SMILES IDX 3 13 4 14 5 15 7 16 6 17 2 18 1 19 15 20 16 21 21 24 22 25
REMARK SMILES IDX 23 26 24 27 25 28 26 29 90 30 27 31 89 32 28 33 29 34 30 35
REMARK SMILES IDX 83 36 31 37 88 38 82 39 84 40 32 41 87 42 81 43 80 44 33 46
REMARK SMILES IDX 67 47 46 48 66 49 47 50 50 51 65 52 85 53 48 54 49 55 64 57
REMARK SMILES IDX 86 58 51 59 34 60 35 61 44 62 36 63 37 64 43 65 45 66 38 67
REMARK SMILES IDX 39 68 40 69 41 70 42 71 68 72 69 73 78 74 70 75 71 76 77 77
REMARK SMILES IDX 79 78 72 79 73 80 74 81 75 82 76 83 52 84 53 85 62 86 54 87
REMARK SMILES IDX 55 88 61 89 63 90 56 91 57 92 58 93 59 94 60 95
REMARK H PARENT 15 22 15 23 84 45 50 56
REMARK Flexibility Score: inf
ROOT
ATOM      1  C   UNL A   1      36.622  23.500  23.984  1.00  0.00     0.274 C 
ENDROOT
BRANCH   1   2
ATOM      2  O   UNL A   1      35.541  22.700  23.433  1.00  0.00    -0.457 OA
BRANCH   2   3
ATOM      3  C   UNL A   1      34.366  23.376  23.284  1.00  0.00     0.368 C 
ATOM      4  O   UNL A   1      34.252  24.285  22.460  1.00  0.00    -0.245 OA
BRANCH   3   5
ATOM      5  C   UNL A   1      33.171  22.880  24.195  1.00  0.00     0.197 C 
ATOM      6  C   UNL A   1      31.967  24.903  25.538  1.00  0.00     0.180 C 
ATOM      7  C   UNL A   1      30.658  24.360  24.990  1.00  0.00     0.046 C 
ATOM      8  C   UNL A   1      33.049  23.781  25.465  1.00  0.00     0.126 C 
ATOM      9  C   UNL A   1      30.862  23.904  23.547  1.00  0.00     0.011 C 
ATOM     10  C   UNL A   1      31.813  22.715  23.468  1.00  0.00     0.081 C 
BRANCH   6  11
ATOM     11  O   UNL A   1      32.258  26.115  24.811  1.00  0.00    -0.490 OA
BRANCH  11  12
ATOM     12  C   UNL A   1      32.105  27.357  25.392  1.00  0.00     0.122 A 
ATOM     13  C   UNL A   1      31.488  28.397  24.643  1.00  0.00    -0.006 A 
ATOM     14  C   UNL A   1      31.424  29.696  25.196  1.00  0.00     0.007 A 
ATOM     15  C   UNL A   1      31.881  29.959  26.481  1.00  0.00     0.001 A 
ATOM     16  C   UNL A   1      32.505  27.636  26.705  1.00  0.00     0.047 A 
ATOM     17  C   UNL A   1      32.383  28.921  27.248  1.00  0.00     0.004 A 
BRANCH  13  18
ATOM     18  C   UNL A   1      30.706  28.183  23.358  1.00  0.00     0.036 C 
ATOM     19  C   UNL A   1      29.349  27.479  23.472  1.00  0.00     0.009 C 
ENDBRANCH  13  18
ENDBRANCH  11  12
ENDBRANCH   6  11
BRANCH   5  20
ATOM     20  N   UNL A   1      33.446  21.436  24.617  1.00  0.00    -0.334 N 
ATOM     21  C   UNL A   1      32.546  20.393  24.139  1.00  0.00     0.331 C 
ATOM     22  H   UNL A   1      33.424  21.409  25.636  1.00  0.00     0.347 HD
ATOM     23  H   UNL A   1      34.341  21.212  24.183  1.00  0.00     0.347 HD
ENDBRANCH   5  20
ENDBRANCH   3   5
ENDBRANCH   2   3
ENDBRANCH   1   2
BRANCH   1  24
ATOM     24  C   UNL A   1      37.065  23.163  25.433  1.00  0.00     0.275 C 
BRANCH  24  25
ATOM     25  O   UNL A   1      38.171  22.227  25.586  1.00  0.00    -0.458 OA
BRANCH  25  26
ATOM     26  C   UNL A   1      39.087  22.706  26.451  1.00  0.00     0.338 C 
ATOM     27  O   UNL A   1      39.922  21.988  26.971  1.00  0.00    -0.246 OA
BRANCH  26  28
ATOM     28  C   UNL A   1      39.141  24.125  26.828  1.00  0.00     0.060 A 
ATOM     29  C   UNL A   1      39.889  24.949  25.987  1.00  0.00     0.016 A 
ATOM     30  C   UNL A   1      39.037  24.453  28.187  1.00  0.00     0.016 A 
ATOM     31  C   UNL A   1      40.629  26.007  26.526  1.00  0.00     0.010 A 
ATOM     32  C   UNL A   1      39.706  25.568  28.711  1.00  0.00     0.010 A 
ATOM     33  C   UNL A   1      40.532  26.345  27.890  1.00  0.00    -0.014 A 
BRANCH  33  34
ATOM     34  C   UNL A   1      41.093  27.635  28.377  1.00  0.00     0.031 A 
ATOM     35  C   UNL A   1      40.273  28.765  28.945  1.00  0.00     0.074 A 
ATOM     36  C   UNL A   1      42.421  27.788  28.227  1.00  0.00     0.049 A 
ATOM     37  N   UNL A   1      40.664  29.954  29.336  1.00  0.00    -0.248 NA
ATOM     38  C   UNL A   1      38.831  28.543  29.089  1.00  0.00     0.031 C 
ATOM     39  C   UNL A   1      43.312  26.783  27.637  1.00  0.00     0.029 A 
ATOM     40  N   UNL A   1      43.251  28.828  28.541  1.00  0.00    -0.354 N 
ATOM     41  C   UNL A   1      39.518  30.632  29.746  1.00  0.00     0.074 A 
ATOM     42  C   UNL A   1      38.413  29.714  29.561  1.00  0.00     0.031 C 
ATOM     43  C   UNL A   1      44.565  27.240  27.662  1.00  0.00     0.029 A 
ATOM     44  C   UNL A   1      44.558  28.594  28.197  1.00  0.00     0.049 A 
ATOM     45  H   UNL A   1      42.942  29.658  28.970  1.00  0.00     0.167 HD
ATOM     46  C   UNL A   1      39.407  31.903  30.219  1.00  0.00     0.037 A 
ATOM     47  C   UNL A   1      45.641  29.384  28.268  1.00  0.00     0.037 A 
ATOM     48  C   UNL A   1      40.527  32.799  30.406  1.00  0.00     0.049 A 
ATOM     49  C   UNL A   1      45.504  30.757  28.833  1.00  0.00     0.074 A 
ATOM     50  C   UNL A   1      40.528  34.084  30.928  1.00  0.00     0.029 A 
ATOM     51  N   UNL A   1      41.843  32.511  30.073  1.00  0.00    -0.354 N 
ATOM     52  N   UNL A   1      44.418  31.368  29.237  1.00  0.00    -0.248 NA
ATOM     53  C   UNL A   1      46.734  31.542  28.957  1.00  0.00     0.031 C 
ATOM     54  C   UNL A   1      41.836  34.583  30.877  1.00  0.00     0.029 A 
ATOM     55  C   UNL A   1      42.659  33.596  30.362  1.00  0.00     0.049 A 
ATOM     56  H   UNL A   1      42.153  31.661  29.685  1.00  0.00     0.167 HD
ATOM     57  C   UNL A   1      44.832  32.619  29.666  1.00  0.00     0.074 A 
ATOM     58  C   UNL A   1      46.272  32.664  29.491  1.00  0.00     0.031 C 
ATOM     59  C   UNL A   1      44.085  33.637  30.159  1.00  0.00     0.037 A 
BRANCH  46  60
ATOM     60  C   UNL A   1      38.037  32.436  30.566  1.00  0.00     0.058 A 
ATOM     61  C   UNL A   1      37.485  32.289  31.848  1.00  0.00     0.135 A 
ATOM     62  C   UNL A   1      37.323  33.218  29.641  1.00  0.00     0.135 A 
ATOM     63  F   UNL A   1      38.119  31.553  32.776  1.00  0.00    -0.206 F 
ATOM     64  C   UNL A   1      36.277  32.892  32.199  1.00  0.00     0.059 A 
ATOM     65  C   UNL A   1      36.123  33.846  29.974  1.00  0.00     0.059 A 
ATOM     66  F   UNL A   1      37.805  33.406  28.402  1.00  0.00    -0.206 F 
ATOM     67  C   UNL A   1      35.604  33.671  31.256  1.00  0.00     0.060 A 
BRANCH  67  68
ATOM     68  S   UNL A   1      34.059  34.479  31.734  1.00  0.00     0.124 S 
ATOM     69  O   UNL A   1      33.375  34.583  30.448  1.00  0.00    -0.237 OA
ATOM     70  O   UNL A   1      33.484  33.528  32.680  1.00  0.00    -0.237 OA
ATOM     71  O   UNL A   1      34.501  35.744  32.313  1.00  0.00    -0.744 OA
ENDBRANCH  67  68
ENDBRANCH  46  60
BRANCH  47  72
ATOM     72  C   UNL A   1      46.930  28.838  27.787  1.00  0.00     0.058 A 
ATOM     73  C   UNL A   1      47.738  28.075  28.637  1.00  0.00     0.135 A 
ATOM     74  C   UNL A   1      47.274  28.912  26.428  1.00  0.00     0.135 A 
ATOM     75  F   UNL A   1      47.433  27.971  29.940  1.00  0.00    -0.206 F 
ATOM     76  C   UNL A   1      48.838  27.379  28.152  1.00  0.00     0.059 A 
ATOM     77  C   UNL A   1      48.355  28.205  25.916  1.00  0.00     0.059 A 
ATOM     78  F   UNL A   1      46.500  29.600  25.573  1.00  0.00    -0.206 F 
ATOM     79  C   UNL A   1      49.127  27.437  26.787  1.00  0.00     0.060 A 
BRANCH  79  80
ATOM     80  S   UNL A   1      50.462  26.409  26.135  1.00  0.00     0.124 S 
ATOM     81  O   UNL A   1      49.926  26.026  24.835  1.00  0.00    -0.237 OA
ATOM     82  O   UNL A   1      51.589  27.336  26.115  1.00  0.00    -0.237 OA
ATOM     83  O   UNL A   1      50.564  25.336  27.121  1.00  0.00    -0.744 OA
ENDBRANCH  79  80
ENDBRANCH  47  72
BRANCH  59  84
ATOM     84  C   UNL A   1      44.831  34.879  30.543  1.00  0.00     0.058 A 
ATOM     85  C   UNL A   1      45.347  35.048  31.838  1.00  0.00     0.135 A 
ATOM     86  C   UNL A   1      45.000  35.923  29.623  1.00  0.00     0.135 A 
ATOM     87  F   UNL A   1      45.198  34.080  32.757  1.00  0.00    -0.206 F 
ATOM     88  C   UNL A   1      45.969  36.231  32.219  1.00  0.00     0.059 A 
ATOM     89  C   UNL A   1      45.637  37.108  29.977  1.00  0.00     0.059 A 
ATOM     90  F   UNL A   1      44.529  35.805  28.371  1.00  0.00    -0.206 F 
ATOM     91  C   UNL A   1      46.098  37.260  31.286  1.00  0.00     0.060 A 
BRANCH  91  92
ATOM     92  S   UNL A   1      46.880  38.805  31.794  1.00  0.00     0.124 S 
ATOM     93  O   UNL A   1      46.782  38.717  33.247  1.00  0.00    -0.237 OA
ATOM     94  O   UNL A   1      48.225  38.678  31.241  1.00  0.00    -0.237 OA
ATOM     95  O   UNL A   1      46.046  39.828  31.167  1.00  0.00    -0.744 OA
ENDBRANCH  91  92
ENDBRANCH  59  84
ENDBRANCH  33  34
ENDBRANCH  26  28
ENDBRANCH  25  26
ENDBRANCH  24  25
ENDBRANCH   1  24
TORSDOF 18
ENDMDL
MODEL 2
REMARK VINA RESULT:     -10.5      5.595     11.323
REMARK SMILES CCc1ccccc1O[C@H]1CCC[C@@]([NH2+]C)(C(=O)OCCOC(=O)c2ccc(-c3c4nc(c(-c5c(F)cc(S(=O)(=O)[O-])cc5F)c5ccc([nH]5)c(-c5c(F)cc(S(=O)(=O)[O-])cc5F)c5nc(c(-c6c(F)cc(S(=O)(=O)[O-])cc6F)c6ccc3[nH]6)C=C5)C=C4)cc2)C1
REMARK SMILES IDX 20 1 19 2 17 3 18 4 14 5 10 6 11 7 91 8 12 9 13 10 9 11 8 12
REMARK SMILES IDX 3 13 4 14 5 15 7 16 6 17 2 18 1 19 15 20 16 21 21 24 22 25
REMARK SMILES IDX 23 26 24 27 25 28 26 29 90 30 27 31 89 32 28 33 29 34 30 35
REMARK SMILES IDX 83 36 31 37 88 38 82 39 84 40 32 41 87 42 81 43 80 44 33 46
REMARK SMILES IDX 67 47 46 48 66 49 47 50 50 51 65 52 85 53 48 54 49 55 64 57
REMARK SMILES IDX 86 58 51 59 34 60 35 61 44 62 36 63 37 64 43 65 45 66 38 67
REMARK SMILES IDX 39 68 40 69 41 70 42 71 68 72 69 73 78 74 70 75 71 76 77 77
REMARK SMILES IDX 79 78 72 79 73 80 74 81 75 82 76 83 52 84 53 85 62 86 54 87
REMARK SMILES IDX 55 88 61 89 63 90 56 91 57 92 58 93 59 94 60 95
REMARK H PARENT 15 22 15 23 84 45 50 56
REMARK Flexibility Score: inf
ROOT
ATOM      1  C   UNL A   1      42.986  23.188  27.556  1.00  0.00     0.274 C 
ENDROOT
BRANCH   1   2
ATOM      2  O   UNL A   1      44.400  23.433  27.326  1.00  0.00    -0.457 OA
BRANCH   2   3
ATOM      3  C   UNL A   1      44.735  24.754  27.269  1.00  0.00     0.368 C 
ATOM      4  O   UNL A   1      44.455  25.524  28.189  1.00  0.00    -0.245 OA
BRANCH   3   5
ATOM      5  C   UNL A   1      45.540  25.201  25.983  1.00  0.00     0.197 C 
ATOM      6  C   UNL A   1      46.272  27.810  26.058  1.00  0.00     0.180 C 
ATOM      7  C   UNL A   1      47.675  27.326  25.731  1.00  0.00     0.046 C 
ATOM      8  C   UNL A   1      45.250  26.700  25.657  1.00  0.00     0.126 C 
ATOM      9  C   UNL A   1      47.958  26.035  26.494  1.00  0.00     0.011 C 
ATOM     10  C   UNL A   1      47.059  24.899  26.017  1.00  0.00     0.081 C 
BRANCH   6  11
ATOM     11  O   UNL A   1      46.274  28.201  27.447  1.00  0.00    -0.490 OA
BRANCH  11  12
ATOM     12  C   UNL A   1      45.470  29.222  27.909  1.00  0.00     0.122 A 
ATOM     13  C   UNL A   1      45.358  29.432  29.311  1.00  0.00    -0.006 A 
ATOM     14  C   UNL A   1      44.455  30.409  29.789  1.00  0.00     0.007 A 
ATOM     15  C   UNL A   1      43.733  31.215  28.918  1.00  0.00     0.001 A 
ATOM     16  C   UNL A   1      44.774  30.086  27.053  1.00  0.00     0.047 A 
ATOM     17  C   UNL A   1      43.924  31.080  27.553  1.00  0.00     0.004 A 
BRANCH  13  18
ATOM     18  C   UNL A   1      46.286  28.822  30.348  1.00  0.00     0.036 C 
ATOM     19  C   UNL A   1      47.386  29.723  30.922  1.00  0.00     0.009 C 
ENDBRANCH  13  18
ENDBRANCH  11  12
ENDBRANCH   6  11
BRANCH   5  20
ATOM     20  N   UNL A   1      45.103  24.328  24.805  1.00  0.00    -0.334 N 
ATOM     21  C   UNL A   1      45.887  23.138  24.498  1.00  0.00     0.331 C 
ATOM     22  H   UNL A   1      45.111  24.917  23.973  1.00  0.00     0.347 HD
ATOM     23  H   UNL A   1      44.193  23.963  25.086  1.00  0.00     0.347 HD
ENDBRANCH   5  20
ENDBRANCH   3   5
ENDBRANCH   2   3
ENDBRANCH   1   2
BRANCH   1  24
ATOM     24  C   UNL A   1      42.108  22.959  26.297  1.00  0.00     0.275 C 
BRANCH  24  25
ATOM     25  O   UNL A   1      40.953  23.832  26.128  1.00  0.00    -0.458 OA
BRANCH  25  26
ATOM     26  C   UNL A   1      41.343  25.107  25.931  1.00  0.00     0.338 C 
ATOM     27  O   UNL A   1      42.090  25.421  25.023  1.00  0.00    -0.246 OA
BRANCH  26  28
ATOM     28  C   UNL A   1      40.896  26.205  26.799  1.00  0.00     0.060 A 
ATOM     29  C   UNL A   1      41.746  27.309  26.868  1.00  0.00     0.016 A 
ATOM     30  C   UNL A   1      40.096  25.890  27.907  1.00  0.00     0.016 A 
ATOM     31  C   UNL A   1      41.889  28.003  28.074  1.00  0.00     0.010 A 
ATOM     32  C   UNL A   1      40.173  26.643  29.087  1.00  0.00     0.010 A 
ATOM     33  C   UNL A   1      41.091  27.694  29.194  1.00  0.00    -0.014 A 
BRANCH  33  34
ATOM     34  C   UNL A   1      41.054  28.622  30.358  1.00  0.00     0.031 A 
ATOM     35  C   UNL A   1      41.971  28.535  31.550  1.00  0.00     0.074 A 
ATOM     36  C   UNL A   1      40.081  29.551  30.333  1.00  0.00     0.049 A 
ATOM     37  N   UNL A   1      41.973  29.258  32.645  1.00  0.00    -0.248 NA
ATOM     38  C   UNL A   1      43.014  27.506  31.523  1.00  0.00     0.031 C 
ATOM     39  C   UNL A   1      39.097  29.695  29.255  1.00  0.00     0.029 A 
ATOM     40  N   UNL A   1      39.749  30.534  31.224  1.00  0.00    -0.354 N 
ATOM     41  C   UNL A   1      42.996  28.757  33.448  1.00  0.00     0.074 A 
ATOM     42  C   UNL A   1      43.598  27.668  32.707  1.00  0.00     0.031 C 
ATOM     43  C   UNL A   1      38.294  30.725  29.530  1.00  0.00     0.029 A 
ATOM     44  C   UNL A   1      38.656  31.265  30.833  1.00  0.00     0.049 A 
ATOM     45  H   UNL A   1      40.243  30.699  32.059  1.00  0.00     0.167 HD
ATOM     46  C   UNL A   1      43.380  29.166  34.687  1.00  0.00     0.037 A 
ATOM     47  C   UNL A   1      37.985  32.245  31.458  1.00  0.00     0.037 A 
ATOM     48  C   UNL A   1      42.769  30.264  35.404  1.00  0.00     0.049 A 
ATOM     49  C   UNL A   1      38.452  32.708  32.795  1.00  0.00     0.074 A 
ATOM     50  C   UNL A   1      43.119  30.791  36.638  1.00  0.00     0.029 A 
ATOM     51  N   UNL A   1      41.681  31.002  34.957  1.00  0.00    -0.354 N 
ATOM     52  N   UNL A   1      39.434  32.238  33.525  1.00  0.00    -0.248 NA
ATOM     53  C   UNL A   1      37.728  33.833  33.391  1.00  0.00     0.031 C 
ATOM     54  C   UNL A   1      42.222  31.820  36.951  1.00  0.00     0.029 A 
ATOM     55  C   UNL A   1      41.338  31.964  35.896  1.00  0.00     0.049 A 
ATOM     56  H   UNL A   1      41.218  30.860  34.100  1.00  0.00     0.167 HD
ATOM     57  C   UNL A   1      39.449  33.012  34.674  1.00  0.00     0.074 A 
ATOM     58  C   UNL A   1      38.390  33.994  34.529  1.00  0.00     0.031 C 
ATOM     59  C   UNL A   1      40.266  32.916  35.751  1.00  0.00     0.037 A 
BRANCH  46  60
ATOM     60  C   UNL A   1      44.504  28.434  35.382  1.00  0.00     0.058 A 
ATOM     61  C   UNL A   1      44.265  27.354  36.245  1.00  0.00     0.135 A 
ATOM     62  C   UNL A   1      45.843  28.734  35.076  1.00  0.00     0.135 A 
ATOM     63  F   UNL A   1      43.007  27.019  36.575  1.00  0.00    -0.206 F 
ATOM     64  C   UNL A   1      45.309  26.602  36.784  1.00  0.00     0.059 A 
ATOM     65  C   UNL A   1      46.903  27.986  35.588  1.00  0.00     0.059 A 
ATOM     66  F   UNL A   1      46.136  29.749  34.248  1.00  0.00    -0.206 F 
ATOM     67  C   UNL A   1      46.626  26.924  36.447  1.00  0.00     0.060 A 
BRANCH  67  68
ATOM     68  S   UNL A   1      47.969  25.919  37.121  1.00  0.00     0.124 S 
ATOM     69  O   UNL A   1      47.881  26.231  38.544  1.00  0.00    -0.237 OA
ATOM     70  O   UNL A   1      47.571  24.566  36.745  1.00  0.00    -0.237 OA
ATOM     71  O   UNL A   1      49.154  26.431  36.439  1.00  0.00    -0.744 OA
ENDBRANCH  67  68
ENDBRANCH  46  60
BRANCH  47  72
ATOM     72  C   UNL A   1      36.811  32.829  30.770  1.00  0.00     0.058 A 
ATOM     73  C   UNL A   1      35.514  32.525  31.200  1.00  0.00     0.135 A 
ATOM     74  C   UNL A   1      36.976  33.838  29.807  1.00  0.00     0.135 A 
ATOM     75  F   UNL A   1      35.320  31.577  32.129  1.00  0.00    -0.206 F 
ATOM     76  C   UNL A   1      34.414  33.220  30.715  1.00  0.00     0.059 A 
ATOM     77  C   UNL A   1      35.893  34.562  29.325  1.00  0.00     0.059 A 
ATOM     78  F   UNL A   1      38.207  34.186  29.401  1.00  0.00    -0.206 F 
ATOM     79  C   UNL A   1      34.616  34.248  29.790  1.00  0.00     0.060 A 
BRANCH  79  80
ATOM     80  S   UNL A   1      33.203  35.250  29.280  1.00  0.00     0.124 S 
ATOM     81  O   UNL A   1      33.864  36.413  28.702  1.00  0.00    -0.237 OA
ATOM     82  O   UNL A   1      32.519  34.369  28.337  1.00  0.00    -0.237 OA
ATOM     83  O   UNL A   1      32.490  35.480  30.533  1.00  0.00    -0.744 OA
ENDBRANCH  79  80
ENDBRANCH  47  72
BRANCH  59  84
ATOM     84  C   UNL A   1      40.033  33.911  36.848  1.00  0.00     0.058 A 
ATOM     85  C   UNL A   1      39.198  33.613  37.936  1.00  0.00     0.135 A 
ATOM     86  C   UNL A   1      40.619  35.184  36.792  1.00  0.00     0.135 A 
ATOM     87  F   UNL A   1      38.605  32.412  38.025  1.00  0.00    -0.206 F 
ATOM     88  C   UNL A   1      38.918  34.562  38.913  1.00  0.00     0.059 A 
ATOM     89  C   UNL A   1      40.368  36.141  37.769  1.00  0.00     0.059 A 
ATOM     90  F   UNL A   1      41.429  35.512  35.773  1.00  0.00    -0.206 F 
ATOM     91  C   UNL A   1      39.498  35.828  38.814  1.00  0.00     0.060 A 
BRANCH  91  92
ATOM     92  S   UNL A   1      39.108  37.065  40.069  1.00  0.00     0.124 S 
ATOM     93  O   UNL A   1      38.463  38.099  39.267  1.00  0.00    -0.237 OA
ATOM     94  O   UNL A   1      38.234  36.332  40.978  1.00  0.00    -0.237 OA
ATOM     95  O   UNL A   1      40.416  37.416  40.614  1.00  0.00    -0.744 OA
ENDBRANCH  91  92
ENDBRANCH  59  84
ENDBRANCH  33  34
ENDBRANCH  26  28
ENDBRANCH  25  26
ENDBRANCH  24  25
ENDBRANCH   1  24
TORSDOF 18
ENDMDL
MODEL 3
REMARK VINA RESULT:     -10.5      3.275      8.921
REMARK SMILES CCc1ccccc1O[C@H]1CCC[C@@]([NH2+]C)(C(=O)OCCOC(=O)c2ccc(-c3c4nc(c(-c5c(F)cc(S(=O)(=O)[O-])cc5F)c5ccc([nH]5)c(-c5c(F)cc(S(=O)(=O)[O-])cc5F)c5nc(c(-c6c(F)cc(S(=O)(=O)[O-])cc6F)c6ccc3[nH]6)C=C5)C=C4)cc2)C1
REMARK SMILES IDX 20 1 19 2 17 3 18 4 14 5 10 6 11 7 91 8 12 9 13 10 9 11 8 12
REMARK SMILES IDX 3 13 4 14 5 15 7 16 6 17 2 18 1 19 15 20 16 21 21 24 22 25
REMARK SMILES IDX 23 26 24 27 25 28 26 29 90 30 27 31 89 32 28 33 29 34 30 35
REMARK SMILES IDX 83 36 31 37 88 38 82 39 84 40 32 41 87 42 81 43 80 44 33 46
REMARK SMILES IDX 67 47 46 48 66 49 47 50 50 51 65 52 85 53 48 54 49 55 64 57
REMARK SMILES IDX 86 58 51 59 34 60 35 61 44 62 36 63 37 64 43 65 45 66 38 67
REMARK SMILES IDX 39 68 40 69 41 70 42 71 68 72 69 73 78 74 70 75 71 76 77 77
REMARK SMILES IDX 79 78 72 79 73 80 74 81 75 82 76 83 52 84 53 85 62 86 54 87
REMARK SMILES IDX 55 88 61 89 63 90 56 91 57 92 58 93 59 94 60 95
REMARK H PARENT 15 22 15 23 84 45 50 56
REMARK Flexibility Score: inf
ROOT
ATOM      1  C   UNL A   1      33.764  30.060  27.178  1.00  0.00     0.274 C 
ENDROOT
BRANCH   1   2
ATOM      2  O   UNL A   1      33.719  29.434  25.867  1.00  0.00    -0.457 OA
BRANCH   2   3
ATOM      3  C   UNL A   1      33.116  28.212  25.852  1.00  0.00     0.368 C 
ATOM      4  O   UNL A   1      33.264  27.414  26.780  1.00  0.00    -0.245 OA
BRANCH   3   5
ATOM      5  C   UNL A   1      32.188  27.922  24.603  1.00  0.00     0.197 C 
ATOM      6  C   UNL A   1      32.509  25.416  23.618  1.00  0.00     0.180 C 
ATOM      7  C   UNL A   1      30.997  25.294  23.702  1.00  0.00     0.046 C 
ATOM      8  C   UNL A   1      32.893  26.929  23.625  1.00  0.00     0.126 C 
ATOM      9  C   UNL A   1      30.502  25.968  24.979  1.00  0.00     0.011 C 
ATOM     10  C   UNL A   1      30.745  27.473  24.943  1.00  0.00     0.081 C 
BRANCH   6  11
ATOM     11  O   UNL A   1      33.056  24.617  24.688  1.00  0.00    -0.490 OA
BRANCH  11  12
ATOM     12  C   UNL A   1      33.027  23.239  24.644  1.00  0.00     0.122 A 
ATOM     13  C   UNL A   1      34.034  22.550  23.915  1.00  0.00    -0.006 A 
ATOM     14  C   UNL A   1      33.946  21.145  23.782  1.00  0.00     0.007 A 
ATOM     15  C   UNL A   1      32.942  20.420  24.409  1.00  0.00     0.001 A 
ATOM     16  C   UNL A   1      32.059  22.478  25.314  1.00  0.00     0.047 A 
ATOM     17  C   UNL A   1      32.024  21.083  25.207  1.00  0.00     0.004 A 
BRANCH  13  18
ATOM     18  C   UNL A   1      35.324  23.184  23.422  1.00  0.00     0.036 C 
ATOM     19  C   UNL A   1      36.630  22.436  23.716  1.00  0.00     0.009 C 
ENDBRANCH  13  18
ENDBRANCH  11  12
ENDBRANCH   6  11
BRANCH   5  20
ATOM     20  N   UNL A   1      31.914  29.242  23.882  1.00  0.00    -0.334 N 
ATOM     21  C   UNL A   1      30.545  29.537  23.477  1.00  0.00     0.331 C 
ATOM     22  H   UNL A   1      32.486  29.250  23.037  1.00  0.00     0.347 HD
ATOM     23  H   UNL A   1      32.130  29.958  24.575  1.00  0.00     0.347 HD
ENDBRANCH   5  20
ENDBRANCH   3   5
ENDBRANCH   2   3
ENDBRANCH   1   2
BRANCH   1  24
ATOM     24  C   UNL A   1      35.164  30.196  27.834  1.00  0.00     0.275 C 
BRANCH  24  25
ATOM     25  O   UNL A   1      35.250  30.993  29.050  1.00  0.00    -0.458 OA
BRANCH  25  26
ATOM     26  C   UNL A   1      36.171  30.483  29.892  1.00  0.00     0.338 C 
ATOM     27  O   UNL A   1      36.096  30.633  31.098  1.00  0.00    -0.246 OA
BRANCH  26  28
ATOM     28  C   UNL A   1      37.328  29.713  29.415  1.00  0.00     0.060 A 
ATOM     29  C   UNL A   1      38.118  29.127  30.404  1.00  0.00     0.016 A 
ATOM     30  C   UNL A   1      37.924  30.097  28.205  1.00  0.00     0.016 A 
ATOM     31  C   UNL A   1      39.504  29.050  30.234  1.00  0.00     0.010 A 
ATOM     32  C   UNL A   1      39.301  29.936  27.999  1.00  0.00     0.010 A 
ATOM     33  C   UNL A   1      40.113  29.433  29.022  1.00  0.00    -0.014 A 
BRANCH  33  34
ATOM     34  C   UNL A   1      41.534  29.075  28.760  1.00  0.00     0.031 A 
ATOM     35  C   UNL A   1      42.683  30.050  28.795  1.00  0.00     0.074 A 
ATOM     36  C   UNL A   1      41.759  27.795  28.412  1.00  0.00     0.049 A 
ATOM     37  N   UNL A   1      43.948  29.845  28.517  1.00  0.00    -0.248 NA
ATOM     38  C   UNL A   1      42.381  31.431  29.183  1.00  0.00     0.031 C 
ATOM     39  C   UNL A   1      40.716  26.772  28.289  1.00  0.00     0.029 A 
ATOM     40  N   UNL A   1      42.913  27.136  28.092  1.00  0.00    -0.354 N 
ATOM     41  C   UNL A   1      44.590  31.073  28.669  1.00  0.00     0.074 A 
ATOM     42  C   UNL A   1      43.569  32.019  29.072  1.00  0.00     0.031 C 
ATOM     43  C   UNL A   1      41.279  25.609  27.954  1.00  0.00     0.029 A 
ATOM     44  C   UNL A   1      42.707  25.820  27.765  1.00  0.00     0.049 A 
ATOM     45  H   UNL A   1      43.800  27.563  28.096  1.00  0.00     0.167 HD
ATOM     46  C   UNL A   1      45.902  31.375  28.477  1.00  0.00     0.037 A 
ATOM     47  C   UNL A   1      43.558  24.879  27.327  1.00  0.00     0.037 A 
ATOM     48  C   UNL A   1      46.907  30.411  28.084  1.00  0.00     0.049 A 
ATOM     49  C   UNL A   1      45.000  25.220  27.168  1.00  0.00     0.074 A 
ATOM     50  C   UNL A   1      48.270  30.602  27.916  1.00  0.00     0.029 A 
ATOM     51  N   UNL A   1      46.661  29.076  27.792  1.00  0.00    -0.354 N 
ATOM     52  N   UNL A   1      45.589  26.378  27.340  1.00  0.00    -0.248 NA
ATOM     53  C   UNL A   1      45.892  24.131  26.763  1.00  0.00     0.031 C 
ATOM     54  C   UNL A   1      48.839  29.396  27.490  1.00  0.00     0.029 A 
ATOM     55  C   UNL A   1      47.839  28.439  27.431  1.00  0.00     0.049 A 
ATOM     56  H   UNL A   1      45.776  28.644  27.833  1.00  0.00     0.167 HD
ATOM     57  C   UNL A   1      46.929  26.160  27.063  1.00  0.00     0.074 A 
ATOM     58  C   UNL A   1      47.064  24.753  26.734  1.00  0.00     0.031 C 
ATOM     59  C   UNL A   1      47.954  27.046  27.080  1.00  0.00     0.037 A 
BRANCH  46  60
ATOM     60  C   UNL A   1      46.359  32.802  28.669  1.00  0.00     0.058 A 
ATOM     61  C   UNL A   1      46.876  33.258  29.890  1.00  0.00     0.135 A 
ATOM     62  C   UNL A   1      46.402  33.687  27.577  1.00  0.00     0.135 A 
ATOM     63  F   UNL A   1      46.863  32.460  30.970  1.00  0.00    -0.206 F 
ATOM     64  C   UNL A   1      47.414  34.539  30.026  1.00  0.00     0.059 A 
ATOM     65  C   UNL A   1      46.951  34.964  27.683  1.00  0.00     0.059 A 
ATOM     66  F   UNL A   1      45.933  33.305  26.378  1.00  0.00    -0.206 F 
ATOM     67  C   UNL A   1      47.449  35.384  28.915  1.00  0.00     0.060 A 
BRANCH  67  68
ATOM     68  S   UNL A   1      48.183  37.027  29.092  1.00  0.00     0.124 S 
ATOM     69  O   UNL A   1      47.393  37.582  30.187  1.00  0.00    -0.237 OA
ATOM     70  O   UNL A   1      49.574  36.720  29.410  1.00  0.00    -0.237 OA
ATOM     71  O   UNL A   1      47.964  37.641  27.786  1.00  0.00    -0.744 OA
ENDBRANCH  67  68
ENDBRANCH  46  60
BRANCH  47  72
ATOM     72  C   UNL A   1      43.014  23.534  27.034  1.00  0.00     0.058 A 
ATOM     73  C   UNL A   1      42.891  23.091  25.712  1.00  0.00     0.135 A 
ATOM     74  C   UNL A   1      42.790  22.613  28.070  1.00  0.00     0.135 A 
ATOM     75  F   UNL A   1      43.111  23.940  24.697  1.00  0.00    -0.206 F 
ATOM     76  C   UNL A   1      42.588  21.767  25.422  1.00  0.00     0.059 A 
ATOM     77  C   UNL A   1      42.509  21.279  27.804  1.00  0.00     0.059 A 
ATOM     78  F   UNL A   1      42.939  22.989  29.350  1.00  0.00    -0.206 F 
ATOM     79  C   UNL A   1      42.416  20.865  26.475  1.00  0.00     0.060 A 
BRANCH  79  80
ATOM     80  S   UNL A   1      42.175  19.117  26.093  1.00  0.00     0.124 S 
ATOM     81  O   UNL A   1      40.742  19.069  25.832  1.00  0.00    -0.237 OA
ATOM     82  O   UNL A   1      43.044  18.927  24.935  1.00  0.00    -0.237 OA
ATOM     83  O   UNL A   1      42.621  18.448  27.313  1.00  0.00    -0.744 OA
ENDBRANCH  79  80
ENDBRANCH  47  72
BRANCH  59  84
ATOM     84  C   UNL A   1      49.306  26.501  26.732  1.00  0.00     0.058 A 
ATOM     85  C   UNL A   1      50.138  25.936  27.712  1.00  0.00     0.135 A 
ATOM     86  C   UNL A   1      49.789  26.577  25.418  1.00  0.00     0.135 A 
ATOM     87  F   UNL A   1      49.723  25.854  28.986  1.00  0.00    -0.206 F 
ATOM     88  C   UNL A   1      51.423  25.502  27.406  1.00  0.00     0.059 A 
ATOM     89  C   UNL A   1      51.064  26.131  25.087  1.00  0.00     0.059 A 
ATOM     90  F   UNL A   1      49.028  27.104  24.446  1.00  0.00    -0.206 F 
ATOM     91  C   UNL A   1      51.882  25.616  26.093  1.00  0.00     0.060 A 
BRANCH  91  92
ATOM     92  S   UNL A   1      53.561  25.079  25.708  1.00  0.00     0.124 S 
ATOM     93  O   UNL A   1      53.348  23.675  25.372  1.00  0.00    -0.237 OA
ATOM     94  O   UNL A   1      53.925  25.948  24.593  1.00  0.00    -0.237 OA
ATOM     95  O   UNL A   1      54.288  25.326  26.950  1.00  0.00    -0.744 OA
ENDBRANCH  91  92
ENDBRANCH  59  84
ENDBRANCH  33  34
ENDBRANCH  26  28
ENDBRANCH  25  26
ENDBRANCH  24  25
ENDBRANCH   1  24
TORSDOF 18
ENDMDL
