MODEL 1
REMARK VINA RESULT:      -9.9      0.000      0.000
REMARK SMILES Cc1cc(C)n(CCC(=O)N[C@@H](C(=O)OCCOC(=O)c2ccc(-c3c4nc(c(-c5c(F)cc(S(=O)(=O)[O-])cc5F)c5ccc([nH]5)c(-c5c(F)cc(S(=O)(=O)[O-])cc5F)c5nc(c(-c6c(F)cc(S(=O)(=O)[O-])cc6F)c6ccc3[nH]6)C=C5)C=C4)cc2)[C@@H](C)O)n1
REMARK SMILES IDX 16 1 15 2 13 3 14 4 12 5 11 6 9 7 10 8 8 10 7 11 6 12 1 13
REMARK SMILES IDX 2 14 3 15 90 16 4 17 5 18 87 19 88 20 89 21 17 23 18 24
REMARK SMILES IDX 19 25 20 26 21 27 22 28 86 29 23 30 85 31 24 32 25 33 26 34
REMARK SMILES IDX 79 35 27 36 84 37 78 38 80 39 28 40 83 41 77 42 76 43 29 45
REMARK SMILES IDX 63 46 42 47 62 48 43 49 46 50 61 51 81 52 44 53 45 54 60 56
REMARK SMILES IDX 82 57 47 58 30 59 31 60 40 61 32 62 33 63 39 64 41 65 34 66
REMARK SMILES IDX 35 67 36 68 37 69 38 70 64 71 65 72 74 73 66 74 67 75 73 76
REMARK SMILES IDX 75 77 68 78 69 79 70 80 71 81 72 82 48 83 49 84 58 85 50 86
REMARK SMILES IDX 51 87 57 88 59 89 52 90 53 91 54 92 55 93 56 94
REMARK H PARENT 11 9 89 22 80 44 46 55
REMARK Flexibility Score: inf
ROOT
ATOM      1  C   UNL A   1      40.213  19.945  26.011  1.00  0.00     0.274 C 
ENDROOT
BRANCH   1   2
ATOM      2  O   UNL A   1      41.531  20.000  25.403  1.00  0.00    -0.460 OA
BRANCH   2   3
ATOM      3  C   UNL A   1      42.609  19.451  26.046  1.00  0.00     0.331 C 
ATOM      4  O   UNL A   1      42.513  18.842  27.102  1.00  0.00    -0.250 OA
BRANCH   3   5
ATOM      5  C   UNL A   1      43.952  19.843  25.355  1.00  0.00     0.221 C 
BRANCH   5   6
ATOM      6  N   UNL A   1      43.875  21.146  24.669  1.00  0.00    -0.341 N 
ATOM      7  C   UNL A   1      44.576  22.288  24.910  1.00  0.00     0.222 C 
ATOM      8  O   UNL A   1      44.279  23.324  24.313  1.00  0.00    -0.275 OA
ATOM      9  H   UNL A   1      43.224  21.196  23.933  1.00  0.00     0.164 HD
BRANCH   7  10
ATOM     10  C   UNL A   1      45.696  22.302  25.924  1.00  0.00     0.123 C 
BRANCH  10  11
ATOM     11  C   UNL A   1      46.287  23.698  26.057  1.00  0.00     0.154 C 
BRANCH  11  12
ATOM     12  N   UNL A   1      45.955  24.347  27.312  1.00  0.00    -0.269 N 
ATOM     13  C   UNL A   1      44.171  24.128  30.359  1.00  0.00     0.069 C 
ATOM     14  C   UNL A   1      45.078  24.495  29.240  1.00  0.00     0.060 A 
ATOM     15  C   UNL A   1      45.590  25.771  28.929  1.00  0.00     0.048 A 
ATOM     16  N   UNL A   1      45.395  23.603  28.294  1.00  0.00    -0.178 NA
ATOM     17  C   UNL A   1      46.015  25.683  27.616  1.00  0.00     0.036 A 
ATOM     18  C   UNL A   1      46.319  26.753  26.624  1.00  0.00     0.066 C 
ENDBRANCH  11  12
ENDBRANCH  10  11
ENDBRANCH   7  10
ENDBRANCH   5   6
BRANCH   5  19
ATOM     19  C   UNL A   1      44.546  18.719  24.470  1.00  0.00     0.145 C 
ATOM     20  C   UNL A   1      44.975  19.201  23.081  1.00  0.00     0.041 C 
BRANCH  19  21
ATOM     21  O   UNL A   1      45.735  18.172  25.061  1.00  0.00    -0.391 OA
ATOM     22  H   UNL A   1      45.730  17.207  24.965  1.00  0.00     0.211 HD
ENDBRANCH  19  21
ENDBRANCH   5  19
ENDBRANCH   3   5
ENDBRANCH   2   3
ENDBRANCH   1   2
BRANCH   1  23
ATOM     23  C   UNL A   1      39.944  21.194  26.847  1.00  0.00     0.275 C 
BRANCH  23  24
ATOM     24  O   UNL A   1      40.605  22.273  26.218  1.00  0.00    -0.458 OA
BRANCH  24  25
ATOM     25  C   UNL A   1      41.166  23.129  27.094  1.00  0.00     0.338 C 
ATOM     26  O   UNL A   1      41.673  22.857  28.183  1.00  0.00    -0.246 OA
BRANCH  25  27
ATOM     27  C   UNL A   1      41.125  24.478  26.518  1.00  0.00     0.060 A 
ATOM     28  C   UNL A   1      42.384  25.075  26.487  1.00  0.00     0.016 A 
ATOM     29  C   UNL A   1      39.942  25.194  26.723  1.00  0.00     0.016 A 
ATOM     30  C   UNL A   1      42.506  26.247  27.173  1.00  0.00     0.010 A 
ATOM     31  C   UNL A   1      40.067  26.320  27.478  1.00  0.00     0.010 A 
ATOM     32  C   UNL A   1      41.356  26.756  27.779  1.00  0.00    -0.014 A 
BRANCH  32  33
ATOM     33  C   UNL A   1      41.525  27.827  28.718  1.00  0.00     0.031 A 
ATOM     34  C   UNL A   1      42.628  28.710  28.306  1.00  0.00     0.074 A 
ATOM     35  C   UNL A   1      40.656  28.008  29.725  1.00  0.00     0.049 A 
ATOM     36  N   UNL A   1      43.820  28.781  28.796  1.00  0.00    -0.248 NA
ATOM     37  C   UNL A   1      42.473  29.362  26.993  1.00  0.00     0.031 C 
ATOM     38  C   UNL A   1      39.365  27.347  29.945  1.00  0.00     0.029 A 
ATOM     39  N   UNL A   1      40.691  28.950  30.694  1.00  0.00    -0.354 N 
ATOM     40  C   UNL A   1      44.469  29.688  27.969  1.00  0.00     0.074 A 
ATOM     41  C   UNL A   1      43.731  29.716  26.740  1.00  0.00     0.031 C 
ATOM     42  C   UNL A   1      38.647  28.078  30.829  1.00  0.00     0.029 A 
ATOM     43  C   UNL A   1      39.467  29.180  31.303  1.00  0.00     0.049 A 
ATOM     44  H   UNL A   1      41.513  29.430  30.946  1.00  0.00     0.167 HD
ATOM     45  C   UNL A   1      45.331  30.614  28.464  1.00  0.00     0.037 A 
ATOM     46  C   UNL A   1      39.166  30.304  32.001  1.00  0.00     0.037 A 
ATOM     47  C   UNL A   1      45.758  30.261  29.795  1.00  0.00     0.049 A 
ATOM     48  C   UNL A   1      40.467  30.975  32.317  1.00  0.00     0.074 A 
ATOM     49  C   UNL A   1      46.420  29.176  30.333  1.00  0.00     0.029 A 
ATOM     50  N   UNL A   1      45.137  30.894  30.848  1.00  0.00    -0.354 N 
ATOM     51  N   UNL A   1      41.381  30.466  33.103  1.00  0.00    -0.248 NA
ATOM     52  C   UNL A   1      40.958  31.973  31.374  1.00  0.00     0.031 C 
ATOM     53  C   UNL A   1      45.811  28.957  31.601  1.00  0.00     0.029 A 
ATOM     54  C   UNL A   1      44.847  29.947  31.799  1.00  0.00     0.049 A 
ATOM     55  H   UNL A   1      44.936  31.856  30.909  1.00  0.00     0.167 HD
ATOM     56  C   UNL A   1      42.600  30.782  32.507  1.00  0.00     0.074 A 
ATOM     57  C   UNL A   1      42.275  31.772  31.485  1.00  0.00     0.031 C 
ATOM     58  C   UNL A   1      43.710  30.009  32.698  1.00  0.00     0.037 A 
BRANCH  45  59
ATOM     59  C   UNL A   1      45.473  32.003  27.889  1.00  0.00     0.058 A 
ATOM     60  C   UNL A   1      46.724  32.407  27.391  1.00  0.00     0.135 A 
ATOM     61  C   UNL A   1      44.508  33.033  28.011  1.00  0.00     0.135 A 
ATOM     62  F   UNL A   1      47.721  31.519  27.245  1.00  0.00    -0.206 F 
ATOM     63  C   UNL A   1      47.012  33.741  27.096  1.00  0.00     0.059 A 
ATOM     64  C   UNL A   1      44.750  34.351  27.656  1.00  0.00     0.059 A 
ATOM     65  F   UNL A   1      43.311  32.852  28.577  1.00  0.00    -0.206 F 
ATOM     66  C   UNL A   1      46.019  34.705  27.246  1.00  0.00     0.060 A 
BRANCH  66  67
ATOM     67  S   UNL A   1      46.408  36.441  26.986  1.00  0.00     0.124 S 
ATOM     68  O   UNL A   1      45.076  37.012  26.821  1.00  0.00    -0.237 OA
ATOM     69  O   UNL A   1      47.106  36.783  28.220  1.00  0.00    -0.237 OA
ATOM     70  O   UNL A   1      47.241  36.423  25.786  1.00  0.00    -0.744 OA
ENDBRANCH  66  67
ENDBRANCH  45  59
BRANCH  46  71
ATOM     71  C   UNL A   1      37.857  31.007  32.015  1.00  0.00     0.058 A 
ATOM     72  C   UNL A   1      37.217  31.336  33.221  1.00  0.00     0.135 A 
ATOM     73  C   UNL A   1      37.310  31.581  30.847  1.00  0.00     0.135 A 
ATOM     74  F   UNL A   1      37.692  30.867  34.384  1.00  0.00    -0.206 F 
ATOM     75  C   UNL A   1      36.110  32.194  33.267  1.00  0.00     0.059 A 
ATOM     76  C   UNL A   1      36.200  32.424  30.865  1.00  0.00     0.059 A 
ATOM     77  F   UNL A   1      37.889  31.408  29.650  1.00  0.00    -0.206 F 
ATOM     78  C   UNL A   1      35.615  32.741  32.083  1.00  0.00     0.060 A 
BRANCH  78  79
ATOM     79  S   UNL A   1      34.272  33.951  32.147  1.00  0.00     0.124 S 
ATOM     80  O   UNL A   1      33.343  33.320  33.077  1.00  0.00    -0.237 OA
ATOM     81  O   UNL A   1      34.956  35.143  32.638  1.00  0.00    -0.237 OA
ATOM     82  O   UNL A   1      33.815  34.025  30.762  1.00  0.00    -0.744 OA
ENDBRANCH  78  79
ENDBRANCH  46  71
BRANCH  58  83
ATOM     83  C   UNL A   1      43.674  28.961  33.782  1.00  0.00     0.058 A 
ATOM     84  C   UNL A   1      43.940  29.224  35.138  1.00  0.00     0.135 A 
ATOM     85  C   UNL A   1      43.147  27.699  33.467  1.00  0.00     0.135 A 
ATOM     86  F   UNL A   1      44.351  30.437  35.532  1.00  0.00    -0.206 F 
ATOM     87  C   UNL A   1      43.709  28.272  36.132  1.00  0.00     0.059 A 
ATOM     88  C   UNL A   1      42.879  26.746  34.446  1.00  0.00     0.059 A 
ATOM     89  F   UNL A   1      42.813  27.409  32.199  1.00  0.00    -0.206 F 
ATOM     90  C   UNL A   1      43.167  27.037  35.777  1.00  0.00     0.060 A 
BRANCH  90  91
ATOM     91  S   UNL A   1      42.749  25.851  37.075  1.00  0.00     0.124 S 
ATOM     92  O   UNL A   1      41.596  26.483  37.708  1.00  0.00    -0.237 OA
ATOM     93  O   UNL A   1      42.471  24.635  36.317  1.00  0.00    -0.237 OA
ATOM     94  O   UNL A   1      43.960  25.801  37.892  1.00  0.00    -0.744 OA
ENDBRANCH  90  91
ENDBRANCH  58  83
ENDBRANCH  32  33
ENDBRANCH  25  27
ENDBRANCH  24  25
ENDBRANCH  23  24
ENDBRANCH   1  23
TORSDOF 20
ENDMDL
MODEL 2
REMARK VINA RESULT:      -9.8      5.281     10.214
REMARK SMILES Cc1cc(C)n(CCC(=O)N[C@@H](C(=O)OCCOC(=O)c2ccc(-c3c4nc(c(-c5c(F)cc(S(=O)(=O)[O-])cc5F)c5ccc([nH]5)c(-c5c(F)cc(S(=O)(=O)[O-])cc5F)c5nc(c(-c6c(F)cc(S(=O)(=O)[O-])cc6F)c6ccc3[nH]6)C=C5)C=C4)cc2)[C@@H](C)O)n1
REMARK SMILES IDX 16 1 15 2 13 3 14 4 12 5 11 6 9 7 10 8 8 10 7 11 6 12 1 13
REMARK SMILES IDX 2 14 3 15 90 16 4 17 5 18 87 19 88 20 89 21 17 23 18 24
REMARK SMILES IDX 19 25 20 26 21 27 22 28 86 29 23 30 85 31 24 32 25 33 26 34
REMARK SMILES IDX 79 35 27 36 84 37 78 38 80 39 28 40 83 41 77 42 76 43 29 45
REMARK SMILES IDX 63 46 42 47 62 48 43 49 46 50 61 51 81 52 44 53 45 54 60 56
REMARK SMILES IDX 82 57 47 58 30 59 31 60 40 61 32 62 33 63 39 64 41 65 34 66
REMARK SMILES IDX 35 67 36 68 37 69 38 70 64 71 65 72 74 73 66 74 67 75 73 76
REMARK SMILES IDX 75 77 68 78 69 79 70 80 71 81 72 82 48 83 49 84 58 85 50 86
REMARK SMILES IDX 51 87 57 88 59 89 52 90 53 91 54 92 55 93 56 94
REMARK H PARENT 11 9 89 22 80 44 46 55
REMARK Flexibility Score: inf
ROOT
ATOM      1  C   UNL A   1      33.583  29.262  25.817  1.00  0.00     0.274 C 
ENDROOT
BRANCH   1   2
ATOM      2  O   UNL A   1      32.315  29.287  25.110  1.00  0.00    -0.460 OA
BRANCH   2   3
ATOM      3  C   UNL A   1      32.253  28.920  23.792  1.00  0.00     0.331 C 
ATOM      4  O   UNL A   1      33.166  29.122  23.003  1.00  0.00    -0.250 OA
BRANCH   3   5
ATOM      5  C   UNL A   1      30.840  28.379  23.410  1.00  0.00     0.221 C 
BRANCH   5   6
ATOM      6  N   UNL A   1      30.874  26.972  22.971  1.00  0.00    -0.341 N 
ATOM      7  C   UNL A   1      30.483  25.852  23.639  1.00  0.00     0.222 C 
ATOM      8  O   UNL A   1      30.710  24.742  23.156  1.00  0.00    -0.275 OA
ATOM      9  H   UNL A   1      31.231  26.822  22.066  1.00  0.00     0.164 HD
BRANCH   7  10
ATOM     10  C   UNL A   1      29.798  25.959  24.982  1.00  0.00     0.123 C 
BRANCH  10  11
ATOM     11  C   UNL A   1      30.799  26.305  26.074  1.00  0.00     0.154 C 
BRANCH  11  12
ATOM     12  N   UNL A   1      31.852  25.317  26.226  1.00  0.00    -0.269 N 
ATOM     13  C   UNL A   1      35.159  24.384  25.388  1.00  0.00     0.069 C 
ATOM     14  C   UNL A   1      33.801  24.516  25.978  1.00  0.00     0.060 A 
ATOM     15  C   UNL A   1      33.020  23.505  26.574  1.00  0.00     0.048 A 
ATOM     16  N   UNL A   1      33.111  25.655  25.863  1.00  0.00    -0.178 NA
ATOM     17  C   UNL A   1      31.729  23.999  26.582  1.00  0.00     0.036 A 
ATOM     18  C   UNL A   1      30.425  23.296  26.752  1.00  0.00     0.066 C 
ENDBRANCH  11  12
ENDBRANCH  10  11
ENDBRANCH   7  10
ENDBRANCH   5   6
BRANCH   5  19
ATOM     19  C   UNL A   1      30.062  29.305  22.443  1.00  0.00     0.145 C 
ATOM     20  C   UNL A   1      29.196  30.345  23.163  1.00  0.00     0.041 C 
BRANCH  19  21
ATOM     21  O   UNL A   1      30.962  30.067  21.624  1.00  0.00    -0.391 OA
ATOM     22  H   UNL A   1      31.470  29.468  21.057  1.00  0.00     0.211 HD
ENDBRANCH  19  21
ENDBRANCH   5  19
ENDBRANCH   3   5
ENDBRANCH   2   3
ENDBRANCH   1   2
BRANCH   1  23
ATOM     23  C   UNL A   1      33.422  29.764  27.250  1.00  0.00     0.275 C 
BRANCH  23  24
ATOM     24  O   UNL A   1      34.171  30.957  27.365  1.00  0.00    -0.458 OA
BRANCH  24  25
ATOM     25  C   UNL A   1      33.404  32.040  27.593  1.00  0.00     0.338 C 
ATOM     26  O   UNL A   1      32.256  32.240  27.193  1.00  0.00    -0.246 OA
BRANCH  25  27
ATOM     27  C   UNL A   1      34.146  32.962  28.461  1.00  0.00     0.060 A 
ATOM     28  C   UNL A   1      35.141  33.650  27.770  1.00  0.00     0.016 A 
ATOM     29  C   UNL A   1      34.269  32.576  29.799  1.00  0.00     0.016 A 
ATOM     30  C   UNL A   1      36.414  33.477  28.226  1.00  0.00     0.010 A 
ATOM     31  C   UNL A   1      35.541  32.329  30.218  1.00  0.00     0.010 A 
ATOM     32  C   UNL A   1      36.583  32.688  29.364  1.00  0.00    -0.014 A 
BRANCH  32  33
ATOM     33  C   UNL A   1      37.919  32.279  29.690  1.00  0.00     0.031 A 
ATOM     34  C   UNL A   1      38.128  30.863  29.345  1.00  0.00     0.074 A 
ATOM     35  C   UNL A   1      38.832  33.168  30.109  1.00  0.00     0.049 A 
ATOM     36  N   UNL A   1      38.175  29.846  30.137  1.00  0.00    -0.248 NA
ATOM     37  C   UNL A   1      37.948  30.516  27.922  1.00  0.00     0.031 C 
ATOM     38  C   UNL A   1      38.737  34.631  30.129  1.00  0.00     0.029 A 
ATOM     39  N   UNL A   1      40.114  32.936  30.471  1.00  0.00    -0.354 N 
ATOM     40  C   UNL A   1      38.278  28.758  29.281  1.00  0.00     0.074 A 
ATOM     41  C   UNL A   1      37.789  29.197  28.006  1.00  0.00     0.031 C 
ATOM     42  C   UNL A   1      39.982  35.147  30.249  1.00  0.00     0.029 A 
ATOM     43  C   UNL A   1      40.928  34.057  30.418  1.00  0.00     0.049 A 
ATOM     44  H   UNL A   1      40.441  32.049  30.749  1.00  0.00     0.167 HD
ATOM     45  C   UNL A   1      39.086  27.703  29.564  1.00  0.00     0.037 A 
ATOM     46  C   UNL A   1      42.282  34.008  30.355  1.00  0.00     0.037 A 
ATOM     47  C   UNL A   1      39.448  27.690  30.958  1.00  0.00     0.049 A 
ATOM     48  C   UNL A   1      42.683  32.626  30.768  1.00  0.00     0.074 A 
ATOM     49  C   UNL A   1      38.730  27.614  32.135  1.00  0.00     0.029 A 
ATOM     50  N   UNL A   1      40.688  28.186  31.296  1.00  0.00    -0.354 N 
ATOM     51  N   UNL A   1      42.501  32.140  31.970  1.00  0.00    -0.248 NA
ATOM     52  C   UNL A   1      42.832  31.625  29.719  1.00  0.00     0.031 C 
ATOM     53  C   UNL A   1      39.410  28.473  33.045  1.00  0.00     0.029 A 
ATOM     54  C   UNL A   1      40.536  28.988  32.400  1.00  0.00     0.049 A 
ATOM     55  H   UNL A   1      41.533  28.000  30.828  1.00  0.00     0.167 HD
ATOM     56  C   UNL A   1      42.129  30.811  31.779  1.00  0.00     0.074 A 
ATOM     57  C   UNL A   1      42.421  30.535  30.376  1.00  0.00     0.031 C 
ATOM     58  C   UNL A   1      41.358  30.147  32.691  1.00  0.00     0.037 A 
BRANCH  45  59
ATOM     59  C   UNL A   1      39.833  26.927  28.505  1.00  0.00     0.058 A 
ATOM     60  C   UNL A   1      39.636  25.538  28.415  1.00  0.00     0.135 A 
ATOM     61  C   UNL A   1      40.903  27.438  27.731  1.00  0.00     0.135 A 
ATOM     62  F   UNL A   1      38.659  24.939  29.117  1.00  0.00    -0.206 F 
ATOM     63  C   UNL A   1      40.474  24.714  27.661  1.00  0.00     0.059 A 
ATOM     64  C   UNL A   1      41.702  26.648  26.919  1.00  0.00     0.059 A 
ATOM     65  F   UNL A   1      41.309  28.710  27.789  1.00  0.00    -0.206 F 
ATOM     66  C   UNL A   1      41.512  25.281  26.928  1.00  0.00     0.060 A 
BRANCH  66  67
ATOM     67  S   UNL A   1      42.672  24.225  26.050  1.00  0.00     0.124 S 
ATOM     68  O   UNL A   1      42.941  25.021  24.859  1.00  0.00    -0.237 OA
ATOM     69  O   UNL A   1      43.765  24.112  27.009  1.00  0.00    -0.237 OA
ATOM     70  O   UNL A   1      41.910  22.998  25.831  1.00  0.00    -0.744 OA
ENDBRANCH  66  67
ENDBRANCH  45  59
BRANCH  46  71
ATOM     71  C   UNL A   1      43.160  34.915  29.570  1.00  0.00     0.058 A 
ATOM     72  C   UNL A   1      44.142  35.702  30.193  1.00  0.00     0.135 A 
ATOM     73  C   UNL A   1      43.213  34.860  28.160  1.00  0.00     0.135 A 
ATOM     74  F   UNL A   1      44.191  35.781  31.531  1.00  0.00    -0.206 F 
ATOM     75  C   UNL A   1      45.126  36.382  29.463  1.00  0.00     0.059 A 
ATOM     76  C   UNL A   1      44.171  35.540  27.412  1.00  0.00     0.059 A 
ATOM     77  F   UNL A   1      42.381  34.073  27.463  1.00  0.00    -0.206 F 
ATOM     78  C   UNL A   1      45.137  36.287  28.071  1.00  0.00     0.060 A 
BRANCH  78  79
ATOM     79  S   UNL A   1      46.481  37.052  27.132  1.00  0.00     0.124 S 
ATOM     80  O   UNL A   1      46.631  36.127  26.015  1.00  0.00    -0.237 OA
ATOM     81  O   UNL A   1      45.922  38.360  26.807  1.00  0.00    -0.237 OA
ATOM     82  O   UNL A   1      47.591  37.069  28.081  1.00  0.00    -0.744 OA
ENDBRANCH  78  79
ENDBRANCH  46  71
BRANCH  58  83
ATOM     83  C   UNL A   1      41.141  30.783  34.042  1.00  0.00     0.058 A 
ATOM     84  C   UNL A   1      42.042  30.674  35.115  1.00  0.00     0.135 A 
ATOM     85  C   UNL A   1      40.090  31.703  34.180  1.00  0.00     0.135 A 
ATOM     86  F   UNL A   1      43.126  29.891  35.021  1.00  0.00    -0.206 F 
ATOM     87  C   UNL A   1      41.898  31.432  36.278  1.00  0.00     0.059 A 
ATOM     88  C   UNL A   1      39.944  32.492  35.317  1.00  0.00     0.059 A 
ATOM     89  F   UNL A   1      39.232  31.898  33.165  1.00  0.00    -0.206 F 
ATOM     90  C   UNL A   1      40.850  32.348  36.366  1.00  0.00     0.060 A 
BRANCH  90  91
ATOM     91  S   UNL A   1      40.735  33.419  37.817  1.00  0.00     0.124 S 
ATOM     92  O   UNL A   1      42.043  34.064  37.827  1.00  0.00    -0.237 OA
ATOM     93  O   UNL A   1      39.605  34.282  37.486  1.00  0.00    -0.237 OA
ATOM     94  O   UNL A   1      40.491  32.483  38.912  1.00  0.00    -0.744 OA
ENDBRANCH  90  91
ENDBRANCH  58  83
ENDBRANCH  32  33
ENDBRANCH  25  27
ENDBRANCH  24  25
ENDBRANCH  23  24
ENDBRANCH   1  23
TORSDOF 20
ENDMDL
MODEL 3
REMARK VINA RESULT:      -9.7      3.255     11.728
REMARK SMILES Cc1cc(C)n(CCC(=O)N[C@@H](C(=O)OCCOC(=O)c2ccc(-c3c4nc(c(-c5c(F)cc(S(=O)(=O)[O-])cc5F)c5ccc([nH]5)c(-c5c(F)cc(S(=O)(=O)[O-])cc5F)c5nc(c(-c6c(F)cc(S(=O)(=O)[O-])cc6F)c6ccc3[nH]6)C=C5)C=C4)cc2)[C@@H](C)O)n1
REMARK SMILES IDX 16 1 15 2 13 3 14 4 12 5 11 6 9 7 10 8 8 10 7 11 6 12 1 13
REMARK SMILES IDX 2 14 3 15 90 16 4 17 5 18 87 19 88 20 89 21 17 23 18 24
REMARK SMILES IDX 19 25 20 26 21 27 22 28 86 29 23 30 85 31 24 32 25 33 26 34
REMARK SMILES IDX 79 35 27 36 84 37 78 38 80 39 28 40 83 41 77 42 76 43 29 45
REMARK SMILES IDX 63 46 42 47 62 48 43 49 46 50 61 51 81 52 44 53 45 54 60 56
REMARK SMILES IDX 82 57 47 58 30 59 31 60 40 61 32 62 33 63 39 64 41 65 34 66
REMARK SMILES IDX 35 67 36 68 37 69 38 70 64 71 65 72 74 73 66 74 67 75 73 76
REMARK SMILES IDX 75 77 68 78 69 79 70 80 71 81 72 82 48 83 49 84 58 85 50 86
REMARK SMILES IDX 51 87 57 88 59 89 52 90 53 91 54 92 55 93 56 94
REMARK H PARENT 11 9 89 22 80 44 46 55
REMARK Flexibility Score: inf
ROOT
ATOM      1  C   UNL A   1      34.457  35.159  33.725  1.00  0.00     0.274 C 
ENDROOT
BRANCH   1   2
ATOM      2  O   UNL A   1      34.764  35.220  32.307  1.00  0.00    -0.460 OA
BRANCH   2   3
ATOM      3  C   UNL A   1      34.133  34.378  31.429  1.00  0.00     0.331 C 
ATOM      4  O   UNL A   1      33.906  33.203  31.684  1.00  0.00    -0.250 OA
BRANCH   3   5
ATOM      5  C   UNL A   1      33.906  35.057  30.043  1.00  0.00     0.221 C 
BRANCH   5   6
ATOM      6  N   UNL A   1      34.961  34.720  29.070  1.00  0.00    -0.341 N 
ATOM      7  C   UNL A   1      34.943  33.802  28.064  1.00  0.00     0.222 C 
ATOM      8  O   UNL A   1      35.974  33.569  27.431  1.00  0.00    -0.275 OA
ATOM      9  H   UNL A   1      35.797  35.231  29.161  1.00  0.00     0.164 HD
BRANCH   7  10
ATOM     10  C   UNL A   1      33.675  33.048  27.735  1.00  0.00     0.123 C 
BRANCH  10  11
ATOM     11  C   UNL A   1      33.704  31.652  28.343  1.00  0.00     0.154 C 
BRANCH  11  12
ATOM     12  N   UNL A   1      33.653  30.592  27.354  1.00  0.00    -0.269 N 
ATOM     13  C   UNL A   1      31.594  28.563  25.315  1.00  0.00     0.069 C 
ATOM     14  C   UNL A   1      32.718  29.285  25.967  1.00  0.00     0.060 A 
ATOM     15  C   UNL A   1      34.063  28.875  26.067  1.00  0.00     0.048 A 
ATOM     16  N   UNL A   1      32.498  30.398  26.676  1.00  0.00    -0.178 NA
ATOM     17  C   UNL A   1      34.603  29.641  27.084  1.00  0.00     0.036 A 
ATOM     18  C   UNL A   1      35.845  29.448  27.886  1.00  0.00     0.066 C 
ENDBRANCH  11  12
ENDBRANCH  10  11
ENDBRANCH   7  10
ENDBRANCH   5   6
BRANCH   5  19
ATOM     19  C   UNL A   1      33.619  36.576  30.135  1.00  0.00     0.145 C 
ATOM     20  C   UNL A   1      33.365  37.231  28.773  1.00  0.00     0.041 C 
BRANCH  19  21
ATOM     21  O   UNL A   1      32.432  36.831  30.901  1.00  0.00    -0.391 OA
ATOM     22  H   UNL A   1      32.534  37.662  31.390  1.00  0.00     0.211 HD
ENDBRANCH  19  21
ENDBRANCH   5  19
ENDBRANCH   3   5
ENDBRANCH   2   3
ENDBRANCH   1   2
BRANCH   1  23
ATOM     23  C   UNL A   1      35.617  34.554  34.511  1.00  0.00     0.275 C 
BRANCH  23  24
ATOM     24  O   UNL A   1      35.571  33.154  34.319  1.00  0.00    -0.458 OA
BRANCH  24  25
ATOM     25  C   UNL A   1      36.787  32.609  34.124  1.00  0.00     0.338 C 
ATOM     26  O   UNL A   1      37.636  32.352  34.979  1.00  0.00    -0.246 OA
BRANCH  25  27
ATOM     27  C   UNL A   1      36.942  32.313  32.695  1.00  0.00     0.060 A 
ATOM     28  C   UNL A   1      36.776  30.958  32.418  1.00  0.00     0.016 A 
ATOM     29  C   UNL A   1      37.826  33.137  31.992  1.00  0.00     0.016 A 
ATOM     30  C   UNL A   1      37.840  30.333  31.835  1.00  0.00     0.010 A 
ATOM     31  C   UNL A   1      38.924  32.512  31.485  1.00  0.00     0.010 A 
ATOM     32  C   UNL A   1      38.949  31.119  31.523  1.00  0.00    -0.014 A 
BRANCH  32  33
ATOM     33  C   UNL A   1      40.160  30.437  31.167  1.00  0.00     0.031 A 
ATOM     34  C   UNL A   1      41.050  30.317  32.333  1.00  0.00     0.074 A 
ATOM     35  C   UNL A   1      40.313  29.886  29.953  1.00  0.00     0.049 A 
ATOM     36  N   UNL A   1      42.117  30.993  32.597  1.00  0.00    -0.248 NA
ATOM     37  C   UNL A   1      40.505  29.572  33.484  1.00  0.00     0.031 C 
ATOM     38  C   UNL A   1      39.307  29.699  28.904  1.00  0.00     0.029 A 
ATOM     39  N   UNL A   1      41.394  29.235  29.466  1.00  0.00    -0.354 N 
ATOM     40  C   UNL A   1      42.491  30.553  33.859  1.00  0.00     0.074 A 
ATOM     41  C   UNL A   1      41.315  29.986  34.455  1.00  0.00     0.031 C 
ATOM     42  C   UNL A   1      39.761  28.777  28.023  1.00  0.00     0.029 A 
ATOM     43  C   UNL A   1      41.114  28.401  28.394  1.00  0.00     0.049 A 
ATOM     44  H   UNL A   1      42.298  29.343  29.839  1.00  0.00     0.167 HD
ATOM     45  C   UNL A   1      43.793  30.345  34.185  1.00  0.00     0.037 A 
ATOM     46  C   UNL A   1      41.918  27.382  27.996  1.00  0.00     0.037 A 
ATOM     47  C   UNL A   1      44.670  31.005  33.251  1.00  0.00     0.049 A 
ATOM     48  C   UNL A   1      43.256  27.618  28.627  1.00  0.00     0.074 A 
ATOM     49  C   UNL A   1      44.847  32.320  32.866  1.00  0.00     0.029 A 
ATOM     50  N   UNL A   1      45.235  30.235  32.260  1.00  0.00    -0.354 N 
ATOM     51  N   UNL A   1      44.030  28.634  28.341  1.00  0.00    -0.248 NA
ATOM     52  C   UNL A   1      43.509  27.000  29.923  1.00  0.00     0.031 C 
ATOM     53  C   UNL A   1      45.112  32.268  31.468  1.00  0.00     0.029 A 
ATOM     54  C   UNL A   1      45.138  30.927  31.079  1.00  0.00     0.049 A 
ATOM     55  H   UNL A   1      45.638  29.345  32.378  1.00  0.00     0.167 HD
ATOM     56  C   UNL A   1      44.592  29.022  29.555  1.00  0.00     0.074 A 
ATOM     57  C   UNL A   1      44.288  27.934  30.478  1.00  0.00     0.031 C 
ATOM     58  C   UNL A   1      45.000  30.308  29.774  1.00  0.00     0.037 A 
BRANCH  45  59
ATOM     59  C   UNL A   1      44.248  29.245  35.114  1.00  0.00     0.058 A 
ATOM     60  C   UNL A   1      43.949  27.911  34.785  1.00  0.00     0.135 A 
ATOM     61  C   UNL A   1      44.756  29.447  36.421  1.00  0.00     0.135 A 
ATOM     62  F   UNL A   1      43.448  27.601  33.578  1.00  0.00    -0.206 F 
ATOM     63  C   UNL A   1      44.088  26.869  35.703  1.00  0.00     0.059 A 
ATOM     64  C   UNL A   1      44.970  28.417  37.324  1.00  0.00     0.059 A 
ATOM     65  F   UNL A   1      44.978  30.657  36.942  1.00  0.00    -0.206 F 
ATOM     66  C   UNL A   1      44.587  27.138  36.975  1.00  0.00     0.060 A 
BRANCH  66  67
ATOM     67  S   UNL A   1      44.658  25.830  38.206  1.00  0.00     0.124 S 
ATOM     68  O   UNL A   1      43.802  26.374  39.253  1.00  0.00    -0.237 OA
ATOM     69  O   UNL A   1      44.127  24.690  37.467  1.00  0.00    -0.237 OA
ATOM     70  O   UNL A   1      46.080  25.752  38.530  1.00  0.00    -0.744 OA
ENDBRANCH  66  67
ENDBRANCH  45  59
BRANCH  46  71
ATOM     71  C   UNL A   1      41.474  26.058  27.488  1.00  0.00     0.058 A 
ATOM     72  C   UNL A   1      42.185  25.385  26.481  1.00  0.00     0.135 A 
ATOM     73  C   UNL A   1      40.468  25.312  28.140  1.00  0.00     0.135 A 
ATOM     74  F   UNL A   1      43.184  26.006  25.835  1.00  0.00    -0.206 F 
ATOM     75  C   UNL A   1      41.926  24.049  26.151  1.00  0.00     0.059 A 
ATOM     76  C   UNL A   1      40.180  23.987  27.818  1.00  0.00     0.059 A 
ATOM     77  F   UNL A   1      39.784  25.822  29.175  1.00  0.00    -0.206 F 
ATOM     78  C   UNL A   1      40.926  23.355  26.834  1.00  0.00     0.060 A 
BRANCH  78  79
ATOM     79  S   UNL A   1      40.675  21.594  26.506  1.00  0.00     0.124 S 
ATOM     80  O   UNL A   1      41.825  21.277  25.668  1.00  0.00    -0.237 OA
ATOM     81  O   UNL A   1      40.688  21.026  27.850  1.00  0.00    -0.237 OA
ATOM     82  O   UNL A   1      39.380  21.556  25.829  1.00  0.00    -0.744 OA
ENDBRANCH  78  79
ENDBRANCH  46  71
BRANCH  58  83
ATOM     83  C   UNL A   1      45.087  31.242  28.592  1.00  0.00     0.058 A 
ATOM     84  C   UNL A   1      44.064  32.130  28.216  1.00  0.00     0.135 A 
ATOM     85  C   UNL A   1      46.328  31.388  27.954  1.00  0.00     0.135 A 
ATOM     86  F   UNL A   1      42.882  32.120  28.848  1.00  0.00    -0.206 F 
ATOM     87  C   UNL A   1      44.259  33.108  27.239  1.00  0.00     0.059 A 
ATOM     88  C   UNL A   1      46.555  32.375  26.999  1.00  0.00     0.059 A 
ATOM     89  F   UNL A   1      47.363  30.611  28.313  1.00  0.00    -0.206 F 
ATOM     90  C   UNL A   1      45.515  33.230  26.643  1.00  0.00     0.060 A 
BRANCH  90  91
ATOM     91  S   UNL A   1      45.806  34.574  25.470  1.00  0.00     0.124 S 
ATOM     92  O   UNL A   1      44.975  34.179  24.338  1.00  0.00    -0.237 OA
ATOM     93  O   UNL A   1      45.352  35.747  26.212  1.00  0.00    -0.237 OA
ATOM     94  O   UNL A   1      47.248  34.516  25.238  1.00  0.00    -0.744 OA
ENDBRANCH  90  91
ENDBRANCH  58  83
ENDBRANCH  32  33
ENDBRANCH  25  27
ENDBRANCH  24  25
ENDBRANCH  23  24
ENDBRANCH   1  23
TORSDOF 20
ENDMDL
