MODEL 1
REMARK VINA RESULT:     -11.1      0.000      0.000
REMARK SMILES CC(C)[NH2+][C@]1(C(=O)OCCOC(=O)c2ccc(-c3c4nc(c(-c5c(F)cc(S(=O)(=O)[O-])cc5F)c5ccc([nH]5)c(-c5c(F)cc(S(=O)(=O)[O-])cc5F)c5nc(c(-c6c(F)cc(S(=O)(=O)[O-])cc6F)c6ccc3[nH]6)C=C5)C=C4)cc2)CCC[C@H]([N@H+](C)C2CCCCC2)C1
REMARK SMILES IDX 10 1 9 2 8 3 6 4 7 5 5 6 80 7 92 8 81 9 83 10 82 11 4 12
REMARK SMILES IDX 2 15 1 16 3 17 84 18 85 19 86 21 87 22 91 23 88 24 90 25
REMARK SMILES IDX 89 26 11 27 12 28 13 29 14 30 15 31 79 32 16 33 78 34 17 35
REMARK SMILES IDX 18 36 19 37 72 38 20 39 77 40 71 41 73 42 21 43 76 44 70 45
REMARK SMILES IDX 69 46 22 48 56 49 35 50 55 51 36 52 39 53 54 54 74 55 37 56
REMARK SMILES IDX 38 57 53 59 75 60 40 61 23 62 24 63 33 64 25 65 26 66 32 67
REMARK SMILES IDX 34 68 27 69 28 70 29 71 30 72 31 73 57 74 58 75 67 76 59 77
REMARK SMILES IDX 60 78 66 79 68 80 61 81 62 82 63 83 64 84 65 85 41 86 42 87
REMARK SMILES IDX 51 88 43 89 44 90 50 91 52 92 45 93 46 94 47 95 48 96 49 97
REMARK H PARENT 4 13 4 14 84 20 73 47 39 58
REMARK Flexibility Score: inf
ROOT
ATOM      1  C   UNL A   1      34.062  31.054  27.693  1.00  0.00     0.275 C 
ENDROOT
BRANCH   1   2
ATOM      2  C   UNL A   1      33.011  30.185  27.006  1.00  0.00     0.274 C 
BRANCH   2   3
ATOM      3  O   UNL A   1      33.325  28.788  27.167  1.00  0.00    -0.457 OA
BRANCH   3   4
ATOM      4  C   UNL A   1      32.263  27.939  27.178  1.00  0.00     0.368 C 
ATOM      5  O   UNL A   1      31.400  27.965  28.050  1.00  0.00    -0.245 OA
BRANCH   4   6
ATOM      6  C   UNL A   1      32.292  26.901  26.004  1.00  0.00     0.200 C 
ATOM      7  C   UNL A   1      33.349  27.417  25.008  1.00  0.00     0.081 C 
ATOM      8  C   UNL A   1      32.816  25.565  26.641  1.00  0.00     0.146 C 
ATOM      9  C   UNL A   1      33.863  26.364  24.033  1.00  0.00     0.013 C 
ATOM     10  C   UNL A   1      33.391  24.461  25.718  1.00  0.00     0.190 C 
ATOM     11  C   UNL A   1      34.402  25.128  24.757  1.00  0.00     0.065 C 
BRANCH   6  12
ATOM     12  N   UNL A   1      30.933  26.624  25.470  1.00  0.00    -0.330 N 
ATOM     13  H   UNL A   1      30.782  25.623  25.594  1.00  0.00     0.347 HD
ATOM     14  H   UNL A   1      30.372  27.299  25.991  1.00  0.00     0.347 HD
BRANCH  12  15
ATOM     15  C   UNL A   1      30.532  26.922  24.093  1.00  0.00     0.176 C 
ATOM     16  C   UNL A   1      29.181  26.223  23.837  1.00  0.00     0.075 C 
ATOM     17  C   UNL A   1      30.312  28.404  23.785  1.00  0.00     0.075 C 
ENDBRANCH  12  15
ENDBRANCH   6  12
BRANCH  10  18
ATOM     18  N   UNL A   1      32.489  23.449  25.115  1.00  0.00    -0.332 N 
ATOM     19  C   UNL A   1      31.207  23.267  25.763  1.00  0.00     0.333 C 
ATOM     20  H   UNL A   1      32.216  23.919  24.251  1.00  0.00     0.348 HD
BRANCH  18  21
ATOM     21  C   UNL A   1      33.135  22.219  24.586  1.00  0.00     0.184 C 
ATOM     22  C   UNL A   1      34.298  21.659  25.443  1.00  0.00     0.065 C 
ATOM     23  C   UNL A   1      32.062  21.117  24.406  1.00  0.00     0.065 C 
ATOM     24  C   UNL A   1      34.871  20.369  24.865  1.00  0.00     0.006 C 
ATOM     25  C   UNL A   1      32.626  19.778  23.925  1.00  0.00     0.006 C 
ATOM     26  C   UNL A   1      33.798  19.296  24.767  1.00  0.00     0.000 C 
ENDBRANCH  18  21
ENDBRANCH  10  18
ENDBRANCH   4   6
ENDBRANCH   3   4
ENDBRANCH   2   3
ENDBRANCH   1   2
BRANCH   1  27
ATOM     27  O   UNL A   1      35.220  30.258  28.005  1.00  0.00    -0.458 OA
BRANCH  27  28
ATOM     28  C   UNL A   1      35.945  30.650  29.076  1.00  0.00     0.338 C 
ATOM     29  O   UNL A   1      35.553  31.321  30.024  1.00  0.00    -0.246 OA
BRANCH  28  30
ATOM     30  C   UNL A   1      37.330  30.159  28.961  1.00  0.00     0.060 A 
ATOM     31  C   UNL A   1      37.909  29.933  27.713  1.00  0.00     0.016 A 
ATOM     32  C   UNL A   1      38.050  29.866  30.121  1.00  0.00     0.016 A 
ATOM     33  C   UNL A   1      39.183  29.376  27.621  1.00  0.00     0.010 A 
ATOM     34  C   UNL A   1      39.366  29.399  30.026  1.00  0.00     0.010 A 
ATOM     35  C   UNL A   1      39.949  29.144  28.774  1.00  0.00    -0.014 A 
BRANCH  35  36
ATOM     36  C   UNL A   1      41.379  28.741  28.670  1.00  0.00     0.031 A 
ATOM     37  C   UNL A   1      42.491  29.752  28.784  1.00  0.00     0.074 A 
ATOM     38  C   UNL A   1      41.674  27.444  28.433  1.00  0.00     0.049 A 
ATOM     39  N   UNL A   1      43.775  29.585  28.597  1.00  0.00    -0.248 NA
ATOM     40  C   UNL A   1      42.118  31.123  29.166  1.00  0.00     0.031 C 
ATOM     41  C   UNL A   1      40.693  26.361  28.314  1.00  0.00     0.029 A 
ATOM     42  N   UNL A   1      42.878  26.815  28.234  1.00  0.00    -0.354 N 
ATOM     43  C   UNL A   1      44.364  30.822  28.838  1.00  0.00     0.074 A 
ATOM     44  C   UNL A   1      43.296  31.737  29.177  1.00  0.00     0.031 C 
ATOM     45  C   UNL A   1      41.331  25.207  28.078  1.00  0.00     0.029 A 
ATOM     46  C   UNL A   1      42.754  25.479  27.933  1.00  0.00     0.049 A 
ATOM     47  H   UNL A   1      43.746  27.275  28.300  1.00  0.00     0.167 HD
ATOM     48  C   UNL A   1      45.675  31.159  28.778  1.00  0.00     0.037 A 
ATOM     49  C   UNL A   1      43.663  24.577  27.516  1.00  0.00     0.037 A 
ATOM     50  C   UNL A   1      46.731  30.248  28.419  1.00  0.00     0.049 A 
ATOM     51  C   UNL A   1      45.082  25.015  27.315  1.00  0.00     0.074 A 
ATOM     52  C   UNL A   1      48.094  30.489  28.360  1.00  0.00     0.029 A 
ATOM     53  N   UNL A   1      46.543  28.930  28.032  1.00  0.00    -0.354 N 
ATOM     54  N   UNL A   1      45.622  26.185  27.557  1.00  0.00    -0.248 NA
ATOM     55  C   UNL A   1      46.009  24.025  26.750  1.00  0.00     0.031 C 
ATOM     56  C   UNL A   1      48.724  29.333  27.884  1.00  0.00     0.029 A 
ATOM     57  C   UNL A   1      47.757  28.361  27.683  1.00  0.00     0.049 A 
ATOM     58  H   UNL A   1      45.675  28.467  28.009  1.00  0.00     0.167 HD
ATOM     59  C   UNL A   1      46.949  26.076  27.165  1.00  0.00     0.074 A 
ATOM     60  C   UNL A   1      47.139  24.718  26.695  1.00  0.00     0.031 C 
ATOM     61  C   UNL A   1      47.922  27.019  27.186  1.00  0.00     0.037 A 
BRANCH  48  62
ATOM     62  C   UNL A   1      46.057  32.580  29.079  1.00  0.00     0.058 A 
ATOM     63  C   UNL A   1      46.348  33.002  30.384  1.00  0.00     0.135 A 
ATOM     64  C   UNL A   1      46.229  33.505  28.036  1.00  0.00     0.135 A 
ATOM     65  F   UNL A   1      46.186  32.161  31.419  1.00  0.00    -0.206 F 
ATOM     66  C   UNL A   1      46.802  34.292  30.646  1.00  0.00     0.059 A 
ATOM     67  C   UNL A   1      46.693  34.796  28.273  1.00  0.00     0.059 A 
ATOM     68  F   UNL A   1      45.959  33.151  26.769  1.00  0.00    -0.206 F 
ATOM     69  C   UNL A   1      46.976  35.180  29.582  1.00  0.00     0.060 A 
BRANCH  69  70
ATOM     70  S   UNL A   1      47.606  36.838  29.933  1.00  0.00     0.124 S 
ATOM     71  O   UNL A   1      48.566  37.020  28.849  1.00  0.00    -0.237 OA
ATOM     72  O   UNL A   1      46.398  37.654  29.853  1.00  0.00    -0.237 OA
ATOM     73  O   UNL A   1      48.185  36.709  31.267  1.00  0.00    -0.744 OA
ENDBRANCH  69  70
ENDBRANCH  48  62
BRANCH  49  74
ATOM     74  C   UNL A   1      43.228  23.200  27.165  1.00  0.00     0.058 A 
ATOM     75  C   UNL A   1      43.105  22.792  25.830  1.00  0.00     0.135 A 
ATOM     76  C   UNL A   1      42.958  22.254  28.169  1.00  0.00     0.135 A 
ATOM     77  F   UNL A   1      43.340  23.664  24.839  1.00  0.00    -0.206 F 
ATOM     78  C   UNL A   1      42.732  21.493  25.500  1.00  0.00     0.059 A 
ATOM     79  C   UNL A   1      42.610  20.943  27.863  1.00  0.00     0.059 A 
ATOM     80  F   UNL A   1      43.071  22.593  29.462  1.00  0.00    -0.206 F 
ATOM     81  C   UNL A   1      42.490  20.574  26.524  1.00  0.00     0.060 A 
BRANCH  81  82
ATOM     82  S   UNL A   1      42.075  18.870  26.098  1.00  0.00     0.124 S 
ATOM     83  O   UNL A   1      42.360  18.178  27.350  1.00  0.00    -0.237 OA
ATOM     84  O   UNL A   1      40.665  18.972  25.731  1.00  0.00    -0.237 OA
ATOM     85  O   UNL A   1      42.980  18.575  24.991  1.00  0.00    -0.744 OA
ENDBRANCH  81  82
ENDBRANCH  49  74
BRANCH  61  86
ATOM     86  C   UNL A   1      49.269  26.614  26.667  1.00  0.00     0.058 A 
ATOM     87  C   UNL A   1      50.190  25.947  27.488  1.00  0.00     0.135 A 
ATOM     88  C   UNL A   1      49.637  26.879  25.340  1.00  0.00     0.135 A 
ATOM     89  F   UNL A   1      49.886  25.684  28.769  1.00  0.00    -0.206 F 
ATOM     90  C   UNL A   1      51.443  25.575  27.016  1.00  0.00     0.059 A 
ATOM     91  C   UNL A   1      50.878  26.498  24.841  1.00  0.00     0.059 A 
ATOM     92  F   UNL A   1      48.787  27.511  24.514  1.00  0.00    -0.206 F 
ATOM     93  C   UNL A   1      51.780  25.858  25.692  1.00  0.00     0.060 A 
BRANCH  93  94
ATOM     94  S   UNL A   1      53.403  25.356  25.081  1.00  0.00     0.124 S 
ATOM     95  O   UNL A   1      54.290  26.150  25.925  1.00  0.00    -0.237 OA
ATOM     96  O   UNL A   1      53.406  23.919  25.336  1.00  0.00    -0.237 OA
ATOM     97  O   UNL A   1      53.366  25.735  23.673  1.00  0.00    -0.744 OA
ENDBRANCH  93  94
ENDBRANCH  61  86
ENDBRANCH  35  36
ENDBRANCH  28  30
ENDBRANCH  27  28
ENDBRANCH   1  27
TORSDOF 18
ENDMDL
MODEL 2
REMARK VINA RESULT:     -11.1      1.977      3.105
REMARK SMILES CC(C)[NH2+][C@]1(C(=O)OCCOC(=O)c2ccc(-c3c4nc(c(-c5c(F)cc(S(=O)(=O)[O-])cc5F)c5ccc([nH]5)c(-c5c(F)cc(S(=O)(=O)[O-])cc5F)c5nc(c(-c6c(F)cc(S(=O)(=O)[O-])cc6F)c6ccc3[nH]6)C=C5)C=C4)cc2)CCC[C@H]([N@H+](C)C2CCCCC2)C1
REMARK SMILES IDX 10 1 9 2 8 3 6 4 7 5 5 6 80 7 92 8 81 9 83 10 82 11 4 12
REMARK SMILES IDX 2 15 1 16 3 17 84 18 85 19 86 21 87 22 91 23 88 24 90 25
REMARK SMILES IDX 89 26 11 27 12 28 13 29 14 30 15 31 79 32 16 33 78 34 17 35
REMARK SMILES IDX 18 36 19 37 72 38 20 39 77 40 71 41 73 42 21 43 76 44 70 45
REMARK SMILES IDX 69 46 22 48 56 49 35 50 55 51 36 52 39 53 54 54 74 55 37 56
REMARK SMILES IDX 38 57 53 59 75 60 40 61 23 62 24 63 33 64 25 65 26 66 32 67
REMARK SMILES IDX 34 68 27 69 28 70 29 71 30 72 31 73 57 74 58 75 67 76 59 77
REMARK SMILES IDX 60 78 66 79 68 80 61 81 62 82 63 83 64 84 65 85 41 86 42 87
REMARK SMILES IDX 51 88 43 89 44 90 50 91 52 92 45 93 46 94 47 95 48 96 49 97
REMARK H PARENT 4 13 4 14 84 20 73 47 39 58
REMARK Flexibility Score: inf
ROOT
ATOM      1  C   UNL A   1      32.567  29.639  26.970  1.00  0.00     0.275 C 
ENDROOT
BRANCH   1   2
ATOM      2  C   UNL A   1      31.877  28.334  26.580  1.00  0.00     0.274 C 
BRANCH   2   3
ATOM      3  O   UNL A   1      32.840  27.378  26.094  1.00  0.00    -0.457 OA
BRANCH   3   4
ATOM      4  C   UNL A   1      32.500  26.720  24.953  1.00  0.00     0.368 C 
ATOM      5  O   UNL A   1      31.906  27.263  24.026  1.00  0.00    -0.245 OA
BRANCH   4   6
ATOM      6  C   UNL A   1      32.892  25.203  24.976  1.00  0.00     0.200 C 
ATOM      7  C   UNL A   1      32.644  24.723  26.420  1.00  0.00     0.081 C 
ATOM      8  C   UNL A   1      31.860  24.492  24.030  1.00  0.00     0.146 C 
ATOM      9  C   UNL A   1      32.526  23.211  26.569  1.00  0.00     0.013 C 
ATOM     10  C   UNL A   1      31.654  22.961  24.149  1.00  0.00     0.190 C 
ATOM     11  C   UNL A   1      31.456  22.626  25.646  1.00  0.00     0.065 C 
BRANCH   6  12
ATOM     12  N   UNL A   1      34.242  24.967  24.403  1.00  0.00    -0.330 N 
ATOM     13  H   UNL A   1      34.111  24.912  23.393  1.00  0.00     0.347 HD
ATOM     14  H   UNL A   1      34.771  25.735  24.814  1.00  0.00     0.347 HD
BRANCH  12  15
ATOM     15  C   UNL A   1      35.079  23.819  24.761  1.00  0.00     0.176 C 
ATOM     16  C   UNL A   1      35.783  23.335  23.477  1.00  0.00     0.075 C 
ATOM     17  C   UNL A   1      36.189  24.114  25.772  1.00  0.00     0.075 C 
ENDBRANCH  12  15
ENDBRANCH   6  12
BRANCH  10  18
ATOM     18  N   UNL A   1      32.519  22.030  23.382  1.00  0.00    -0.332 N 
ATOM     19  C   UNL A   1      32.581  22.247  21.951  1.00  0.00     0.333 C 
ATOM     20  H   UNL A   1      33.447  22.338  23.674  1.00  0.00     0.348 HD
BRANCH  18  21
ATOM     21  C   UNL A   1      32.527  20.612  23.830  1.00  0.00     0.184 C 
ATOM     22  C   UNL A   1      32.223  19.567  22.729  1.00  0.00     0.065 C 
ATOM     23  C   UNL A   1      33.899  20.289  24.471  1.00  0.00     0.065 C 
ATOM     24  C   UNL A   1      32.304  18.137  23.254  1.00  0.00     0.006 C 
ATOM     25  C   UNL A   1      34.047  18.831  24.913  1.00  0.00     0.006 C 
ATOM     26  C   UNL A   1      33.688  17.843  23.813  1.00  0.00     0.000 C 
ENDBRANCH  18  21
ENDBRANCH  10  18
ENDBRANCH   4   6
ENDBRANCH   3   4
ENDBRANCH   2   3
ENDBRANCH   1   2
BRANCH   1  27
ATOM     27  O   UNL A   1      33.754  29.351  27.731  1.00  0.00    -0.458 OA
BRANCH  27  28
ATOM     28  C   UNL A   1      34.476  30.418  28.139  1.00  0.00     0.338 C 
ATOM     29  O   UNL A   1      34.068  31.559  28.317  1.00  0.00    -0.246 OA
BRANCH  28  30
ATOM     30  C   UNL A   1      35.884  30.030  28.349  1.00  0.00     0.060 A 
ATOM     31  C   UNL A   1      36.799  30.059  27.297  1.00  0.00     0.016 A 
ATOM     32  C   UNL A   1      36.288  29.576  29.605  1.00  0.00     0.016 A 
ATOM     33  C   UNL A   1      38.100  29.597  27.485  1.00  0.00     0.010 A 
ATOM     34  C   UNL A   1      37.621  29.205  29.817  1.00  0.00     0.010 A 
ATOM     35  C   UNL A   1      38.544  29.207  28.758  1.00  0.00    -0.014 A 
BRANCH  35  36
ATOM     36  C   UNL A   1      39.982  28.907  29.004  1.00  0.00     0.031 A 
ATOM     37  C   UNL A   1      40.938  29.971  29.477  1.00  0.00     0.074 A 
ATOM     38  C   UNL A   1      40.437  27.659  28.760  1.00  0.00     0.049 A 
ATOM     39  N   UNL A   1      42.237  29.905  29.622  1.00  0.00    -0.248 NA
ATOM     40  C   UNL A   1      40.365  31.276  29.845  1.00  0.00     0.031 C 
ATOM     41  C   UNL A   1      39.615  26.530  28.312  1.00  0.00     0.029 A 
ATOM     42  N   UNL A   1      41.701  27.128  28.839  1.00  0.00    -0.354 N 
ATOM     43  C   UNL A   1      42.637  31.149  30.096  1.00  0.00     0.074 A 
ATOM     44  C   UNL A   1      41.444  31.960  30.208  1.00  0.00     0.031 C 
ATOM     45  C   UNL A   1      40.387  25.446  28.168  1.00  0.00     0.029 A 
ATOM     46  C   UNL A   1      41.772  25.819  28.421  1.00  0.00     0.049 A 
ATOM     47  H   UNL A   1      42.481  27.634  29.163  1.00  0.00     0.167 HD
ATOM     48  C   UNL A   1      43.886  31.572  30.406  1.00  0.00     0.037 A 
ATOM     49  C   UNL A   1      42.831  25.019  28.194  1.00  0.00     0.037 A 
ATOM     50  C   UNL A   1      45.072  30.767  30.271  1.00  0.00     0.049 A 
ATOM     51  C   UNL A   1      44.212  25.562  28.403  1.00  0.00     0.074 A 
ATOM     52  C   UNL A   1      46.380  31.099  30.589  1.00  0.00     0.029 A 
ATOM     53  N   UNL A   1      45.102  29.481  29.755  1.00  0.00    -0.354 N 
ATOM     54  N   UNL A   1      44.570  26.737  28.861  1.00  0.00    -0.248 NA
ATOM     55  C   UNL A   1      45.333  24.689  28.032  1.00  0.00     0.031 C 
ATOM     56  C   UNL A   1      47.206  30.033  30.213  1.00  0.00     0.029 A 
ATOM     57  C   UNL A   1      46.409  29.024  29.697  1.00  0.00     0.049 A 
ATOM     58  H   UNL A   1      44.312  28.968  29.473  1.00  0.00     0.167 HD
ATOM     59  C   UNL A   1      45.958  26.749  28.824  1.00  0.00     0.074 A 
ATOM     60  C   UNL A   1      46.375  25.454  28.324  1.00  0.00     0.031 C 
ATOM     61  C   UNL A   1      46.809  27.746  29.166  1.00  0.00     0.037 A 
BRANCH  48  62
ATOM     62  C   UNL A   1      44.056  32.982  30.897  1.00  0.00     0.058 A 
ATOM     63  C   UNL A   1      44.175  34.060  30.008  1.00  0.00     0.135 A 
ATOM     64  C   UNL A   1      44.000  33.266  32.271  1.00  0.00     0.135 A 
ATOM     65  F   UNL A   1      44.248  33.842  28.686  1.00  0.00    -0.206 F 
ATOM     66  C   UNL A   1      44.228  35.375  30.465  1.00  0.00     0.059 A 
ATOM     67  C   UNL A   1      44.039  34.573  32.749  1.00  0.00     0.059 A 
ATOM     68  F   UNL A   1      43.890  32.269  33.163  1.00  0.00    -0.206 F 
ATOM     69  C   UNL A   1      44.154  35.621  31.837  1.00  0.00     0.060 A 
BRANCH  69  70
ATOM     70  S   UNL A   1      44.182  37.334  32.412  1.00  0.00     0.124 S 
ATOM     71  O   UNL A   1      43.099  37.332  33.390  1.00  0.00    -0.237 OA
ATOM     72  O   UNL A   1      45.530  37.458  32.960  1.00  0.00    -0.237 OA
ATOM     73  O   UNL A   1      43.929  38.106  31.199  1.00  0.00    -0.744 OA
ENDBRANCH  69  70
ENDBRANCH  48  62
BRANCH  49  74
ATOM     74  C   UNL A   1      42.618  23.654  27.643  1.00  0.00     0.058 A 
ATOM     75  C   UNL A   1      42.580  23.423  26.262  1.00  0.00     0.135 A 
ATOM     76  C   UNL A   1      42.483  22.548  28.499  1.00  0.00     0.135 A 
ATOM     77  F   UNL A   1      42.692  24.450  25.407  1.00  0.00    -0.206 F 
ATOM     78  C   UNL A   1      42.416  22.142  25.745  1.00  0.00     0.059 A 
ATOM     79  C   UNL A   1      42.345  21.255  28.006  1.00  0.00     0.059 A 
ATOM     80  F   UNL A   1      42.522  22.716  29.829  1.00  0.00    -0.206 F 
ATOM     81  C   UNL A   1      42.304  21.063  26.626  1.00  0.00     0.060 A 
BRANCH  81  82
ATOM     82  S   UNL A   1      42.163  19.392  25.958  1.00  0.00     0.124 S 
ATOM     83  O   UNL A   1      42.617  18.588  27.085  1.00  0.00    -0.237 OA
ATOM     84  O   UNL A   1      40.740  19.300  25.639  1.00  0.00    -0.237 OA
ATOM     85  O   UNL A   1      43.052  19.422  24.800  1.00  0.00    -0.744 OA
ENDBRANCH  81  82
ENDBRANCH  49  74
BRANCH  61  86
ATOM     86  C   UNL A   1      48.273  27.477  28.990  1.00  0.00     0.058 A 
ATOM     87  C   UNL A   1      48.960  27.932  27.854  1.00  0.00     0.135 A 
ATOM     88  C   UNL A   1      48.997  26.774  29.963  1.00  0.00     0.135 A 
ATOM     89  F   UNL A   1      48.306  28.598  26.890  1.00  0.00    -0.206 F 
ATOM     90  C   UNL A   1      50.316  27.680  27.680  1.00  0.00     0.059 A 
ATOM     91  C   UNL A   1      50.359  26.528  29.818  1.00  0.00     0.059 A 
ATOM     92  F   UNL A   1      48.383  26.322  31.069  1.00  0.00    -0.206 F 
ATOM     93  C   UNL A   1      51.006  26.974  28.666  1.00  0.00     0.060 A 
BRANCH  93  94
ATOM     94  S   UNL A   1      52.771  26.666  28.441  1.00  0.00     0.124 S 
ATOM     95  O   UNL A   1      53.243  27.978  28.011  1.00  0.00    -0.237 OA
ATOM     96  O   UNL A   1      53.192  26.247  29.774  1.00  0.00    -0.237 OA
ATOM     97  O   UNL A   1      52.804  25.620  27.423  1.00  0.00    -0.744 OA
ENDBRANCH  93  94
ENDBRANCH  61  86
ENDBRANCH  35  36
ENDBRANCH  28  30
ENDBRANCH  27  28
ENDBRANCH   1  27
TORSDOF 18
ENDMDL
MODEL 3
REMARK VINA RESULT:     -11.1      5.411      9.415
REMARK SMILES CC(C)[NH2+][C@]1(C(=O)OCCOC(=O)c2ccc(-c3c4nc(c(-c5c(F)cc(S(=O)(=O)[O-])cc5F)c5ccc([nH]5)c(-c5c(F)cc(S(=O)(=O)[O-])cc5F)c5nc(c(-c6c(F)cc(S(=O)(=O)[O-])cc6F)c6ccc3[nH]6)C=C5)C=C4)cc2)CCC[C@H]([N@H+](C)C2CCCCC2)C1
REMARK SMILES IDX 10 1 9 2 8 3 6 4 7 5 5 6 80 7 92 8 81 9 83 10 82 11 4 12
REMARK SMILES IDX 2 15 1 16 3 17 84 18 85 19 86 21 87 22 91 23 88 24 90 25
REMARK SMILES IDX 89 26 11 27 12 28 13 29 14 30 15 31 79 32 16 33 78 34 17 35
REMARK SMILES IDX 18 36 19 37 72 38 20 39 77 40 71 41 73 42 21 43 76 44 70 45
REMARK SMILES IDX 69 46 22 48 56 49 35 50 55 51 36 52 39 53 54 54 74 55 37 56
REMARK SMILES IDX 38 57 53 59 75 60 40 61 23 62 24 63 33 64 25 65 26 66 32 67
REMARK SMILES IDX 34 68 27 69 28 70 29 71 30 72 31 73 57 74 58 75 67 76 59 77
REMARK SMILES IDX 60 78 66 79 68 80 61 81 62 82 63 83 64 84 65 85 41 86 42 87
REMARK SMILES IDX 51 88 43 89 44 90 50 91 52 92 45 93 46 94 47 95 48 96 49 97
REMARK H PARENT 4 13 4 14 84 20 73 47 39 58
REMARK Flexibility Score: inf
ROOT
ATOM      1  C   UNL A   1      32.240  30.210  26.875  1.00  0.00     0.275 C 
ENDROOT
BRANCH   1   2
ATOM      2  C   UNL A   1      31.833  29.226  25.780  1.00  0.00     0.274 C 
BRANCH   2   3
ATOM      3  O   UNL A   1      32.601  28.010  25.881  1.00  0.00    -0.457 OA
BRANCH   3   4
ATOM      4  C   UNL A   1      33.254  27.626  24.752  1.00  0.00     0.368 C 
ATOM      5  O   UNL A   1      33.825  28.422  24.012  1.00  0.00    -0.245 OA
BRANCH   4   6
ATOM      6  C   UNL A   1      33.152  26.087  24.474  1.00  0.00     0.200 C 
ATOM      7  C   UNL A   1      33.723  25.874  23.057  1.00  0.00     0.081 C 
ATOM      8  C   UNL A   1      34.120  25.411  25.509  1.00  0.00     0.146 C 
ATOM      9  C   UNL A   1      34.134  24.438  22.755  1.00  0.00     0.013 C 
ATOM     10  C   UNL A   1      34.615  23.966  25.250  1.00  0.00     0.190 C 
ATOM     11  C   UNL A   1      35.120  23.894  23.790  1.00  0.00     0.065 C 
BRANCH   6  12
ATOM     12  N   UNL A   1      31.789  25.561  24.744  1.00  0.00    -0.330 N 
ATOM     13  H   UNL A   1      31.905  24.562  24.918  1.00  0.00     0.347 HD
ATOM     14  H   UNL A   1      31.479  26.182  25.492  1.00  0.00     0.347 HD
BRANCH  12  15
ATOM     15  C   UNL A   1      30.678  25.675  23.797  1.00  0.00     0.176 C 
ATOM     16  C   UNL A   1      30.326  24.254  23.314  1.00  0.00     0.075 C 
ATOM     17  C   UNL A   1      29.389  26.263  24.374  1.00  0.00     0.075 C 
ENDBRANCH  12  15
ENDBRANCH   6  12
BRANCH  10  18
ATOM     18  N   UNL A   1      33.815  22.808  25.720  1.00  0.00    -0.332 N 
ATOM     19  C   UNL A   1      33.837  22.552  27.145  1.00  0.00     0.333 C 
ATOM     20  H   UNL A   1      32.866  23.160  25.592  1.00  0.00     0.348 HD
BRANCH  18  21
ATOM     21  C   UNL A   1      33.804  21.610  24.840  1.00  0.00     0.184 C 
ATOM     22  C   UNL A   1      34.201  20.280  25.526  1.00  0.00     0.065 C 
ATOM     23  C   UNL A   1      32.399  21.455  24.209  1.00  0.00     0.065 C 
ATOM     24  C   UNL A   1      34.112  19.091  24.573  1.00  0.00     0.006 C 
ATOM     25  C   UNL A   1      32.249  20.212  23.329  1.00  0.00     0.006 C 
ATOM     26  C   UNL A   1      32.700  18.938  24.029  1.00  0.00     0.000 C 
ENDBRANCH  18  21
ENDBRANCH  10  18
ENDBRANCH   4   6
ENDBRANCH   3   4
ENDBRANCH   2   3
ENDBRANCH   1   2
BRANCH   1  27
ATOM     27  O   UNL A   1      33.654  30.467  26.795  1.00  0.00    -0.458 OA
BRANCH  27  28
ATOM     28  C   UNL A   1      34.122  31.479  27.558  1.00  0.00     0.338 C 
ATOM     29  O   UNL A   1      33.600  32.575  27.728  1.00  0.00    -0.246 OA
BRANCH  28  30
ATOM     30  C   UNL A   1      35.400  31.095  28.186  1.00  0.00     0.060 A 
ATOM     31  C   UNL A   1      36.463  31.995  28.254  1.00  0.00     0.016 A 
ATOM     32  C   UNL A   1      35.561  29.796  28.669  1.00  0.00     0.016 A 
ATOM     33  C   UNL A   1      37.695  31.588  28.761  1.00  0.00     0.010 A 
ATOM     34  C   UNL A   1      36.770  29.419  29.267  1.00  0.00     0.010 A 
ATOM     35  C   UNL A   1      37.854  30.309  29.318  1.00  0.00    -0.014 A 
BRANCH  35  36
ATOM     36  C   UNL A   1      39.104  29.943  30.040  1.00  0.00     0.031 A 
ATOM     37  C   UNL A   1      40.053  28.908  29.492  1.00  0.00     0.074 A 
ATOM     38  C   UNL A   1      39.367  30.532  31.226  1.00  0.00     0.049 A 
ATOM     39  N   UNL A   1      41.117  28.390  30.052  1.00  0.00    -0.248 NA
ATOM     40  C   UNL A   1      39.783  28.393  28.140  1.00  0.00     0.031 C 
ATOM     41  C   UNL A   1      38.538  31.560  31.863  1.00  0.00     0.029 A 
ATOM     42  N   UNL A   1      40.393  30.344  32.119  1.00  0.00    -0.354 N 
ATOM     43  C   UNL A   1      41.642  27.494  29.128  1.00  0.00     0.074 A 
ATOM     44  C   UNL A   1      40.776  27.529  27.969  1.00  0.00     0.031 C 
ATOM     45  C   UNL A   1      39.091  31.919  33.029  1.00  0.00     0.029 A 
ATOM     46  C   UNL A   1      40.260  31.083  33.271  1.00  0.00     0.049 A 
ATOM     47  H   UNL A   1      41.152  29.738  31.952  1.00  0.00     0.167 HD
ATOM     48  C   UNL A   1      42.744  26.715  29.240  1.00  0.00     0.037 A 
ATOM     49  C   UNL A   1      40.948  31.053  34.428  1.00  0.00     0.037 A 
ATOM     50  C   UNL A   1      43.590  26.668  30.405  1.00  0.00     0.049 A 
ATOM     51  C   UNL A   1      42.073  30.074  34.579  1.00  0.00     0.074 A 
ATOM     52  C   UNL A   1      44.748  25.932  30.601  1.00  0.00     0.029 A 
ATOM     53  N   UNL A   1      43.359  27.367  31.580  1.00  0.00    -0.354 N 
ATOM     54  N   UNL A   1      42.561  29.242  33.691  1.00  0.00    -0.248 NA
ATOM     55  C   UNL A   1      42.717  30.000  35.898  1.00  0.00     0.031 C 
ATOM     56  C   UNL A   1      45.183  26.143  31.915  1.00  0.00     0.029 A 
ATOM     57  C   UNL A   1      44.320  27.040  32.523  1.00  0.00     0.049 A 
ATOM     58  H   UNL A   1      42.621  28.001  31.723  1.00  0.00     0.167 HD
ATOM     59  C   UNL A   1      43.563  28.538  34.346  1.00  0.00     0.074 A 
ATOM     60  C   UNL A   1      43.630  29.060  35.696  1.00  0.00     0.031 C 
ATOM     61  C   UNL A   1      44.352  27.544  33.872  1.00  0.00     0.037 A 
BRANCH  48  62
ATOM     62  C   UNL A   1      43.099  25.816  28.089  1.00  0.00     0.058 A 
ATOM     63  C   UNL A   1      43.882  26.270  27.018  1.00  0.00     0.135 A 
ATOM     64  C   UNL A   1      42.733  24.460  28.109  1.00  0.00     0.135 A 
ATOM     65  F   UNL A   1      44.246  27.560  26.945  1.00  0.00    -0.206 F 
ATOM     66  C   UNL A   1      44.296  25.407  26.005  1.00  0.00     0.059 A 
ATOM     67  C   UNL A   1      43.146  23.578  27.114  1.00  0.00     0.059 A 
ATOM     68  F   UNL A   1      41.981  23.979  29.111  1.00  0.00    -0.206 F 
ATOM     69  C   UNL A   1      43.927  24.062  26.065  1.00  0.00     0.060 A 
BRANCH  69  70
ATOM     70  S   UNL A   1      44.506  22.947  24.766  1.00  0.00     0.124 S 
ATOM     71  O   UNL A   1      43.283  22.735  23.998  1.00  0.00    -0.237 OA
ATOM     72  O   UNL A   1      45.538  23.742  24.109  1.00  0.00    -0.237 OA
ATOM     73  O   UNL A   1      44.990  21.784  25.505  1.00  0.00    -0.744 OA
ENDBRANCH  69  70
ENDBRANCH  48  62
BRANCH  49  74
ATOM     74  C   UNL A   1      40.520  31.911  35.563  1.00  0.00     0.058 A 
ATOM     75  C   UNL A   1      39.401  31.586  36.341  1.00  0.00     0.135 A 
ATOM     76  C   UNL A   1      41.249  33.061  35.910  1.00  0.00     0.135 A 
ATOM     77  F   UNL A   1      38.666  30.505  36.040  1.00  0.00    -0.206 F 
ATOM     78  C   UNL A   1      39.019  32.368  37.426  1.00  0.00     0.059 A 
ATOM     79  C   UNL A   1      40.903  33.844  37.006  1.00  0.00     0.059 A 
ATOM     80  F   UNL A   1      42.334  33.409  35.202  1.00  0.00    -0.206 F 
ATOM     81  C   UNL A   1      39.779  33.494  37.753  1.00  0.00     0.060 A 
BRANCH  81  82
ATOM     82  S   UNL A   1      39.327  34.471  39.202  1.00  0.00     0.124 S 
ATOM     83  O   UNL A   1      40.512  34.319  40.038  1.00  0.00    -0.237 OA
ATOM     84  O   UNL A   1      39.113  35.799  38.632  1.00  0.00    -0.237 OA
ATOM     85  O   UNL A   1      38.120  33.807  39.686  1.00  0.00    -0.744 OA
ENDBRANCH  81  82
ENDBRANCH  49  74
BRANCH  61  86
ATOM     86  C   UNL A   1      45.337  26.946  34.830  1.00  0.00     0.058 A 
ATOM     87  C   UNL A   1      46.607  27.515  35.009  1.00  0.00     0.135 A 
ATOM     88  C   UNL A   1      45.009  25.811  35.585  1.00  0.00     0.135 A 
ATOM     89  F   UNL A   1      46.970  28.595  34.300  1.00  0.00    -0.206 F 
ATOM     90  C   UNL A   1      47.530  26.963  35.891  1.00  0.00     0.059 A 
ATOM     91  C   UNL A   1      45.910  25.254  36.487  1.00  0.00     0.059 A 
ATOM     92  F   UNL A   1      43.804  25.234  35.451  1.00  0.00    -0.206 F 
ATOM     93  C   UNL A   1      47.173  25.830  36.623  1.00  0.00     0.060 A 
BRANCH  93  94
ATOM     94  S   UNL A   1      48.370  25.129  37.779  1.00  0.00     0.124 S 
ATOM     95  O   UNL A   1      48.278  26.064  38.896  1.00  0.00    -0.237 OA
ATOM     96  O   UNL A   1      47.831  23.796  38.023  1.00  0.00    -0.237 OA
ATOM     97  O   UNL A   1      49.622  25.164  37.030  1.00  0.00    -0.744 OA
ENDBRANCH  93  94
ENDBRANCH  61  86
ENDBRANCH  35  36
ENDBRANCH  28  30
ENDBRANCH  27  28
ENDBRANCH   1  27
TORSDOF 18
ENDMDL
