MODEL 1
REMARK VINA RESULT:     -12.2      0.000      0.000
REMARK SMILES O=C(Nc1ccc2c(c1)OCO2)N[C@H]1C=C[C@@H](C(=O)OCCOC(=O)c2ccc(-c3c4nc(c(-c5c(F)cc(S(=O)(=O)[O-])cc5F)c5ccc([nH]5)c(-c5c(F)cc(S(=O)(=O)[O-])cc5F)c5nc(c(-c6c(F)cc(S(=O)(=O)[O-])cc6F)c6ccc3[nH]6)C=C5)C=C4)cc2)C1
REMARK SMILES IDX 22 1 21 2 20 3 18 4 19 5 17 6 14 7 15 8 92 9 16 10 13 11
REMARK SMILES IDX 1 12 2 13 3 14 4 17 5 18 9 19 6 20 8 21 7 22 10 23 12 24
REMARK SMILES IDX 11 25 23 26 24 27 25 28 26 29 27 30 91 31 28 32 90 33 29 34
REMARK SMILES IDX 30 35 31 36 84 37 32 38 89 39 83 40 85 41 33 42 88 43 82 44
REMARK SMILES IDX 81 45 34 47 68 48 47 49 67 50 48 51 51 52 66 53 86 54 49 55
REMARK SMILES IDX 50 56 65 58 87 59 52 60 35 61 36 62 45 63 37 64 38 65 44 66
REMARK SMILES IDX 46 67 39 68 40 69 41 70 42 71 43 72 69 73 70 74 79 75 71 76
REMARK SMILES IDX 72 77 78 78 80 79 73 80 74 81 75 82 76 83 77 84 53 85 54 86
REMARK SMILES IDX 63 87 55 88 56 89 62 90 64 91 57 92 58 93 59 94 60 95 61 96
REMARK H PARENT 3 15 13 16 85 46 51 57
REMARK Flexibility Score: inf
ROOT
ATOM      1  C   UNL A   1      39.447  22.388  26.481  1.00  0.00     0.275 C 
ENDROOT
BRANCH   1   2
ATOM      2  C   UNL A   1      38.251  21.800  25.734  1.00  0.00     0.274 C 
BRANCH   2   3
ATOM      3  O   UNL A   1      37.090  22.620  25.939  1.00  0.00    -0.462 OA
BRANCH   3   4
ATOM      4  C   UNL A   1      35.988  22.323  25.213  1.00  0.00     0.312 C 
ATOM      5  O   UNL A   1      35.859  22.561  24.015  1.00  0.00    -0.252 OA
BRANCH   4   6
ATOM      6  C   UNL A   1      34.878  21.680  26.034  1.00  0.00     0.124 C 
ATOM      7  C   UNL A   1      32.575  22.290  26.637  1.00  0.00     0.107 C 
ATOM      8  C   UNL A   1      32.624  21.357  25.471  1.00  0.00    -0.006 C 
ATOM      9  C   UNL A   1      34.045  22.593  26.953  1.00  0.00     0.048 C 
ATOM     10  C   UNL A   1      33.873  21.028  25.138  1.00  0.00    -0.014 C 
BRANCH   7  11
ATOM     11  N   UNL A   1      31.665  23.358  26.298  1.00  0.00    -0.332 N 
ATOM     12  O   UNL A   1      29.803  22.887  27.558  1.00  0.00    -0.248 OA
ATOM     13  C   UNL A   1      30.422  23.608  26.783  1.00  0.00     0.319 C 
ATOM     14  N   UNL A   1      29.869  24.819  26.464  1.00  0.00    -0.308 N 
ATOM     15  H   UNL A   1      29.021  25.008  26.925  1.00  0.00     0.171 HD
ATOM     16  H   UNL A   1      31.990  23.992  25.620  1.00  0.00     0.165 HD
BRANCH  14  17
ATOM     17  C   UNL A   1      30.295  25.842  25.602  1.00  0.00     0.046 A 
ATOM     18  C   UNL A   1      29.923  25.918  24.244  1.00  0.00     0.030 A 
ATOM     19  C   UNL A   1      31.142  26.814  26.148  1.00  0.00     0.076 A 
ATOM     20  C   UNL A   1      30.473  26.891  23.404  1.00  0.00     0.053 A 
ATOM     21  C   UNL A   1      31.685  27.748  25.292  1.00  0.00     0.167 A 
ATOM     22  C   UNL A   1      31.371  27.778  23.955  1.00  0.00     0.165 A 
ATOM     23  O   UNL A   1      32.592  28.702  25.635  1.00  0.00    -0.454 OA
ATOM     24  O   UNL A   1      32.042  28.753  23.288  1.00  0.00    -0.454 OA
ATOM     25  C   UNL A   1      32.865  29.287  24.345  1.00  0.00     0.468 C 
ENDBRANCH  14  17
ENDBRANCH   7  11
ENDBRANCH   4   6
ENDBRANCH   3   4
ENDBRANCH   2   3
ENDBRANCH   1   2
BRANCH   1  26
ATOM     26  O   UNL A   1      39.367  23.826  26.537  1.00  0.00    -0.458 OA
BRANCH  26  27
ATOM     27  C   UNL A   1      40.547  24.457  26.748  1.00  0.00     0.338 C 
ATOM     28  O   UNL A   1      41.614  24.247  26.201  1.00  0.00    -0.246 OA
BRANCH  27  29
ATOM     29  C   UNL A   1      40.350  25.569  27.689  1.00  0.00     0.060 A 
ATOM     30  C   UNL A   1      41.315  26.578  27.722  1.00  0.00     0.016 A 
ATOM     31  C   UNL A   1      39.292  25.564  28.600  1.00  0.00     0.016 A 
ATOM     32  C   UNL A   1      41.230  27.593  28.670  1.00  0.00     0.010 A 
ATOM     33  C   UNL A   1      39.211  26.582  29.555  1.00  0.00     0.010 A 
ATOM     34  C   UNL A   1      40.185  27.595  29.602  1.00  0.00    -0.014 A 
BRANCH  34  35
ATOM     35  C   UNL A   1      40.152  28.629  30.661  1.00  0.00     0.031 A 
ATOM     36  C   UNL A   1      41.118  28.556  31.807  1.00  0.00     0.074 A 
ATOM     37  C   UNL A   1      39.280  29.651  30.570  1.00  0.00     0.049 A 
ATOM     38  N   UNL A   1      41.204  29.319  32.865  1.00  0.00    -0.248 NA
ATOM     39  C   UNL A   1      42.125  27.483  31.753  1.00  0.00     0.031 C 
ATOM     40  C   UNL A   1      38.333  29.856  29.474  1.00  0.00     0.029 A 
ATOM     41  N   UNL A   1      39.054  30.709  31.412  1.00  0.00    -0.354 N 
ATOM     42  C   UNL A   1      42.261  28.814  33.612  1.00  0.00     0.074 A 
ATOM     43  C   UNL A   1      42.779  27.670  32.892  1.00  0.00     0.031 C 
ATOM     44  C   UNL A   1      37.631  30.977  29.708  1.00  0.00     0.029 A 
ATOM     45  C   UNL A   1      38.048  31.542  30.988  1.00  0.00     0.049 A 
ATOM     46  H   UNL A   1      39.563  30.857  32.242  1.00  0.00     0.167 HD
ATOM     47  C   UNL A   1      42.754  29.266  34.790  1.00  0.00     0.037 A 
ATOM     48  C   UNL A   1      37.509  32.628  31.576  1.00  0.00     0.037 A 
ATOM     49  C   UNL A   1      42.235  30.407  35.500  1.00  0.00     0.049 A 
ATOM     50  C   UNL A   1      38.036  33.077  32.911  1.00  0.00     0.074 A 
ATOM     51  C   UNL A   1      42.649  30.929  36.713  1.00  0.00     0.029 A 
ATOM     52  N   UNL A   1      41.192  31.206  35.055  1.00  0.00    -0.354 N 
ATOM     53  N   UNL A   1      39.007  32.564  33.628  1.00  0.00    -0.248 NA
ATOM     54  C   UNL A   1      37.388  34.247  33.522  1.00  0.00     0.031 C 
ATOM     55  C   UNL A   1      41.839  32.031  37.014  1.00  0.00     0.029 A 
ATOM     56  C   UNL A   1      40.942  32.214  35.973  1.00  0.00     0.049 A 
ATOM     57  H   UNL A   1      40.701  31.076  34.212  1.00  0.00     0.167 HD
ATOM     58  C   UNL A   1      39.095  33.354  34.768  1.00  0.00     0.074 A 
ATOM     59  C   UNL A   1      38.087  34.387  34.641  1.00  0.00     0.031 C 
ATOM     60  C   UNL A   1      39.934  33.233  35.827  1.00  0.00     0.037 A 
BRANCH  47  61
ATOM     61  C   UNL A   1      43.897  28.505  35.398  1.00  0.00     0.058 A 
ATOM     62  C   UNL A   1      45.231  28.809  35.086  1.00  0.00     0.135 A 
ATOM     63  C   UNL A   1      43.656  27.472  36.317  1.00  0.00     0.135 A 
ATOM     64  F   UNL A   1      45.514  29.775  34.198  1.00  0.00    -0.206 F 
ATOM     65  C   UNL A   1      46.287  28.100  35.648  1.00  0.00     0.059 A 
ATOM     66  C   UNL A   1      44.699  26.763  36.907  1.00  0.00     0.059 A 
ATOM     67  F   UNL A   1      42.398  27.140  36.647  1.00  0.00    -0.206 F 
ATOM     68  C   UNL A   1      46.011  27.075  36.554  1.00  0.00     0.060 A 
BRANCH  68  69
ATOM     69  S   UNL A   1      47.389  26.158  37.276  1.00  0.00     0.124 S 
ATOM     70  O   UNL A   1      46.976  24.779  37.040  1.00  0.00    -0.237 OA
ATOM     71  O   UNL A   1      48.525  26.623  36.486  1.00  0.00    -0.237 OA
ATOM     72  O   UNL A   1      47.386  26.584  38.672  1.00  0.00    -0.744 OA
ENDBRANCH  68  69
ENDBRANCH  47  61
BRANCH  48  73
ATOM     73  C   UNL A   1      36.397  33.351  30.909  1.00  0.00     0.058 A 
ATOM     74  C   UNL A   1      35.083  33.252  31.386  1.00  0.00     0.135 A 
ATOM     75  C   UNL A   1      36.633  34.179  29.801  1.00  0.00     0.135 A 
ATOM     76  F   UNL A   1      34.809  32.463  32.437  1.00  0.00    -0.206 F 
ATOM     77  C   UNL A   1      34.038  33.949  30.789  1.00  0.00     0.059 A 
ATOM     78  C   UNL A   1      35.608  34.902  29.199  1.00  0.00     0.059 A 
ATOM     79  F   UNL A   1      37.876  34.313  29.313  1.00  0.00    -0.206 F 
ATOM     80  C   UNL A   1      34.312  34.775  29.697  1.00  0.00     0.060 A 
BRANCH  80  81
ATOM     81  S   UNL A   1      32.964  35.733  28.970  1.00  0.00     0.124 S 
ATOM     82  O   UNL A   1      32.175  36.071  30.149  1.00  0.00    -0.237 OA
ATOM     83  O   UNL A   1      33.676  36.842  28.340  1.00  0.00    -0.237 OA
ATOM     84  O   UNL A   1      32.346  34.790  28.043  1.00  0.00    -0.744 OA
ENDBRANCH  80  81
ENDBRANCH  48  73
BRANCH  60  85
ATOM     85  C   UNL A   1      39.810  34.254  36.920  1.00  0.00     0.058 A 
ATOM     86  C   UNL A   1      40.405  35.520  36.810  1.00  0.00     0.135 A 
ATOM     87  C   UNL A   1      39.048  33.980  38.067  1.00  0.00     0.135 A 
ATOM     88  F   UNL A   1      41.149  35.826  35.735  1.00  0.00    -0.206 F 
ATOM     89  C   UNL A   1      40.264  36.476  37.810  1.00  0.00     0.059 A 
ATOM     90  C   UNL A   1      38.878  34.929  39.071  1.00  0.00     0.059 A 
ATOM     91  F   UNL A   1      38.452  32.787  38.214  1.00  0.00    -0.206 F 
ATOM     92  C   UNL A   1      39.499  36.171  38.938  1.00  0.00     0.060 A 
BRANCH  92  93
ATOM     93  S   UNL A   1      39.293  37.429  40.217  1.00  0.00     0.124 S 
ATOM     94  O   UNL A   1      40.649  37.954  40.333  1.00  0.00    -0.237 OA
ATOM     95  O   UNL A   1      38.313  38.331  39.618  1.00  0.00    -0.237 OA
ATOM     96  O   UNL A   1      38.812  36.668  41.366  1.00  0.00    -0.744 OA
ENDBRANCH  92  93
ENDBRANCH  60  85
ENDBRANCH  34  35
ENDBRANCH  27  29
ENDBRANCH  26  27
ENDBRANCH   1  26
TORSDOF 16
ENDMDL
MODEL 2
REMARK VINA RESULT:     -12.1      0.499      1.412
REMARK SMILES O=C(Nc1ccc2c(c1)OCO2)N[C@H]1C=C[C@@H](C(=O)OCCOC(=O)c2ccc(-c3c4nc(c(-c5c(F)cc(S(=O)(=O)[O-])cc5F)c5ccc([nH]5)c(-c5c(F)cc(S(=O)(=O)[O-])cc5F)c5nc(c(-c6c(F)cc(S(=O)(=O)[O-])cc6F)c6ccc3[nH]6)C=C5)C=C4)cc2)C1
REMARK SMILES IDX 22 1 21 2 20 3 18 4 19 5 17 6 14 7 15 8 92 9 16 10 13 11
REMARK SMILES IDX 1 12 2 13 3 14 4 17 5 18 9 19 6 20 8 21 7 22 10 23 12 24
REMARK SMILES IDX 11 25 23 26 24 27 25 28 26 29 27 30 91 31 28 32 90 33 29 34
REMARK SMILES IDX 30 35 31 36 84 37 32 38 89 39 83 40 85 41 33 42 88 43 82 44
REMARK SMILES IDX 81 45 34 47 68 48 47 49 67 50 48 51 51 52 66 53 86 54 49 55
REMARK SMILES IDX 50 56 65 58 87 59 52 60 35 61 36 62 45 63 37 64 38 65 44 66
REMARK SMILES IDX 46 67 39 68 40 69 41 70 42 71 43 72 69 73 70 74 79 75 71 76
REMARK SMILES IDX 72 77 78 78 80 79 73 80 74 81 75 82 76 83 77 84 53 85 54 86
REMARK SMILES IDX 63 87 55 88 56 89 62 90 64 91 57 92 58 93 59 94 60 95 61 96
REMARK H PARENT 3 15 13 16 85 46 51 57
REMARK Flexibility Score: inf
ROOT
ATOM      1  C   UNL A   1      39.404  22.374  26.415  1.00  0.00     0.275 C 
ENDROOT
BRANCH   1   2
ATOM      2  C   UNL A   1      38.319  21.937  25.432  1.00  0.00     0.274 C 
BRANCH   2   3
ATOM      3  O   UNL A   1      37.095  21.673  26.135  1.00  0.00    -0.462 OA
BRANCH   3   4
ATOM      4  C   UNL A   1      35.989  22.328  25.715  1.00  0.00     0.312 C 
ATOM      5  O   UNL A   1      35.982  23.480  25.289  1.00  0.00    -0.252 OA
BRANCH   4   6
ATOM      6  C   UNL A   1      34.712  21.508  25.850  1.00  0.00     0.124 C 
ATOM      7  C   UNL A   1      32.318  22.024  26.044  1.00  0.00     0.107 C 
ATOM      8  C   UNL A   1      32.709  21.687  24.642  1.00  0.00    -0.006 C 
ATOM      9  C   UNL A   1      33.635  22.012  26.828  1.00  0.00     0.048 C 
ATOM     10  C   UNL A   1      34.010  21.412  24.532  1.00  0.00    -0.014 C 
BRANCH   7  11
ATOM     11  N   UNL A   1      31.508  23.218  25.991  1.00  0.00    -0.332 N 
ATOM     12  O   UNL A   1      29.732  22.716  27.358  1.00  0.00    -0.248 OA
ATOM     13  C   UNL A   1      30.354  23.499  26.648  1.00  0.00     0.319 C 
ATOM     14  N   UNL A   1      29.918  24.795  26.598  1.00  0.00    -0.308 N 
ATOM     15  H   UNL A   1      29.144  24.982  27.176  1.00  0.00     0.171 HD
ATOM     16  H   UNL A   1      31.840  23.928  25.396  1.00  0.00     0.165 HD
BRANCH  14  17
ATOM     17  C   UNL A   1      30.375  25.909  25.875  1.00  0.00     0.046 A 
ATOM     18  C   UNL A   1      31.325  26.823  26.375  1.00  0.00     0.030 A 
ATOM     19  C   UNL A   1      29.828  26.099  24.600  1.00  0.00     0.076 A 
ATOM     20  C   UNL A   1      31.653  27.979  25.659  1.00  0.00     0.053 A 
ATOM     21  C   UNL A   1      30.154  27.256  23.927  1.00  0.00     0.167 A 
ATOM     22  C   UNL A   1      31.030  28.178  24.447  1.00  0.00     0.165 A 
ATOM     23  O   UNL A   1      29.647  27.642  22.725  1.00  0.00    -0.454 OA
ATOM     24  O   UNL A   1      31.183  29.260  23.639  1.00  0.00    -0.454 OA
ATOM     25  C   UNL A   1      30.250  28.945  22.586  1.00  0.00     0.468 C 
ENDBRANCH  14  17
ENDBRANCH   7  11
ENDBRANCH   4   6
ENDBRANCH   3   4
ENDBRANCH   2   3
ENDBRANCH   1   2
BRANCH   1  26
ATOM     26  O   UNL A   1      39.423  23.808  26.563  1.00  0.00    -0.458 OA
BRANCH  26  27
ATOM     27  C   UNL A   1      40.623  24.333  26.907  1.00  0.00     0.338 C 
ATOM     28  O   UNL A   1      41.722  24.021  26.486  1.00  0.00    -0.246 OA
BRANCH  27  29
ATOM     29  C   UNL A   1      40.422  25.467  27.819  1.00  0.00     0.060 A 
ATOM     30  C   UNL A   1      41.423  26.439  27.886  1.00  0.00     0.016 A 
ATOM     31  C   UNL A   1      39.319  25.520  28.673  1.00  0.00     0.016 A 
ATOM     32  C   UNL A   1      41.330  27.473  28.813  1.00  0.00     0.010 A 
ATOM     33  C   UNL A   1      39.229  26.557  29.606  1.00  0.00     0.010 A 
ATOM     34  C   UNL A   1      40.239  27.532  29.688  1.00  0.00    -0.014 A 
BRANCH  34  35
ATOM     35  C   UNL A   1      40.192  28.586  30.728  1.00  0.00     0.031 A 
ATOM     36  C   UNL A   1      41.142  28.532  31.889  1.00  0.00     0.074 A 
ATOM     37  C   UNL A   1      39.323  29.606  30.606  1.00  0.00     0.049 A 
ATOM     38  N   UNL A   1      41.213  29.314  32.935  1.00  0.00    -0.248 NA
ATOM     39  C   UNL A   1      42.148  27.457  31.870  1.00  0.00     0.031 C 
ATOM     40  C   UNL A   1      38.393  29.793  29.493  1.00  0.00     0.029 A 
ATOM     41  N   UNL A   1      39.086  30.680  31.426  1.00  0.00    -0.354 N 
ATOM     42  C   UNL A   1      42.259  28.821  33.706  1.00  0.00     0.074 A 
ATOM     43  C   UNL A   1      42.786  27.664  33.014  1.00  0.00     0.031 C 
ATOM     44  C   UNL A   1      37.689  30.918  29.697  1.00  0.00     0.029 A 
ATOM     45  C   UNL A   1      38.088  31.507  30.972  1.00  0.00     0.049 A 
ATOM     46  H   UNL A   1      39.584  30.842  32.260  1.00  0.00     0.167 HD
ATOM     47  C   UNL A   1      42.735  29.294  34.882  1.00  0.00     0.037 A 
ATOM     48  C   UNL A   1      37.542  32.603  31.533  1.00  0.00     0.037 A 
ATOM     49  C   UNL A   1      42.208  30.448  35.564  1.00  0.00     0.049 A 
ATOM     50  C   UNL A   1      38.050  33.076  32.866  1.00  0.00     0.074 A 
ATOM     51  C   UNL A   1      42.605  30.992  36.773  1.00  0.00     0.029 A 
ATOM     52  N   UNL A   1      41.173  31.240  35.090  1.00  0.00    -0.354 N 
ATOM     53  N   UNL A   1      39.010  32.575  33.607  1.00  0.00    -0.248 NA
ATOM     54  C   UNL A   1      37.396  34.257  33.447  1.00  0.00     0.031 C 
ATOM     55  C   UNL A   1      41.793  32.100  37.043  1.00  0.00     0.029 A 
ATOM     56  C   UNL A   1      40.911  32.265  35.985  1.00  0.00     0.049 A 
ATOM     57  H   UNL A   1      40.694  31.096  34.242  1.00  0.00     0.167 HD
ATOM     58  C   UNL A   1      39.083  33.385  34.734  1.00  0.00     0.074 A 
ATOM     59  C   UNL A   1      38.078  34.417  34.573  1.00  0.00     0.031 C 
ATOM     60  C   UNL A   1      39.907  33.283  35.807  1.00  0.00     0.037 A 
BRANCH  47  61
ATOM     61  C   UNL A   1      43.868  28.543  35.520  1.00  0.00     0.058 A 
ATOM     62  C   UNL A   1      45.208  28.847  35.231  1.00  0.00     0.135 A 
ATOM     63  C   UNL A   1      43.613  27.519  36.445  1.00  0.00     0.135 A 
ATOM     64  F   UNL A   1      45.505  29.805  34.339  1.00  0.00    -0.206 F 
ATOM     65  C   UNL A   1      46.255  28.148  35.821  1.00  0.00     0.059 A 
ATOM     66  C   UNL A   1      44.645  26.819  37.063  1.00  0.00     0.059 A 
ATOM     67  F   UNL A   1      42.349  27.186  36.753  1.00  0.00    -0.206 F 
ATOM     68  C   UNL A   1      45.963  27.131  36.732  1.00  0.00     0.060 A 
BRANCH  68  69
ATOM     69  S   UNL A   1      47.330  26.226  37.490  1.00  0.00     0.124 S 
ATOM     70  O   UNL A   1      47.096  26.482  38.908  1.00  0.00    -0.237 OA
ATOM     71  O   UNL A   1      47.087  24.857  37.046  1.00  0.00    -0.237 OA
ATOM     72  O   UNL A   1      48.515  26.864  36.924  1.00  0.00    -0.744 OA
ENDBRANCH  68  69
ENDBRANCH  47  61
BRANCH  48  73
ATOM     73  C   UNL A   1      36.441  33.315  30.836  1.00  0.00     0.058 A 
ATOM     74  C   UNL A   1      35.120  33.227  31.297  1.00  0.00     0.135 A 
ATOM     75  C   UNL A   1      36.694  34.122  29.717  1.00  0.00     0.135 A 
ATOM     76  F   UNL A   1      34.830  32.458  32.358  1.00  0.00    -0.206 F 
ATOM     77  C   UNL A   1      34.085  33.914  30.672  1.00  0.00     0.059 A 
ATOM     78  C   UNL A   1      35.679  34.836  29.087  1.00  0.00     0.059 A 
ATOM     79  F   UNL A   1      37.944  34.246  29.244  1.00  0.00    -0.206 F 
ATOM     80  C   UNL A   1      34.376  34.720  29.569  1.00  0.00     0.060 A 
BRANCH  80  81
ATOM     81  S   UNL A   1      33.040  35.667  28.806  1.00  0.00     0.124 S 
ATOM     82  O   UNL A   1      33.785  36.654  28.034  1.00  0.00    -0.237 OA
ATOM     83  O   UNL A   1      32.340  34.646  28.030  1.00  0.00    -0.237 OA
ATOM     84  O   UNL A   1      32.300  36.185  29.953  1.00  0.00    -0.744 OA
ENDBRANCH  80  81
ENDBRANCH  48  73
BRANCH  60  85
ATOM     85  C   UNL A   1      39.768  34.323  36.878  1.00  0.00     0.058 A 
ATOM     86  C   UNL A   1      38.955  34.113  38.002  1.00  0.00     0.135 A 
ATOM     87  C   UNL A   1      40.494  35.523  36.805  1.00  0.00     0.135 A 
ATOM     88  F   UNL A   1      38.237  32.984  38.115  1.00  0.00    -0.206 F 
ATOM     89  C   UNL A   1      38.851  35.065  39.011  1.00  0.00     0.059 A 
ATOM     90  C   UNL A   1      40.419  36.481  37.811  1.00  0.00     0.059 A 
ATOM     91  F   UNL A   1      41.292  35.766  35.754  1.00  0.00    -0.206 F 
ATOM     92  C   UNL A   1      39.586  36.248  38.905  1.00  0.00     0.060 A 
BRANCH  92  93
ATOM     93  S   UNL A   1      39.472  37.465  40.234  1.00  0.00     0.124 S 
ATOM     94  O   UNL A   1      38.617  38.480  39.629  1.00  0.00    -0.237 OA
ATOM     95  O   UNL A   1      38.872  36.694  41.319  1.00  0.00    -0.237 OA
ATOM     96  O   UNL A   1      40.861  37.859  40.451  1.00  0.00    -0.744 OA
ENDBRANCH  92  93
ENDBRANCH  60  85
ENDBRANCH  34  35
ENDBRANCH  27  29
ENDBRANCH  26  27
ENDBRANCH   1  26
TORSDOF 16
ENDMDL
MODEL 3
REMARK VINA RESULT:     -12.0      6.723     12.014
REMARK SMILES O=C(Nc1ccc2c(c1)OCO2)N[C@H]1C=C[C@@H](C(=O)OCCOC(=O)c2ccc(-c3c4nc(c(-c5c(F)cc(S(=O)(=O)[O-])cc5F)c5ccc([nH]5)c(-c5c(F)cc(S(=O)(=O)[O-])cc5F)c5nc(c(-c6c(F)cc(S(=O)(=O)[O-])cc6F)c6ccc3[nH]6)C=C5)C=C4)cc2)C1
REMARK SMILES IDX 22 1 21 2 20 3 18 4 19 5 17 6 14 7 15 8 92 9 16 10 13 11
REMARK SMILES IDX 1 12 2 13 3 14 4 17 5 18 9 19 6 20 8 21 7 22 10 23 12 24
REMARK SMILES IDX 11 25 23 26 24 27 25 28 26 29 27 30 91 31 28 32 90 33 29 34
REMARK SMILES IDX 30 35 31 36 84 37 32 38 89 39 83 40 85 41 33 42 88 43 82 44
REMARK SMILES IDX 81 45 34 47 68 48 47 49 67 50 48 51 51 52 66 53 86 54 49 55
REMARK SMILES IDX 50 56 65 58 87 59 52 60 35 61 36 62 45 63 37 64 38 65 44 66
REMARK SMILES IDX 46 67 39 68 40 69 41 70 42 71 43 72 69 73 70 74 79 75 71 76
REMARK SMILES IDX 72 77 78 78 80 79 73 80 74 81 75 82 76 83 77 84 53 85 54 86
REMARK SMILES IDX 63 87 55 88 56 89 62 90 64 91 57 92 58 93 59 94 60 95 61 96
REMARK H PARENT 3 15 13 16 85 46 51 57
REMARK Flexibility Score: inf
ROOT
ATOM      1  C   UNL A   1      34.892  32.131  29.871  1.00  0.00     0.275 C 
ENDROOT
BRANCH   1   2
ATOM      2  C   UNL A   1      34.824  32.281  28.352  1.00  0.00     0.274 C 
BRANCH   2   3
ATOM      3  O   UNL A   1      34.828  30.987  27.728  1.00  0.00    -0.462 OA
BRANCH   3   4
ATOM      4  C   UNL A   1      33.629  30.462  27.388  1.00  0.00     0.312 C 
ATOM      5  O   UNL A   1      32.658  31.122  27.027  1.00  0.00    -0.252 OA
BRANCH   4   6
ATOM      6  C   UNL A   1      33.572  28.947  27.525  1.00  0.00     0.124 C 
ATOM      7  C   UNL A   1      32.271  27.146  26.474  1.00  0.00     0.107 C 
ATOM      8  C   UNL A   1      33.616  27.311  25.844  1.00  0.00    -0.006 C 
ATOM      9  C   UNL A   1      32.185  28.277  27.506  1.00  0.00     0.048 C 
ATOM     10  C   UNL A   1      34.323  28.291  26.409  1.00  0.00    -0.014 C 
BRANCH   7  11
ATOM     11  N   UNL A   1      31.303  27.056  25.406  1.00  0.00    -0.332 N 
ATOM     12  O   UNL A   1      31.151  24.798  25.017  1.00  0.00    -0.248 OA
ATOM     13  C   UNL A   1      30.793  25.951  24.805  1.00  0.00     0.319 C 
ATOM     14  N   UNL A   1      29.716  26.140  23.982  1.00  0.00    -0.308 N 
ATOM     15  H   UNL A   1      29.307  25.307  23.656  1.00  0.00     0.171 HD
ATOM     16  H   UNL A   1      30.967  27.916  25.066  1.00  0.00     0.165 HD
BRANCH  14  17
ATOM     17  C   UNL A   1      29.087  27.307  23.519  1.00  0.00     0.046 A 
ATOM     18  C   UNL A   1      27.727  27.599  23.749  1.00  0.00     0.030 A 
ATOM     19  C   UNL A   1      29.876  28.199  22.783  1.00  0.00     0.076 A 
ATOM     20  C   UNL A   1      27.124  28.717  23.162  1.00  0.00     0.053 A 
ATOM     21  C   UNL A   1      29.252  29.280  22.201  1.00  0.00     0.167 A 
ATOM     22  C   UNL A   1      27.911  29.526  22.372  1.00  0.00     0.165 A 
ATOM     23  O   UNL A   1      29.846  30.191  21.383  1.00  0.00    -0.454 OA
ATOM     24  O   UNL A   1      27.492  30.620  21.684  1.00  0.00    -0.454 OA
ATOM     25  C   UNL A   1      28.708  30.994  21.005  1.00  0.00     0.468 C 
ENDBRANCH  14  17
ENDBRANCH   7  11
ENDBRANCH   4   6
ENDBRANCH   3   4
ENDBRANCH   2   3
ENDBRANCH   1   2
BRANCH   1  26
ATOM     26  O   UNL A   1      36.256  31.993  30.318  1.00  0.00    -0.458 OA
BRANCH  26  27
ATOM     27  C   UNL A   1      36.617  30.739  30.678  1.00  0.00     0.338 C 
ATOM     28  O   UNL A   1      35.920  29.877  31.183  1.00  0.00    -0.246 OA
BRANCH  27  29
ATOM     29  C   UNL A   1      38.003  30.485  30.260  1.00  0.00     0.060 A 
ATOM     30  C   UNL A   1      38.246  30.258  28.903  1.00  0.00     0.016 A 
ATOM     31  C   UNL A   1      39.029  30.365  31.198  1.00  0.00     0.016 A 
ATOM     32  C   UNL A   1      39.522  29.906  28.473  1.00  0.00     0.010 A 
ATOM     33  C   UNL A   1      40.310  30.007  30.765  1.00  0.00     0.010 A 
ATOM     34  C   UNL A   1      40.559  29.765  29.403  1.00  0.00    -0.014 A 
BRANCH  34  35
ATOM     35  C   UNL A   1      41.892  29.306  28.947  1.00  0.00     0.031 A 
ATOM     36  C   UNL A   1      43.046  30.266  28.928  1.00  0.00     0.074 A 
ATOM     37  C   UNL A   1      42.070  28.021  28.590  1.00  0.00     0.049 A 
ATOM     38  N   UNL A   1      44.267  30.081  28.500  1.00  0.00    -0.248 NA
ATOM     39  C   UNL A   1      42.793  31.613  29.466  1.00  0.00     0.031 C 
ATOM     40  C   UNL A   1      41.037  26.986  28.623  1.00  0.00     0.029 A 
ATOM     41  N   UNL A   1      43.186  27.367  28.133  1.00  0.00    -0.354 N 
ATOM     42  C   UNL A   1      44.927  31.288  28.700  1.00  0.00     0.074 A 
ATOM     43  C   UNL A   1      43.965  32.203  29.278  1.00  0.00     0.031 C 
ATOM     44  C   UNL A   1      41.570  25.824  28.210  1.00  0.00     0.029 A 
ATOM     45  C   UNL A   1      42.966  26.043  27.843  1.00  0.00     0.049 A 
ATOM     46  H   UNL A   1      44.061  27.806  28.024  1.00  0.00     0.167 HD
ATOM     47  C   UNL A   1      46.216  31.600  28.428  1.00  0.00     0.037 A 
ATOM     48  C   UNL A   1      43.792  25.116  27.320  1.00  0.00     0.037 A 
ATOM     49  C   UNL A   1      47.168  30.683  27.856  1.00  0.00     0.049 A 
ATOM     50  C   UNL A   1      45.203  25.503  26.974  1.00  0.00     0.074 A 
ATOM     51  C   UNL A   1      48.490  30.911  27.520  1.00  0.00     0.029 A 
ATOM     52  N   UNL A   1      46.898  29.359  27.544  1.00  0.00    -0.354 N 
ATOM     53  N   UNL A   1      45.801  26.660  27.127  1.00  0.00    -0.248 NA
ATOM     54  C   UNL A   1      46.050  24.461  26.375  1.00  0.00     0.031 C 
ATOM     55  C   UNL A   1      49.015  29.730  26.979  1.00  0.00     0.029 A 
ATOM     56  C   UNL A   1      48.027  28.757  27.010  1.00  0.00     0.049 A 
ATOM     57  H   UNL A   1      46.032  28.911  27.679  1.00  0.00     0.167 HD
ATOM     58  C   UNL A   1      47.097  26.484  26.655  1.00  0.00     0.074 A 
ATOM     59  C   UNL A   1      47.200  25.105  26.222  1.00  0.00     0.031 C 
ATOM     60  C   UNL A   1      48.109  27.383  26.585  1.00  0.00     0.037 A 
BRANCH  47  61
ATOM     61  C   UNL A   1      46.662  33.003  28.722  1.00  0.00     0.058 A 
ATOM     62  C   UNL A   1      47.228  33.351  29.958  1.00  0.00     0.135 A 
ATOM     63  C   UNL A   1      46.541  34.008  27.749  1.00  0.00     0.135 A 
ATOM     64  F   UNL A   1      47.349  32.432  30.928  1.00  0.00    -0.206 F 
ATOM     65  C   UNL A   1      47.639  34.653  30.227  1.00  0.00     0.059 A 
ATOM     66  C   UNL A   1      46.963  35.312  27.990  1.00  0.00     0.059 A 
ATOM     67  F   UNL A   1      46.003  33.727  26.551  1.00  0.00    -0.206 F 
ATOM     68  C   UNL A   1      47.497  35.628  29.239  1.00  0.00     0.060 A 
BRANCH  68  69
ATOM     69  S   UNL A   1      48.029  37.315  29.600  1.00  0.00     0.124 S 
ATOM     70  O   UNL A   1      46.794  38.062  29.382  1.00  0.00    -0.237 OA
ATOM     71  O   UNL A   1      48.472  37.216  30.988  1.00  0.00    -0.237 OA
ATOM     72  O   UNL A   1      49.088  37.553  28.624  1.00  0.00    -0.744 OA
ENDBRANCH  68  69
ENDBRANCH  47  61
BRANCH  48  73
ATOM     73  C   UNL A   1      43.294  23.739  27.079  1.00  0.00     0.058 A 
ATOM     74  C   UNL A   1      42.946  23.313  25.789  1.00  0.00     0.135 A 
ATOM     75  C   UNL A   1      43.186  22.813  28.127  1.00  0.00     0.135 A 
ATOM     76  F   UNL A   1      43.023  24.168  24.757  1.00  0.00    -0.206 F 
ATOM     77  C   UNL A   1      42.508  22.016  25.545  1.00  0.00     0.059 A 
ATOM     78  C   UNL A   1      42.770  21.504  27.906  1.00  0.00     0.059 A 
ATOM     79  F   UNL A   1      43.516  23.171  29.378  1.00  0.00    -0.206 F 
ATOM     80  C   UNL A   1      42.428  21.117  26.611  1.00  0.00     0.060 A 
BRANCH  80  81
ATOM     81  S   UNL A   1      41.927  19.413  26.277  1.00  0.00     0.124 S 
ATOM     82  O   UNL A   1      42.396  18.730  27.477  1.00  0.00    -0.237 OA
ATOM     83  O   UNL A   1      40.478  19.537  26.138  1.00  0.00    -0.237 OA
ATOM     84  O   UNL A   1      42.640  19.091  25.045  1.00  0.00    -0.744 OA
ENDBRANCH  80  81
ENDBRANCH  48  73
BRANCH  60  85
ATOM     85  C   UNL A   1      49.420  26.899  26.038  1.00  0.00     0.058 A 
ATOM     86  C   UNL A   1      49.763  27.083  24.690  1.00  0.00     0.135 A 
ATOM     87  C   UNL A   1      50.361  26.287  26.881  1.00  0.00     0.135 A 
ATOM     88  F   UNL A   1      48.894  27.657  23.843  1.00  0.00    -0.206 F 
ATOM     89  C   UNL A   1      50.991  26.661  24.191  1.00  0.00     0.059 A 
ATOM     90  C   UNL A   1      51.603  25.874  26.407  1.00  0.00     0.059 A 
ATOM     91  F   UNL A   1      50.082  26.097  28.180  1.00  0.00    -0.206 F 
ATOM     92  C   UNL A   1      51.904  26.055  25.057  1.00  0.00     0.060 A 
BRANCH  92  93
ATOM     93  S   UNL A   1      53.509  25.540  24.409  1.00  0.00     0.124 S 
ATOM     94  O   UNL A   1      53.370  25.860  22.993  1.00  0.00    -0.237 OA
ATOM     95  O   UNL A   1      54.438  26.379  25.160  1.00  0.00    -0.237 OA
ATOM     96  O   UNL A   1      53.562  24.117  24.732  1.00  0.00    -0.744 OA
ENDBRANCH  92  93
ENDBRANCH  60  85
ENDBRANCH  34  35
ENDBRANCH  27  29
ENDBRANCH  26  27
ENDBRANCH   1  26
TORSDOF 16
ENDMDL
