MODEL 1
REMARK VINA RESULT:     -10.7      0.000      0.000
REMARK SMILES O=C(OCCOC(=O)[C@H]1C[C@H](O)CN1C(=O)CS[C@H]1CCS(=O)(=O)C1)c1ccc(-c2c3nc(c(-c4c(F)cc(S(=O)(=O)[O-])cc4F)c4ccc([nH]4)c(-c4c(F)cc(S(=O)(=O)[O-])cc4F)c4nc(c(-c5c(F)cc(S(=O)(=O)[O-])cc5F)c5ccc2[nH]5)C=C4)C=C3)cc1
REMARK SMILES IDX 5 1 4 2 3 3 2 4 1 5 26 6 27 7 91 8 28 9 90 10 29 11 30 12
REMARK SMILES IDX 31 13 84 14 32 15 89 16 83 17 85 18 33 19 88 20 82 21 81 22
REMARK SMILES IDX 34 24 68 25 47 26 67 27 48 28 51 29 66 30 86 31 49 32 50 33
REMARK SMILES IDX 65 35 87 36 52 37 35 38 36 39 45 40 37 41 38 42 44 43 46 44
REMARK SMILES IDX 39 45 40 46 41 47 42 48 43 49 69 50 70 51 79 52 71 53 72 54
REMARK SMILES IDX 78 55 80 56 73 57 74 58 75 59 76 60 77 61 53 62 54 63 63 64
REMARK SMILES IDX 55 65 56 66 62 67 64 68 57 69 58 70 59 71 60 72 61 73 6 74
REMARK SMILES IDX 7 75 8 76 9 77 10 78 14 79 11 80 13 81 15 82 16 83 17 84
REMARK SMILES IDX 18 85 19 86 20 87 25 88 21 89 22 90 23 91 24 92 12 93
REMARK H PARENT 85 23 51 34 12 94
REMARK Flexibility Score: inf
ROOT
ATOM      1  C   UNL A   1      32.353  27.473  26.564  1.00  0.00     0.274 C 
ENDROOT
BRANCH   1   2
ATOM      2  C   UNL A   1      33.632  28.306  26.753  1.00  0.00     0.275 C 
BRANCH   2   3
ATOM      3  O   UNL A   1      33.485  29.528  27.481  1.00  0.00    -0.458 OA
BRANCH   3   4
ATOM      4  C   UNL A   1      34.402  30.467  27.796  1.00  0.00     0.338 C 
ATOM      5  O   UNL A   1      34.136  31.641  27.533  1.00  0.00    -0.246 OA
BRANCH   4   6
ATOM      6  C   UNL A   1      35.776  30.159  28.318  1.00  0.00     0.060 A 
ATOM      7  C   UNL A   1      36.122  29.749  29.612  1.00  0.00     0.016 A 
ATOM      8  C   UNL A   1      36.804  30.220  27.365  1.00  0.00     0.016 A 
ATOM      9  C   UNL A   1      37.411  29.285  29.917  1.00  0.00     0.010 A 
ATOM     10  C   UNL A   1      38.075  29.724  27.652  1.00  0.00     0.010 A 
ATOM     11  C   UNL A   1      38.389  29.224  28.929  1.00  0.00    -0.014 A 
BRANCH  11  12
ATOM     12  C   UNL A   1      39.779  28.787  29.218  1.00  0.00     0.031 A 
ATOM     13  C   UNL A   1      40.699  29.845  29.766  1.00  0.00     0.074 A 
ATOM     14  C   UNL A   1      40.231  27.536  28.966  1.00  0.00     0.049 A 
ATOM     15  N   UNL A   1      41.983  29.794  29.986  1.00  0.00    -0.248 NA
ATOM     16  C   UNL A   1      40.083  31.146  30.102  1.00  0.00     0.031 C 
ATOM     17  C   UNL A   1      39.436  26.403  28.476  1.00  0.00     0.029 A 
ATOM     18  N   UNL A   1      41.500  27.006  29.054  1.00  0.00    -0.354 N 
ATOM     19  C   UNL A   1      42.311  31.039  30.507  1.00  0.00     0.074 A 
ATOM     20  C   UNL A   1      41.136  31.871  30.435  1.00  0.00     0.031 C 
ATOM     21  C   UNL A   1      40.247  25.355  28.221  1.00  0.00     0.029 A 
ATOM     22  C   UNL A   1      41.617  25.723  28.554  1.00  0.00     0.049 A 
ATOM     23  H   UNL A   1      42.258  27.500  29.440  1.00  0.00     0.167 HD
ATOM     24  C   UNL A   1      43.464  31.426  31.088  1.00  0.00     0.037 A 
ATOM     25  C   UNL A   1      42.717  24.958  28.379  1.00  0.00     0.037 A 
ATOM     26  C   UNL A   1      44.610  30.576  31.197  1.00  0.00     0.049 A 
ATOM     27  C   UNL A   1      44.032  25.484  28.870  1.00  0.00     0.074 A 
ATOM     28  C   UNL A   1      45.805  30.818  31.845  1.00  0.00     0.029 A 
ATOM     29  N   UNL A   1      44.699  29.314  30.632  1.00  0.00    -0.354 N 
ATOM     30  N   UNL A   1      44.303  26.640  29.420  1.00  0.00    -0.248 NA
ATOM     31  C   UNL A   1      45.179  24.572  28.762  1.00  0.00     0.031 C 
ATOM     32  C   UNL A   1      46.641  29.720  31.624  1.00  0.00     0.029 A 
ATOM     33  C   UNL A   1      45.944  28.775  30.887  1.00  0.00     0.049 A 
ATOM     34  H   UNL A   1      43.982  28.868  30.126  1.00  0.00     0.167 HD
ATOM     35  C   UNL A   1      45.641  26.574  29.779  1.00  0.00     0.074 A 
ATOM     36  C   UNL A   1      46.129  25.278  29.351  1.00  0.00     0.031 C 
ATOM     37  C   UNL A   1      46.390  27.485  30.442  1.00  0.00     0.037 A 
BRANCH  24  38
ATOM     38  C   UNL A   1      43.499  32.793  31.700  1.00  0.00     0.058 A 
ATOM     39  C   UNL A   1      43.820  33.925  30.930  1.00  0.00     0.135 A 
ATOM     40  C   UNL A   1      43.207  32.979  33.057  1.00  0.00     0.135 A 
ATOM     41  F   UNL A   1      44.142  33.794  29.633  1.00  0.00    -0.206 F 
ATOM     42  C   UNL A   1      43.868  35.194  31.491  1.00  0.00     0.059 A 
ATOM     43  C   UNL A   1      43.219  34.245  33.633  1.00  0.00     0.059 A 
ATOM     44  F   UNL A   1      42.913  31.927  33.836  1.00  0.00    -0.206 F 
ATOM     45  C   UNL A   1      43.557  35.344  32.843  1.00  0.00     0.060 A 
BRANCH  45  46
ATOM     46  S   UNL A   1      43.578  37.006  33.541  1.00  0.00     0.124 S 
ATOM     47  O   UNL A   1      42.311  37.034  34.267  1.00  0.00    -0.237 OA
ATOM     48  O   UNL A   1      44.780  36.977  34.368  1.00  0.00    -0.237 OA
ATOM     49  O   UNL A   1      43.648  37.869  32.367  1.00  0.00    -0.744 OA
ENDBRANCH  45  46
ENDBRANCH  24  38
BRANCH  25  50
ATOM     50  C   UNL A   1      42.704  23.644  27.681  1.00  0.00     0.058 A 
ATOM     51  C   UNL A   1      42.762  23.512  26.289  1.00  0.00     0.135 A 
ATOM     52  C   UNL A   1      42.491  22.477  28.430  1.00  0.00     0.135 A 
ATOM     53  F   UNL A   1      42.847  24.604  25.516  1.00  0.00    -0.206 F 
ATOM     54  C   UNL A   1      42.699  22.261  25.673  1.00  0.00     0.059 A 
ATOM     55  C   UNL A   1      42.473  21.213  27.847  1.00  0.00     0.059 A 
ATOM     56  F   UNL A   1      42.333  22.567  29.760  1.00  0.00    -0.206 F 
ATOM     57  C   UNL A   1      42.589  21.114  26.463  1.00  0.00     0.060 A 
BRANCH  57  58
ATOM     58  S   UNL A   1      42.706  19.476  25.707  1.00  0.00     0.124 S 
ATOM     59  O   UNL A   1      43.660  19.710  24.631  1.00  0.00    -0.237 OA
ATOM     60  O   UNL A   1      43.179  18.647  26.812  1.00  0.00    -0.237 OA
ATOM     61  O   UNL A   1      41.325  19.222  25.303  1.00  0.00    -0.744 OA
ENDBRANCH  57  58
ENDBRANCH  25  50
BRANCH  37  62
ATOM     62  C   UNL A   1      47.781  27.075  30.803  1.00  0.00     0.058 A 
ATOM     63  C   UNL A   1      48.056  26.318  31.948  1.00  0.00     0.135 A 
ATOM     64  C   UNL A   1      48.845  27.419  29.954  1.00  0.00     0.135 A 
ATOM     65  F   UNL A   1      47.068  25.991  32.797  1.00  0.00    -0.206 F 
ATOM     66  C   UNL A   1      49.351  25.922  32.251  1.00  0.00     0.059 A 
ATOM     67  C   UNL A   1      50.141  27.004  30.218  1.00  0.00     0.059 A 
ATOM     68  F   UNL A   1      48.623  28.147  28.849  1.00  0.00    -0.206 F 
ATOM     69  C   UNL A   1      50.384  26.262  31.373  1.00  0.00     0.060 A 
BRANCH  69  70
ATOM     70  S   UNL A   1      52.052  25.691  31.745  1.00  0.00     0.124 S 
ATOM     71  O   UNL A   1      51.809  24.300  32.114  1.00  0.00    -0.237 OA
ATOM     72  O   UNL A   1      52.741  25.900  30.475  1.00  0.00    -0.237 OA
ATOM     73  O   UNL A   1      52.475  26.566  32.833  1.00  0.00    -0.744 OA
ENDBRANCH  69  70
ENDBRANCH  37  62
ENDBRANCH  11  12
ENDBRANCH   4   6
ENDBRANCH   3   4
ENDBRANCH   2   3
ENDBRANCH   1   2
BRANCH   1  74
ATOM     74  O   UNL A   1      31.450  27.896  25.522  1.00  0.00    -0.461 OA
BRANCH  74  75
ATOM     75  C   UNL A   1      30.730  26.884  24.946  1.00  0.00     0.329 C 
ATOM     76  O   UNL A   1      30.109  26.049  25.597  1.00  0.00    -0.250 OA
BRANCH  75  77
ATOM     77  C   UNL A   1      30.746  26.905  23.402  1.00  0.00     0.197 C 
ATOM     78  C   UNL A   1      29.918  28.022  22.782  1.00  0.00     0.070 C 
ATOM     79  N   UNL A   1      32.073  27.089  22.802  1.00  0.00    -0.325 N 
ATOM     80  C   UNL A   1      30.923  29.146  22.582  1.00  0.00     0.136 C 
ATOM     81  C   UNL A   1      32.216  28.424  22.263  1.00  0.00     0.152 C 
BRANCH  79  82
ATOM     82  C   UNL A   1      32.909  26.007  22.619  1.00  0.00     0.233 C 
ATOM     83  O   UNL A   1      33.945  26.134  21.960  1.00  0.00    -0.274 OA
BRANCH  82  84
ATOM     84  C   UNL A   1      32.524  24.647  23.190  1.00  0.00     0.169 C 
BRANCH  84  85
ATOM     85  S   UNL A   1      33.331  23.225  22.343  1.00  0.00    -0.148 SA
BRANCH  85  86
ATOM     86  C   UNL A   1      34.627  22.763  23.530  1.00  0.00     0.063 C 
ATOM     87  C   UNL A   1      36.049  22.920  22.984  1.00  0.00     0.031 C 
ATOM     88  C   UNL A   1      34.666  23.547  24.845  1.00  0.00     0.151 C 
ATOM     89  C   UNL A   1      36.940  22.395  24.093  1.00  0.00     0.138 C 
ATOM     90  S   UNL A   1      36.170  22.923  25.608  1.00  0.00     0.151 S 
ATOM     91  O   UNL A   1      35.826  21.738  26.364  1.00  0.00    -0.229 OA
ATOM     92  O   UNL A   1      36.912  24.026  26.182  1.00  0.00    -0.229 OA
ENDBRANCH  85  86
ENDBRANCH  84  85
ENDBRANCH  82  84
ENDBRANCH  79  82
BRANCH  80  93
ATOM     93  O   UNL A   1      30.531  30.029  21.547  1.00  0.00    -0.391 OA
ATOM     94  H   UNL A   1      30.470  30.932  21.898  1.00  0.00     0.211 HD
ENDBRANCH  80  93
ENDBRANCH  75  77
ENDBRANCH  74  75
ENDBRANCH   1  74
TORSDOF 19
ENDMDL
MODEL 2
REMARK VINA RESULT:     -10.4      2.596      3.317
REMARK SMILES O=C(OCCOC(=O)[C@H]1C[C@H](O)CN1C(=O)CS[C@H]1CCS(=O)(=O)C1)c1ccc(-c2c3nc(c(-c4c(F)cc(S(=O)(=O)[O-])cc4F)c4ccc([nH]4)c(-c4c(F)cc(S(=O)(=O)[O-])cc4F)c4nc(c(-c5c(F)cc(S(=O)(=O)[O-])cc5F)c5ccc2[nH]5)C=C4)C=C3)cc1
REMARK SMILES IDX 5 1 4 2 3 3 2 4 1 5 26 6 27 7 91 8 28 9 90 10 29 11 30 12
REMARK SMILES IDX 31 13 84 14 32 15 89 16 83 17 85 18 33 19 88 20 82 21 81 22
REMARK SMILES IDX 34 24 68 25 47 26 67 27 48 28 51 29 66 30 86 31 49 32 50 33
REMARK SMILES IDX 65 35 87 36 52 37 35 38 36 39 45 40 37 41 38 42 44 43 46 44
REMARK SMILES IDX 39 45 40 46 41 47 42 48 43 49 69 50 70 51 79 52 71 53 72 54
REMARK SMILES IDX 78 55 80 56 73 57 74 58 75 59 76 60 77 61 53 62 54 63 63 64
REMARK SMILES IDX 55 65 56 66 62 67 64 68 57 69 58 70 59 71 60 72 61 73 6 74
REMARK SMILES IDX 7 75 8 76 9 77 10 78 14 79 11 80 13 81 15 82 16 83 17 84
REMARK SMILES IDX 18 85 19 86 20 87 25 88 21 89 22 90 23 91 24 92 12 93
REMARK H PARENT 85 23 51 34 12 94
REMARK Flexibility Score: inf
ROOT
ATOM      1  C   UNL A   1      31.373  30.278  25.492  1.00  0.00     0.274 C 
ENDROOT
BRANCH   1   2
ATOM      2  C   UNL A   1      32.030  30.599  26.846  1.00  0.00     0.275 C 
BRANCH   2   3
ATOM      3  O   UNL A   1      33.458  30.517  26.887  1.00  0.00    -0.458 OA
BRANCH   3   4
ATOM      4  C   UNL A   1      34.339  31.132  27.705  1.00  0.00     0.338 C 
ATOM      5  O   UNL A   1      34.088  32.286  28.056  1.00  0.00    -0.246 OA
BRANCH   4   6
ATOM      6  C   UNL A   1      35.664  30.549  28.103  1.00  0.00     0.060 A 
ATOM      7  C   UNL A   1      36.915  30.811  27.531  1.00  0.00     0.016 A 
ATOM      8  C   UNL A   1      35.633  29.708  29.227  1.00  0.00     0.016 A 
ATOM      9  C   UNL A   1      38.105  30.369  28.129  1.00  0.00     0.010 A 
ATOM     10  C   UNL A   1      36.812  29.301  29.848  1.00  0.00     0.010 A 
ATOM     11  C   UNL A   1      38.069  29.649  29.319  1.00  0.00    -0.014 A 
BRANCH  11  12
ATOM     12  C   UNL A   1      39.300  29.120  29.961  1.00  0.00     0.031 A 
ATOM     13  C   UNL A   1      39.817  29.906  31.135  1.00  0.00     0.074 A 
ATOM     14  C   UNL A   1      39.965  28.032  29.506  1.00  0.00     0.049 A 
ATOM     15  N   UNL A   1      40.928  29.765  31.803  1.00  0.00    -0.248 NA
ATOM     16  C   UNL A   1      38.965  31.014  31.616  1.00  0.00     0.031 C 
ATOM     17  C   UNL A   1      39.553  27.153  28.404  1.00  0.00     0.029 A 
ATOM     18  N   UNL A   1      41.170  27.489  29.896  1.00  0.00    -0.354 N 
ATOM     19  C   UNL A   1      40.886  30.742  32.788  1.00  0.00     0.074 A 
ATOM     20  C   UNL A   1      39.724  31.561  32.547  1.00  0.00     0.031 C 
ATOM     21  C   UNL A   1      40.524  26.252  28.151  1.00  0.00     0.029 A 
ATOM     22  C   UNL A   1      41.620  26.462  29.088  1.00  0.00     0.049 A 
ATOM     23  H   UNL A   1      41.667  27.806  30.684  1.00  0.00     0.167 HD
ATOM     24  C   UNL A   1      41.690  30.885  33.862  1.00  0.00     0.037 A 
ATOM     25  C   UNL A   1      42.794  25.794  29.109  1.00  0.00     0.037 A 
ATOM     26  C   UNL A   1      42.813  30.037  34.118  1.00  0.00     0.049 A 
ATOM     27  C   UNL A   1      43.764  26.096  30.213  1.00  0.00     0.074 A 
ATOM     28  C   UNL A   1      43.649  30.021  35.217  1.00  0.00     0.029 A 
ATOM     29  N   UNL A   1      43.259  29.053  33.249  1.00  0.00    -0.354 N 
ATOM     30  N   UNL A   1      43.668  26.981  31.172  1.00  0.00    -0.248 NA
ATOM     31  C   UNL A   1      44.975  25.266  30.261  1.00  0.00     0.031 C 
ATOM     32  C   UNL A   1      44.637  29.060  34.987  1.00  0.00     0.029 A 
ATOM     33  C   UNL A   1      44.381  28.444  33.771  1.00  0.00     0.049 A 
ATOM     34  H   UNL A   1      42.837  28.823  32.389  1.00  0.00     0.167 HD
ATOM     35  C   UNL A   1      44.780  26.776  31.976  1.00  0.00     0.074 A 
ATOM     36  C   UNL A   1      45.548  25.707  31.369  1.00  0.00     0.031 C 
ATOM     37  C   UNL A   1      45.116  27.386  33.135  1.00  0.00     0.037 A 
BRANCH  24  38
ATOM     38  C   UNL A   1      41.328  31.950  34.852  1.00  0.00     0.058 A 
ATOM     39  C   UNL A   1      41.938  33.216  34.813  1.00  0.00     0.135 A 
ATOM     40  C   UNL A   1      40.367  31.710  35.842  1.00  0.00     0.135 A 
ATOM     41  F   UNL A   1      42.891  33.482  33.904  1.00  0.00    -0.206 F 
ATOM     42  C   UNL A   1      41.619  34.204  35.734  1.00  0.00     0.059 A 
ATOM     43  C   UNL A   1      40.010  32.696  36.757  1.00  0.00     0.059 A 
ATOM     44  F   UNL A   1      39.771  30.512  35.931  1.00  0.00    -0.206 F 
ATOM     45  C   UNL A   1      40.647  33.936  36.698  1.00  0.00     0.060 A 
BRANCH  45  46
ATOM     46  S   UNL A   1      40.212  35.247  37.856  1.00  0.00     0.124 S 
ATOM     47  O   UNL A   1      41.476  35.448  38.559  1.00  0.00    -0.237 OA
ATOM     48  O   UNL A   1      39.807  36.327  36.961  1.00  0.00    -0.237 OA
ATOM     49  O   UNL A   1      39.139  34.659  38.650  1.00  0.00    -0.744 OA
ENDBRANCH  45  46
ENDBRANCH  24  38
BRANCH  25  50
ATOM     50  C   UNL A   1      43.201  24.809  28.070  1.00  0.00     0.058 A 
ATOM     51  C   UNL A   1      43.777  25.174  26.848  1.00  0.00     0.135 A 
ATOM     52  C   UNL A   1      42.879  23.455  28.251  1.00  0.00     0.135 A 
ATOM     53  F   UNL A   1      43.998  26.467  26.572  1.00  0.00    -0.206 F 
ATOM     54  C   UNL A   1      44.099  24.221  25.881  1.00  0.00     0.059 A 
ATOM     55  C   UNL A   1      43.233  22.478  27.326  1.00  0.00     0.059 A 
ATOM     56  F   UNL A   1      42.239  23.074  29.368  1.00  0.00    -0.206 F 
ATOM     57  C   UNL A   1      43.855  22.870  26.144  1.00  0.00     0.060 A 
BRANCH  57  58
ATOM     58  S   UNL A   1      44.443  21.601  24.998  1.00  0.00     0.124 S 
ATOM     59  O   UNL A   1      43.508  20.513  25.251  1.00  0.00    -0.237 OA
ATOM     60  O   UNL A   1      44.320  22.261  23.700  1.00  0.00    -0.237 OA
ATOM     61  O   UNL A   1      45.817  21.392  25.446  1.00  0.00    -0.744 OA
ENDBRANCH  57  58
ENDBRANCH  25  50
BRANCH  37  62
ATOM     62  C   UNL A   1      46.319  26.858  33.847  1.00  0.00     0.058 A 
ATOM     63  C   UNL A   1      46.235  25.787  34.746  1.00  0.00     0.135 A 
ATOM     64  C   UNL A   1      47.579  27.417  33.584  1.00  0.00     0.135 A 
ATOM     65  F   UNL A   1      45.044  25.242  35.043  1.00  0.00    -0.206 F 
ATOM     66  C   UNL A   1      47.368  25.292  35.376  1.00  0.00     0.059 A 
ATOM     67  C   UNL A   1      48.728  26.915  34.174  1.00  0.00     0.059 A 
ATOM     68  F   UNL A   1      47.699  28.447  32.732  1.00  0.00    -0.206 F 
ATOM     69  C   UNL A   1      48.611  25.857  35.075  1.00  0.00     0.060 A 
BRANCH  69  70
ATOM     70  S   UNL A   1      50.081  25.166  35.852  1.00  0.00     0.124 S 
ATOM     71  O   UNL A   1      49.570  24.794  37.167  1.00  0.00    -0.237 OA
ATOM     72  O   UNL A   1      50.410  24.057  34.961  1.00  0.00    -0.237 OA
ATOM     73  O   UNL A   1      51.027  26.277  35.836  1.00  0.00    -0.744 OA
ENDBRANCH  69  70
ENDBRANCH  37  62
ENDBRANCH  11  12
ENDBRANCH   4   6
ENDBRANCH   3   4
ENDBRANCH   2   3
ENDBRANCH   1   2
BRANCH   1  74
ATOM     74  O   UNL A   1      32.037  29.301  24.664  1.00  0.00    -0.461 OA
BRANCH  74  75
ATOM     75  C   UNL A   1      31.237  28.272  24.244  1.00  0.00     0.329 C 
ATOM     76  O   UNL A   1      30.205  28.445  23.603  1.00  0.00    -0.250 OA
BRANCH  75  77
ATOM     77  C   UNL A   1      31.766  26.872  24.625  1.00  0.00     0.197 C 
ATOM     78  C   UNL A   1      31.225  26.335  25.943  1.00  0.00     0.070 C 
ATOM     79  N   UNL A   1      31.444  25.809  23.665  1.00  0.00    -0.325 N 
ATOM     80  C   UNL A   1      30.014  25.515  25.527  1.00  0.00     0.136 C 
ATOM     81  C   UNL A   1      30.408  24.942  24.181  1.00  0.00     0.152 C 
BRANCH  79  82
ATOM     82  C   UNL A   1      32.239  25.612  22.555  1.00  0.00     0.233 C 
ATOM     83  O   UNL A   1      31.762  25.744  21.424  1.00  0.00    -0.274 OA
BRANCH  82  84
ATOM     84  C   UNL A   1      33.692  25.183  22.730  1.00  0.00     0.169 C 
BRANCH  84  85
ATOM     85  S   UNL A   1      33.938  23.358  22.723  1.00  0.00    -0.148 SA
BRANCH  85  86
ATOM     86  C   UNL A   1      33.950  22.970  24.498  1.00  0.00     0.063 C 
ATOM     87  C   UNL A   1      34.340  24.155  25.386  1.00  0.00     0.031 C 
ATOM     88  C   UNL A   1      32.627  22.495  25.106  1.00  0.00     0.151 C 
ATOM     89  C   UNL A   1      34.375  23.581  26.789  1.00  0.00     0.138 C 
ATOM     90  S   UNL A   1      33.027  22.420  26.858  1.00  0.00     0.151 S 
ATOM     91  O   UNL A   1      33.584  21.113  27.132  1.00  0.00    -0.229 OA
ATOM     92  O   UNL A   1      31.932  22.978  27.625  1.00  0.00    -0.229 OA
ENDBRANCH  85  86
ENDBRANCH  84  85
ENDBRANCH  82  84
ENDBRANCH  79  82
BRANCH  80  93
ATOM     93  O   UNL A   1      29.708  24.506  26.473  1.00  0.00    -0.391 OA
ATOM     94  H   UNL A   1      30.451  23.884  26.533  1.00  0.00     0.211 HD
ENDBRANCH  80  93
ENDBRANCH  75  77
ENDBRANCH  74  75
ENDBRANCH   1  74
TORSDOF 19
ENDMDL
MODEL 3
REMARK VINA RESULT:     -10.4      3.493      9.347
REMARK SMILES O=C(OCCOC(=O)[C@H]1C[C@H](O)CN1C(=O)CS[C@H]1CCS(=O)(=O)C1)c1ccc(-c2c3nc(c(-c4c(F)cc(S(=O)(=O)[O-])cc4F)c4ccc([nH]4)c(-c4c(F)cc(S(=O)(=O)[O-])cc4F)c4nc(c(-c5c(F)cc(S(=O)(=O)[O-])cc5F)c5ccc2[nH]5)C=C4)C=C3)cc1
REMARK SMILES IDX 5 1 4 2 3 3 2 4 1 5 26 6 27 7 91 8 28 9 90 10 29 11 30 12
REMARK SMILES IDX 31 13 84 14 32 15 89 16 83 17 85 18 33 19 88 20 82 21 81 22
REMARK SMILES IDX 34 24 68 25 47 26 67 27 48 28 51 29 66 30 86 31 49 32 50 33
REMARK SMILES IDX 65 35 87 36 52 37 35 38 36 39 45 40 37 41 38 42 44 43 46 44
REMARK SMILES IDX 39 45 40 46 41 47 42 48 43 49 69 50 70 51 79 52 71 53 72 54
REMARK SMILES IDX 78 55 80 56 73 57 74 58 75 59 76 60 77 61 53 62 54 63 63 64
REMARK SMILES IDX 55 65 56 66 62 67 64 68 57 69 58 70 59 71 60 72 61 73 6 74
REMARK SMILES IDX 7 75 8 76 9 77 10 78 14 79 11 80 13 81 15 82 16 83 17 84
REMARK SMILES IDX 18 85 19 86 20 87 25 88 21 89 22 90 23 91 24 92 12 93
REMARK H PARENT 85 23 51 34 12 94
REMARK Flexibility Score: inf
ROOT
ATOM      1  C   UNL A   1      36.018  21.875  26.227  1.00  0.00     0.274 C 
ENDROOT
BRANCH   1   2
ATOM      2  C   UNL A   1      37.072  21.346  25.240  1.00  0.00     0.275 C 
BRANCH   2   3
ATOM      3  O   UNL A   1      38.342  22.004  25.262  1.00  0.00    -0.458 OA
BRANCH   3   4
ATOM      4  C   UNL A   1      39.262  22.082  26.247  1.00  0.00     0.338 C 
ATOM      5  O   UNL A   1      39.685  21.027  26.723  1.00  0.00    -0.246 OA
BRANCH   4   6
ATOM      6  C   UNL A   1      39.701  23.367  26.888  1.00  0.00     0.060 A 
ATOM      7  C   UNL A   1      40.452  23.520  28.060  1.00  0.00     0.016 A 
ATOM      8  C   UNL A   1      39.378  24.531  26.173  1.00  0.00     0.016 A 
ATOM      9  C   UNL A   1      40.980  24.764  28.439  1.00  0.00     0.010 A 
ATOM     10  C   UNL A   1      39.933  25.761  26.522  1.00  0.00     0.010 A 
ATOM     11  C   UNL A   1      40.765  25.889  27.650  1.00  0.00    -0.014 A 
BRANCH  11  12
ATOM     12  C   UNL A   1      41.263  27.234  28.038  1.00  0.00     0.031 A 
ATOM     13  C   UNL A   1      42.759  27.402  28.045  1.00  0.00     0.074 A 
ATOM     14  C   UNL A   1      40.448  28.246  28.416  1.00  0.00     0.049 A 
ATOM     15  N   UNL A   1      43.478  28.406  28.462  1.00  0.00    -0.248 NA
ATOM     16  C   UNL A   1      43.553  26.273  27.518  1.00  0.00     0.031 C 
ATOM     17  C   UNL A   1      38.979  28.233  28.415  1.00  0.00     0.029 A 
ATOM     18  N   UNL A   1      40.743  29.495  28.919  1.00  0.00    -0.354 N 
ATOM     19  C   UNL A   1      44.794  28.035  28.219  1.00  0.00     0.074 A 
ATOM     20  C   UNL A   1      44.789  26.669  27.761  1.00  0.00     0.031 C 
ATOM     21  C   UNL A   1      38.513  29.367  28.976  1.00  0.00     0.029 A 
ATOM     22  C   UNL A   1      39.641  30.208  29.354  1.00  0.00     0.049 A 
ATOM     23  H   UNL A   1      41.660  29.848  28.965  1.00  0.00     0.167 HD
ATOM     24  C   UNL A   1      45.903  28.800  28.277  1.00  0.00     0.037 A 
ATOM     25  C   UNL A   1      39.576  31.395  29.996  1.00  0.00     0.037 A 
ATOM     26  C   UNL A   1      45.891  30.170  28.688  1.00  0.00     0.049 A 
ATOM     27  C   UNL A   1      40.850  32.154  30.217  1.00  0.00     0.074 A 
ATOM     28  C   UNL A   1      46.932  31.077  28.700  1.00  0.00     0.029 A 
ATOM     29  N   UNL A   1      44.769  30.828  29.167  1.00  0.00    -0.354 N 
ATOM     30  N   UNL A   1      42.076  31.808  29.917  1.00  0.00    -0.248 NA
ATOM     31  C   UNL A   1      40.718  33.489  30.816  1.00  0.00     0.031 C 
ATOM     32  C   UNL A   1      46.451  32.272  29.241  1.00  0.00     0.029 A 
ATOM     33  C   UNL A   1      45.100  32.122  29.512  1.00  0.00     0.049 A 
ATOM     34  H   UNL A   1      43.872  30.431  29.249  1.00  0.00     0.167 HD
ATOM     35  C   UNL A   1      42.859  32.908  30.236  1.00  0.00     0.074 A 
ATOM     36  C   UNL A   1      41.970  33.914  30.784  1.00  0.00     0.031 C 
ATOM     37  C   UNL A   1      44.187  33.090  30.055  1.00  0.00     0.037 A 
BRANCH  24  38
ATOM     38  C   UNL A   1      47.188  28.178  27.820  1.00  0.00     0.058 A 
ATOM     39  C   UNL A   1      48.053  27.547  28.731  1.00  0.00     0.135 A 
ATOM     40  C   UNL A   1      47.558  28.207  26.470  1.00  0.00     0.135 A 
ATOM     41  F   UNL A   1      47.760  27.524  30.042  1.00  0.00    -0.206 F 
ATOM     42  C   UNL A   1      49.252  26.980  28.320  1.00  0.00     0.059 A 
ATOM     43  C   UNL A   1      48.740  27.618  26.031  1.00  0.00     0.059 A 
ATOM     44  F   UNL A   1      46.774  28.814  25.567  1.00  0.00    -0.206 F 
ATOM     45  C   UNL A   1      49.582  27.014  26.965  1.00  0.00     0.060 A 
BRANCH  45  46
ATOM     46  S   UNL A   1      51.119  26.231  26.443  1.00  0.00     0.124 S 
ATOM     47  O   UNL A   1      52.114  27.067  27.108  1.00  0.00    -0.237 OA
ATOM     48  O   UNL A   1      50.973  24.880  26.974  1.00  0.00    -0.237 OA
ATOM     49  O   UNL A   1      51.080  26.338  24.989  1.00  0.00    -0.744 OA
ENDBRANCH  45  46
ENDBRANCH  24  38
BRANCH  25  50
ATOM     50  C   UNL A   1      38.316  31.969  30.541  1.00  0.00     0.058 A 
ATOM     51  C   UNL A   1      37.762  31.583  31.767  1.00  0.00     0.135 A 
ATOM     52  C   UNL A   1      37.564  32.843  29.742  1.00  0.00     0.135 A 
ATOM     53  F   UNL A   1      38.379  30.661  32.520  1.00  0.00    -0.206 F 
ATOM     54  C   UNL A   1      36.552  32.111  32.219  1.00  0.00     0.059 A 
ATOM     55  C   UNL A   1      36.379  33.423  30.187  1.00  0.00     0.059 A 
ATOM     56  F   UNL A   1      38.010  33.165  28.518  1.00  0.00    -0.206 F 
ATOM     57  C   UNL A   1      35.885  33.057  31.437  1.00  0.00     0.060 A 
BRANCH  57  58
ATOM     58  S   UNL A   1      34.424  33.904  32.084  1.00  0.00     0.124 S 
ATOM     59  O   UNL A   1      35.023  34.993  32.846  1.00  0.00    -0.237 OA
ATOM     60  O   UNL A   1      33.713  34.290  30.869  1.00  0.00    -0.237 OA
ATOM     61  O   UNL A   1      33.775  32.852  32.861  1.00  0.00    -0.744 OA
ENDBRANCH  57  58
ENDBRANCH  25  50
BRANCH  37  62
ATOM     62  C   UNL A   1      44.731  34.442  30.382  1.00  0.00     0.058 A 
ATOM     63  C   UNL A   1      44.779  35.470  29.432  1.00  0.00     0.135 A 
ATOM     64  C   UNL A   1      45.170  34.713  31.687  1.00  0.00     0.135 A 
ATOM     65  F   UNL A   1      44.391  35.242  28.167  1.00  0.00    -0.206 F 
ATOM     66  C   UNL A   1      45.260  36.728  29.763  1.00  0.00     0.059 A 
ATOM     67  C   UNL A   1      45.621  35.973  32.049  1.00  0.00     0.059 A 
ATOM     68  F   UNL A   1      45.144  33.753  32.625  1.00  0.00    -0.206 F 
ATOM     69  C   UNL A   1      45.669  36.972  31.077  1.00  0.00     0.060 A 
BRANCH  69  70
ATOM     70  S   UNL A   1      46.235  38.626  31.510  1.00  0.00     0.124 S 
ATOM     71  O   UNL A   1      46.548  39.181  30.197  1.00  0.00    -0.237 OA
ATOM     72  O   UNL A   1      45.065  39.189  32.176  1.00  0.00    -0.237 OA
ATOM     73  O   UNL A   1      47.383  38.376  32.377  1.00  0.00    -0.744 OA
ENDBRANCH  69  70
ENDBRANCH  37  62
ENDBRANCH  11  12
ENDBRANCH   4   6
ENDBRANCH   3   4
ENDBRANCH   2   3
ENDBRANCH   1   2
BRANCH   1  74
ATOM     74  O   UNL A   1      35.851  23.306  26.294  1.00  0.00    -0.461 OA
BRANCH  74  75
ATOM     75  C   UNL A   1      34.662  23.764  25.793  1.00  0.00     0.329 C 
ATOM     76  O   UNL A   1      34.534  24.869  25.276  1.00  0.00    -0.250 OA
BRANCH  75  77
ATOM     77  C   UNL A   1      33.501  22.751  25.911  1.00  0.00     0.197 C 
ATOM     78  C   UNL A   1      32.581  22.989  27.100  1.00  0.00     0.070 C 
ATOM     79  N   UNL A   1      32.583  22.729  24.766  1.00  0.00    -0.325 N 
ATOM     80  C   UNL A   1      31.468  23.852  26.526  1.00  0.00     0.136 C 
ATOM     81  C   UNL A   1      31.324  23.359  25.101  1.00  0.00     0.152 C 
BRANCH  79  82
ATOM     82  C   UNL A   1      32.885  21.981  23.647  1.00  0.00     0.233 C 
ATOM     83  O   UNL A   1      33.509  22.494  22.714  1.00  0.00    -0.274 OA
BRANCH  82  84
ATOM     84  C   UNL A   1      32.403  20.537  23.548  1.00  0.00     0.169 C 
BRANCH  84  85
ATOM     85  S   UNL A   1      32.276  19.679  25.172  1.00  0.00    -0.148 SA
BRANCH  85  86
ATOM     86  C   UNL A   1      32.770  17.983  24.744  1.00  0.00     0.063 C 
ATOM     87  C   UNL A   1      33.739  17.902  23.562  1.00  0.00     0.031 C 
ATOM     88  C   UNL A   1      33.478  17.178  25.836  1.00  0.00     0.151 C 
ATOM     89  C   UNL A   1      33.930  16.416  23.330  1.00  0.00     0.138 C 
ATOM     90  S   UNL A   1      33.950  15.684  24.952  1.00  0.00     0.151 S 
ATOM     91  O   UNL A   1      32.845  14.754  25.030  1.00  0.00    -0.229 OA
ATOM     92  O   UNL A   1      35.304  15.319  25.314  1.00  0.00    -0.229 OA
ENDBRANCH  85  86
ENDBRANCH  84  85
ENDBRANCH  82  84
ENDBRANCH  79  82
BRANCH  80  93
ATOM     93  O   UNL A   1      30.265  23.726  27.263  1.00  0.00    -0.391 OA
ATOM     94  H   UNL A   1      30.039  24.582  27.662  1.00  0.00     0.211 HD
ENDBRANCH  80  93
ENDBRANCH  75  77
ENDBRANCH  74  75
ENDBRANCH   1  74
TORSDOF 19
ENDMDL
