MODEL 1
REMARK VINA RESULT:     -11.1      0.000      0.000
REMARK SMILES C[C@H](CCc1ccco1)NC(=O)c1cccn1CC(=O)OCCOC(=O)c1ccc(-c2c3nc(c(-c4c(F)cc(S(=O)(=O)[O-])cc4F)c4ccc([nH]4)c(-c4c(F)cc(S(=O)(=O)[O-])cc4F)c4nc(c(-c5c(F)cc(S(=O)(=O)[O-])cc5F)c5ccc2[nH]5)C=C4)C=C3)cc1
REMARK SMILES IDX 21 1 19 2 20 3 18 4 17 5 13 6 14 7 15 8 16 9 11 10 10 11
REMARK SMILES IDX 12 13 2 14 1 15 3 16 4 17 5 18 6 19 9 20 7 21 8 22 22 23
REMARK SMILES IDX 23 24 24 25 25 26 26 27 27 28 28 29 92 30 29 31 91 32 30 33
REMARK SMILES IDX 31 34 32 35 85 36 33 37 90 38 84 39 86 40 34 41 89 42 83 43
REMARK SMILES IDX 82 44 35 46 69 47 48 48 68 49 49 50 52 51 67 52 87 53 50 54
REMARK SMILES IDX 51 55 66 57 88 58 53 59 36 60 37 61 46 62 38 63 39 64 45 65
REMARK SMILES IDX 47 66 40 67 41 68 42 69 43 70 44 71 70 72 71 73 80 74 72 75
REMARK SMILES IDX 73 76 79 77 81 78 74 79 75 80 76 81 77 82 78 83 54 84 55 85
REMARK SMILES IDX 64 86 56 87 57 88 63 89 65 90 58 91 59 92 60 93 61 94 62 95
REMARK H PARENT 10 12 86 45 52 56
REMARK Flexibility Score: inf
ROOT
ATOM      1  O   UNL A   1      35.122  22.820  25.501  1.00  0.00    -0.461 OA
ENDROOT
BRANCH   1   2
ATOM      2  C   UNL A   1      34.279  23.328  26.441  1.00  0.00     0.326 C 
ATOM      3  O   UNL A   1      34.189  22.861  27.579  1.00  0.00    -0.250 OA
BRANCH   2   4
ATOM      4  C   UNL A   1      33.381  24.459  26.008  1.00  0.00     0.244 C 
BRANCH   4   5
ATOM      5  N   UNL A   1      32.582  24.326  24.790  1.00  0.00    -0.332 N 
ATOM      6  C   UNL A   1      31.521  23.458  24.581  1.00  0.00     0.107 A 
ATOM      7  C   UNL A   1      30.917  23.858  23.390  1.00  0.00     0.033 A 
ATOM      8  C   UNL A   1      31.634  24.944  22.854  1.00  0.00     0.020 A 
ATOM      9  C   UNL A   1      32.606  25.248  23.769  1.00  0.00     0.087 A 
BRANCH   6  10
ATOM     10  C   UNL A   1      31.116  22.415  25.492  1.00  0.00     0.268 C 
ATOM     11  N   UNL A   1      31.656  21.162  25.388  1.00  0.00    -0.348 N 
ATOM     12  H   UNL A   1      31.245  20.477  25.965  1.00  0.00     0.164 HD
ATOM     13  O   UNL A   1      30.291  22.593  26.398  1.00  0.00    -0.268 OA
BRANCH  11  14
ATOM     14  C   UNL A   1      32.754  20.690  24.549  1.00  0.00     0.079 C 
ATOM     15  C   UNL A   1      32.178  20.100  23.267  1.00  0.00     0.031 C 
BRANCH  14  16
ATOM     16  C   UNL A   1      33.636  19.698  25.327  1.00  0.00     0.032 C 
BRANCH  16  17
ATOM     17  C   UNL A   1      34.180  18.561  24.449  1.00  0.00     0.077 C 
BRANCH  17  18
ATOM     18  C   UNL A   1      33.715  17.232  24.929  1.00  0.00     0.103 A 
ATOM     19  C   UNL A   1      34.161  15.945  24.730  1.00  0.00     0.045 A 
ATOM     20  O   UNL A   1      32.551  17.221  25.641  1.00  0.00    -0.469 OA
ATOM     21  C   UNL A   1      33.200  15.094  25.326  1.00  0.00     0.042 A 
ATOM     22  C   UNL A   1      32.242  15.917  25.867  1.00  0.00     0.195 A 
ENDBRANCH  17  18
ENDBRANCH  16  17
ENDBRANCH  14  16
ENDBRANCH  11  14
ENDBRANCH   6  10
ENDBRANCH   4   5
ENDBRANCH   2   4
ENDBRANCH   1   2
BRANCH   1  23
ATOM     23  C   UNL A   1      36.144  23.732  25.031  1.00  0.00     0.274 C 
BRANCH  23  24
ATOM     24  C   UNL A   1      37.560  23.469  25.572  1.00  0.00     0.275 C 
BRANCH  24  25
ATOM     25  O   UNL A   1      38.043  24.422  26.528  1.00  0.00    -0.458 OA
BRANCH  25  26
ATOM     26  C   UNL A   1      39.284  24.101  26.943  1.00  0.00     0.338 C 
ATOM     27  O   UNL A   1      39.710  22.978  27.147  1.00  0.00    -0.246 OA
BRANCH  26  28
ATOM     28  C   UNL A   1      40.072  25.230  27.407  1.00  0.00     0.060 A 
ATOM     29  C   UNL A   1      39.967  25.524  28.772  1.00  0.00     0.016 A 
ATOM     30  C   UNL A   1      40.392  26.199  26.456  1.00  0.00     0.016 A 
ATOM     31  C   UNL A   1      40.017  26.839  29.176  1.00  0.00     0.010 A 
ATOM     32  C   UNL A   1      40.463  27.518  26.861  1.00  0.00     0.010 A 
ATOM     33  C   UNL A   1      40.245  27.829  28.212  1.00  0.00    -0.014 A 
BRANCH  33  34
ATOM     34  C   UNL A   1      40.567  29.173  28.710  1.00  0.00     0.031 A 
ATOM     35  C   UNL A   1      39.217  29.967  28.847  1.00  0.00     0.074 A 
ATOM     36  C   UNL A   1      41.904  29.431  28.896  1.00  0.00     0.049 A 
ATOM     37  N   UNL A   1      38.952  31.236  28.746  1.00  0.00    -0.248 NA
ATOM     38  C   UNL A   1      37.940  29.189  29.012  1.00  0.00     0.031 C 
ATOM     39  C   UNL A   1      43.027  28.483  28.661  1.00  0.00     0.029 A 
ATOM     40  N   UNL A   1      42.610  30.534  29.314  1.00  0.00    -0.354 N 
ATOM     41  C   UNL A   1      37.578  31.409  29.066  1.00  0.00     0.074 A 
ATOM     42  C   UNL A   1      36.983  30.114  29.068  1.00  0.00     0.031 C 
ATOM     43  C   UNL A   1      44.231  29.086  28.828  1.00  0.00     0.029 A 
ATOM     44  C   UNL A   1      44.035  30.468  29.215  1.00  0.00     0.049 A 
ATOM     45  H   UNL A   1      42.155  31.332  29.667  1.00  0.00     0.167 HD
ATOM     46  C   UNL A   1      37.049  32.589  29.502  1.00  0.00     0.037 A 
ATOM     47  C   UNL A   1      44.950  31.494  29.356  1.00  0.00     0.037 A 
ATOM     48  C   UNL A   1      38.073  33.568  29.576  1.00  0.00     0.049 A 
ATOM     49  C   UNL A   1      44.103  32.648  29.696  1.00  0.00     0.074 A 
ATOM     50  C   UNL A   1      38.597  34.521  28.747  1.00  0.00     0.029 A 
ATOM     51  N   UNL A   1      38.816  33.522  30.725  1.00  0.00    -0.354 N 
ATOM     52  N   UNL A   1      43.453  32.808  30.809  1.00  0.00    -0.248 NA
ATOM     53  C   UNL A   1      43.689  33.453  28.552  1.00  0.00     0.031 C 
ATOM     54  C   UNL A   1      39.786  34.949  29.384  1.00  0.00     0.029 A 
ATOM     55  C   UNL A   1      40.035  34.060  30.432  1.00  0.00     0.049 A 
ATOM     56  H   UNL A   1      38.527  33.168  31.597  1.00  0.00     0.167 HD
ATOM     57  C   UNL A   1      42.353  33.544  30.436  1.00  0.00     0.074 A 
ATOM     58  C   UNL A   1      42.558  33.931  29.044  1.00  0.00     0.031 C 
ATOM     59  C   UNL A   1      41.179  33.517  31.114  1.00  0.00     0.037 A 
BRANCH  46  60
ATOM     60  C   UNL A   1      35.765  32.956  30.226  1.00  0.00     0.058 A 
ATOM     61  C   UNL A   1      34.794  33.677  29.482  1.00  0.00     0.135 A 
ATOM     62  C   UNL A   1      35.642  33.035  31.623  1.00  0.00     0.135 A 
ATOM     63  F   UNL A   1      34.760  33.599  28.141  1.00  0.00    -0.206 F 
ATOM     64  C   UNL A   1      33.897  34.562  30.069  1.00  0.00     0.059 A 
ATOM     65  C   UNL A   1      34.698  33.873  32.238  1.00  0.00     0.059 A 
ATOM     66  F   UNL A   1      36.477  32.365  32.428  1.00  0.00    -0.206 F 
ATOM     67  C   UNL A   1      33.878  34.681  31.450  1.00  0.00     0.060 A 
BRANCH  67  68
ATOM     68  S   UNL A   1      32.778  35.916  32.177  1.00  0.00     0.124 S 
ATOM     69  O   UNL A   1      32.518  36.794  31.043  1.00  0.00    -0.237 OA
ATOM     70  O   UNL A   1      31.647  35.101  32.614  1.00  0.00    -0.237 OA
ATOM     71  O   UNL A   1      33.578  36.486  33.256  1.00  0.00    -0.744 OA
ENDBRANCH  67  68
ENDBRANCH  46  60
BRANCH  47  72
ATOM     72  C   UNL A   1      46.391  31.805  28.964  1.00  0.00     0.058 A 
ATOM     73  C   UNL A   1      47.484  31.920  29.830  1.00  0.00     0.135 A 
ATOM     74  C   UNL A   1      46.751  31.851  27.580  1.00  0.00     0.135 A 
ATOM     75  F   UNL A   1      47.295  32.060  31.149  1.00  0.00    -0.206 F 
ATOM     76  C   UNL A   1      48.820  31.891  29.371  1.00  0.00     0.059 A 
ATOM     77  C   UNL A   1      48.060  31.762  27.103  1.00  0.00     0.059 A 
ATOM     78  F   UNL A   1      45.823  31.942  26.616  1.00  0.00    -0.206 F 
ATOM     79  C   UNL A   1      49.097  31.742  28.011  1.00  0.00     0.060 A 
BRANCH  79  80
ATOM     80  S   UNL A   1      50.778  31.391  27.433  1.00  0.00     0.124 S 
ATOM     81  O   UNL A   1      51.592  32.169  28.359  1.00  0.00    -0.237 OA
ATOM     82  O   UNL A   1      50.859  29.940  27.575  1.00  0.00    -0.237 OA
ATOM     83  O   UNL A   1      50.765  31.869  26.052  1.00  0.00    -0.744 OA
ENDBRANCH  79  80
ENDBRANCH  47  72
BRANCH  59  84
ATOM     84  C   UNL A   1      41.118  32.586  32.321  1.00  0.00     0.058 A 
ATOM     85  C   UNL A   1      41.654  32.945  33.558  1.00  0.00     0.135 A 
ATOM     86  C   UNL A   1      40.549  31.294  32.259  1.00  0.00     0.135 A 
ATOM     87  F   UNL A   1      42.234  34.145  33.709  1.00  0.00    -0.206 F 
ATOM     88  C   UNL A   1      41.591  32.093  34.673  1.00  0.00     0.059 A 
ATOM     89  C   UNL A   1      40.468  30.423  33.349  1.00  0.00     0.059 A 
ATOM     90  F   UNL A   1      40.021  30.850  31.121  1.00  0.00    -0.206 F 
ATOM     91  C   UNL A   1      40.983  30.838  34.565  1.00  0.00     0.060 A 
BRANCH  91  92
ATOM     92  S   UNL A   1      40.848  29.778  36.026  1.00  0.00     0.124 S 
ATOM     93  O   UNL A   1      41.300  28.486  35.519  1.00  0.00    -0.237 OA
ATOM     94  O   UNL A   1      41.748  30.439  36.966  1.00  0.00    -0.237 OA
ATOM     95  O   UNL A   1      39.430  29.842  36.374  1.00  0.00    -0.744 OA
ENDBRANCH  91  92
ENDBRANCH  59  84
ENDBRANCH  33  34
ENDBRANCH  26  28
ENDBRANCH  25  26
ENDBRANCH  24  25
ENDBRANCH  23  24
ENDBRANCH   1  23
TORSDOF 20
ENDMDL
MODEL 2
REMARK VINA RESULT:     -10.6      4.055      6.328
REMARK SMILES C[C@H](CCc1ccco1)NC(=O)c1cccn1CC(=O)OCCOC(=O)c1ccc(-c2c3nc(c(-c4c(F)cc(S(=O)(=O)[O-])cc4F)c4ccc([nH]4)c(-c4c(F)cc(S(=O)(=O)[O-])cc4F)c4nc(c(-c5c(F)cc(S(=O)(=O)[O-])cc5F)c5ccc2[nH]5)C=C4)C=C3)cc1
REMARK SMILES IDX 21 1 19 2 20 3 18 4 17 5 13 6 14 7 15 8 16 9 11 10 10 11
REMARK SMILES IDX 12 13 2 14 1 15 3 16 4 17 5 18 6 19 9 20 7 21 8 22 22 23
REMARK SMILES IDX 23 24 24 25 25 26 26 27 27 28 28 29 92 30 29 31 91 32 30 33
REMARK SMILES IDX 31 34 32 35 85 36 33 37 90 38 84 39 86 40 34 41 89 42 83 43
REMARK SMILES IDX 82 44 35 46 69 47 48 48 68 49 49 50 52 51 67 52 87 53 50 54
REMARK SMILES IDX 51 55 66 57 88 58 53 59 36 60 37 61 46 62 38 63 39 64 45 65
REMARK SMILES IDX 47 66 40 67 41 68 42 69 43 70 44 71 70 72 71 73 80 74 72 75
REMARK SMILES IDX 73 76 79 77 81 78 74 79 75 80 76 81 77 82 78 83 54 84 55 85
REMARK SMILES IDX 64 86 56 87 57 88 63 89 65 90 58 91 59 92 60 93 61 94 62 95
REMARK H PARENT 10 12 86 45 52 56
REMARK Flexibility Score: inf
ROOT
ATOM      1  O   UNL A   1      37.284  22.319  24.685  1.00  0.00    -0.461 OA
ENDROOT
BRANCH   1   2
ATOM      2  C   UNL A   1      36.345  22.743  23.796  1.00  0.00     0.326 C 
ATOM      3  O   UNL A   1      36.594  22.939  22.605  1.00  0.00    -0.250 OA
BRANCH   2   4
ATOM      4  C   UNL A   1      34.976  23.048  24.349  1.00  0.00     0.244 C 
BRANCH   4   5
ATOM      5  N   UNL A   1      33.844  22.191  23.997  1.00  0.00    -0.332 N 
ATOM      6  C   UNL A   1      32.999  22.333  22.907  1.00  0.00     0.107 A 
ATOM      7  C   UNL A   1      32.244  21.162  22.841  1.00  0.00     0.033 A 
ATOM      8  C   UNL A   1      32.603  20.325  23.913  1.00  0.00     0.020 A 
ATOM      9  C   UNL A   1      33.630  20.954  24.563  1.00  0.00     0.087 A 
BRANCH   6  10
ATOM     10  C   UNL A   1      33.000  23.458  22.003  1.00  0.00     0.268 C 
ATOM     11  N   UNL A   1      32.338  24.608  22.335  1.00  0.00    -0.348 N 
ATOM     12  H   UNL A   1      32.285  25.284  21.620  1.00  0.00     0.164 HD
ATOM     13  O   UNL A   1      33.592  23.449  20.915  1.00  0.00    -0.268 OA
BRANCH  11  14
ATOM     14  C   UNL A   1      31.699  24.982  23.593  1.00  0.00     0.079 C 
ATOM     15  C   UNL A   1      30.225  24.602  23.531  1.00  0.00     0.031 C 
BRANCH  14  16
ATOM     16  C   UNL A   1      31.926  26.476  23.886  1.00  0.00     0.032 C 
BRANCH  16  17
ATOM     17  C   UNL A   1      30.760  27.122  24.651  1.00  0.00     0.077 C 
BRANCH  17  18
ATOM     18  C   UNL A   1      30.164  28.248  23.885  1.00  0.00     0.103 A 
ATOM     19  C   UNL A   1      30.388  29.608  23.872  1.00  0.00     0.045 A 
ATOM     20  O   UNL A   1      29.105  27.940  23.082  1.00  0.00    -0.469 OA
ATOM     21  C   UNL A   1      29.390  30.167  23.040  1.00  0.00     0.042 A 
ATOM     22  C   UNL A   1      28.636  29.113  22.582  1.00  0.00     0.195 A 
ENDBRANCH  17  18
ENDBRANCH  16  17
ENDBRANCH  14  16
ENDBRANCH  11  14
ENDBRANCH   6  10
ENDBRANCH   4   5
ENDBRANCH   2   4
ENDBRANCH   1   2
BRANCH   1  23
ATOM     23  C   UNL A   1      37.254  20.903  24.987  1.00  0.00     0.274 C 
BRANCH  23  24
ATOM     24  C   UNL A   1      38.630  20.230  25.130  1.00  0.00     0.275 C 
BRANCH  24  25
ATOM     25  O   UNL A   1      39.497  20.804  26.117  1.00  0.00    -0.458 OA
BRANCH  25  26
ATOM     26  C   UNL A   1      40.749  20.318  25.999  1.00  0.00     0.338 C 
ATOM     27  O   UNL A   1      41.056  19.162  25.769  1.00  0.00    -0.246 OA
BRANCH  26  28
ATOM     28  C   UNL A   1      41.791  21.234  26.430  1.00  0.00     0.060 A 
ATOM     29  C   UNL A   1      41.949  21.368  27.814  1.00  0.00     0.016 A 
ATOM     30  C   UNL A   1      42.136  22.249  25.536  1.00  0.00     0.016 A 
ATOM     31  C   UNL A   1      42.299  22.596  28.329  1.00  0.00     0.010 A 
ATOM     32  C   UNL A   1      42.508  23.476  26.049  1.00  0.00     0.010 A 
ATOM     33  C   UNL A   1      42.556  23.647  27.442  1.00  0.00    -0.014 A 
BRANCH  33  34
ATOM     34  C   UNL A   1      43.190  24.847  28.005  1.00  0.00     0.031 A 
ATOM     35  C   UNL A   1      42.046  25.848  28.405  1.00  0.00     0.074 A 
ATOM     36  C   UNL A   1      44.565  24.839  28.019  1.00  0.00     0.049 A 
ATOM     37  N   UNL A   1      42.020  27.147  28.456  1.00  0.00    -0.248 NA
ATOM     38  C   UNL A   1      40.674  25.297  28.681  1.00  0.00     0.031 C 
ATOM     39  C   UNL A   1      45.447  23.739  27.542  1.00  0.00     0.029 A 
ATOM     40  N   UNL A   1      45.516  25.743  28.427  1.00  0.00    -0.354 N 
ATOM     41  C   UNL A   1      40.755  27.525  28.984  1.00  0.00     0.074 A 
ATOM     42  C   UNL A   1      39.928  26.366  28.957  1.00  0.00     0.031 C 
ATOM     43  C   UNL A   1      46.755  24.095  27.587  1.00  0.00     0.029 A 
ATOM     44  C   UNL A   1      46.878  25.436  28.119  1.00  0.00     0.049 A 
ATOM     45  H   UNL A   1      45.271  26.564  28.911  1.00  0.00     0.167 HD
ATOM     46  C   UNL A   1      40.521  28.723  29.594  1.00  0.00     0.037 A 
ATOM     47  C   UNL A   1      47.983  26.259  28.217  1.00  0.00     0.037 A 
ATOM     48  C   UNL A   1      41.716  29.489  29.607  1.00  0.00     0.049 A 
ATOM     49  C   UNL A   1      47.423  27.499  28.777  1.00  0.00     0.074 A 
ATOM     50  C   UNL A   1      42.306  30.421  28.799  1.00  0.00     0.029 A 
ATOM     51  N   UNL A   1      42.574  29.180  30.629  1.00  0.00    -0.354 N 
ATOM     52  N   UNL A   1      46.960  27.645  29.981  1.00  0.00    -0.248 NA
ATOM     53  C   UNL A   1      47.033  28.491  27.780  1.00  0.00     0.031 C 
ATOM     54  C   UNL A   1      43.625  30.554  29.294  1.00  0.00     0.029 A 
ATOM     55  C   UNL A   1      43.827  29.522  30.212  1.00  0.00     0.049 A 
ATOM     56  H   UNL A   1      42.333  28.786  31.498  1.00  0.00     0.167 HD
ATOM     57  C   UNL A   1      45.985  28.603  29.837  1.00  0.00     0.074 A 
ATOM     58  C   UNL A   1      46.085  29.104  28.470  1.00  0.00     0.031 C 
ATOM     59  C   UNL A   1      44.921  28.709  30.672  1.00  0.00     0.037 A 
BRANCH  46  60
ATOM     60  C   UNL A   1      39.433  29.229  30.526  1.00  0.00     0.058 A 
ATOM     61  C   UNL A   1      38.733  30.395  30.119  1.00  0.00     0.135 A 
ATOM     62  C   UNL A   1      39.361  28.923  31.894  1.00  0.00     0.135 A 
ATOM     63  F   UNL A   1      38.658  30.732  28.820  1.00  0.00    -0.206 F 
ATOM     64  C   UNL A   1      38.175  31.294  31.020  1.00  0.00     0.059 A 
ATOM     65  C   UNL A   1      38.744  29.785  32.815  1.00  0.00     0.059 A 
ATOM     66  F   UNL A   1      39.948  27.825  32.388  1.00  0.00    -0.206 F 
ATOM     67  C   UNL A   1      38.215  30.999  32.374  1.00  0.00     0.060 A 
BRANCH  67  68
ATOM     68  S   UNL A   1      37.577  32.234  33.528  1.00  0.00     0.124 S 
ATOM     69  O   UNL A   1      36.163  32.276  33.175  1.00  0.00    -0.237 OA
ATOM     70  O   UNL A   1      37.885  31.633  34.823  1.00  0.00    -0.237 OA
ATOM     71  O   UNL A   1      38.351  33.428  33.203  1.00  0.00    -0.744 OA
ENDBRANCH  67  68
ENDBRANCH  46  60
BRANCH  47  72
ATOM     72  C   UNL A   1      49.397  26.350  27.651  1.00  0.00     0.058 A 
ATOM     73  C   UNL A   1      50.579  26.504  28.383  1.00  0.00     0.135 A 
ATOM     74  C   UNL A   1      49.614  26.119  26.256  1.00  0.00     0.135 A 
ATOM     75  F   UNL A   1      50.541  26.888  29.666  1.00  0.00    -0.206 F 
ATOM     76  C   UNL A   1      51.854  26.260  27.823  1.00  0.00     0.059 A 
ATOM     77  C   UNL A   1      50.854  25.817  25.691  1.00  0.00     0.059 A 
ATOM     78  F   UNL A   1      48.602  26.134  25.376  1.00  0.00    -0.206 F 
ATOM     79  C   UNL A   1      51.975  25.850  26.494  1.00  0.00     0.060 A 
BRANCH  79  80
ATOM     80  S   UNL A   1      53.551  25.236  25.845  1.00  0.00     0.124 S 
ATOM     81  O   UNL A   1      54.398  25.244  27.033  1.00  0.00    -0.237 OA
ATOM     82  O   UNL A   1      53.185  23.919  25.332  1.00  0.00    -0.237 OA
ATOM     83  O   UNL A   1      53.898  26.217  24.819  1.00  0.00    -0.744 OA
ENDBRANCH  79  80
ENDBRANCH  47  72
BRANCH  59  84
ATOM     84  C   UNL A   1      44.834  27.673  31.787  1.00  0.00     0.058 A 
ATOM     85  C   UNL A   1      45.527  27.821  32.989  1.00  0.00     0.135 A 
ATOM     86  C   UNL A   1      44.077  26.485  31.667  1.00  0.00     0.135 A 
ATOM     87  F   UNL A   1      46.289  28.906  33.188  1.00  0.00    -0.206 F 
ATOM     88  C   UNL A   1      45.440  26.872  34.022  1.00  0.00     0.059 A 
ATOM     89  C   UNL A   1      43.967  25.522  32.674  1.00  0.00     0.059 A 
ATOM     90  F   UNL A   1      43.388  26.241  30.555  1.00  0.00    -0.206 F 
ATOM     91  C   UNL A   1      44.646  25.731  33.863  1.00  0.00     0.060 A 
BRANCH  91  92
ATOM     92  S   UNL A   1      44.489  24.551  35.226  1.00  0.00     0.124 S 
ATOM     93  O   UNL A   1      43.270  23.828  34.877  1.00  0.00    -0.237 OA
ATOM     94  O   UNL A   1      45.729  23.791  35.115  1.00  0.00    -0.237 OA
ATOM     95  O   UNL A   1      44.384  25.400  36.412  1.00  0.00    -0.744 OA
ENDBRANCH  91  92
ENDBRANCH  59  84
ENDBRANCH  33  34
ENDBRANCH  26  28
ENDBRANCH  25  26
ENDBRANCH  24  25
ENDBRANCH  23  24
ENDBRANCH   1  23
TORSDOF 20
ENDMDL
MODEL 3
REMARK VINA RESULT:     -10.6      4.094      6.458
REMARK SMILES C[C@H](CCc1ccco1)NC(=O)c1cccn1CC(=O)OCCOC(=O)c1ccc(-c2c3nc(c(-c4c(F)cc(S(=O)(=O)[O-])cc4F)c4ccc([nH]4)c(-c4c(F)cc(S(=O)(=O)[O-])cc4F)c4nc(c(-c5c(F)cc(S(=O)(=O)[O-])cc5F)c5ccc2[nH]5)C=C4)C=C3)cc1
REMARK SMILES IDX 21 1 19 2 20 3 18 4 17 5 13 6 14 7 15 8 16 9 11 10 10 11
REMARK SMILES IDX 12 13 2 14 1 15 3 16 4 17 5 18 6 19 9 20 7 21 8 22 22 23
REMARK SMILES IDX 23 24 24 25 25 26 26 27 27 28 28 29 92 30 29 31 91 32 30 33
REMARK SMILES IDX 31 34 32 35 85 36 33 37 90 38 84 39 86 40 34 41 89 42 83 43
REMARK SMILES IDX 82 44 35 46 69 47 48 48 68 49 49 50 52 51 67 52 87 53 50 54
REMARK SMILES IDX 51 55 66 57 88 58 53 59 36 60 37 61 46 62 38 63 39 64 45 65
REMARK SMILES IDX 47 66 40 67 41 68 42 69 43 70 44 71 70 72 71 73 80 74 72 75
REMARK SMILES IDX 73 76 79 77 81 78 74 79 75 80 76 81 77 82 78 83 54 84 55 85
REMARK SMILES IDX 64 86 56 87 57 88 63 89 65 90 58 91 59 92 60 93 61 94 62 95
REMARK H PARENT 10 12 86 45 52 56
REMARK Flexibility Score: inf
ROOT
ATOM      1  O   UNL A   1      37.725  21.521  25.067  1.00  0.00    -0.461 OA
ENDROOT
BRANCH   1   2
ATOM      2  C   UNL A   1      36.758  22.198  24.390  1.00  0.00     0.326 C 
ATOM      3  O   UNL A   1      36.925  22.637  23.250  1.00  0.00    -0.250 OA
BRANCH   2   4
ATOM      4  C   UNL A   1      35.472  22.467  25.130  1.00  0.00     0.244 C 
BRANCH   4   5
ATOM      5  N   UNL A   1      34.210  21.943  24.607  1.00  0.00    -0.332 N 
ATOM      6  C   UNL A   1      33.354  22.571  23.714  1.00  0.00     0.107 A 
ATOM      7  C   UNL A   1      32.429  21.607  23.315  1.00  0.00     0.033 A 
ATOM      8  C   UNL A   1      32.699  20.405  23.994  1.00  0.00     0.020 A 
ATOM      9  C   UNL A   1      33.834  20.625  24.725  1.00  0.00     0.087 A 
BRANCH   6  10
ATOM     10  C   UNL A   1      33.490  23.934  23.260  1.00  0.00     0.268 C 
ATOM     11  N   UNL A   1      32.947  24.959  23.986  1.00  0.00    -0.348 N 
ATOM     12  H   UNL A   1      32.978  25.844  23.554  1.00  0.00     0.164 HD
ATOM     13  O   UNL A   1      34.097  24.243  22.227  1.00  0.00    -0.268 OA
BRANCH  11  14
ATOM     14  C   UNL A   1      32.328  24.935  25.309  1.00  0.00     0.079 C 
ATOM     15  C   UNL A   1      30.815  24.863  25.145  1.00  0.00     0.031 C 
BRANCH  14  16
ATOM     16  C   UNL A   1      32.789  26.146  26.139  1.00  0.00     0.032 C 
BRANCH  16  17
ATOM     17  C   UNL A   1      32.693  27.473  25.371  1.00  0.00     0.077 C 
BRANCH  17  18
ATOM     18  C   UNL A   1      33.369  28.576  26.104  1.00  0.00     0.103 A 
ATOM     19  C   UNL A   1      34.562  28.667  26.788  1.00  0.00     0.045 A 
ATOM     20  O   UNL A   1      32.661  29.735  26.240  1.00  0.00    -0.469 OA
ATOM     21  C   UNL A   1      34.571  29.941  27.403  1.00  0.00     0.042 A 
ATOM     22  C   UNL A   1      33.394  30.552  27.040  1.00  0.00     0.195 A 
ENDBRANCH  17  18
ENDBRANCH  16  17
ENDBRANCH  14  16
ENDBRANCH  11  14
ENDBRANCH   6  10
ENDBRANCH   4   5
ENDBRANCH   2   4
ENDBRANCH   1   2
BRANCH   1  23
ATOM     23  C   UNL A   1      37.715  20.084  24.885  1.00  0.00     0.274 C 
BRANCH  23  24
ATOM     24  C   UNL A   1      38.961  19.346  25.404  1.00  0.00     0.275 C 
BRANCH  24  25
ATOM     25  O   UNL A   1      39.846  20.127  26.218  1.00  0.00    -0.458 OA
BRANCH  25  26
ATOM     26  C   UNL A   1      41.124  19.726  26.061  1.00  0.00     0.338 C 
ATOM     27  O   UNL A   1      41.503  18.586  25.857  1.00  0.00    -0.246 OA
BRANCH  26  28
ATOM     28  C   UNL A   1      42.115  20.727  26.415  1.00  0.00     0.060 A 
ATOM     29  C   UNL A   1      42.200  21.046  27.775  1.00  0.00     0.016 A 
ATOM     30  C   UNL A   1      42.473  21.630  25.412  1.00  0.00     0.016 A 
ATOM     31  C   UNL A   1      42.486  22.342  28.140  1.00  0.00     0.010 A 
ATOM     32  C   UNL A   1      42.781  22.926  25.776  1.00  0.00     0.010 A 
ATOM     33  C   UNL A   1      42.755  23.278  27.135  1.00  0.00    -0.014 A 
BRANCH  33  34
ATOM     34  C   UNL A   1      43.323  24.563  27.564  1.00  0.00     0.031 A 
ATOM     35  C   UNL A   1      42.128  25.545  27.838  1.00  0.00     0.074 A 
ATOM     36  C   UNL A   1      44.696  24.624  27.589  1.00  0.00     0.049 A 
ATOM     37  N   UNL A   1      42.039  26.839  27.742  1.00  0.00    -0.248 NA
ATOM     38  C   UNL A   1      40.780  24.963  28.164  1.00  0.00     0.031 C 
ATOM     39  C   UNL A   1      45.636  23.522  27.248  1.00  0.00     0.029 A 
ATOM     40  N   UNL A   1      45.598  25.614  27.901  1.00  0.00    -0.354 N 
ATOM     41  C   UNL A   1      40.750  27.212  28.214  1.00  0.00     0.074 A 
ATOM     42  C   UNL A   1      39.979  26.018  28.311  1.00  0.00     0.031 C 
ATOM     43  C   UNL A   1      46.925  23.943  27.263  1.00  0.00     0.029 A 
ATOM     44  C   UNL A   1      46.977  25.341  27.640  1.00  0.00     0.049 A 
ATOM     45  H   UNL A   1      45.307  26.471  28.287  1.00  0.00     0.167 HD
ATOM     46  C   UNL A   1      40.452  28.458  28.683  1.00  0.00     0.037 A 
ATOM     47  C   UNL A   1      48.040  26.222  27.654  1.00  0.00     0.037 A 
ATOM     48  C   UNL A   1      41.608  29.278  28.618  1.00  0.00     0.049 A 
ATOM     49  C   UNL A   1      47.414  27.489  28.065  1.00  0.00     0.074 A 
ATOM     50  C   UNL A   1      42.164  30.141  27.714  1.00  0.00     0.029 A 
ATOM     51  N   UNL A   1      42.465  29.129  29.675  1.00  0.00    -0.354 N 
ATOM     52  N   UNL A   1      46.929  27.746  29.241  1.00  0.00    -0.248 NA
ATOM     53  C   UNL A   1      46.991  28.342  26.959  1.00  0.00     0.031 C 
ATOM     54  C   UNL A   1      43.468  30.394  28.202  1.00  0.00     0.029 A 
ATOM     55  C   UNL A   1      43.707  29.482  29.233  1.00  0.00     0.049 A 
ATOM     56  H   UNL A   1      42.232  28.824  30.582  1.00  0.00     0.167 HD
ATOM     57  C   UNL A   1      45.910  28.634  28.982  1.00  0.00     0.074 A 
ATOM     58  C   UNL A   1      46.006  28.981  27.567  1.00  0.00     0.031 C 
ATOM     59  C   UNL A   1      44.832  28.781  29.790  1.00  0.00     0.037 A 
BRANCH  46  60
ATOM     60  C   UNL A   1      39.328  29.012  29.542  1.00  0.00     0.058 A 
ATOM     61  C   UNL A   1      38.466  29.963  28.934  1.00  0.00     0.135 A 
ATOM     62  C   UNL A   1      39.331  29.005  30.946  1.00  0.00     0.135 A 
ATOM     63  F   UNL A   1      38.314  29.996  27.599  1.00  0.00    -0.206 F 
ATOM     64  C   UNL A   1      37.813  30.958  29.652  1.00  0.00     0.059 A 
ATOM     65  C   UNL A   1      38.626  29.962  31.693  1.00  0.00     0.059 A 
ATOM     66  F   UNL A   1      40.075  28.126  31.630  1.00  0.00    -0.206 F 
ATOM     67  C   UNL A   1      37.926  30.972  31.034  1.00  0.00     0.060 A 
BRANCH  67  68
ATOM     68  S   UNL A   1      37.154  32.338  31.930  1.00  0.00     0.124 S 
ATOM     69  O   UNL A   1      37.952  32.388  33.150  1.00  0.00    -0.237 OA
ATOM     70  O   UNL A   1      37.342  33.456  31.009  1.00  0.00    -0.237 OA
ATOM     71  O   UNL A   1      35.773  31.897  32.090  1.00  0.00    -0.744 OA
ENDBRANCH  67  68
ENDBRANCH  46  60
BRANCH  47  72
ATOM     72  C   UNL A   1      49.456  26.318  27.093  1.00  0.00     0.058 A 
ATOM     73  C   UNL A   1      50.645  26.337  27.830  1.00  0.00     0.135 A 
ATOM     74  C   UNL A   1      49.660  26.240  25.679  1.00  0.00     0.135 A 
ATOM     75  F   UNL A   1      50.625  26.574  29.149  1.00  0.00    -0.206 F 
ATOM     76  C   UNL A   1      51.907  26.107  27.237  1.00  0.00     0.059 A 
ATOM     77  C   UNL A   1      50.886  25.953  25.075  1.00  0.00     0.059 A 
ATOM     78  F   UNL A   1      48.648  26.398  24.813  1.00  0.00    -0.206 F 
ATOM     79  C   UNL A   1      52.008  25.846  25.869  1.00  0.00     0.060 A 
BRANCH  79  80
ATOM     80  S   UNL A   1      53.556  25.245  25.144  1.00  0.00     0.124 S 
ATOM     81  O   UNL A   1      53.473  25.748  23.778  1.00  0.00    -0.237 OA
ATOM     82  O   UNL A   1      54.563  25.874  25.994  1.00  0.00    -0.237 OA
ATOM     83  O   UNL A   1      53.454  23.795  25.289  1.00  0.00    -0.744 OA
ENDBRANCH  79  80
ENDBRANCH  47  72
BRANCH  59  84
ATOM     84  C   UNL A   1      44.779  27.873  31.015  1.00  0.00     0.058 A 
ATOM     85  C   UNL A   1      44.083  26.664  31.009  1.00  0.00     0.135 A 
ATOM     86  C   UNL A   1      45.398  28.209  32.240  1.00  0.00     0.135 A 
ATOM     87  F   UNL A   1      43.445  26.270  29.897  1.00  0.00    -0.206 F 
ATOM     88  C   UNL A   1      44.041  25.822  32.133  1.00  0.00     0.059 A 
ATOM     89  C   UNL A   1      45.378  27.394  33.376  1.00  0.00     0.059 A 
ATOM     90  F   UNL A   1      46.078  29.348  32.356  1.00  0.00    -0.206 F 
ATOM     91  C   UNL A   1      44.704  26.187  33.309  1.00  0.00     0.060 A 
BRANCH  91  92
ATOM     92  S   UNL A   1      44.698  25.062  34.727  1.00  0.00     0.124 S 
ATOM     93  O   UNL A   1      43.522  24.237  34.468  1.00  0.00    -0.237 OA
ATOM     94  O   UNL A   1      45.985  24.389  34.588  1.00  0.00    -0.237 OA
ATOM     95  O   UNL A   1      44.584  25.954  35.880  1.00  0.00    -0.744 OA
ENDBRANCH  91  92
ENDBRANCH  59  84
ENDBRANCH  33  34
ENDBRANCH  26  28
ENDBRANCH  25  26
ENDBRANCH  24  25
ENDBRANCH  23  24
ENDBRANCH   1  23
TORSDOF 20
ENDMDL
