MODEL 1
REMARK VINA RESULT:      -8.9      0.000      0.000
REMARK SMILES CC/C=C/C/C=C/C/C=C/C/C=C/CCSCCCC(=O)OCCOC(=O)c1ccc(-c2c3nc(c(-c4c(F)cc(S(=O)(=O)[O-])cc4F)c4ccc([nH]4)c(-c4c(F)cc(S(=O)(=O)[O-])cc4F)c4nc(c(-c5c(F)cc(S(=O)(=O)[O-])cc5F)c5ccc2[nH]5)C=C4)C=C3)cc1
REMARK SMILES IDX 17 1 16 2 15 3 14 4 13 5 12 6 11 7 10 8 9 9 8 10 7 11 6 12
REMARK SMILES IDX 5 13 4 14 3 15 2 16 1 17 18 18 19 19 20 20 21 21 22 22 23 23
REMARK SMILES IDX 24 24 25 25 26 26 27 27 28 28 29 29 93 30 30 31 92 32 31 33
REMARK SMILES IDX 32 34 33 35 86 36 34 37 91 38 85 39 87 40 35 41 90 42 84 43
REMARK SMILES IDX 83 44 36 46 70 47 49 48 69 49 50 50 53 51 68 52 88 53 51 54
REMARK SMILES IDX 52 55 67 57 89 58 54 59 37 60 38 61 47 62 39 63 40 64 46 65
REMARK SMILES IDX 48 66 41 67 42 68 43 69 44 70 45 71 71 72 72 73 81 74 73 75
REMARK SMILES IDX 74 76 80 77 82 78 75 79 76 80 77 81 78 82 79 83 55 84 56 85
REMARK SMILES IDX 65 86 57 87 58 88 64 89 66 90 59 91 60 92 61 93 62 94 63 95
REMARK H PARENT 87 45 53 56
REMARK Flexibility Score: inf
ROOT
ATOM      1  C   UNL A   1      33.079  22.208  26.363  1.00  0.00     0.070 C 
ENDROOT
BRANCH   1   2
ATOM      2  S   UNL A   1      31.490  22.244  25.457  1.00  0.00    -0.162 SA
BRANCH   2   3
ATOM      3  C   UNL A   1      31.895  22.340  23.669  1.00  0.00     0.073 C 
BRANCH   3   4
ATOM      4  C   UNL A   1      32.384  23.689  23.109  1.00  0.00     0.038 C 
BRANCH   4   5
ATOM      5  C   UNL A   1      31.322  24.735  22.867  1.00  0.00    -0.030 C 
ATOM      6  C   UNL A   1      30.318  25.019  23.723  1.00  0.00    -0.027 C 
BRANCH   6   7
ATOM      7  C   UNL A   1      29.223  26.051  23.533  1.00  0.00     0.054 C 
BRANCH   7   8
ATOM      8  C   UNL A   1      29.639  27.426  23.984  1.00  0.00    -0.027 C 
ATOM      9  C   UNL A   1      30.069  28.410  23.171  1.00  0.00    -0.027 C 
BRANCH   9  10
ATOM     10  C   UNL A   1      30.400  29.795  23.658  1.00  0.00     0.054 C 
BRANCH  10  11
ATOM     11  C   UNL A   1      31.194  29.783  24.926  1.00  0.00    -0.027 C 
ATOM     12  C   UNL A   1      32.518  29.570  24.988  1.00  0.00    -0.027 C 
BRANCH  12  13
ATOM     13  C   UNL A   1      33.276  29.482  26.281  1.00  0.00     0.054 C 
BRANCH  13  14
ATOM     14  C   UNL A   1      33.710  28.060  26.486  1.00  0.00    -0.027 C 
ATOM     15  C   UNL A   1      33.280  27.018  25.762  1.00  0.00    -0.031 C 
BRANCH  15  16
ATOM     16  C   UNL A   1      33.645  25.598  26.072  1.00  0.00     0.023 C 
ATOM     17  C   UNL A   1      34.829  25.154  25.226  1.00  0.00     0.008 C 
ENDBRANCH  15  16
ENDBRANCH  13  14
ENDBRANCH  12  13
ENDBRANCH  10  11
ENDBRANCH   9  10
ENDBRANCH   7   8
ENDBRANCH   6   7
ENDBRANCH   4   5
ENDBRANCH   3   4
ENDBRANCH   2   3
ENDBRANCH   1   2
BRANCH   1  18
ATOM     18  C   UNL A   1      33.934  20.937  26.438  1.00  0.00     0.023 C 
BRANCH  18  19
ATOM     19  C   UNL A   1      34.825  20.607  25.256  1.00  0.00     0.123 C 
BRANCH  19  20
ATOM     20  C   UNL A   1      35.857  21.652  24.923  1.00  0.00     0.305 C 
ATOM     21  O   UNL A   1      35.889  22.193  23.828  1.00  0.00    -0.252 OA
BRANCH  20  22
ATOM     22  O   UNL A   1      36.749  21.860  25.924  1.00  0.00    -0.462 OA
BRANCH  22  23
ATOM     23  C   UNL A   1      38.056  22.324  25.553  1.00  0.00     0.274 C 
BRANCH  23  24
ATOM     24  C   UNL A   1      38.300  23.799  25.851  1.00  0.00     0.275 C 
BRANCH  24  25
ATOM     25  O   UNL A   1      39.421  24.003  26.718  1.00  0.00    -0.458 OA
BRANCH  25  26
ATOM     26  C   UNL A   1      40.188  25.070  26.392  1.00  0.00     0.338 C 
ATOM     27  O   UNL A   1      40.620  25.373  25.296  1.00  0.00    -0.246 OA
BRANCH  26  28
ATOM     28  C   UNL A   1      40.353  25.909  27.581  1.00  0.00     0.060 A 
ATOM     29  C   UNL A   1      39.456  25.770  28.644  1.00  0.00     0.016 A 
ATOM     30  C   UNL A   1      41.350  26.880  27.602  1.00  0.00     0.016 A 
ATOM     31  C   UNL A   1      39.527  26.623  29.733  1.00  0.00     0.010 A 
ATOM     32  C   UNL A   1      41.433  27.728  28.701  1.00  0.00     0.010 A 
ATOM     33  C   UNL A   1      40.501  27.622  29.752  1.00  0.00    -0.014 A 
BRANCH  33  34
ATOM     34  C   UNL A   1      40.418  28.694  30.762  1.00  0.00     0.031 A 
ATOM     35  C   UNL A   1      41.364  28.616  31.923  1.00  0.00     0.074 A 
ATOM     36  C   UNL A   1      39.544  29.706  30.634  1.00  0.00     0.049 A 
ATOM     37  N   UNL A   1      41.393  29.324  33.018  1.00  0.00    -0.248 NA
ATOM     38  C   UNL A   1      42.409  27.578  31.846  1.00  0.00     0.031 C 
ATOM     39  C   UNL A   1      38.639  29.911  29.503  1.00  0.00     0.029 A 
ATOM     40  N   UNL A   1      39.271  30.752  31.475  1.00  0.00    -0.354 N 
ATOM     41  C   UNL A   1      42.426  28.789  33.776  1.00  0.00     0.074 A 
ATOM     42  C   UNL A   1      42.973  27.674  33.038  1.00  0.00     0.031 C 
ATOM     43  C   UNL A   1      37.898  31.010  29.729  1.00  0.00     0.029 A 
ATOM     44  C   UNL A   1      38.248  31.557  31.036  1.00  0.00     0.049 A 
ATOM     45  H   UNL A   1      39.762  30.912  32.314  1.00  0.00     0.167 HD
ATOM     46  C   UNL A   1      42.883  29.206  34.978  1.00  0.00     0.037 A 
ATOM     47  C   UNL A   1      37.650  32.599  31.644  1.00  0.00     0.037 A 
ATOM     48  C   UNL A   1      42.347  30.342  35.673  1.00  0.00     0.049 A 
ATOM     49  C   UNL A   1      38.141  33.013  33.008  1.00  0.00     0.074 A 
ATOM     50  C   UNL A   1      42.736  30.871  36.888  1.00  0.00     0.029 A 
ATOM     51  N   UNL A   1      41.305  31.131  35.203  1.00  0.00    -0.354 N 
ATOM     52  N   UNL A   1      39.112  32.497  33.728  1.00  0.00    -0.248 NA
ATOM     53  C   UNL A   1      37.460  34.147  33.644  1.00  0.00     0.031 C 
ATOM     54  C   UNL A   1      41.898  31.952  37.176  1.00  0.00     0.029 A 
ATOM     55  C   UNL A   1      41.025  32.133  36.114  1.00  0.00     0.049 A 
ATOM     56  H   UNL A   1      40.835  30.996  34.348  1.00  0.00     0.167 HD
ATOM     57  C   UNL A   1      39.181  33.268  34.884  1.00  0.00     0.074 A 
ATOM     58  C   UNL A   1      38.160  34.288  34.761  1.00  0.00     0.031 C 
ATOM     59  C   UNL A   1      40.013  33.148  35.949  1.00  0.00     0.037 A 
BRANCH  46  60
ATOM     60  C   UNL A   1      43.985  28.405  35.611  1.00  0.00     0.058 A 
ATOM     61  C   UNL A   1      43.724  27.352  36.502  1.00  0.00     0.135 A 
ATOM     62  C   UNL A   1      45.326  28.710  35.333  1.00  0.00     0.135 A 
ATOM     63  F   UNL A   1      42.459  27.037  36.828  1.00  0.00    -0.206 F 
ATOM     64  C   UNL A   1      44.754  26.654  37.124  1.00  0.00     0.059 A 
ATOM     65  C   UNL A   1      46.373  28.002  35.916  1.00  0.00     0.059 A 
ATOM     66  F   UNL A   1      45.633  29.715  34.498  1.00  0.00    -0.206 F 
ATOM     67  C   UNL A   1      46.075  26.986  36.824  1.00  0.00     0.060 A 
BRANCH  67  68
ATOM     68  S   UNL A   1      47.399  26.071  37.638  1.00  0.00     0.124 S 
ATOM     69  O   UNL A   1      47.281  24.761  37.004  1.00  0.00    -0.237 OA
ATOM     70  O   UNL A   1      48.582  26.846  37.275  1.00  0.00    -0.237 OA
ATOM     71  O   UNL A   1      47.030  26.119  39.049  1.00  0.00    -0.744 OA
ENDBRANCH  67  68
ENDBRANCH  46  60
BRANCH  47  72
ATOM     72  C   UNL A   1      36.528  33.316  30.980  1.00  0.00     0.058 A 
ATOM     73  C   UNL A   1      36.771  34.245  29.957  1.00  0.00     0.135 A 
ATOM     74  C   UNL A   1      35.193  33.102  31.361  1.00  0.00     0.135 A 
ATOM     75  F   UNL A   1      38.029  34.490  29.560  1.00  0.00    -0.206 F 
ATOM     76  C   UNL A   1      35.738  34.955  29.354  1.00  0.00     0.059 A 
ATOM     77  C   UNL A   1      34.139  33.780  30.752  1.00  0.00     0.059 A 
ATOM     78  F   UNL A   1      34.900  32.213  32.323  1.00  0.00    -0.206 F 
ATOM     79  C   UNL A   1      34.424  34.715  29.759  1.00  0.00     0.060 A 
BRANCH  79  80
ATOM     80  S   UNL A   1      33.091  35.628  28.951  1.00  0.00     0.124 S 
ATOM     81  O   UNL A   1      32.482  34.590  28.126  1.00  0.00    -0.237 OA
ATOM     82  O   UNL A   1      32.300  36.084  30.089  1.00  0.00    -0.237 OA
ATOM     83  O   UNL A   1      33.796  36.678  28.223  1.00  0.00    -0.744 OA
ENDBRANCH  79  80
ENDBRANCH  47  72
BRANCH  59  84
ATOM     84  C   UNL A   1      39.893  34.174  37.041  1.00  0.00     0.058 A 
ATOM     85  C   UNL A   1      40.398  35.475  36.896  1.00  0.00     0.135 A 
ATOM     86  C   UNL A   1      39.191  33.869  38.219  1.00  0.00     0.135 A 
ATOM     87  F   UNL A   1      41.082  35.815  35.792  1.00  0.00    -0.206 F 
ATOM     88  C   UNL A   1      40.228  36.433  37.889  1.00  0.00     0.059 A 
ATOM     89  C   UNL A   1      38.980  34.820  39.211  1.00  0.00     0.059 A 
ATOM     90  F   UNL A   1      38.675  32.642  38.402  1.00  0.00    -0.206 F 
ATOM     91  C   UNL A   1      39.512  36.097  39.040  1.00  0.00     0.060 A 
BRANCH  91  92
ATOM     92  S   UNL A   1      39.256  37.365  40.298  1.00  0.00     0.124 S 
ATOM     93  O   UNL A   1      40.629  37.684  40.677  1.00  0.00    -0.237 OA
ATOM     94  O   UNL A   1      38.546  38.402  39.555  1.00  0.00    -0.237 OA
ATOM     95  O   UNL A   1      38.466  36.680  41.317  1.00  0.00    -0.744 OA
ENDBRANCH  91  92
ENDBRANCH  59  84
ENDBRANCH  33  34
ENDBRANCH  26  28
ENDBRANCH  25  26
ENDBRANCH  24  25
ENDBRANCH  23  24
ENDBRANCH  22  23
ENDBRANCH  20  22
ENDBRANCH  19  20
ENDBRANCH  18  19
ENDBRANCH   1  18
TORSDOF 27
ENDMDL
MODEL 2
REMARK VINA RESULT:      -8.7      6.707     12.193
REMARK SMILES CC/C=C/C/C=C/C/C=C/C/C=C/CCSCCCC(=O)OCCOC(=O)c1ccc(-c2c3nc(c(-c4c(F)cc(S(=O)(=O)[O-])cc4F)c4ccc([nH]4)c(-c4c(F)cc(S(=O)(=O)[O-])cc4F)c4nc(c(-c5c(F)cc(S(=O)(=O)[O-])cc5F)c5ccc2[nH]5)C=C4)C=C3)cc1
REMARK SMILES IDX 17 1 16 2 15 3 14 4 13 5 12 6 11 7 10 8 9 9 8 10 7 11 6 12
REMARK SMILES IDX 5 13 4 14 3 15 2 16 1 17 18 18 19 19 20 20 21 21 22 22 23 23
REMARK SMILES IDX 24 24 25 25 26 26 27 27 28 28 29 29 93 30 30 31 92 32 31 33
REMARK SMILES IDX 32 34 33 35 86 36 34 37 91 38 85 39 87 40 35 41 90 42 84 43
REMARK SMILES IDX 83 44 36 46 70 47 49 48 69 49 50 50 53 51 68 52 88 53 51 54
REMARK SMILES IDX 52 55 67 57 89 58 54 59 37 60 38 61 47 62 39 63 40 64 46 65
REMARK SMILES IDX 48 66 41 67 42 68 43 69 44 70 45 71 71 72 72 73 81 74 73 75
REMARK SMILES IDX 74 76 80 77 82 78 75 79 76 80 77 81 78 82 79 83 55 84 56 85
REMARK SMILES IDX 65 86 57 87 58 88 64 89 66 90 59 91 60 92 61 93 62 94 63 95
REMARK H PARENT 87 45 53 56
REMARK Flexibility Score: inf
ROOT
ATOM      1  C   UNL A   1      33.642  26.924  25.330  1.00  0.00     0.070 C 
ENDROOT
BRANCH   1   2
ATOM      2  S   UNL A   1      32.356  25.999  26.246  1.00  0.00    -0.162 SA
BRANCH   2   3
ATOM      3  C   UNL A   1      30.752  26.815  25.886  1.00  0.00     0.073 C 
BRANCH   3   4
ATOM      4  C   UNL A   1      29.800  26.133  24.884  1.00  0.00     0.038 C 
BRANCH   4   5
ATOM      5  C   UNL A   1      30.419  25.675  23.585  1.00  0.00    -0.030 C 
ATOM      6  C   UNL A   1      31.198  26.443  22.794  1.00  0.00    -0.027 C 
BRANCH   6   7
ATOM      7  C   UNL A   1      31.840  26.039  21.480  1.00  0.00     0.054 C 
BRANCH   7   8
ATOM      8  C   UNL A   1      32.905  24.989  21.655  1.00  0.00    -0.027 C 
ATOM      9  C   UNL A   1      33.069  24.230  22.755  1.00  0.00    -0.027 C 
BRANCH   9  10
ATOM     10  C   UNL A   1      34.099  23.137  22.855  1.00  0.00     0.054 C 
BRANCH  10  11
ATOM     11  C   UNL A   1      33.797  22.161  23.946  1.00  0.00    -0.027 C 
ATOM     12  C   UNL A   1      32.916  21.154  23.839  1.00  0.00    -0.027 C 
BRANCH  12  13
ATOM     13  C   UNL A   1      32.572  20.238  24.979  1.00  0.00     0.054 C 
BRANCH  13  14
ATOM     14  C   UNL A   1      33.162  18.886  24.701  1.00  0.00    -0.027 C 
ATOM     15  C   UNL A   1      32.478  17.734  24.729  1.00  0.00    -0.031 C 
BRANCH  15  16
ATOM     16  C   UNL A   1      33.126  16.392  24.564  1.00  0.00     0.023 C 
ATOM     17  C   UNL A   1      32.571  15.403  25.578  1.00  0.00     0.008 C 
ENDBRANCH  15  16
ENDBRANCH  13  14
ENDBRANCH  12  13
ENDBRANCH  10  11
ENDBRANCH   9  10
ENDBRANCH   7   8
ENDBRANCH   6   7
ENDBRANCH   4   5
ENDBRANCH   3   4
ENDBRANCH   2   3
ENDBRANCH   1   2
BRANCH   1  18
ATOM     18  C   UNL A   1      33.952  28.393  25.643  1.00  0.00     0.023 C 
BRANCH  18  19
ATOM     19  C   UNL A   1      32.884  29.426  25.341  1.00  0.00     0.123 C 
BRANCH  19  20
ATOM     20  C   UNL A   1      32.589  30.386  26.462  1.00  0.00     0.305 C 
ATOM     21  O   UNL A   1      31.648  31.163  26.409  1.00  0.00    -0.252 OA
BRANCH  20  22
ATOM     22  O   UNL A   1      33.500  30.330  27.467  1.00  0.00    -0.462 OA
BRANCH  22  23
ATOM     23  C   UNL A   1      33.877  31.572  28.081  1.00  0.00     0.274 C 
BRANCH  23  24
ATOM     24  C   UNL A   1      35.267  31.560  28.707  1.00  0.00     0.275 C 
BRANCH  24  25
ATOM     25  O   UNL A   1      35.736  30.233  28.969  1.00  0.00    -0.458 OA
BRANCH  25  26
ATOM     26  C   UNL A   1      36.455  30.113  30.111  1.00  0.00     0.338 C 
ATOM     27  O   UNL A   1      36.038  30.037  31.251  1.00  0.00    -0.246 OA
BRANCH  26  28
ATOM     28  C   UNL A   1      37.871  29.978  29.763  1.00  0.00     0.060 A 
ATOM     29  C   UNL A   1      38.237  29.894  28.417  1.00  0.00     0.016 A 
ATOM     30  C   UNL A   1      38.817  29.860  30.776  1.00  0.00     0.016 A 
ATOM     31  C   UNL A   1      39.557  29.661  28.065  1.00  0.00     0.010 A 
ATOM     32  C   UNL A   1      40.146  29.641  30.426  1.00  0.00     0.010 A 
ATOM     33  C   UNL A   1      40.511  29.508  29.072  1.00  0.00    -0.014 A 
BRANCH  33  34
ATOM     34  C   UNL A   1      41.851  28.997  28.727  1.00  0.00     0.031 A 
ATOM     35  C   UNL A   1      42.983  29.981  28.735  1.00  0.00     0.074 A 
ATOM     36  C   UNL A   1      42.048  27.699  28.437  1.00  0.00     0.049 A 
ATOM     37  N   UNL A   1      44.210  29.835  28.318  1.00  0.00    -0.248 NA
ATOM     38  C   UNL A   1      42.678  31.322  29.266  1.00  0.00     0.031 C 
ATOM     39  C   UNL A   1      41.028  26.653  28.480  1.00  0.00     0.029 A 
ATOM     40  N   UNL A   1      43.184  27.044  28.041  1.00  0.00    -0.354 N 
ATOM     41  C   UNL A   1      44.808  31.075  28.495  1.00  0.00     0.074 A 
ATOM     42  C   UNL A   1      43.803  31.971  29.018  1.00  0.00     0.031 C 
ATOM     43  C   UNL A   1      41.581  25.486  28.108  1.00  0.00     0.029 A 
ATOM     44  C   UNL A   1      42.980  25.714  27.762  1.00  0.00     0.049 A 
ATOM     45  H   UNL A   1      44.061  27.484  27.964  1.00  0.00     0.167 HD
ATOM     46  C   UNL A   1      46.091  31.427  28.254  1.00  0.00     0.037 A 
ATOM     47  C   UNL A   1      43.831  24.800  27.256  1.00  0.00     0.037 A 
ATOM     48  C   UNL A   1      47.082  30.506  27.771  1.00  0.00     0.049 A 
ATOM     49  C   UNL A   1      45.242  25.228  26.944  1.00  0.00     0.074 A 
ATOM     50  C   UNL A   1      48.417  30.738  27.503  1.00  0.00     0.029 A 
ATOM     51  N   UNL A   1      46.839  29.167  27.491  1.00  0.00    -0.354 N 
ATOM     52  N   UNL A   1      45.803  26.406  27.102  1.00  0.00    -0.248 NA
ATOM     53  C   UNL A   1      46.138  24.207  26.387  1.00  0.00     0.031 C 
ATOM     54  C   UNL A   1      48.972  29.552  27.016  1.00  0.00     0.029 A 
ATOM     55  C   UNL A   1      47.998  28.564  27.035  1.00  0.00     0.049 A 
ATOM     56  H   UNL A   1      45.973  28.715  27.601  1.00  0.00     0.167 HD
ATOM     57  C   UNL A   1      47.125  26.256  26.699  1.00  0.00     0.074 A 
ATOM     58  C   UNL A   1      47.281  24.874  26.298  1.00  0.00     0.031 C 
ATOM     59  C   UNL A   1      48.123  27.176  26.664  1.00  0.00     0.037 A 
BRANCH  46  60
ATOM     60  C   UNL A   1      46.467  32.863  28.480  1.00  0.00     0.058 A 
ATOM     61  C   UNL A   1      47.034  33.305  29.687  1.00  0.00     0.135 A 
ATOM     62  C   UNL A   1      46.238  33.817  27.477  1.00  0.00     0.135 A 
ATOM     63  F   UNL A   1      47.246  32.439  30.693  1.00  0.00    -0.206 F 
ATOM     64  C   UNL A   1      47.327  34.646  29.904  1.00  0.00     0.059 A 
ATOM     65  C   UNL A   1      46.556  35.160  27.659  1.00  0.00     0.059 A 
ATOM     66  F   UNL A   1      45.688  33.453  26.309  1.00  0.00    -0.206 F 
ATOM     67  C   UNL A   1      47.085  35.566  28.884  1.00  0.00     0.060 A 
BRANCH  67  68
ATOM     68  S   UNL A   1      47.472  37.303  29.181  1.00  0.00     0.124 S 
ATOM     69  O   UNL A   1      48.784  37.422  28.554  1.00  0.00    -0.237 OA
ATOM     70  O   UNL A   1      46.378  37.987  28.496  1.00  0.00    -0.237 OA
ATOM     71  O   UNL A   1      47.461  37.411  30.637  1.00  0.00    -0.744 OA
ENDBRANCH  67  68
ENDBRANCH  46  60
BRANCH  47  72
ATOM     72  C   UNL A   1      43.377  23.405  27.009  1.00  0.00     0.058 A 
ATOM     73  C   UNL A   1      43.329  22.468  28.052  1.00  0.00     0.135 A 
ATOM     74  C   UNL A   1      42.996  22.973  25.728  1.00  0.00     0.135 A 
ATOM     75  F   UNL A   1      43.687  22.827  29.294  1.00  0.00    -0.206 F 
ATOM     76  C   UNL A   1      42.947  21.148  27.831  1.00  0.00     0.059 A 
ATOM     77  C   UNL A   1      42.583  21.665  25.488  1.00  0.00     0.059 A 
ATOM     78  F   UNL A   1      43.008  23.831  24.695  1.00  0.00    -0.206 F 
ATOM     79  C   UNL A   1      42.576  20.756  26.544  1.00  0.00     0.060 A 
BRANCH  79  80
ATOM     80  S   UNL A   1      42.060  19.045  26.277  1.00  0.00     0.124 S 
ATOM     81  O   UNL A   1      42.988  18.618  25.236  1.00  0.00    -0.237 OA
ATOM     82  O   UNL A   1      42.265  18.456  27.596  1.00  0.00    -0.237 OA
ATOM     83  O   UNL A   1      40.666  19.175  25.865  1.00  0.00    -0.744 OA
ENDBRANCH  79  80
ENDBRANCH  47  72
BRANCH  59  84
ATOM     84  C   UNL A   1      49.483  26.707  26.229  1.00  0.00     0.058 A 
ATOM     85  C   UNL A   1      49.963  26.930  24.929  1.00  0.00     0.135 A 
ATOM     86  C   UNL A   1      50.345  26.093  27.153  1.00  0.00     0.135 A 
ATOM     87  F   UNL A   1      49.176  27.506  24.007  1.00  0.00    -0.206 F 
ATOM     88  C   UNL A   1      51.246  26.543  24.555  1.00  0.00     0.059 A 
ATOM     89  C   UNL A   1      51.642  25.730  26.810  1.00  0.00     0.059 A 
ATOM     90  F   UNL A   1      49.939  25.870  28.413  1.00  0.00    -0.206 F 
ATOM     91  C   UNL A   1      52.080  25.950  25.505  1.00  0.00     0.060 A 
BRANCH  91  92
ATOM     92  S   UNL A   1      53.758  25.501  25.019  1.00  0.00     0.124 S 
ATOM     93  O   UNL A   1      54.556  26.340  25.908  1.00  0.00    -0.237 OA
ATOM     94  O   UNL A   1      53.791  24.069  25.300  1.00  0.00    -0.237 OA
ATOM     95  O   UNL A   1      53.810  25.858  23.605  1.00  0.00    -0.744 OA
ENDBRANCH  91  92
ENDBRANCH  59  84
ENDBRANCH  33  34
ENDBRANCH  26  28
ENDBRANCH  25  26
ENDBRANCH  24  25
ENDBRANCH  23  24
ENDBRANCH  22  23
ENDBRANCH  20  22
ENDBRANCH  19  20
ENDBRANCH  18  19
ENDBRANCH   1  18
TORSDOF 27
ENDMDL
MODEL 3
REMARK VINA RESULT:      -8.5      3.255      9.660
REMARK SMILES CC/C=C/C/C=C/C/C=C/C/C=C/CCSCCCC(=O)OCCOC(=O)c1ccc(-c2c3nc(c(-c4c(F)cc(S(=O)(=O)[O-])cc4F)c4ccc([nH]4)c(-c4c(F)cc(S(=O)(=O)[O-])cc4F)c4nc(c(-c5c(F)cc(S(=O)(=O)[O-])cc5F)c5ccc2[nH]5)C=C4)C=C3)cc1
REMARK SMILES IDX 17 1 16 2 15 3 14 4 13 5 12 6 11 7 10 8 9 9 8 10 7 11 6 12
REMARK SMILES IDX 5 13 4 14 3 15 2 16 1 17 18 18 19 19 20 20 21 21 22 22 23 23
REMARK SMILES IDX 24 24 25 25 26 26 27 27 28 28 29 29 93 30 30 31 92 32 31 33
REMARK SMILES IDX 32 34 33 35 86 36 34 37 91 38 85 39 87 40 35 41 90 42 84 43
REMARK SMILES IDX 83 44 36 46 70 47 49 48 69 49 50 50 53 51 68 52 88 53 51 54
REMARK SMILES IDX 52 55 67 57 89 58 54 59 37 60 38 61 47 62 39 63 40 64 46 65
REMARK SMILES IDX 48 66 41 67 42 68 43 69 44 70 45 71 71 72 72 73 81 74 73 75
REMARK SMILES IDX 74 76 80 77 82 78 75 79 76 80 77 81 78 82 79 83 55 84 56 85
REMARK SMILES IDX 65 86 57 87 58 88 64 89 66 90 59 91 60 92 61 93 62 94 63 95
REMARK H PARENT 87 45 53 56
REMARK Flexibility Score: inf
ROOT
ATOM      1  C   UNL A   1      33.276  26.479  24.060  1.00  0.00     0.070 C 
ENDROOT
BRANCH   1   2
ATOM      2  S   UNL A   1      33.245  25.716  25.724  1.00  0.00    -0.162 SA
BRANCH   2   3
ATOM      3  C   UNL A   1      31.483  25.415  26.141  1.00  0.00     0.073 C 
BRANCH   3   4
ATOM      4  C   UNL A   1      30.959  23.967  26.074  1.00  0.00     0.038 C 
BRANCH   4   5
ATOM      5  C   UNL A   1      31.885  22.899  26.605  1.00  0.00    -0.030 C 
ATOM      6  C   UNL A   1      32.715  22.156  25.843  1.00  0.00    -0.027 C 
BRANCH   6   7
ATOM      7  C   UNL A   1      33.660  21.069  26.318  1.00  0.00     0.054 C 
BRANCH   7   8
ATOM      8  C   UNL A   1      34.900  20.967  25.469  1.00  0.00    -0.027 C 
ATOM      9  C   UNL A   1      35.648  22.012  25.065  1.00  0.00    -0.027 C 
BRANCH   9  10
ATOM     10  C   UNL A   1      36.924  21.856  24.282  1.00  0.00     0.054 C 
BRANCH  10  11
ATOM     11  C   UNL A   1      38.115  21.645  25.161  1.00  0.00    -0.027 C 
ATOM     12  C   UNL A   1      38.526  22.511  26.101  1.00  0.00    -0.027 C 
BRANCH  12  13
ATOM     13  C   UNL A   1      39.773  22.311  26.913  1.00  0.00     0.054 C 
BRANCH  13  14
ATOM     14  C   UNL A   1      40.736  21.479  26.116  1.00  0.00    -0.027 C 
ATOM     15  C   UNL A   1      41.324  20.359  26.557  1.00  0.00    -0.031 C 
BRANCH  15  16
ATOM     16  C   UNL A   1      42.369  19.620  25.777  1.00  0.00     0.023 C 
ATOM     17  C   UNL A   1      42.744  18.325  26.481  1.00  0.00     0.008 C 
ENDBRANCH  15  16
ENDBRANCH  13  14
ENDBRANCH  12  13
ENDBRANCH  10  11
ENDBRANCH   9  10
ENDBRANCH   7   8
ENDBRANCH   6   7
ENDBRANCH   4   5
ENDBRANCH   3   4
ENDBRANCH   2   3
ENDBRANCH   1   2
BRANCH   1  18
ATOM     18  C   UNL A   1      33.566  27.972  23.865  1.00  0.00     0.023 C 
BRANCH  18  19
ATOM     19  C   UNL A   1      32.462  28.845  23.301  1.00  0.00     0.123 C 
BRANCH  19  20
ATOM     20  C   UNL A   1      31.319  29.116  24.243  1.00  0.00     0.305 C 
ATOM     21  O   UNL A   1      30.217  29.448  23.833  1.00  0.00    -0.252 OA
BRANCH  20  22
ATOM     22  O   UNL A   1      31.669  29.015  25.551  1.00  0.00    -0.462 OA
BRANCH  22  23
ATOM     23  C   UNL A   1      31.834  30.239  26.282  1.00  0.00     0.274 C 
BRANCH  23  24
ATOM     24  C   UNL A   1      33.287  30.675  26.445  1.00  0.00     0.275 C 
BRANCH  24  25
ATOM     25  O   UNL A   1      33.625  30.948  27.808  1.00  0.00    -0.458 OA
BRANCH  25  26
ATOM     26  C   UNL A   1      34.584  31.893  27.964  1.00  0.00     0.338 C 
ATOM     27  O   UNL A   1      34.459  33.101  27.898  1.00  0.00    -0.246 OA
BRANCH  26  28
ATOM     28  C   UNL A   1      35.835  31.233  28.343  1.00  0.00     0.060 A 
ATOM     29  C   UNL A   1      35.806  29.897  28.750  1.00  0.00     0.016 A 
ATOM     30  C   UNL A   1      37.017  31.967  28.362  1.00  0.00     0.016 A 
ATOM     31  C   UNL A   1      36.958  29.282  29.213  1.00  0.00     0.010 A 
ATOM     32  C   UNL A   1      38.179  31.348  28.812  1.00  0.00     0.010 A 
ATOM     33  C   UNL A   1      38.144  30.016  29.269  1.00  0.00    -0.014 A 
BRANCH  33  34
ATOM     34  C   UNL A   1      39.300  29.467  30.002  1.00  0.00     0.031 A 
ATOM     35  C   UNL A   1      39.544  29.993  31.386  1.00  0.00     0.074 A 
ATOM     36  C   UNL A   1      40.085  28.522  29.460  1.00  0.00     0.049 A 
ATOM     37  N   UNL A   1      40.566  29.806  32.174  1.00  0.00    -0.248 NA
ATOM     38  C   UNL A   1      38.500  30.871  31.946  1.00  0.00     0.031 C 
ATOM     39  C   UNL A   1      39.881  27.892  28.156  1.00  0.00     0.029 A 
ATOM     40  N   UNL A   1      41.222  27.931  29.943  1.00  0.00    -0.354 N 
ATOM     41  C   UNL A   1      40.309  30.576  33.300  1.00  0.00     0.074 A 
ATOM     42  C   UNL A   1      39.058  31.263  33.079  1.00  0.00     0.031 C 
ATOM     43  C   UNL A   1      40.873  27.012  27.935  1.00  0.00     0.029 A 
ATOM     44  C   UNL A   1      41.799  27.049  29.062  1.00  0.00     0.049 A 
ATOM     45  H   UNL A   1      41.591  28.121  30.836  1.00  0.00     0.167 HD
ATOM     46  C   UNL A   1      41.049  30.685  34.426  1.00  0.00     0.037 A 
ATOM     47  C   UNL A   1      42.962  26.376  29.155  1.00  0.00     0.037 A 
ATOM     48  C   UNL A   1      42.271  29.960  34.638  1.00  0.00     0.049 A 
ATOM     49  C   UNL A   1      43.798  26.554  30.397  1.00  0.00     0.074 A 
ATOM     50  C   UNL A   1      43.101  29.974  35.741  1.00  0.00     0.029 A 
ATOM     51  N   UNL A   1      42.831  29.080  33.721  1.00  0.00    -0.354 N 
ATOM     52  N   UNL A   1      43.557  27.292  31.456  1.00  0.00    -0.248 NA
ATOM     53  C   UNL A   1      45.062  25.810  30.459  1.00  0.00     0.031 C 
ATOM     54  C   UNL A   1      44.190  29.139  35.473  1.00  0.00     0.029 A 
ATOM     55  C   UNL A   1      44.008  28.559  34.227  1.00  0.00     0.049 A 
ATOM     56  H   UNL A   1      42.447  28.860  32.842  1.00  0.00     0.167 HD
ATOM     57  C   UNL A   1      44.621  27.072  32.325  1.00  0.00     0.074 A 
ATOM     58  C   UNL A   1      45.500  26.127  31.670  1.00  0.00     0.031 C 
ATOM     59  C   UNL A   1      44.850  27.600  33.554  1.00  0.00     0.037 A 
BRANCH  46  60
ATOM     60  C   UNL A   1      40.567  31.641  35.479  1.00  0.00     0.058 A 
ATOM     61  C   UNL A   1      41.196  32.875  35.710  1.00  0.00     0.135 A 
ATOM     62  C   UNL A   1      39.465  31.308  36.281  1.00  0.00     0.135 A 
ATOM     63  F   UNL A   1      42.274  33.231  34.991  1.00  0.00    -0.206 F 
ATOM     64  C   UNL A   1      40.773  33.729  36.723  1.00  0.00     0.059 A 
ATOM     65  C   UNL A   1      39.002  32.162  37.279  1.00  0.00     0.059 A 
ATOM     66  F   UNL A   1      38.833  30.137  36.111  1.00  0.00    -0.206 F 
ATOM     67  C   UNL A   1      39.675  33.363  37.502  1.00  0.00     0.060 A 
BRANCH  67  68
ATOM     68  S   UNL A   1      39.138  34.481  38.812  1.00  0.00     0.124 S 
ATOM     69  O   UNL A   1      40.210  34.320  39.790  1.00  0.00    -0.237 OA
ATOM     70  O   UNL A   1      39.095  35.767  38.125  1.00  0.00    -0.237 OA
ATOM     71  O   UNL A   1      37.841  33.942  39.210  1.00  0.00    -0.744 OA
ENDBRANCH  67  68
ENDBRANCH  46  60
BRANCH  47  72
ATOM     72  C   UNL A   1      43.405  25.482  28.051  1.00  0.00     0.058 A 
ATOM     73  C   UNL A   1      44.120  25.991  26.956  1.00  0.00     0.135 A 
ATOM     74  C   UNL A   1      43.114  24.108  28.056  1.00  0.00     0.135 A 
ATOM     75  F   UNL A   1      44.420  27.297  26.899  1.00  0.00    -0.206 F 
ATOM     76  C   UNL A   1      44.507  25.178  25.894  1.00  0.00     0.059 A 
ATOM     77  C   UNL A   1      43.515  23.270  27.019  1.00  0.00     0.059 A 
ATOM     78  F   UNL A   1      42.446  23.564  29.086  1.00  0.00    -0.206 F 
ATOM     79  C   UNL A   1      44.199  23.817  25.936  1.00  0.00     0.060 A 
BRANCH  79  80
ATOM     80  S   UNL A   1      44.727  22.770  24.561  1.00  0.00     0.124 S 
ATOM     81  O   UNL A   1      43.478  22.594  23.829  1.00  0.00    -0.237 OA
ATOM     82  O   UNL A   1      45.735  23.603  23.914  1.00  0.00    -0.237 OA
ATOM     83  O   UNL A   1      45.242  21.577  25.226  1.00  0.00    -0.744 OA
ENDBRANCH  79  80
ENDBRANCH  47  72
BRANCH  59  84
ATOM     84  C   UNL A   1      46.071  27.128  34.294  1.00  0.00     0.058 A 
ATOM     85  C   UNL A   1      47.304  27.789  34.185  1.00  0.00     0.135 A 
ATOM     86  C   UNL A   1      45.981  26.045  35.183  1.00  0.00     0.135 A 
ATOM     87  F   UNL A   1      47.445  28.826  33.345  1.00  0.00    -0.206 F 
ATOM     88  C   UNL A   1      48.412  27.379  34.920  1.00  0.00     0.059 A 
ATOM     89  C   UNL A   1      47.065  25.639  35.952  1.00  0.00     0.059 A 
ATOM     90  F   UNL A   1      44.819  25.387  35.334  1.00  0.00    -0.206 F 
ATOM     91  C   UNL A   1      48.280  26.307  35.806  1.00  0.00     0.060 A 
BRANCH  91  92
ATOM     92  S   UNL A   1      49.711  25.819  36.789  1.00  0.00     0.124 S 
ATOM     93  O   UNL A   1      50.125  27.096  37.360  1.00  0.00    -0.237 OA
ATOM     94  O   UNL A   1      49.133  24.862  37.727  1.00  0.00    -0.237 OA
ATOM     95  O   UNL A   1      50.623  25.247  35.802  1.00  0.00    -0.744 OA
ENDBRANCH  91  92
ENDBRANCH  59  84
ENDBRANCH  33  34
ENDBRANCH  26  28
ENDBRANCH  25  26
ENDBRANCH  24  25
ENDBRANCH  23  24
ENDBRANCH  22  23
ENDBRANCH  20  22
ENDBRANCH  19  20
ENDBRANCH  18  19
ENDBRANCH   1  18
TORSDOF 27
ENDMDL
