MODEL 1
REMARK VINA RESULT:     -12.5      0.000      0.000
REMARK SMILES CC(C)(C)c1cc2c(cc1Cl)C=C(C(=O)OCCOC(=O)c1ccc(-c3c4nc(c(-c5c(F)cc(S(=O)(=O)[O-])cc5F)c5ccc([nH]5)c(-c5c(F)cc(S(=O)(=O)[O-])cc5F)c5nc(c(-c6c(F)cc(S(=O)(=O)[O-])cc6F)c6ccc3[nH]6)C=C5)C=C4)cc1)[C@H](C(F)(F)F)O2
REMARK SMILES IDX 18 1 17 2 16 3 14 4 15 5 13 6 5 7 6 8 10 9 7 10 9 11 11 12
REMARK SMILES IDX 8 13 93 14 12 15 88 16 2 17 1 18 3 19 4 20 89 21 90 22 91 23
REMARK SMILES IDX 92 24 19 25 20 26 21 27 22 28 23 29 87 30 24 31 86 32 25 33
REMARK SMILES IDX 26 34 27 35 80 36 28 37 85 38 79 39 81 40 29 41 84 42 78 43
REMARK SMILES IDX 77 44 30 46 64 47 43 48 63 49 44 50 47 51 62 52 82 53 45 54
REMARK SMILES IDX 46 55 61 57 83 58 48 59 31 60 32 61 41 62 33 63 34 64 40 65
REMARK SMILES IDX 42 66 35 67 36 68 37 69 38 70 39 71 65 72 66 73 75 74 67 75
REMARK SMILES IDX 68 76 74 77 76 78 69 79 70 80 71 81 72 82 73 83 49 84 50 85
REMARK SMILES IDX 59 86 51 87 52 88 58 89 60 90 53 91 54 92 55 93 56 94 57 95
REMARK H PARENT 81 45 47 56
REMARK Flexibility Score: inf
ROOT
ATOM      1  C   UNL A   1      40.591  22.636  26.569  1.00  0.00     0.275 C 
ENDROOT
BRANCH   1   2
ATOM      2  C   UNL A   1      39.547  21.606  26.127  1.00  0.00     0.275 C 
BRANCH   2   3
ATOM      3  O   UNL A   1      38.275  22.234  25.861  1.00  0.00    -0.459 OA
BRANCH   3   4
ATOM      4  C   UNL A   1      37.361  21.471  25.219  1.00  0.00     0.338 C 
ATOM      5  O   UNL A   1      37.573  20.379  24.729  1.00  0.00    -0.246 OA
BRANCH   4   6
ATOM      6  C   UNL A   1      36.018  22.089  25.275  1.00  0.00     0.087 C 
ATOM      7  C   UNL A   1      32.283  25.522  25.140  1.00  0.00    -0.020 A 
ATOM      8  C   UNL A   1      32.483  24.264  25.786  1.00  0.00     0.053 A 
ATOM      9  C   UNL A   1      33.343  25.981  24.326  1.00  0.00     0.045 A 
ATOM     10  C   UNL A   1      33.661  23.523  25.643  1.00  0.00     0.128 A 
ATOM     11  C   UNL A   1      34.525  25.239  24.199  1.00  0.00     0.032 A 
ATOM     12  Cl  UNL A   1      33.384  27.486  23.481  1.00  0.00    -0.084 Cl
ATOM     13  C   UNL A   1      34.692  24.040  24.883  1.00  0.00     0.019 A 
ATOM     14  O   UNL A   1      33.785  22.347  26.341  1.00  0.00    -0.475 OA
ATOM     15  C   UNL A   1      35.971  23.368  24.881  1.00  0.00     0.027 C 
ATOM     16  C   UNL A   1      34.812  21.400  25.862  1.00  0.00     0.316 C 
BRANCH   7  17
ATOM     17  C   UNL A   1      31.005  26.336  25.479  1.00  0.00    -0.012 C 
ATOM     18  C   UNL A   1      29.903  25.456  26.127  1.00  0.00     0.016 C 
ATOM     19  C   UNL A   1      30.300  27.037  24.294  1.00  0.00     0.016 C 
ATOM     20  C   UNL A   1      31.423  27.417  26.499  1.00  0.00     0.016 C 
ENDBRANCH   7  17
BRANCH  16  21
ATOM     21  C   UNL A   1      34.123  20.326  25.002  1.00  0.00     0.430 C 
ATOM     22  F   UNL A   1      33.601  20.827  23.862  1.00  0.00    -0.167 F 
ATOM     23  F   UNL A   1      34.933  19.300  24.670  1.00  0.00    -0.167 F 
ATOM     24  F   UNL A   1      33.093  19.772  25.702  1.00  0.00    -0.167 F 
ENDBRANCH  16  21
ENDBRANCH   4   6
ENDBRANCH   3   4
ENDBRANCH   2   3
ENDBRANCH   1   2
BRANCH   1  25
ATOM     25  O   UNL A   1      40.115  23.983  26.373  1.00  0.00    -0.458 OA
BRANCH  25  26
ATOM     26  C   UNL A   1      41.055  24.953  26.435  1.00  0.00     0.338 C 
ATOM     27  O   UNL A   1      41.978  25.139  25.657  1.00  0.00    -0.246 OA
BRANCH  26  28
ATOM     28  C   UNL A   1      40.727  25.886  27.523  1.00  0.00     0.060 A 
ATOM     29  C   UNL A   1      39.670  25.677  28.403  1.00  0.00     0.016 A 
ATOM     30  C   UNL A   1      41.598  26.951  27.727  1.00  0.00     0.016 A 
ATOM     31  C   UNL A   1      39.487  26.572  29.471  1.00  0.00     0.010 A 
ATOM     32  C   UNL A   1      41.468  27.788  28.830  1.00  0.00     0.010 A 
ATOM     33  C   UNL A   1      40.391  27.629  29.706  1.00  0.00    -0.014 A 
BRANCH  33  34
ATOM     34  C   UNL A   1      40.229  28.563  30.859  1.00  0.00     0.031 A 
ATOM     35  C   UNL A   1      41.109  28.452  32.083  1.00  0.00     0.074 A 
ATOM     36  C   UNL A   1      39.249  29.491  30.832  1.00  0.00     0.049 A 
ATOM     37  N   UNL A   1      41.113  29.186  33.168  1.00  0.00    -0.248 NA
ATOM     38  C   UNL A   1      42.087  27.351  32.113  1.00  0.00     0.031 C 
ATOM     39  C   UNL A   1      38.256  29.641  29.766  1.00  0.00     0.029 A 
ATOM     40  N   UNL A   1      38.934  30.491  31.720  1.00  0.00    -0.354 N 
ATOM     41  C   UNL A   1      42.072  28.628  34.008  1.00  0.00     0.074 A 
ATOM     42  C   UNL A   1      42.582  27.453  33.337  1.00  0.00     0.031 C 
ATOM     43  C   UNL A   1      37.493  30.715  30.023  1.00  0.00     0.029 A 
ATOM     44  C   UNL A   1      37.918  31.312  31.286  1.00  0.00     0.049 A 
ATOM     45  H   UNL A   1      39.391  30.610  32.582  1.00  0.00     0.167 HD
ATOM     46  C   UNL A   1      42.522  29.072  35.207  1.00  0.00     0.037 A 
ATOM     47  C   UNL A   1      37.402  32.432  31.829  1.00  0.00     0.037 A 
ATOM     48  C   UNL A   1      42.059  30.276  35.847  1.00  0.00     0.049 A 
ATOM     49  C   UNL A   1      37.963  32.949  33.125  1.00  0.00     0.074 A 
ATOM     50  C   UNL A   1      42.509  30.855  37.020  1.00  0.00     0.029 A 
ATOM     51  N   UNL A   1      41.050  31.093  35.359  1.00  0.00    -0.354 N 
ATOM     52  N   UNL A   1      38.923  32.448  33.865  1.00  0.00    -0.248 NA
ATOM     53  C   UNL A   1      37.376  34.187  33.658  1.00  0.00     0.031 C 
ATOM     54  C   UNL A   1      41.759  32.013  37.253  1.00  0.00     0.029 A 
ATOM     55  C   UNL A   1      40.862  32.171  36.208  1.00  0.00     0.049 A 
ATOM     56  H   UNL A   1      40.543  30.931  34.530  1.00  0.00     0.167 HD
ATOM     57  C   UNL A   1      39.061  33.314  34.944  1.00  0.00     0.074 A 
ATOM     58  C   UNL A   1      38.102  34.381  34.751  1.00  0.00     0.031 C 
ATOM     59  C   UNL A   1      39.904  33.227  36.001  1.00  0.00     0.037 A 
BRANCH  46  60
ATOM     60  C   UNL A   1      43.605  28.278  35.889  1.00  0.00     0.058 A 
ATOM     61  C   UNL A   1      43.297  27.203  36.739  1.00  0.00     0.135 A 
ATOM     62  C   UNL A   1      44.962  28.558  35.657  1.00  0.00     0.135 A 
ATOM     63  F   UNL A   1      42.017  26.897  37.003  1.00  0.00    -0.206 F 
ATOM     64  C   UNL A   1      44.291  26.456  37.359  1.00  0.00     0.059 A 
ATOM     65  C   UNL A   1      45.975  27.804  36.246  1.00  0.00     0.059 A 
ATOM     66  F   UNL A   1      45.316  29.569  34.849  1.00  0.00    -0.206 F 
ATOM     67  C   UNL A   1      45.629  26.764  37.107  1.00  0.00     0.060 A 
BRANCH  67  68
ATOM     68  S   UNL A   1      46.904  25.776  37.918  1.00  0.00     0.124 S 
ATOM     69  O   UNL A   1      46.583  24.435  37.438  1.00  0.00    -0.237 OA
ATOM     70  O   UNL A   1      48.134  26.358  37.390  1.00  0.00    -0.237 OA
ATOM     71  O   UNL A   1      46.664  26.007  39.339  1.00  0.00    -0.744 OA
ENDBRANCH  67  68
ENDBRANCH  46  60
BRANCH  47  72
ATOM     72  C   UNL A   1      36.344  33.181  31.102  1.00  0.00     0.058 A 
ATOM     73  C   UNL A   1      35.027  33.206  31.587  1.00  0.00     0.135 A 
ATOM     74  C   UNL A   1      36.628  33.917  29.942  1.00  0.00     0.135 A 
ATOM     75  F   UNL A   1      34.707  32.512  32.690  1.00  0.00    -0.206 F 
ATOM     76  C   UNL A   1      34.028  33.931  30.947  1.00  0.00     0.059 A 
ATOM     77  C   UNL A   1      35.649  34.667  29.296  1.00  0.00     0.059 A 
ATOM     78  F   UNL A   1      37.875  33.938  29.448  1.00  0.00    -0.206 F 
ATOM     79  C   UNL A   1      34.351  34.665  29.805  1.00  0.00     0.060 A 
BRANCH  79  80
ATOM     80  S   UNL A   1      33.059  35.658  29.025  1.00  0.00     0.124 S 
ATOM     81  O   UNL A   1      32.266  36.068  30.177  1.00  0.00    -0.237 OA
ATOM     82  O   UNL A   1      33.833  36.711  28.376  1.00  0.00    -0.237 OA
ATOM     83  O   UNL A   1      32.413  34.715  28.116  1.00  0.00    -0.744 OA
ENDBRANCH  79  80
ENDBRANCH  47  72
BRANCH  59  84
ATOM     84  C   UNL A   1      39.837  34.314  37.035  1.00  0.00     0.058 A 
ATOM     85  C   UNL A   1      40.490  35.542  36.847  1.00  0.00     0.135 A 
ATOM     86  C   UNL A   1      39.049  34.157  38.188  1.00  0.00     0.135 A 
ATOM     87  F   UNL A   1      41.259  35.738  35.764  1.00  0.00    -0.206 F 
ATOM     88  C   UNL A   1      40.374  36.574  37.772  1.00  0.00     0.059 A 
ATOM     89  C   UNL A   1      38.902  35.184  39.115  1.00  0.00     0.059 A 
ATOM     90  F   UNL A   1      38.397  33.005  38.408  1.00  0.00    -0.206 F 
ATOM     91  C   UNL A   1      39.574  36.388  38.901  1.00  0.00     0.060 A 
BRANCH  91  92
ATOM     92  S   UNL A   1      39.393  37.754  40.065  1.00  0.00     0.124 S 
ATOM     93  O   UNL A   1      39.302  37.047  41.338  1.00  0.00    -0.237 OA
ATOM     94  O   UNL A   1      40.620  38.514  39.849  1.00  0.00    -0.237 OA
ATOM     95  O   UNL A   1      38.167  38.416  39.627  1.00  0.00    -0.744 OA
ENDBRANCH  91  92
ENDBRANCH  59  84
ENDBRANCH  33  34
ENDBRANCH  26  28
ENDBRANCH  25  26
ENDBRANCH   1  25
TORSDOF 16
ENDMDL
MODEL 2
REMARK VINA RESULT:     -12.3      0.248      1.181
REMARK SMILES CC(C)(C)c1cc2c(cc1Cl)C=C(C(=O)OCCOC(=O)c1ccc(-c3c4nc(c(-c5c(F)cc(S(=O)(=O)[O-])cc5F)c5ccc([nH]5)c(-c5c(F)cc(S(=O)(=O)[O-])cc5F)c5nc(c(-c6c(F)cc(S(=O)(=O)[O-])cc6F)c6ccc3[nH]6)C=C5)C=C4)cc1)[C@H](C(F)(F)F)O2
REMARK SMILES IDX 18 1 17 2 16 3 14 4 15 5 13 6 5 7 6 8 10 9 7 10 9 11 11 12
REMARK SMILES IDX 8 13 93 14 12 15 88 16 2 17 1 18 3 19 4 20 89 21 90 22 91 23
REMARK SMILES IDX 92 24 19 25 20 26 21 27 22 28 23 29 87 30 24 31 86 32 25 33
REMARK SMILES IDX 26 34 27 35 80 36 28 37 85 38 79 39 81 40 29 41 84 42 78 43
REMARK SMILES IDX 77 44 30 46 64 47 43 48 63 49 44 50 47 51 62 52 82 53 45 54
REMARK SMILES IDX 46 55 61 57 83 58 48 59 31 60 32 61 41 62 33 63 34 64 40 65
REMARK SMILES IDX 42 66 35 67 36 68 37 69 38 70 39 71 65 72 66 73 75 74 67 75
REMARK SMILES IDX 68 76 74 77 76 78 69 79 70 80 71 81 72 82 73 83 49 84 50 85
REMARK SMILES IDX 59 86 51 87 52 88 58 89 60 90 53 91 54 92 55 93 56 94 57 95
REMARK H PARENT 81 45 47 56
REMARK Flexibility Score: inf
ROOT
ATOM      1  C   UNL A   1      40.399  22.886  26.545  1.00  0.00     0.275 C 
ENDROOT
BRANCH   1   2
ATOM      2  C   UNL A   1      39.384  21.798  26.180  1.00  0.00     0.275 C 
BRANCH   2   3
ATOM      3  O   UNL A   1      38.224  22.362  25.535  1.00  0.00    -0.459 OA
BRANCH   3   4
ATOM      4  C   UNL A   1      37.249  21.486  25.200  1.00  0.00     0.338 C 
ATOM      5  O   UNL A   1      37.413  20.308  24.955  1.00  0.00    -0.246 OA
BRANCH   4   6
ATOM      6  C   UNL A   1      35.915  22.123  25.271  1.00  0.00     0.087 C 
ATOM      7  C   UNL A   1      32.232  25.614  25.221  1.00  0.00    -0.020 A 
ATOM      8  C   UNL A   1      32.412  24.336  25.834  1.00  0.00     0.053 A 
ATOM      9  C   UNL A   1      33.300  26.078  24.420  1.00  0.00     0.045 A 
ATOM     10  C   UNL A   1      33.578  23.582  25.674  1.00  0.00     0.128 A 
ATOM     11  C   UNL A   1      34.471  25.322  24.276  1.00  0.00     0.032 A 
ATOM     12  Cl  UNL A   1      33.364  27.604  23.615  1.00  0.00    -0.084 Cl
ATOM     13  C   UNL A   1      34.618  24.103  24.928  1.00  0.00     0.019 A 
ATOM     14  O   UNL A   1      33.685  22.386  26.341  1.00  0.00    -0.475 OA
ATOM     15  C   UNL A   1      35.887  23.412  24.911  1.00  0.00     0.027 C 
ATOM     16  C   UNL A   1      34.697  21.437  25.838  1.00  0.00     0.316 C 
BRANCH   7  17
ATOM     17  C   UNL A   1      30.965  26.438  25.580  1.00  0.00    -0.012 C 
ATOM     18  C   UNL A   1      29.838  25.553  26.176  1.00  0.00     0.016 C 
ATOM     19  C   UNL A   1      30.288  27.202  24.418  1.00  0.00     0.016 C 
ATOM     20  C   UNL A   1      31.391  27.466  26.650  1.00  0.00     0.016 C 
ENDBRANCH   7  17
BRANCH  16  21
ATOM     21  C   UNL A   1      33.994  20.396  24.951  1.00  0.00     0.430 C 
ATOM     22  F   UNL A   1      33.702  20.872  23.721  1.00  0.00    -0.167 F 
ATOM     23  F   UNL A   1      34.697  19.255  24.797  1.00  0.00    -0.167 F 
ATOM     24  F   UNL A   1      32.815  20.028  25.525  1.00  0.00    -0.167 F 
ENDBRANCH  16  21
ENDBRANCH   4   6
ENDBRANCH   3   4
ENDBRANCH   2   3
ENDBRANCH   1   2
BRANCH   1  25
ATOM     25  O   UNL A   1      39.789  24.193  26.542  1.00  0.00    -0.458 OA
BRANCH  25  26
ATOM     26  C   UNL A   1      40.625  25.231  26.311  1.00  0.00     0.338 C 
ATOM     27  O   UNL A   1      41.194  25.503  25.264  1.00  0.00    -0.246 OA
BRANCH  26  28
ATOM     28  C   UNL A   1      40.652  26.114  27.486  1.00  0.00     0.060 A 
ATOM     29  C   UNL A   1      41.489  27.221  27.579  1.00  0.00     0.016 A 
ATOM     30  C   UNL A   1      39.709  25.874  28.479  1.00  0.00     0.016 A 
ATOM     31  C   UNL A   1      41.382  28.064  28.698  1.00  0.00     0.010 A 
ATOM     32  C   UNL A   1      39.544  26.752  29.545  1.00  0.00     0.010 A 
ATOM     33  C   UNL A   1      40.399  27.848  29.687  1.00  0.00    -0.014 A 
BRANCH  33  34
ATOM     34  C   UNL A   1      40.250  28.758  30.862  1.00  0.00     0.031 A 
ATOM     35  C   UNL A   1      41.146  28.622  32.071  1.00  0.00     0.074 A 
ATOM     36  C   UNL A   1      39.269  29.685  30.866  1.00  0.00     0.049 A 
ATOM     37  N   UNL A   1      41.163  29.333  33.172  1.00  0.00    -0.248 NA
ATOM     38  C   UNL A   1      42.124  27.521  32.066  1.00  0.00     0.031 C 
ATOM     39  C   UNL A   1      38.264  29.857  29.815  1.00  0.00     0.029 A 
ATOM     40  N   UNL A   1      38.965  30.667  31.777  1.00  0.00    -0.354 N 
ATOM     41  C   UNL A   1      42.132  28.758  33.987  1.00  0.00     0.074 A 
ATOM     42  C   UNL A   1      42.634  27.598  33.286  1.00  0.00     0.031 C 
ATOM     43  C   UNL A   1      37.503  30.924  30.104  1.00  0.00     0.029 A 
ATOM     44  C   UNL A   1      37.944  31.495  31.374  1.00  0.00     0.049 A 
ATOM     45  H   UNL A   1      39.433  30.768  32.637  1.00  0.00     0.167 HD
ATOM     46  C   UNL A   1      42.596  29.178  35.190  1.00  0.00     0.037 A 
ATOM     47  C   UNL A   1      37.433  32.604  31.946  1.00  0.00     0.037 A 
ATOM     48  C   UNL A   1      42.141  30.368  35.860  1.00  0.00     0.049 A 
ATOM     49  C   UNL A   1      38.010  33.095  33.245  1.00  0.00     0.074 A 
ATOM     50  C   UNL A   1      42.606  30.924  37.040  1.00  0.00     0.029 A 
ATOM     51  N   UNL A   1      41.126  31.195  35.402  1.00  0.00    -0.354 N 
ATOM     52  N   UNL A   1      38.979  32.579  33.962  1.00  0.00    -0.248 NA
ATOM     53  C   UNL A   1      37.429  34.320  33.811  1.00  0.00     0.031 C 
ATOM     54  C   UNL A   1      41.857  32.076  37.305  1.00  0.00     0.029 A 
ATOM     55  C   UNL A   1      40.948  32.254  36.275  1.00  0.00     0.049 A 
ATOM     56  H   UNL A   1      40.609  31.050  34.576  1.00  0.00     0.167 HD
ATOM     57  C   UNL A   1      39.130  33.422  35.057  1.00  0.00     0.074 A 
ATOM     58  C   UNL A   1      38.169  34.493  34.898  1.00  0.00     0.031 C 
ATOM     59  C   UNL A   1      39.987  33.314  36.102  1.00  0.00     0.037 A 
BRANCH  46  60
ATOM     60  C   UNL A   1      43.688  28.371  35.842  1.00  0.00     0.058 A 
ATOM     61  C   UNL A   1      43.391  27.320  36.726  1.00  0.00     0.135 A 
ATOM     62  C   UNL A   1      45.041  28.613  35.547  1.00  0.00     0.135 A 
ATOM     63  F   UNL A   1      42.117  27.051  37.050  1.00  0.00    -0.206 F 
ATOM     64  C   UNL A   1      44.393  26.562  37.319  1.00  0.00     0.059 A 
ATOM     65  C   UNL A   1      46.059  27.846  36.109  1.00  0.00     0.059 A 
ATOM     66  F   UNL A   1      45.384  29.600  34.705  1.00  0.00    -0.206 F 
ATOM     67  C   UNL A   1      45.726  26.832  37.005  1.00  0.00     0.060 A 
BRANCH  67  68
ATOM     68  S   UNL A   1      47.010  25.828  37.781  1.00  0.00     0.124 S 
ATOM     69  O   UNL A   1      46.539  25.766  39.161  1.00  0.00    -0.237 OA
ATOM     70  O   UNL A   1      46.929  24.580  37.029  1.00  0.00    -0.237 OA
ATOM     71  O   UNL A   1      48.227  26.606  37.568  1.00  0.00    -0.744 OA
ENDBRANCH  67  68
ENDBRANCH  46  60
BRANCH  47  72
ATOM     72  C   UNL A   1      36.366  33.367  31.248  1.00  0.00     0.058 A 
ATOM     73  C   UNL A   1      36.652  34.083  30.076  1.00  0.00     0.135 A 
ATOM     74  C   UNL A   1      35.040  33.364  31.705  1.00  0.00     0.135 A 
ATOM     75  F   UNL A   1      37.908  34.120  29.603  1.00  0.00    -0.206 F 
ATOM     76  C   UNL A   1      35.664  34.773  29.382  1.00  0.00     0.059 A 
ATOM     77  C   UNL A   1      34.029  34.029  31.017  1.00  0.00     0.059 A 
ATOM     78  F   UNL A   1      34.712  32.680  32.812  1.00  0.00    -0.206 F 
ATOM     79  C   UNL A   1      34.352  34.734  29.858  1.00  0.00     0.060 A 
BRANCH  79  80
ATOM     80  S   UNL A   1      33.066  35.575  28.909  1.00  0.00     0.124 S 
ATOM     81  O   UNL A   1      32.512  34.478  28.125  1.00  0.00    -0.237 OA
ATOM     82  O   UNL A   1      32.205  36.104  29.962  1.00  0.00    -0.237 OA
ATOM     83  O   UNL A   1      33.809  36.580  28.154  1.00  0.00    -0.744 OA
ENDBRANCH  79  80
ENDBRANCH  47  72
BRANCH  59  84
ATOM     84  C   UNL A   1      39.932  34.380  37.159  1.00  0.00     0.058 A 
ATOM     85  C   UNL A   1      40.625  35.591  37.012  1.00  0.00     0.135 A 
ATOM     86  C   UNL A   1      39.118  34.220  38.293  1.00  0.00     0.135 A 
ATOM     87  F   UNL A   1      41.420  35.788  35.948  1.00  0.00    -0.206 F 
ATOM     88  C   UNL A   1      40.521  36.605  37.957  1.00  0.00     0.059 A 
ATOM     89  C   UNL A   1      38.983  35.231  39.241  1.00  0.00     0.059 A 
ATOM     90  F   UNL A   1      38.428  33.085  38.475  1.00  0.00    -0.206 F 
ATOM     91  C   UNL A   1      39.695  36.418  39.066  1.00  0.00     0.060 A 
BRANCH  91  92
ATOM     92  S   UNL A   1      39.531  37.764  40.258  1.00  0.00     0.124 S 
ATOM     93  O   UNL A   1      39.043  37.055  41.437  1.00  0.00    -0.237 OA
ATOM     94  O   UNL A   1      40.897  38.271  40.345  1.00  0.00    -0.237 OA
ATOM     95  O   UNL A   1      38.573  38.665  39.626  1.00  0.00    -0.744 OA
ENDBRANCH  91  92
ENDBRANCH  59  84
ENDBRANCH  33  34
ENDBRANCH  26  28
ENDBRANCH  25  26
ENDBRANCH   1  25
TORSDOF 16
ENDMDL
MODEL 3
REMARK VINA RESULT:     -12.2      6.834     12.400
REMARK SMILES CC(C)(C)c1cc2c(cc1Cl)C=C(C(=O)OCCOC(=O)c1ccc(-c3c4nc(c(-c5c(F)cc(S(=O)(=O)[O-])cc5F)c5ccc([nH]5)c(-c5c(F)cc(S(=O)(=O)[O-])cc5F)c5nc(c(-c6c(F)cc(S(=O)(=O)[O-])cc6F)c6ccc3[nH]6)C=C5)C=C4)cc1)[C@H](C(F)(F)F)O2
REMARK SMILES IDX 18 1 17 2 16 3 14 4 15 5 13 6 5 7 6 8 10 9 7 10 9 11 11 12
REMARK SMILES IDX 8 13 93 14 12 15 88 16 2 17 1 18 3 19 4 20 89 21 90 22 91 23
REMARK SMILES IDX 92 24 19 25 20 26 21 27 22 28 23 29 87 30 24 31 86 32 25 33
REMARK SMILES IDX 26 34 27 35 80 36 28 37 85 38 79 39 81 40 29 41 84 42 78 43
REMARK SMILES IDX 77 44 30 46 64 47 43 48 63 49 44 50 47 51 62 52 82 53 45 54
REMARK SMILES IDX 46 55 61 57 83 58 48 59 31 60 32 61 41 62 33 63 34 64 40 65
REMARK SMILES IDX 42 66 35 67 36 68 37 69 38 70 39 71 65 72 66 73 75 74 67 75
REMARK SMILES IDX 68 76 74 77 76 78 69 79 70 80 71 81 72 82 73 83 49 84 50 85
REMARK SMILES IDX 59 86 51 87 52 88 58 89 60 90 53 91 54 92 55 93 56 94 57 95
REMARK H PARENT 81 45 47 56
REMARK Flexibility Score: inf
ROOT
ATOM      1  C   UNL A   1      34.997  31.724  29.111  1.00  0.00     0.275 C 
ENDROOT
BRANCH   1   2
ATOM      2  C   UNL A   1      34.162  31.906  27.840  1.00  0.00     0.275 C 
BRANCH   2   3
ATOM      3  O   UNL A   1      34.029  30.661  27.121  1.00  0.00    -0.459 OA
BRANCH   3   4
ATOM      4  C   UNL A   1      32.775  30.331  26.739  1.00  0.00     0.338 C 
ATOM      5  O   UNL A   1      31.772  30.976  26.973  1.00  0.00    -0.246 OA
BRANCH   4   6
ATOM      6  C   UNL A   1      32.779  29.116  25.893  1.00  0.00     0.087 C 
ATOM      7  C   UNL A   1      33.593  24.378  24.269  1.00  0.00    -0.020 A 
ATOM      8  C   UNL A   1      33.387  25.644  23.643  1.00  0.00     0.053 A 
ATOM      9  C   UNL A   1      33.579  24.371  25.683  1.00  0.00     0.045 A 
ATOM     10  C   UNL A   1      33.196  26.822  24.372  1.00  0.00     0.128 A 
ATOM     11  C   UNL A   1      33.400  25.557  26.406  1.00  0.00     0.032 A 
ATOM     12  Cl  UNL A   1      33.857  22.992  26.684  1.00  0.00    -0.084 Cl
ATOM     13  C   UNL A   1      33.247  26.775  25.752  1.00  0.00     0.019 A 
ATOM     14  O   UNL A   1      33.054  28.004  23.686  1.00  0.00    -0.475 OA
ATOM     15  C   UNL A   1      33.232  28.011  26.499  1.00  0.00     0.027 C 
ATOM     16  C   UNL A   1      32.443  29.127  24.424  1.00  0.00     0.316 C 
BRANCH   7  17
ATOM     17  C   UNL A   1      33.945  23.156  23.377  1.00  0.00    -0.012 C 
ATOM     18  C   UNL A   1      33.469  23.344  21.912  1.00  0.00     0.016 C 
ATOM     19  C   UNL A   1      33.353  21.794  23.809  1.00  0.00     0.016 C 
ATOM     20  C   UNL A   1      35.484  23.034  23.375  1.00  0.00     0.016 C 
ENDBRANCH   7  17
BRANCH  16  21
ATOM     21  C   UNL A   1      30.956  29.214  24.038  1.00  0.00     0.430 C 
ATOM     22  F   UNL A   1      30.767  29.267  22.702  1.00  0.00    -0.167 F 
ATOM     23  F   UNL A   1      30.213  28.198  24.522  1.00  0.00    -0.167 F 
ATOM     24  F   UNL A   1      30.414  30.349  24.562  1.00  0.00    -0.167 F 
ENDBRANCH  16  21
ENDBRANCH   4   6
ENDBRANCH   3   4
ENDBRANCH   2   3
ENDBRANCH   1   2
BRANCH   1  25
ATOM     25  O   UNL A   1      35.713  30.472  29.094  1.00  0.00    -0.458 OA
BRANCH  25  26
ATOM     26  C   UNL A   1      36.419  30.183  30.211  1.00  0.00     0.338 C 
ATOM     27  O   UNL A   1      35.982  30.034  31.342  1.00  0.00    -0.246 OA
BRANCH  26  28
ATOM     28  C   UNL A   1      37.819  29.913  29.854  1.00  0.00     0.060 A 
ATOM     29  C   UNL A   1      38.768  29.503  30.784  1.00  0.00     0.016 A 
ATOM     30  C   UNL A   1      38.149  29.967  28.505  1.00  0.00     0.016 A 
ATOM     31  C   UNL A   1      40.061  29.177  30.339  1.00  0.00     0.010 A 
ATOM     32  C   UNL A   1      39.401  29.565  28.052  1.00  0.00     0.010 A 
ATOM     33  C   UNL A   1      40.389  29.190  28.966  1.00  0.00    -0.014 A 
BRANCH  33  34
ATOM     34  C   UNL A   1      41.747  28.809  28.477  1.00  0.00     0.031 A 
ATOM     35  C   UNL A   1      42.871  29.818  28.435  1.00  0.00     0.074 A 
ATOM     36  C   UNL A   1      41.964  27.558  28.020  1.00  0.00     0.049 A 
ATOM     37  N   UNL A   1      44.114  29.656  28.051  1.00  0.00    -0.248 NA
ATOM     38  C   UNL A   1      42.554  31.199  28.837  1.00  0.00     0.031 C 
ATOM     39  C   UNL A   1      40.945  26.513  27.900  1.00  0.00     0.029 A 
ATOM     40  N   UNL A   1      43.115  26.948  27.583  1.00  0.00    -0.354 N 
ATOM     41  C   UNL A   1      44.714  30.908  28.149  1.00  0.00     0.074 A 
ATOM     42  C   UNL A   1      43.684  31.834  28.561  1.00  0.00     0.031 C 
ATOM     43  C   UNL A   1      41.527  25.374  27.493  1.00  0.00     0.029 A 
ATOM     44  C   UNL A   1      42.954  25.613  27.293  1.00  0.00     0.049 A 
ATOM     45  H   UNL A   1      43.972  27.421  27.487  1.00  0.00     0.167 HD
ATOM     46  C   UNL A   1      46.011  31.252  27.957  1.00  0.00     0.037 A 
ATOM     47  C   UNL A   1      43.855  24.678  26.931  1.00  0.00     0.037 A 
ATOM     48  C   UNL A   1      47.050  30.318  27.607  1.00  0.00     0.049 A 
ATOM     49  C   UNL A   1      45.302  25.063  26.793  1.00  0.00     0.074 A 
ATOM     50  C   UNL A   1      48.408  30.552  27.472  1.00  0.00     0.029 A 
ATOM     51  N   UNL A   1      46.849  28.969  27.353  1.00  0.00    -0.354 N 
ATOM     52  N   UNL A   1      45.861  26.237  26.965  1.00  0.00    -0.248 NA
ATOM     53  C   UNL A   1      46.242  23.997  26.418  1.00  0.00     0.031 C 
ATOM     54  C   UNL A   1      49.025  29.348  27.115  1.00  0.00     0.029 A 
ATOM     55  C   UNL A   1      48.056  28.359  27.059  1.00  0.00     0.049 A 
ATOM     56  H   UNL A   1      45.976  28.514  27.378  1.00  0.00     0.167 HD
ATOM     57  C   UNL A   1      47.218  26.048  26.728  1.00  0.00     0.074 A 
ATOM     58  C   UNL A   1      47.400  24.645  26.423  1.00  0.00     0.031 C 
ATOM     59  C   UNL A   1      48.221  26.960  26.758  1.00  0.00     0.037 A 
BRANCH  46  60
ATOM     60  C   UNL A   1      46.394  32.693  28.168  1.00  0.00     0.058 A 
ATOM     61  C   UNL A   1      46.294  33.634  27.129  1.00  0.00     0.135 A 
ATOM     62  C   UNL A   1      46.818  33.153  29.426  1.00  0.00     0.135 A 
ATOM     63  F   UNL A   1      45.904  33.248  25.905  1.00  0.00    -0.206 F 
ATOM     64  C   UNL A   1      46.631  34.968  27.320  1.00  0.00     0.059 A 
ATOM     65  C   UNL A   1      47.134  34.491  29.646  1.00  0.00     0.059 A 
ATOM     66  F   UNL A   1      46.927  32.300  30.456  1.00  0.00    -0.206 F 
ATOM     67  C   UNL A   1      47.051  35.389  28.583  1.00  0.00     0.060 A 
BRANCH  67  68
ATOM     68  S   UNL A   1      47.476  37.129  28.810  1.00  0.00     0.124 S 
ATOM     69  O   UNL A   1      48.934  37.083  28.761  1.00  0.00    -0.237 OA
ATOM     70  O   UNL A   1      46.825  37.761  27.667  1.00  0.00    -0.237 OA
ATOM     71  O   UNL A   1      46.903  37.453  30.112  1.00  0.00    -0.744 OA
ENDBRANCH  67  68
ENDBRANCH  46  60
BRANCH  47  72
ATOM     72  C   UNL A   1      43.420  23.268  26.752  1.00  0.00     0.058 A 
ATOM     73  C   UNL A   1      43.341  22.704  25.469  1.00  0.00     0.135 A 
ATOM     74  C   UNL A   1      43.116  22.446  27.848  1.00  0.00     0.135 A 
ATOM     75  F   UNL A   1      43.616  23.454  24.391  1.00  0.00    -0.206 F 
ATOM     76  C   UNL A   1      42.974  21.377  25.278  1.00  0.00     0.059 A 
ATOM     77  C   UNL A   1      42.767  21.109  27.682  1.00  0.00     0.059 A 
ATOM     78  F   UNL A   1      43.193  22.934  29.095  1.00  0.00    -0.206 F 
ATOM     79  C   UNL A   1      42.696  20.584  26.392  1.00  0.00     0.060 A 
BRANCH  79  80
ATOM     80  S   UNL A   1      42.290  18.844  26.132  1.00  0.00     0.124 S 
ATOM     81  O   UNL A   1      42.506  18.288  27.462  1.00  0.00    -0.237 OA
ATOM     82  O   UNL A   1      40.901  18.917  25.689  1.00  0.00    -0.237 OA
ATOM     83  O   UNL A   1      43.244  18.426  25.109  1.00  0.00    -0.744 OA
ENDBRANCH  79  80
ENDBRANCH  47  72
BRANCH  59  84
ATOM     84  C   UNL A   1      49.610  26.473  26.456  1.00  0.00     0.058 A 
ATOM     85  C   UNL A   1      50.163  26.595  25.172  1.00  0.00     0.135 A 
ATOM     86  C   UNL A   1      50.422  25.952  27.476  1.00  0.00     0.135 A 
ATOM     87  F   UNL A   1      49.425  27.083  24.163  1.00  0.00    -0.206 F 
ATOM     88  C   UNL A   1      51.472  26.207  24.907  1.00  0.00     0.059 A 
ATOM     89  C   UNL A   1      51.742  25.577  27.238  1.00  0.00     0.059 A 
ATOM     90  F   UNL A   1      49.943  25.824  28.723  1.00  0.00    -0.206 F 
ATOM     91  C   UNL A   1      52.255  25.703  25.947  1.00  0.00     0.060 A 
BRANCH  91  92
ATOM     92  S   UNL A   1      53.967  25.252  25.597  1.00  0.00     0.124 S 
ATOM     93  O   UNL A   1      54.440  26.427  24.872  1.00  0.00    -0.237 OA
ATOM     94  O   UNL A   1      54.521  25.068  26.936  1.00  0.00    -0.237 OA
ATOM     95  O   UNL A   1      53.843  24.032  24.804  1.00  0.00    -0.744 OA
ENDBRANCH  91  92
ENDBRANCH  59  84
ENDBRANCH  33  34
ENDBRANCH  26  28
ENDBRANCH  25  26
ENDBRANCH   1  25
TORSDOF 16
ENDMDL
