MODEL 1
REMARK VINA RESULT:     -10.2      0.000      0.000
REMARK SMILES C[C@H](CC(=O)OCCOC(=O)c1ccc(-c2c3nc(c(-c4c(F)cc(S(=O)(=O)[O-])cc4F)c4ccc([nH]4)c(-c4c(F)cc(S(=O)(=O)[O-])cc4F)c4nc(c(-c5c(F)cc(S(=O)(=O)[O-])cc5F)c5ccc2[nH]5)C=C4)C=C3)cc1)NC(=O)Cc1cn2ccsc2n1
REMARK SMILES IDX 7 1 6 2 4 3 5 4 3 5 2 6 1 7 78 8 79 9 80 11 81 12 82 13
REMARK SMILES IDX 83 14 89 15 84 16 88 17 85 18 87 19 86 20 8 21 9 22 10 23
REMARK SMILES IDX 11 24 12 25 13 26 77 27 14 28 76 29 15 30 16 31 17 32 70 33
REMARK SMILES IDX 18 34 75 35 69 36 71 37 19 38 74 39 68 40 67 41 20 43 54 44
REMARK SMILES IDX 33 45 53 46 34 47 37 48 52 49 72 50 35 51 36 52 51 54 73 55
REMARK SMILES IDX 38 56 21 57 22 58 31 59 23 60 24 61 30 62 32 63 25 64 26 65
REMARK SMILES IDX 27 66 28 67 29 68 55 69 56 70 65 71 57 72 58 73 64 74 66 75
REMARK SMILES IDX 59 76 60 77 61 78 62 79 63 80 39 81 40 82 49 83 41 84 42 85
REMARK SMILES IDX 48 86 50 87 43 88 44 89 45 90 46 91 47 92
REMARK H PARENT 78 10 71 42 37 53
REMARK Flexibility Score: inf
ROOT
ATOM      1  C   UNL A   1      33.680  33.884  28.655  1.00  0.00     0.274 C 
ENDROOT
BRANCH   1   2
ATOM      2  O   UNL A   1      33.907  34.828  29.723  1.00  0.00    -0.462 OA
BRANCH   2   3
ATOM      3  C   UNL A   1      33.003  35.837  29.796  1.00  0.00     0.307 C 
ATOM      4  O   UNL A   1      32.217  36.132  28.901  1.00  0.00    -0.252 OA
BRANCH   3   5
ATOM      5  C   UNL A   1      33.080  36.650  31.062  1.00  0.00     0.147 C 
BRANCH   5   6
ATOM      6  C   UNL A   1      32.619  36.040  32.388  1.00  0.00     0.090 C 
ATOM      7  C   UNL A   1      31.205  36.367  32.840  1.00  0.00     0.031 C 
BRANCH   6   8
ATOM      8  N   UNL A   1      32.885  34.614  32.423  1.00  0.00    -0.353 N 
ATOM      9  C   UNL A   1      33.974  33.967  32.942  1.00  0.00     0.226 C 
ATOM     10  H   UNL A   1      32.194  34.037  32.022  1.00  0.00     0.163 HD
ATOM     11  O   UNL A   1      34.115  32.772  32.670  1.00  0.00    -0.275 OA
BRANCH   9  12
ATOM     12  C   UNL A   1      34.892  34.682  33.927  1.00  0.00     0.157 C 
BRANCH  12  13
ATOM     13  C   UNL A   1      36.196  33.994  34.176  1.00  0.00     0.070 A 
ATOM     14  C   UNL A   1      37.382  34.103  33.449  1.00  0.00     0.118 A 
ATOM     15  N   UNL A   1      36.358  33.124  35.245  1.00  0.00    -0.223 NA
ATOM     16  N   UNL A   1      38.219  33.195  34.016  1.00  0.00    -0.297 N 
ATOM     17  C   UNL A   1      37.582  32.691  35.107  1.00  0.00     0.193 A 
ATOM     18  C   UNL A   1      39.460  32.669  33.748  1.00  0.00     0.104 A 
ATOM     19  S   UNL A   1      38.580  31.529  35.926  1.00  0.00    -0.105 S 
ATOM     20  C   UNL A   1      39.813  31.756  34.668  1.00  0.00     0.087 A 
ENDBRANCH  12  13
ENDBRANCH   9  12
ENDBRANCH   6   8
ENDBRANCH   5   6
ENDBRANCH   3   5
ENDBRANCH   2   3
ENDBRANCH   1   2
BRANCH   1  21
ATOM     21  C   UNL A   1      34.388  32.556  28.922  1.00  0.00     0.275 C 
BRANCH  21  22
ATOM     22  O   UNL A   1      34.572  31.820  27.697  1.00  0.00    -0.458 OA
BRANCH  22  23
ATOM     23  C   UNL A   1      34.513  30.479  27.824  1.00  0.00     0.338 C 
ATOM     24  O   UNL A   1      33.512  29.773  27.741  1.00  0.00    -0.246 OA
BRANCH  23  25
ATOM     25  C   UNL A   1      35.842  29.902  28.046  1.00  0.00     0.060 A 
ATOM     26  C   UNL A   1      36.187  29.431  29.313  1.00  0.00     0.016 A 
ATOM     27  C   UNL A   1      36.811  30.016  27.051  1.00  0.00     0.016 A 
ATOM     28  C   UNL A   1      37.513  29.135  29.613  1.00  0.00     0.010 A 
ATOM     29  C   UNL A   1      38.130  29.651  27.332  1.00  0.00     0.010 A 
ATOM     30  C   UNL A   1      38.500  29.237  28.624  1.00  0.00    -0.014 A 
BRANCH  30  31
ATOM     31  C   UNL A   1      39.914  28.917  28.954  1.00  0.00     0.031 A 
ATOM     32  C   UNL A   1      40.796  29.942  29.616  1.00  0.00     0.074 A 
ATOM     33  C   UNL A   1      40.399  27.694  28.665  1.00  0.00     0.049 A 
ATOM     34  N   UNL A   1      42.070  29.870  29.907  1.00  0.00    -0.248 NA
ATOM     35  C   UNL A   1      40.168  31.219  29.991  1.00  0.00     0.031 C 
ATOM     36  C   UNL A   1      39.636  26.609  28.043  1.00  0.00     0.029 A 
ATOM     37  N   UNL A   1      41.646  27.156  28.854  1.00  0.00    -0.354 N 
ATOM     38  C   UNL A   1      42.405  31.095  30.474  1.00  0.00     0.074 A 
ATOM     39  C   UNL A   1      41.202  31.901  30.464  1.00  0.00     0.031 C 
ATOM     40  C   UNL A   1      40.424  25.531  27.919  1.00  0.00     0.029 A 
ATOM     41  C   UNL A   1      41.763  25.866  28.392  1.00  0.00     0.049 A 
ATOM     42  H   UNL A   1      42.386  27.646  29.279  1.00  0.00     0.167 HD
ATOM     43  C   UNL A   1      43.601  31.506  30.959  1.00  0.00     0.037 A 
ATOM     44  C   UNL A   1      42.834  25.053  28.327  1.00  0.00     0.037 A 
ATOM     45  C   UNL A   1      44.790  30.688  30.977  1.00  0.00     0.049 A 
ATOM     46  C   UNL A   1      44.158  25.545  28.839  1.00  0.00     0.074 A 
ATOM     47  C   UNL A   1      46.046  31.006  31.466  1.00  0.00     0.029 A 
ATOM     48  N   UNL A   1      44.872  29.393  30.485  1.00  0.00    -0.354 N 
ATOM     49  N   UNL A   1      44.456  26.706  29.373  1.00  0.00    -0.248 NA
ATOM     50  C   UNL A   1      45.290  24.616  28.744  1.00  0.00     0.031 C 
ATOM     51  C   UNL A   1      46.898  29.922  31.225  1.00  0.00     0.029 A 
ATOM     52  C   UNL A   1      46.160  28.906  30.642  1.00  0.00     0.049 A 
ATOM     53  H   UNL A   1      44.124  28.894  30.084  1.00  0.00     0.167 HD
ATOM     54  C   UNL A   1      45.806  26.638  29.699  1.00  0.00     0.074 A 
ATOM     55  C   UNL A   1      46.257  25.314  29.321  1.00  0.00     0.031 C 
ATOM     56  C   UNL A   1      46.600  27.585  30.259  1.00  0.00     0.037 A 
BRANCH  43  57
ATOM     57  C   UNL A   1      43.697  32.913  31.489  1.00  0.00     0.058 A 
ATOM     58  C   UNL A   1      43.414  33.225  32.829  1.00  0.00     0.135 A 
ATOM     59  C   UNL A   1      44.121  33.959  30.652  1.00  0.00     0.135 A 
ATOM     60  F   UNL A   1      42.992  32.269  33.671  1.00  0.00    -0.206 F 
ATOM     61  C   UNL A   1      43.519  34.527  33.311  1.00  0.00     0.059 A 
ATOM     62  C   UNL A   1      44.259  35.263  31.120  1.00  0.00     0.059 A 
ATOM     63  F   UNL A   1      44.405  33.720  29.363  1.00  0.00    -0.206 F 
ATOM     64  C   UNL A   1      43.943  35.540  32.449  1.00  0.00     0.060 A 
BRANCH  64  65
ATOM     65  S   UNL A   1      44.076  37.221  33.092  1.00  0.00     0.124 S 
ATOM     66  O   UNL A   1      42.962  37.261  34.035  1.00  0.00    -0.237 OA
ATOM     67  O   UNL A   1      45.408  37.222  33.687  1.00  0.00    -0.237 OA
ATOM     68  O   UNL A   1      43.923  38.054  31.904  1.00  0.00    -0.744 OA
ENDBRANCH  64  65
ENDBRANCH  43  57
BRANCH  44  69
ATOM     69  C   UNL A   1      42.695  23.692  27.744  1.00  0.00     0.058 A 
ATOM     70  C   UNL A   1      42.403  22.584  28.553  1.00  0.00     0.135 A 
ATOM     71  C   UNL A   1      42.836  23.474  26.363  1.00  0.00     0.135 A 
ATOM     72  F   UNL A   1      42.265  22.740  29.878  1.00  0.00    -0.206 F 
ATOM     73  C   UNL A   1      42.271  21.308  28.019  1.00  0.00     0.059 A 
ATOM     74  C   UNL A   1      42.677  22.212  25.802  1.00  0.00     0.059 A 
ATOM     75  F   UNL A   1      43.098  24.505  25.544  1.00  0.00    -0.206 F 
ATOM     76  C   UNL A   1      42.406  21.133  26.640  1.00  0.00     0.060 A 
BRANCH  76  77
ATOM     77  S   UNL A   1      42.180  19.479  25.952  1.00  0.00     0.124 S 
ATOM     78  O   UNL A   1      43.035  19.535  24.772  1.00  0.00    -0.237 OA
ATOM     79  O   UNL A   1      42.648  18.628  27.042  1.00  0.00    -0.237 OA
ATOM     80  O   UNL A   1      40.745  19.418  25.690  1.00  0.00    -0.744 OA
ENDBRANCH  76  77
ENDBRANCH  44  69
BRANCH  56  81
ATOM     81  C   UNL A   1      48.029  27.203  30.535  1.00  0.00     0.058 A 
ATOM     82  C   UNL A   1      48.429  26.665  31.769  1.00  0.00     0.135 A 
ATOM     83  C   UNL A   1      49.013  27.376  29.549  1.00  0.00     0.135 A 
ATOM     84  F   UNL A   1      47.530  26.483  32.751  1.00  0.00    -0.206 F 
ATOM     85  C   UNL A   1      49.760  26.358  32.031  1.00  0.00     0.059 A 
ATOM     86  C   UNL A   1      50.344  27.045  29.778  1.00  0.00     0.059 A 
ATOM     87  F   UNL A   1      48.685  27.873  28.345  1.00  0.00    -0.206 F 
ATOM     88  C   UNL A   1      50.712  26.558  31.031  1.00  0.00     0.060 A 
BRANCH  88  89
ATOM     89  S   UNL A   1      52.438  26.168  31.385  1.00  0.00     0.124 S 
ATOM     90  O   UNL A   1      52.326  24.827  31.950  1.00  0.00    -0.237 OA
ATOM     91  O   UNL A   1      53.054  26.250  30.064  1.00  0.00    -0.237 OA
ATOM     92  O   UNL A   1      52.837  27.213  32.322  1.00  0.00    -0.744 OA
ENDBRANCH  88  89
ENDBRANCH  56  81
ENDBRANCH  30  31
ENDBRANCH  23  25
ENDBRANCH  22  23
ENDBRANCH  21  22
ENDBRANCH   1  21
TORSDOF 18
ENDMDL
MODEL 2
REMARK VINA RESULT:      -9.9      5.173     11.946
REMARK SMILES C[C@H](CC(=O)OCCOC(=O)c1ccc(-c2c3nc(c(-c4c(F)cc(S(=O)(=O)[O-])cc4F)c4ccc([nH]4)c(-c4c(F)cc(S(=O)(=O)[O-])cc4F)c4nc(c(-c5c(F)cc(S(=O)(=O)[O-])cc5F)c5ccc2[nH]5)C=C4)C=C3)cc1)NC(=O)Cc1cn2ccsc2n1
REMARK SMILES IDX 7 1 6 2 4 3 5 4 3 5 2 6 1 7 78 8 79 9 80 11 81 12 82 13
REMARK SMILES IDX 83 14 89 15 84 16 88 17 85 18 87 19 86 20 8 21 9 22 10 23
REMARK SMILES IDX 11 24 12 25 13 26 77 27 14 28 76 29 15 30 16 31 17 32 70 33
REMARK SMILES IDX 18 34 75 35 69 36 71 37 19 38 74 39 68 40 67 41 20 43 54 44
REMARK SMILES IDX 33 45 53 46 34 47 37 48 52 49 72 50 35 51 36 52 51 54 73 55
REMARK SMILES IDX 38 56 21 57 22 58 31 59 23 60 24 61 30 62 32 63 25 64 26 65
REMARK SMILES IDX 27 66 28 67 29 68 55 69 56 70 65 71 57 72 58 73 64 74 66 75
REMARK SMILES IDX 59 76 60 77 61 78 62 79 63 80 39 81 40 82 49 83 41 84 42 85
REMARK SMILES IDX 48 86 50 87 43 88 44 89 45 90 46 91 47 92
REMARK H PARENT 78 10 71 42 37 53
REMARK Flexibility Score: inf
ROOT
ATOM      1  C   UNL A   1      37.654  22.401  25.849  1.00  0.00     0.274 C 
ENDROOT
BRANCH   1   2
ATOM      2  O   UNL A   1      37.473  21.894  24.510  1.00  0.00    -0.462 OA
BRANCH   2   3
ATOM      3  C   UNL A   1      36.626  22.617  23.736  1.00  0.00     0.307 C 
ATOM      4  O   UNL A   1      36.973  23.308  22.784  1.00  0.00    -0.252 OA
BRANCH   3   5
ATOM      5  C   UNL A   1      35.187  22.574  24.182  1.00  0.00     0.147 C 
BRANCH   5   6
ATOM      6  C   UNL A   1      34.405  23.877  24.359  1.00  0.00     0.090 C 
ATOM      7  C   UNL A   1      34.800  24.762  25.531  1.00  0.00     0.031 C 
BRANCH   6   8
ATOM      8  N   UNL A   1      34.345  24.619  23.113  1.00  0.00    -0.353 N 
ATOM      9  C   UNL A   1      33.241  25.117  22.476  1.00  0.00     0.226 C 
ATOM     10  H   UNL A   1      35.209  24.784  22.670  1.00  0.00     0.163 HD
ATOM     11  O   UNL A   1      33.380  25.518  21.318  1.00  0.00    -0.275 OA
BRANCH   9  12
ATOM     12  C   UNL A   1      31.930  25.286  23.234  1.00  0.00     0.157 C 
BRANCH  12  13
ATOM     13  C   UNL A   1      31.880  26.479  24.134  1.00  0.00     0.070 A 
ATOM     14  C   UNL A   1      32.081  27.819  23.803  1.00  0.00     0.118 A 
ATOM     15  N   UNL A   1      31.595  26.348  25.487  1.00  0.00    -0.223 NA
ATOM     16  N   UNL A   1      32.039  28.478  24.992  1.00  0.00    -0.297 N 
ATOM     17  C   UNL A   1      31.690  27.568  25.941  1.00  0.00     0.193 A 
ATOM     18  C   UNL A   1      32.286  29.753  25.441  1.00  0.00     0.104 A 
ATOM     19  S   UNL A   1      31.585  28.315  27.505  1.00  0.00    -0.105 S 
ATOM     20  C   UNL A   1      32.096  29.849  26.768  1.00  0.00     0.087 A 
ENDBRANCH  12  13
ENDBRANCH   9  12
ENDBRANCH   6   8
ENDBRANCH   5   6
ENDBRANCH   3   5
ENDBRANCH   2   3
ENDBRANCH   1   2
BRANCH   1  21
ATOM     21  C   UNL A   1      39.076  22.918  26.065  1.00  0.00     0.275 C 
BRANCH  21  22
ATOM     22  O   UNL A   1      39.061  24.293  26.493  1.00  0.00    -0.458 OA
BRANCH  22  23
ATOM     23  C   UNL A   1      40.271  24.883  26.558  1.00  0.00     0.338 C 
ATOM     24  O   UNL A   1      41.178  24.800  25.736  1.00  0.00    -0.246 OA
BRANCH  23  25
ATOM     25  C   UNL A   1      40.397  25.718  27.757  1.00  0.00     0.060 A 
ATOM     26  C   UNL A   1      39.389  25.697  28.721  1.00  0.00     0.016 A 
ATOM     27  C   UNL A   1      41.413  26.669  27.824  1.00  0.00     0.016 A 
ATOM     28  C   UNL A   1      39.353  26.666  29.718  1.00  0.00     0.010 A 
ATOM     29  C   UNL A   1      41.415  27.600  28.867  1.00  0.00     0.010 A 
ATOM     30  C   UNL A   1      40.369  27.626  29.806  1.00  0.00    -0.014 A 
BRANCH  30  31
ATOM     31  C   UNL A   1      40.323  28.658  30.875  1.00  0.00     0.031 A 
ATOM     32  C   UNL A   1      41.249  28.576  32.059  1.00  0.00     0.074 A 
ATOM     33  C   UNL A   1      39.448  29.677  30.771  1.00  0.00     0.049 A 
ATOM     34  N   UNL A   1      41.299  29.338  33.122  1.00  0.00    -0.248 NA
ATOM     35  C   UNL A   1      42.244  27.492  32.053  1.00  0.00     0.031 C 
ATOM     36  C   UNL A   1      38.512  29.877  29.662  1.00  0.00     0.029 A 
ATOM     37  N   UNL A   1      39.201  30.736  31.607  1.00  0.00    -0.354 N 
ATOM     38  C   UNL A   1      42.308  28.813  33.924  1.00  0.00     0.074 A 
ATOM     39  C   UNL A   1      42.829  27.652  33.232  1.00  0.00     0.031 C 
ATOM     40  C   UNL A   1      37.808  30.997  29.876  1.00  0.00     0.029 A 
ATOM     41  C   UNL A   1      38.194  31.561  31.165  1.00  0.00     0.049 A 
ATOM     42  H   UNL A   1      39.696  30.890  32.444  1.00  0.00     0.167 HD
ATOM     43  C   UNL A   1      42.758  29.261  35.121  1.00  0.00     0.037 A 
ATOM     44  C   UNL A   1      37.622  32.633  31.744  1.00  0.00     0.037 A 
ATOM     45  C   UNL A   1      42.242  30.428  35.794  1.00  0.00     0.049 A 
ATOM     46  C   UNL A   1      38.116  33.088  33.089  1.00  0.00     0.074 A 
ATOM     47  C   UNL A   1      42.644  30.974  37.000  1.00  0.00     0.029 A 
ATOM     48  N   UNL A   1      41.211  31.227  35.321  1.00  0.00    -0.354 N 
ATOM     49  N   UNL A   1      39.070  32.581  33.832  1.00  0.00    -0.248 NA
ATOM     50  C   UNL A   1      37.456  34.263  33.672  1.00  0.00     0.031 C 
ATOM     51  C   UNL A   1      41.826  32.074  37.280  1.00  0.00     0.029 A 
ATOM     52  C   UNL A   1      40.952  32.251  36.220  1.00  0.00     0.049 A 
ATOM     53  H   UNL A   1      40.733  31.088  34.472  1.00  0.00     0.167 HD
ATOM     54  C   UNL A   1      39.143  33.389  34.961  1.00  0.00     0.074 A 
ATOM     55  C   UNL A   1      38.149  34.430  34.790  1.00  0.00     0.031 C 
ATOM     56  C   UNL A   1      39.957  33.281  36.040  1.00  0.00     0.037 A 
BRANCH  43  57
ATOM     57  C   UNL A   1      43.850  28.473  35.799  1.00  0.00     0.058 A 
ATOM     58  C   UNL A   1      43.567  27.409  36.670  1.00  0.00     0.135 A 
ATOM     59  C   UNL A   1      45.200  28.761  35.538  1.00  0.00     0.135 A 
ATOM     60  F   UNL A   1      42.296  27.098  36.968  1.00  0.00    -0.206 F 
ATOM     61  C   UNL A   1      44.583  26.679  37.282  1.00  0.00     0.059 A 
ATOM     62  C   UNL A   1      46.231  28.026  36.116  1.00  0.00     0.059 A 
ATOM     63  F   UNL A   1      45.530  29.766  34.713  1.00  0.00    -0.206 F 
ATOM     64  C   UNL A   1      45.913  26.995  36.998  1.00  0.00     0.060 A 
BRANCH  64  65
ATOM     65  S   UNL A   1      47.217  26.036  37.796  1.00  0.00     0.124 S 
ATOM     66  O   UNL A   1      48.125  25.794  36.679  1.00  0.00    -0.237 OA
ATOM     67  O   UNL A   1      47.702  26.959  38.817  1.00  0.00    -0.237 OA
ATOM     68  O   UNL A   1      46.516  24.860  38.301  1.00  0.00    -0.744 OA
ENDBRANCH  64  65
ENDBRANCH  43  57
BRANCH  44  69
ATOM     69  C   UNL A   1      36.511  33.342  31.056  1.00  0.00     0.058 A 
ATOM     70  C   UNL A   1      36.751  34.142  29.929  1.00  0.00     0.135 A 
ATOM     71  C   UNL A   1      35.183  33.219  31.500  1.00  0.00     0.135 A 
ATOM     72  F   UNL A   1      38.002  34.295  29.470  1.00  0.00    -0.206 F 
ATOM     73  C   UNL A   1      35.720  34.809  29.277  1.00  0.00     0.059 A 
ATOM     74  C   UNL A   1      34.132  33.850  30.845  1.00  0.00     0.059 A 
ATOM     75  F   UNL A   1      34.899  32.451  32.563  1.00  0.00    -0.206 F 
ATOM     76  C   UNL A   1      34.412  34.654  29.741  1.00  0.00     0.060 A 
BRANCH  76  77
ATOM     77  S   UNL A   1      33.076  35.482  28.854  1.00  0.00     0.124 S 
ATOM     78  O   UNL A   1      32.484  34.372  28.115  1.00  0.00    -0.237 OA
ATOM     79  O   UNL A   1      32.273  36.022  29.947  1.00  0.00    -0.237 OA
ATOM     80  O   UNL A   1      33.775  36.477  28.047  1.00  0.00    -0.744 OA
ENDBRANCH  76  77
ENDBRANCH  44  69
BRANCH  56  81
ATOM     81  C   UNL A   1      39.832  34.342  37.100  1.00  0.00     0.058 A 
ATOM     82  C   UNL A   1      39.026  34.166  38.236  1.00  0.00     0.135 A 
ATOM     83  C   UNL A   1      40.530  35.554  36.975  1.00  0.00     0.135 A 
ATOM     84  F   UNL A   1      38.332  33.029  38.403  1.00  0.00    -0.206 F 
ATOM     85  C   UNL A   1      38.881  35.172  39.187  1.00  0.00     0.059 A 
ATOM     86  C   UNL A   1      40.425  36.560  37.930  1.00  0.00     0.059 A 
ATOM     87  F   UNL A   1      41.326  35.771  35.915  1.00  0.00    -0.206 F 
ATOM     88  C   UNL A   1      39.580  36.368  39.021  1.00  0.00     0.060 A 
BRANCH  88  89
ATOM     89  S   UNL A   1      39.375  37.671  40.253  1.00  0.00     0.124 S 
ATOM     90  O   UNL A   1      38.263  38.433  39.692  1.00  0.00    -0.237 OA
ATOM     91  O   UNL A   1      39.076  36.912  41.464  1.00  0.00    -0.237 OA
ATOM     92  O   UNL A   1      40.666  38.350  40.248  1.00  0.00    -0.744 OA
ENDBRANCH  88  89
ENDBRANCH  56  81
ENDBRANCH  30  31
ENDBRANCH  23  25
ENDBRANCH  22  23
ENDBRANCH  21  22
ENDBRANCH   1  21
TORSDOF 18
ENDMDL
MODEL 3
REMARK VINA RESULT:      -9.8      2.385      3.229
REMARK SMILES C[C@H](CC(=O)OCCOC(=O)c1ccc(-c2c3nc(c(-c4c(F)cc(S(=O)(=O)[O-])cc4F)c4ccc([nH]4)c(-c4c(F)cc(S(=O)(=O)[O-])cc4F)c4nc(c(-c5c(F)cc(S(=O)(=O)[O-])cc5F)c5ccc2[nH]5)C=C4)C=C3)cc1)NC(=O)Cc1cn2ccsc2n1
REMARK SMILES IDX 7 1 6 2 4 3 5 4 3 5 2 6 1 7 78 8 79 9 80 11 81 12 82 13
REMARK SMILES IDX 83 14 89 15 84 16 88 17 85 18 87 19 86 20 8 21 9 22 10 23
REMARK SMILES IDX 11 24 12 25 13 26 77 27 14 28 76 29 15 30 16 31 17 32 70 33
REMARK SMILES IDX 18 34 75 35 69 36 71 37 19 38 74 39 68 40 67 41 20 43 54 44
REMARK SMILES IDX 33 45 53 46 34 47 37 48 52 49 72 50 35 51 36 52 51 54 73 55
REMARK SMILES IDX 38 56 21 57 22 58 31 59 23 60 24 61 30 62 32 63 25 64 26 65
REMARK SMILES IDX 27 66 28 67 29 68 55 69 56 70 65 71 57 72 58 73 64 74 66 75
REMARK SMILES IDX 59 76 60 77 61 78 62 79 63 80 39 81 40 82 49 83 41 84 42 85
REMARK SMILES IDX 48 86 50 87 43 88 44 89 45 90 46 91 47 92
REMARK H PARENT 78 10 71 42 37 53
REMARK Flexibility Score: inf
ROOT
ATOM      1  C   UNL A   1      33.971  34.205  28.570  1.00  0.00     0.274 C 
ENDROOT
BRANCH   1   2
ATOM      2  O   UNL A   1      32.927  34.700  29.435  1.00  0.00    -0.462 OA
BRANCH   2   3
ATOM      3  C   UNL A   1      32.905  36.047  29.591  1.00  0.00     0.307 C 
ATOM      4  O   UNL A   1      33.188  36.853  28.711  1.00  0.00    -0.252 OA
BRANCH   3   5
ATOM      5  C   UNL A   1      32.573  36.506  30.987  1.00  0.00     0.147 C 
BRANCH   5   6
ATOM      6  C   UNL A   1      33.493  36.133  32.151  1.00  0.00     0.090 C 
ATOM      7  C   UNL A   1      33.692  37.181  33.234  1.00  0.00     0.031 C 
BRANCH   6   8
ATOM      8  N   UNL A   1      33.130  34.841  32.705  1.00  0.00    -0.353 N 
ATOM      9  C   UNL A   1      33.949  33.903  33.274  1.00  0.00     0.226 C 
ATOM     10  H   UNL A   1      32.173  34.610  32.667  1.00  0.00     0.163 HD
ATOM     11  O   UNL A   1      33.480  32.780  33.477  1.00  0.00    -0.275 OA
BRANCH   9  12
ATOM     12  C   UNL A   1      35.341  34.292  33.756  1.00  0.00     0.157 C 
BRANCH  12  13
ATOM     13  C   UNL A   1      36.404  34.229  32.706  1.00  0.00     0.070 A 
ATOM     14  C   UNL A   1      37.764  34.512  32.837  1.00  0.00     0.118 A 
ATOM     15  N   UNL A   1      36.110  33.843  31.406  1.00  0.00    -0.223 NA
ATOM     16  N   UNL A   1      38.260  34.414  31.575  1.00  0.00    -0.297 N 
ATOM     17  C   UNL A   1      37.251  33.959  30.784  1.00  0.00     0.193 A 
ATOM     18  C   UNL A   1      39.448  34.684  30.941  1.00  0.00     0.104 A 
ATOM     19  S   UNL A   1      37.788  33.774  29.143  1.00  0.00    -0.105 S 
ATOM     20  C   UNL A   1      39.376  34.404  29.629  1.00  0.00     0.087 A 
ENDBRANCH  12  13
ENDBRANCH   9  12
ENDBRANCH   6   8
ENDBRANCH   5   6
ENDBRANCH   3   5
ENDBRANCH   2   3
ENDBRANCH   1   2
BRANCH   1  21
ATOM     21  C   UNL A   1      33.597  32.855  27.959  1.00  0.00     0.275 C 
BRANCH  21  22
ATOM     22  O   UNL A   1      34.262  31.779  28.650  1.00  0.00    -0.458 OA
BRANCH  22  23
ATOM     23  C   UNL A   1      34.652  30.754  27.866  1.00  0.00     0.338 C 
ATOM     24  O   UNL A   1      34.081  30.329  26.867  1.00  0.00    -0.246 OA
BRANCH  23  25
ATOM     25  C   UNL A   1      35.922  30.182  28.325  1.00  0.00     0.060 A 
ATOM     26  C   UNL A   1      35.980  29.527  29.555  1.00  0.00     0.016 A 
ATOM     27  C   UNL A   1      37.094  30.475  27.630  1.00  0.00     0.016 A 
ATOM     28  C   UNL A   1      37.209  29.220  30.129  1.00  0.00     0.010 A 
ATOM     29  C   UNL A   1      38.326  30.103  28.173  1.00  0.00     0.010 A 
ATOM     30  C   UNL A   1      38.398  29.500  29.442  1.00  0.00    -0.014 A 
BRANCH  30  31
ATOM     31  C   UNL A   1      39.707  29.168  30.062  1.00  0.00     0.031 A 
ATOM     32  C   UNL A   1      40.220  29.958  31.236  1.00  0.00     0.074 A 
ATOM     33  C   UNL A   1      40.429  28.142  29.571  1.00  0.00     0.049 A 
ATOM     34  N   UNL A   1      41.369  29.864  31.856  1.00  0.00    -0.248 NA
ATOM     35  C   UNL A   1      39.331  30.997  31.780  1.00  0.00     0.031 C 
ATOM     36  C   UNL A   1      40.029  27.289  28.449  1.00  0.00     0.029 A 
ATOM     37  N   UNL A   1      41.649  27.643  29.947  1.00  0.00    -0.354 N 
ATOM     38  C   UNL A   1      41.355  30.844  32.843  1.00  0.00     0.074 A 
ATOM     39  C   UNL A   1      40.090  31.538  32.724  1.00  0.00     0.031 C 
ATOM     40  C   UNL A   1      40.974  26.362  28.242  1.00  0.00     0.029 A 
ATOM     41  C   UNL A   1      42.076  26.593  29.170  1.00  0.00     0.049 A 
ATOM     42  H   UNL A   1      42.170  28.002  30.702  1.00  0.00     0.167 HD
ATOM     43  C   UNL A   1      42.307  31.133  33.763  1.00  0.00     0.037 A 
ATOM     44  C   UNL A   1      43.236  25.910  29.180  1.00  0.00     0.037 A 
ATOM     45  C   UNL A   1      43.558  30.425  33.882  1.00  0.00     0.049 A 
ATOM     46  C   UNL A   1      44.290  26.274  30.188  1.00  0.00     0.074 A 
ATOM     47  C   UNL A   1      44.579  30.630  34.794  1.00  0.00     0.029 A 
ATOM     48  N   UNL A   1      43.960  29.378  33.066  1.00  0.00    -0.354 N 
ATOM     49  N   UNL A   1      44.260  27.203  31.113  1.00  0.00    -0.248 NA
ATOM     50  C   UNL A   1      45.534  25.496  30.153  1.00  0.00     0.031 C 
ATOM     51  C   UNL A   1      45.618  29.740  34.499  1.00  0.00     0.029 A 
ATOM     52  C   UNL A   1      45.221  28.939  33.441  1.00  0.00     0.049 A 
ATOM     53  H   UNL A   1      43.428  29.002  32.328  1.00  0.00     0.167 HD
ATOM     54  C   UNL A   1      45.471  27.105  31.789  1.00  0.00     0.074 A 
ATOM     55  C   UNL A   1      46.200  26.013  31.176  1.00  0.00     0.031 C 
ATOM     56  C   UNL A   1      45.939  27.851  32.821  1.00  0.00     0.037 A 
BRANCH  43  57
ATOM     57  C   UNL A   1      42.048  32.284  34.702  1.00  0.00     0.058 A 
ATOM     58  C   UNL A   1      42.484  33.588  34.419  1.00  0.00     0.135 A 
ATOM     59  C   UNL A   1      41.314  32.084  35.884  1.00  0.00     0.135 A 
ATOM     60  F   UNL A   1      43.201  33.835  33.312  1.00  0.00    -0.206 F 
ATOM     61  C   UNL A   1      42.228  34.646  35.287  1.00  0.00     0.059 A 
ATOM     62  C   UNL A   1      41.022  33.133  36.752  1.00  0.00     0.059 A 
ATOM     63  F   UNL A   1      40.871  30.859  36.206  1.00  0.00    -0.206 F 
ATOM     64  C   UNL A   1      41.496  34.408  36.451  1.00  0.00     0.060 A 
BRANCH  64  65
ATOM     65  S   UNL A   1      41.170  35.793  37.564  1.00  0.00     0.124 S 
ATOM     66  O   UNL A   1      42.384  36.587  37.402  1.00  0.00    -0.237 OA
ATOM     67  O   UNL A   1      39.957  36.370  36.995  1.00  0.00    -0.237 OA
ATOM     68  O   UNL A   1      41.007  35.153  38.865  1.00  0.00    -0.744 OA
ENDBRANCH  64  65
ENDBRANCH  43  57
BRANCH  44  69
ATOM     69  C   UNL A   1      43.462  24.819  28.195  1.00  0.00     0.058 A 
ATOM     70  C   UNL A   1      43.051  23.505  28.464  1.00  0.00     0.135 A 
ATOM     71  C   UNL A   1      44.078  25.072  26.958  1.00  0.00     0.135 A 
ATOM     72  F   UNL A   1      42.464  23.212  29.633  1.00  0.00    -0.206 F 
ATOM     73  C   UNL A   1      43.257  22.477  27.550  1.00  0.00     0.059 A 
ATOM     74  C   UNL A   1      44.265  24.067  26.015  1.00  0.00     0.059 A 
ATOM     75  F   UNL A   1      44.473  26.316  26.645  1.00  0.00    -0.206 F 
ATOM     76  C   UNL A   1      43.862  22.769  26.326  1.00  0.00     0.060 A 
BRANCH  76  77
ATOM     77  S   UNL A   1      44.075  21.437  25.127  1.00  0.00     0.124 S 
ATOM     78  O   UNL A   1      42.939  20.577  25.440  1.00  0.00    -0.237 OA
ATOM     79  O   UNL A   1      44.003  22.155  23.858  1.00  0.00    -0.237 OA
ATOM     80  O   UNL A   1      45.389  20.894  25.458  1.00  0.00    -0.744 OA
ENDBRANCH  76  77
ENDBRANCH  44  69
BRANCH  56  81
ATOM     81  C   UNL A   1      47.286  27.478  33.378  1.00  0.00     0.058 A 
ATOM     82  C   UNL A   1      48.473  28.056  32.901  1.00  0.00     0.135 A 
ATOM     83  C   UNL A   1      47.390  26.528  34.407  1.00  0.00     0.135 A 
ATOM     84  F   UNL A   1      48.432  28.967  31.914  1.00  0.00    -0.206 F 
ATOM     85  C   UNL A   1      49.717  27.671  33.390  1.00  0.00     0.059 A 
ATOM     86  C   UNL A   1      48.621  26.153  34.934  1.00  0.00     0.059 A 
ATOM     87  F   UNL A   1      46.286  25.953  34.911  1.00  0.00    -0.206 F 
ATOM     88  C   UNL A   1      49.781  26.714  34.403  1.00  0.00     0.060 A 
BRANCH  88  89
ATOM     89  S   UNL A   1      51.400  26.212  35.022  1.00  0.00     0.124 S 
ATOM     90  O   UNL A   1      51.665  25.021  34.220  1.00  0.00    -0.237 OA
ATOM     91  O   UNL A   1      52.226  27.377  34.719  1.00  0.00    -0.237 OA
ATOM     92  O   UNL A   1      51.162  25.972  36.441  1.00  0.00    -0.744 OA
ENDBRANCH  88  89
ENDBRANCH  56  81
ENDBRANCH  30  31
ENDBRANCH  23  25
ENDBRANCH  22  23
ENDBRANCH  21  22
ENDBRANCH   1  21
TORSDOF 18
ENDMDL
