MODEL 1
REMARK VINA RESULT:      -9.2      0.000      0.000
REMARK SMILES C#CC[N@@H+](CC(=O)OCCOC(=O)c1ccc(-c2c3nc(c(-c4c(F)cc(S(=O)(=O)[O-])cc4F)c4ccc([nH]4)c(-c4c(F)cc(S(=O)(=O)[O-])cc4F)c4nc(c(-c5c(F)cc(S(=O)(=O)[O-])cc5F)c5ccc2[nH]5)C=C4)C=C3)cc1)Cc1cn(CC)c2ccccc12
REMARK SMILES IDX 9 1 8 2 6 3 7 4 5 5 4 6 3 8 2 9 1 10 80 11 81 12 82 13 91 14
REMARK SMILES IDX 83 15 86 16 90 17 87 18 89 19 88 20 84 21 85 22 10 23 11 24
REMARK SMILES IDX 12 25 13 26 14 27 15 28 79 29 16 30 78 31 17 32 18 33 19 34
REMARK SMILES IDX 72 35 20 36 77 37 71 38 73 39 21 40 76 41 70 42 69 43 22 45
REMARK SMILES IDX 56 46 35 47 55 48 36 49 39 50 54 51 74 52 37 53 38 54 53 56
REMARK SMILES IDX 75 57 40 58 23 59 24 60 33 61 25 62 26 63 32 64 34 65 27 66
REMARK SMILES IDX 28 67 29 68 30 69 31 70 57 71 58 72 67 73 59 74 60 75 66 76
REMARK SMILES IDX 68 77 61 78 62 79 63 80 64 81 65 82 41 83 42 84 51 85 43 86
REMARK SMILES IDX 44 87 50 88 52 89 45 90 46 91 47 92 48 93 49 94
REMARK H PARENT 4 7 73 44 39 55
REMARK Flexibility Score: inf
ROOT
ATOM      1  C   UNL A   1      34.648  34.020  29.391  1.00  0.00     0.274 C 
ENDROOT
BRANCH   1   2
ATOM      2  O   UNL A   1      33.832  33.970  30.591  1.00  0.00    -0.458 OA
BRANCH   2   3
ATOM      3  C   UNL A   1      34.401  33.580  31.770  1.00  0.00     0.361 C 
ATOM      4  O   UNL A   1      33.967  32.640  32.431  1.00  0.00    -0.245 OA
BRANCH   3   5
ATOM      5  C   UNL A   1      35.660  34.405  32.219  1.00  0.00     0.387 C 
BRANCH   5   6
ATOM      6  N   UNL A   1      36.944  33.683  32.548  1.00  0.00    -0.312 N 
ATOM      7  H   UNL A   1      37.070  33.781  33.555  1.00  0.00     0.349 HD
BRANCH   6   8
ATOM      8  C   UNL A   1      37.905  34.287  31.697  1.00  0.00     0.354 C 
BRANCH   8   9
ATOM      9  C   UNL A   1      38.006  33.916  30.226  1.00  0.00    -0.047 C 
ATOM     10  C   UNL A   1      38.093  33.597  28.965  1.00  0.00     0.010 C 
ENDBRANCH   8   9
ENDBRANCH   6   8
BRANCH   6  11
ATOM     11  C   UNL A   1      37.033  32.211  32.402  1.00  0.00     0.302 C 
BRANCH  11  12
ATOM     12  C   UNL A   1      37.980  31.689  33.400  1.00  0.00     0.032 A 
ATOM     13  C   UNL A   1      38.489  32.461  34.408  1.00  0.00     0.096 A 
ATOM     14  C   UNL A   1      38.733  30.497  33.388  1.00  0.00     0.008 A 
ATOM     15  N   UNL A   1      39.758  32.026  34.663  1.00  0.00    -0.347 N 
ATOM     16  C   UNL A   1      39.884  30.751  34.153  1.00  0.00     0.048 A 
ATOM     17  C   UNL A   1      38.615  29.297  32.672  1.00  0.00     0.011 A 
ATOM     18  C   UNL A   1      40.938  29.839  34.207  1.00  0.00     0.027 A 
ATOM     19  C   UNL A   1      39.649  28.369  32.746  1.00  0.00     0.001 A 
ATOM     20  C   UNL A   1      40.794  28.644  33.493  1.00  0.00     0.002 A 
BRANCH  15  21
ATOM     21  C   UNL A   1      40.830  32.949  35.010  1.00  0.00     0.119 C 
ATOM     22  C   UNL A   1      41.235  33.935  33.942  1.00  0.00     0.027 C 
ENDBRANCH  15  21
ENDBRANCH  11  12
ENDBRANCH   6  11
ENDBRANCH   5   6
ENDBRANCH   3   5
ENDBRANCH   2   3
ENDBRANCH   1   2
BRANCH   1  23
ATOM     23  C   UNL A   1      34.059  33.088  28.299  1.00  0.00     0.275 C 
BRANCH  23  24
ATOM     24  O   UNL A   1      34.121  31.721  28.755  1.00  0.00    -0.458 OA
BRANCH  24  25
ATOM     25  C   UNL A   1      34.553  30.736  27.908  1.00  0.00     0.338 C 
ATOM     26  O   UNL A   1      33.960  30.334  26.924  1.00  0.00    -0.246 OA
BRANCH  25  27
ATOM     27  C   UNL A   1      35.928  30.300  28.332  1.00  0.00     0.060 A 
ATOM     28  C   UNL A   1      36.954  30.451  27.416  1.00  0.00     0.016 A 
ATOM     29  C   UNL A   1      36.249  29.674  29.538  1.00  0.00     0.016 A 
ATOM     30  C   UNL A   1      38.181  29.832  27.555  1.00  0.00     0.010 A 
ATOM     31  C   UNL A   1      37.586  29.257  29.787  1.00  0.00     0.010 A 
ATOM     32  C   UNL A   1      38.573  29.346  28.788  1.00  0.00    -0.014 A 
BRANCH  32  33
ATOM     33  C   UNL A   1      40.023  29.039  28.958  1.00  0.00     0.031 A 
ATOM     34  C   UNL A   1      40.955  30.069  29.506  1.00  0.00     0.074 A 
ATOM     35  C   UNL A   1      40.493  27.787  28.728  1.00  0.00     0.049 A 
ATOM     36  N   UNL A   1      42.259  30.107  29.446  1.00  0.00    -0.248 NA
ATOM     37  C   UNL A   1      40.348  31.199  30.225  1.00  0.00     0.031 C 
ATOM     38  C   UNL A   1      39.672  26.626  28.367  1.00  0.00     0.029 A 
ATOM     39  N   UNL A   1      41.760  27.259  28.790  1.00  0.00    -0.354 N 
ATOM     40  C   UNL A   1      42.627  31.307  30.035  1.00  0.00     0.074 A 
ATOM     41  C   UNL A   1      41.412  31.940  30.505  1.00  0.00     0.031 C 
ATOM     42  C   UNL A   1      40.429  25.524  28.323  1.00  0.00     0.029 A 
ATOM     43  C   UNL A   1      41.818  25.927  28.434  1.00  0.00     0.049 A 
ATOM     44  H   UNL A   1      42.550  27.780  29.062  1.00  0.00     0.167 HD
ATOM     45  C   UNL A   1      43.872  31.833  30.119  1.00  0.00     0.037 A 
ATOM     46  C   UNL A   1      42.861  25.141  28.098  1.00  0.00     0.037 A 
ATOM     47  C   UNL A   1      45.051  31.142  29.659  1.00  0.00     0.049 A 
ATOM     48  C   UNL A   1      44.216  25.784  28.056  1.00  0.00     0.074 A 
ATOM     49  C   UNL A   1      46.355  31.599  29.594  1.00  0.00     0.029 A 
ATOM     50  N   UNL A   1      45.062  29.834  29.192  1.00  0.00    -0.354 N 
ATOM     51  N   UNL A   1      44.559  26.996  28.425  1.00  0.00    -0.248 NA
ATOM     52  C   UNL A   1      45.313  24.989  27.490  1.00  0.00     0.031 C 
ATOM     53  C   UNL A   1      47.144  30.581  29.043  1.00  0.00     0.029 A 
ATOM     54  C   UNL A   1      46.342  29.472  28.812  1.00  0.00     0.049 A 
ATOM     55  H   UNL A   1      44.273  29.247  29.141  1.00  0.00     0.167 HD
ATOM     56  C   UNL A   1      45.908  27.116  28.126  1.00  0.00     0.074 A 
ATOM     57  C   UNL A   1      46.326  25.840  27.577  1.00  0.00     0.031 C 
ATOM     58  C   UNL A   1      46.723  28.189  28.273  1.00  0.00     0.037 A 
BRANCH  45  59
ATOM     59  C   UNL A   1      43.990  33.253  30.594  1.00  0.00     0.058 A 
ATOM     60  C   UNL A   1      43.787  34.358  29.755  1.00  0.00     0.135 A 
ATOM     61  C   UNL A   1      44.342  33.505  31.932  1.00  0.00     0.135 A 
ATOM     62  F   UNL A   1      43.474  34.177  28.462  1.00  0.00    -0.206 F 
ATOM     63  C   UNL A   1      43.955  35.662  30.217  1.00  0.00     0.059 A 
ATOM     64  C   UNL A   1      44.493  34.798  32.421  1.00  0.00     0.059 A 
ATOM     65  F   UNL A   1      44.559  32.485  32.777  1.00  0.00    -0.206 F 
ATOM     66  C   UNL A   1      44.314  35.871  31.551  1.00  0.00     0.060 A 
BRANCH  66  67
ATOM     67  S   UNL A   1      44.557  37.564  32.133  1.00  0.00     0.124 S 
ATOM     68  O   UNL A   1      45.867  37.468  32.768  1.00  0.00    -0.237 OA
ATOM     69  O   UNL A   1      44.508  38.331  30.893  1.00  0.00    -0.237 OA
ATOM     70  O   UNL A   1      43.434  37.776  33.041  1.00  0.00    -0.744 OA
ENDBRANCH  66  67
ENDBRANCH  45  59
BRANCH  46  71
ATOM     71  C   UNL A   1      42.643  23.746  27.612  1.00  0.00     0.058 A 
ATOM     72  C   UNL A   1      42.571  22.663  28.499  1.00  0.00     0.135 A 
ATOM     73  C   UNL A   1      42.499  23.462  26.240  1.00  0.00     0.135 A 
ATOM     74  F   UNL A   1      42.723  22.865  29.817  1.00  0.00    -0.206 F 
ATOM     75  C   UNL A   1      42.364  21.359  28.050  1.00  0.00     0.059 A 
ATOM     76  C   UNL A   1      42.253  22.176  25.770  1.00  0.00     0.059 A 
ATOM     77  F   UNL A   1      42.563  24.452  25.335  1.00  0.00    -0.206 F 
ATOM     78  C   UNL A   1      42.199  21.127  26.683  1.00  0.00     0.060 A 
BRANCH  78  79
ATOM     79  S   UNL A   1      41.880  19.443  26.111  1.00  0.00     0.124 S 
ATOM     80  O   UNL A   1      40.444  19.484  25.864  1.00  0.00    -0.237 OA
ATOM     81  O   UNL A   1      42.731  19.353  24.929  1.00  0.00    -0.237 OA
ATOM     82  O   UNL A   1      42.304  18.620  27.241  1.00  0.00    -0.744 OA
ENDBRANCH  78  79
ENDBRANCH  46  71
BRANCH  58  83
ATOM     83  C   UNL A   1      48.150  28.015  27.849  1.00  0.00     0.058 A 
ATOM     84  C   UNL A   1      48.552  28.241  26.524  1.00  0.00     0.135 A 
ATOM     85  C   UNL A   1      49.132  27.676  28.792  1.00  0.00     0.135 A 
ATOM     86  F   UNL A   1      47.644  28.550  25.585  1.00  0.00    -0.206 F 
ATOM     87  C   UNL A   1      49.885  28.133  26.146  1.00  0.00     0.059 A 
ATOM     88  C   UNL A   1      50.474  27.587  28.442  1.00  0.00     0.059 A 
ATOM     89  F   UNL A   1      48.792  27.451  30.071  1.00  0.00    -0.206 F 
ATOM     90  C   UNL A   1      50.839  27.813  27.114  1.00  0.00     0.060 A 
BRANCH  90  91
ATOM     91  S   UNL A   1      52.573  27.738  26.625  1.00  0.00     0.124 S 
ATOM     92  O   UNL A   1      53.108  26.776  27.582  1.00  0.00    -0.237 OA
ATOM     93  O   UNL A   1      52.488  27.278  25.242  1.00  0.00    -0.237 OA
ATOM     94  O   UNL A   1      53.034  29.113  26.793  1.00  0.00    -0.744 OA
ENDBRANCH  90  91
ENDBRANCH  58  83
ENDBRANCH  32  33
ENDBRANCH  25  27
ENDBRANCH  24  25
ENDBRANCH  23  24
ENDBRANCH   1  23
TORSDOF 20
ENDMDL
MODEL 2
REMARK VINA RESULT:      -9.1      3.516      5.989
REMARK SMILES C#CC[N@@H+](CC(=O)OCCOC(=O)c1ccc(-c2c3nc(c(-c4c(F)cc(S(=O)(=O)[O-])cc4F)c4ccc([nH]4)c(-c4c(F)cc(S(=O)(=O)[O-])cc4F)c4nc(c(-c5c(F)cc(S(=O)(=O)[O-])cc5F)c5ccc2[nH]5)C=C4)C=C3)cc1)Cc1cn(CC)c2ccccc12
REMARK SMILES IDX 9 1 8 2 6 3 7 4 5 5 4 6 3 8 2 9 1 10 80 11 81 12 82 13 91 14
REMARK SMILES IDX 83 15 86 16 90 17 87 18 89 19 88 20 84 21 85 22 10 23 11 24
REMARK SMILES IDX 12 25 13 26 14 27 15 28 79 29 16 30 78 31 17 32 18 33 19 34
REMARK SMILES IDX 72 35 20 36 77 37 71 38 73 39 21 40 76 41 70 42 69 43 22 45
REMARK SMILES IDX 56 46 35 47 55 48 36 49 39 50 54 51 74 52 37 53 38 54 53 56
REMARK SMILES IDX 75 57 40 58 23 59 24 60 33 61 25 62 26 63 32 64 34 65 27 66
REMARK SMILES IDX 28 67 29 68 30 69 31 70 57 71 58 72 67 73 59 74 60 75 66 76
REMARK SMILES IDX 68 77 61 78 62 79 63 80 64 81 65 82 41 83 42 84 51 85 43 86
REMARK SMILES IDX 44 87 50 88 52 89 45 90 46 91 47 92 48 93 49 94
REMARK H PARENT 4 7 73 44 39 55
REMARK Flexibility Score: inf
ROOT
ATOM      1  C   UNL A   1      31.993  28.165  27.311  1.00  0.00     0.274 C 
ENDROOT
BRANCH   1   2
ATOM      2  O   UNL A   1      31.133  27.605  26.284  1.00  0.00    -0.458 OA
BRANCH   2   3
ATOM      3  C   UNL A   1      31.014  26.248  26.179  1.00  0.00     0.361 C 
ATOM      4  O   UNL A   1      29.977  25.655  26.463  1.00  0.00    -0.245 OA
BRANCH   3   5
ATOM      5  C   UNL A   1      32.290  25.495  25.656  1.00  0.00     0.387 C 
BRANCH   5   6
ATOM      6  N   UNL A   1      33.024  26.027  24.450  1.00  0.00    -0.312 N 
ATOM      7  H   UNL A   1      33.526  26.855  24.771  1.00  0.00     0.349 HD
BRANCH   6   8
ATOM      8  C   UNL A   1      32.005  26.203  23.478  1.00  0.00     0.354 C 
BRANCH   8   9
ATOM      9  C   UNL A   1      32.251  25.902  22.009  1.00  0.00    -0.047 C 
ATOM     10  C   UNL A   1      32.461  25.643  20.748  1.00  0.00     0.010 C 
ENDBRANCH   8   9
ENDBRANCH   6   8
BRANCH   6  11
ATOM     11  C   UNL A   1      34.133  25.251  23.846  1.00  0.00     0.302 C 
BRANCH  11  12
ATOM     12  C   UNL A   1      34.383  24.056  24.668  1.00  0.00     0.032 A 
ATOM     13  C   UNL A   1      35.427  23.973  25.548  1.00  0.00     0.096 A 
ATOM     14  C   UNL A   1      33.853  22.756  24.548  1.00  0.00     0.008 A 
ATOM     15  N   UNL A   1      35.839  22.671  25.579  1.00  0.00    -0.347 N 
ATOM     16  C   UNL A   1      34.817  21.886  25.084  1.00  0.00     0.048 A 
ATOM     17  C   UNL A   1      32.725  22.238  23.894  1.00  0.00     0.011 A 
ATOM     18  C   UNL A   1      34.696  20.502  24.968  1.00  0.00     0.027 A 
ATOM     19  C   UNL A   1      32.581  20.856  23.801  1.00  0.00     0.001 A 
ATOM     20  C   UNL A   1      33.557  20.007  24.321  1.00  0.00     0.002 A 
BRANCH  15  21
ATOM     21  C   UNL A   1      37.246  22.315  25.703  1.00  0.00     0.119 C 
ATOM     22  C   UNL A   1      38.188  23.433  26.078  1.00  0.00     0.027 C 
ENDBRANCH  15  21
ENDBRANCH  11  12
ENDBRANCH   6  11
ENDBRANCH   5   6
ENDBRANCH   3   5
ENDBRANCH   2   3
ENDBRANCH   1   2
BRANCH   1  23
ATOM     23  C   UNL A   1      32.533  29.550  26.867  1.00  0.00     0.275 C 
BRANCH  23  24
ATOM     24  O   UNL A   1      33.954  29.607  27.106  1.00  0.00    -0.458 OA
BRANCH  24  25
ATOM     25  C   UNL A   1      34.474  30.586  27.910  1.00  0.00     0.338 C 
ATOM     26  O   UNL A   1      33.882  31.575  28.300  1.00  0.00    -0.246 OA
BRANCH  25  27
ATOM     27  C   UNL A   1      35.866  30.189  28.319  1.00  0.00     0.060 A 
ATOM     28  C   UNL A   1      36.861  30.283  27.363  1.00  0.00     0.016 A 
ATOM     29  C   UNL A   1      36.229  29.649  29.554  1.00  0.00     0.016 A 
ATOM     30  C   UNL A   1      38.097  29.683  27.505  1.00  0.00     0.010 A 
ATOM     31  C   UNL A   1      37.576  29.259  29.789  1.00  0.00     0.010 A 
ATOM     32  C   UNL A   1      38.531  29.285  28.755  1.00  0.00    -0.014 A 
BRANCH  32  33
ATOM     33  C   UNL A   1      39.988  28.999  28.900  1.00  0.00     0.031 A 
ATOM     34  C   UNL A   1      40.917  30.049  29.417  1.00  0.00     0.074 A 
ATOM     35  C   UNL A   1      40.470  27.752  28.676  1.00  0.00     0.049 A 
ATOM     36  N   UNL A   1      42.218  30.103  29.331  1.00  0.00    -0.248 NA
ATOM     37  C   UNL A   1      40.308  31.179  30.135  1.00  0.00     0.031 C 
ATOM     38  C   UNL A   1      39.659  26.575  28.345  1.00  0.00     0.029 A 
ATOM     39  N   UNL A   1      41.746  27.241  28.719  1.00  0.00    -0.354 N 
ATOM     40  C   UNL A   1      42.582  31.315  29.899  1.00  0.00     0.074 A 
ATOM     41  C   UNL A   1      41.368  31.938  30.385  1.00  0.00     0.031 C 
ATOM     42  C   UNL A   1      40.430  25.483  28.300  1.00  0.00     0.029 A 
ATOM     43  C   UNL A   1      41.815  25.906  28.377  1.00  0.00     0.049 A 
ATOM     44  H   UNL A   1      42.534  27.776  28.969  1.00  0.00     0.167 HD
ATOM     45  C   UNL A   1      43.822  31.859  29.951  1.00  0.00     0.037 A 
ATOM     46  C   UNL A   1      42.862  25.130  28.031  1.00  0.00     0.037 A 
ATOM     47  C   UNL A   1      45.000  31.179  29.476  1.00  0.00     0.049 A 
ATOM     48  C   UNL A   1      44.207  25.790  27.953  1.00  0.00     0.074 A 
ATOM     49  C   UNL A   1      46.297  31.651  29.380  1.00  0.00     0.029 A 
ATOM     50  N   UNL A   1      45.020  29.865  29.025  1.00  0.00    -0.354 N 
ATOM     51  N   UNL A   1      44.541  27.011  28.302  1.00  0.00    -0.248 NA
ATOM     52  C   UNL A   1      45.303  25.004  27.376  1.00  0.00     0.031 C 
ATOM     53  C   UNL A   1      47.088  30.637  28.826  1.00  0.00     0.029 A 
ATOM     54  C   UNL A   1      46.297  29.515  28.624  1.00  0.00     0.049 A 
ATOM     55  H   UNL A   1      44.238  29.267  28.996  1.00  0.00     0.167 HD
ATOM     56  C   UNL A   1      45.882  27.145  27.974  1.00  0.00     0.074 A 
ATOM     57  C   UNL A   1      46.306  25.869  27.432  1.00  0.00     0.031 C 
ATOM     58  C   UNL A   1      46.685  28.231  28.092  1.00  0.00     0.037 A 
BRANCH  45  59
ATOM     59  C   UNL A   1      43.929  33.286  30.407  1.00  0.00     0.058 A 
ATOM     60  C   UNL A   1      43.895  34.374  29.523  1.00  0.00     0.135 A 
ATOM     61  C   UNL A   1      44.096  33.562  31.776  1.00  0.00     0.135 A 
ATOM     62  F   UNL A   1      43.764  34.169  28.203  1.00  0.00    -0.206 F 
ATOM     63  C   UNL A   1      44.049  35.683  29.976  1.00  0.00     0.059 A 
ATOM     64  C   UNL A   1      44.229  34.861  32.253  1.00  0.00     0.059 A 
ATOM     65  F   UNL A   1      44.146  32.558  32.665  1.00  0.00    -0.206 F 
ATOM     66  C   UNL A   1      44.222  35.916  31.343  1.00  0.00     0.060 A 
BRANCH  66  67
ATOM     67  S   UNL A   1      44.449  37.613  31.917  1.00  0.00     0.124 S 
ATOM     68  O   UNL A   1      43.857  37.552  33.248  1.00  0.00    -0.237 OA
ATOM     69  O   UNL A   1      45.900  37.765  31.876  1.00  0.00    -0.237 OA
ATOM     70  O   UNL A   1      43.712  38.405  30.938  1.00  0.00    -0.744 OA
ENDBRANCH  66  67
ENDBRANCH  45  59
BRANCH  46  71
ATOM     71  C   UNL A   1      42.653  23.726  27.565  1.00  0.00     0.058 A 
ATOM     72  C   UNL A   1      42.599  22.655  28.468  1.00  0.00     0.135 A 
ATOM     73  C   UNL A   1      42.500  23.422  26.199  1.00  0.00     0.135 A 
ATOM     74  F   UNL A   1      42.761  22.876  29.781  1.00  0.00    -0.206 F 
ATOM     75  C   UNL A   1      42.402  21.343  28.039  1.00  0.00     0.059 A 
ATOM     76  C   UNL A   1      42.263  22.128  25.749  1.00  0.00     0.059 A 
ATOM     77  F   UNL A   1      42.546  24.401  25.280  1.00  0.00    -0.206 F 
ATOM     78  C   UNL A   1      42.227  21.090  26.676  1.00  0.00     0.060 A 
BRANCH  78  79
ATOM     79  S   UNL A   1      41.919  19.396  26.130  1.00  0.00     0.124 S 
ATOM     80  O   UNL A   1      40.481  19.420  25.894  1.00  0.00    -0.237 OA
ATOM     81  O   UNL A   1      42.762  19.298  24.942  1.00  0.00    -0.237 OA
ATOM     82  O   UNL A   1      42.360  18.592  27.268  1.00  0.00    -0.744 OA
ENDBRANCH  78  79
ENDBRANCH  46  71
BRANCH  58  83
ATOM     83  C   UNL A   1      48.105  28.071  27.642  1.00  0.00     0.058 A 
ATOM     84  C   UNL A   1      48.479  28.297  26.309  1.00  0.00     0.135 A 
ATOM     85  C   UNL A   1      49.108  27.746  28.567  1.00  0.00     0.135 A 
ATOM     86  F   UNL A   1      47.551  28.593  25.386  1.00  0.00    -0.206 F 
ATOM     87  C   UNL A   1      49.807  28.202  25.907  1.00  0.00     0.059 A 
ATOM     88  C   UNL A   1      50.444  27.671  28.192  1.00  0.00     0.059 A 
ATOM     89  F   UNL A   1      48.795  27.522  29.853  1.00  0.00    -0.206 F 
ATOM     90  C   UNL A   1      50.782  27.896  26.858  1.00  0.00     0.060 A 
BRANCH  90  91
ATOM     91  S   UNL A   1      52.507  27.838  26.336  1.00  0.00     0.124 S 
ATOM     92  O   UNL A   1      52.585  26.517  25.722  1.00  0.00    -0.237 OA
ATOM     93  O   UNL A   1      52.594  28.971  25.419  1.00  0.00    -0.237 OA
ATOM     94  O   UNL A   1      53.246  27.995  27.585  1.00  0.00    -0.744 OA
ENDBRANCH  90  91
ENDBRANCH  58  83
ENDBRANCH  32  33
ENDBRANCH  25  27
ENDBRANCH  24  25
ENDBRANCH  23  24
ENDBRANCH   1  23
TORSDOF 20
ENDMDL
MODEL 3
REMARK VINA RESULT:      -9.0      5.076     11.580
REMARK SMILES C#CC[N@@H+](CC(=O)OCCOC(=O)c1ccc(-c2c3nc(c(-c4c(F)cc(S(=O)(=O)[O-])cc4F)c4ccc([nH]4)c(-c4c(F)cc(S(=O)(=O)[O-])cc4F)c4nc(c(-c5c(F)cc(S(=O)(=O)[O-])cc5F)c5ccc2[nH]5)C=C4)C=C3)cc1)Cc1cn(CC)c2ccccc12
REMARK SMILES IDX 9 1 8 2 6 3 7 4 5 5 4 6 3 8 2 9 1 10 80 11 81 12 82 13 91 14
REMARK SMILES IDX 83 15 86 16 90 17 87 18 89 19 88 20 84 21 85 22 10 23 11 24
REMARK SMILES IDX 12 25 13 26 14 27 15 28 79 29 16 30 78 31 17 32 18 33 19 34
REMARK SMILES IDX 72 35 20 36 77 37 71 38 73 39 21 40 76 41 70 42 69 43 22 45
REMARK SMILES IDX 56 46 35 47 55 48 36 49 39 50 54 51 74 52 37 53 38 54 53 56
REMARK SMILES IDX 75 57 40 58 23 59 24 60 33 61 25 62 26 63 32 64 34 65 27 66
REMARK SMILES IDX 28 67 29 68 30 69 31 70 57 71 58 72 67 73 59 74 60 75 66 76
REMARK SMILES IDX 68 77 61 78 62 79 63 80 64 81 65 82 41 83 42 84 51 85 43 86
REMARK SMILES IDX 44 87 50 88 52 89 45 90 46 91 47 92 48 93 49 94
REMARK H PARENT 4 7 73 44 39 55
REMARK Flexibility Score: inf
ROOT
ATOM      1  C   UNL A   1      36.386  22.566  23.728  1.00  0.00     0.274 C 
ENDROOT
BRANCH   1   2
ATOM      2  O   UNL A   1      35.321  23.537  23.904  1.00  0.00    -0.458 OA
BRANCH   2   3
ATOM      3  C   UNL A   1      34.187  23.430  23.149  1.00  0.00     0.361 C 
ATOM      4  O   UNL A   1      34.218  23.330  21.926  1.00  0.00    -0.245 OA
BRANCH   3   5
ATOM      5  C   UNL A   1      32.837  23.430  23.953  1.00  0.00     0.387 C 
BRANCH   5   6
ATOM      6  N   UNL A   1      32.870  23.502  25.460  1.00  0.00    -0.312 N 
ATOM      7  H   UNL A   1      33.813  23.804  25.705  1.00  0.00     0.349 HD
BRANCH   6   8
ATOM      8  C   UNL A   1      32.458  22.208  25.874  1.00  0.00     0.354 C 
BRANCH   8   9
ATOM      9  C   UNL A   1      33.109  20.953  25.318  1.00  0.00    -0.047 C 
ATOM     10  C   UNL A   1      33.667  19.876  24.840  1.00  0.00     0.010 C 
ENDBRANCH   8   9
ENDBRANCH   6   8
BRANCH   6  11
ATOM     11  C   UNL A   1      32.062  24.515  26.179  1.00  0.00     0.302 C 
BRANCH  11  12
ATOM     12  C   UNL A   1      32.371  25.847  25.635  1.00  0.00     0.032 A 
ATOM     13  C   UNL A   1      33.380  26.627  26.128  1.00  0.00     0.096 A 
ATOM     14  C   UNL A   1      31.610  26.667  24.778  1.00  0.00     0.008 A 
ATOM     15  N   UNL A   1      32.993  27.931  26.004  1.00  0.00    -0.347 N 
ATOM     16  C   UNL A   1      31.982  27.991  25.067  1.00  0.00     0.048 A 
ATOM     17  C   UNL A   1      30.538  26.412  23.911  1.00  0.00     0.011 A 
ATOM     18  C   UNL A   1      31.295  29.076  24.524  1.00  0.00     0.027 A 
ATOM     19  C   UNL A   1      29.867  27.489  23.340  1.00  0.00     0.001 A 
ATOM     20  C   UNL A   1      30.236  28.797  23.652  1.00  0.00     0.002 A 
BRANCH  15  21
ATOM     21  C   UNL A   1      33.321  28.928  27.014  1.00  0.00     0.119 C 
ATOM     22  C   UNL A   1      34.775  29.324  27.116  1.00  0.00     0.027 C 
ENDBRANCH  15  21
ENDBRANCH  11  12
ENDBRANCH   6  11
ENDBRANCH   5   6
ENDBRANCH   3   5
ENDBRANCH   2   3
ENDBRANCH   1   2
BRANCH   1  23
ATOM     23  C   UNL A   1      36.986  22.168  25.103  1.00  0.00     0.275 C 
BRANCH  23  24
ATOM     24  O   UNL A   1      37.760  23.269  25.622  1.00  0.00    -0.458 OA
BRANCH  24  25
ATOM     25  C   UNL A   1      38.992  23.038  26.174  1.00  0.00     0.338 C 
ATOM     26  O   UNL A   1      39.646  22.020  26.053  1.00  0.00    -0.246 OA
BRANCH  25  27
ATOM     27  C   UNL A   1      39.453  24.290  26.869  1.00  0.00     0.060 A 
ATOM     28  C   UNL A   1      39.061  24.469  28.183  1.00  0.00     0.016 A 
ATOM     29  C   UNL A   1      40.169  25.333  26.278  1.00  0.00     0.016 A 
ATOM     30  C   UNL A   1      39.157  25.682  28.836  1.00  0.00     0.010 A 
ATOM     31  C   UNL A   1      40.489  26.492  27.037  1.00  0.00     0.010 A 
ATOM     32  C   UNL A   1      39.988  26.668  28.341  1.00  0.00    -0.014 A 
BRANCH  32  33
ATOM     33  C   UNL A   1      40.333  27.784  29.269  1.00  0.00     0.031 A 
ATOM     34  C   UNL A   1      41.600  27.746  30.060  1.00  0.00     0.074 A 
ATOM     35  C   UNL A   1      39.562  28.899  29.322  1.00  0.00     0.049 A 
ATOM     36  N   UNL A   1      41.926  28.441  31.116  1.00  0.00    -0.248 NA
ATOM     37  C   UNL A   1      42.641  26.815  29.600  1.00  0.00     0.031 C 
ATOM     38  C   UNL A   1      38.395  29.164  28.473  1.00  0.00     0.029 A 
ATOM     39  N   UNL A   1      39.648  30.037  30.089  1.00  0.00    -0.354 N 
ATOM     40  C   UNL A   1      43.171  27.970  31.506  1.00  0.00     0.074 A 
ATOM     41  C   UNL A   1      43.570  26.972  30.535  1.00  0.00     0.031 C 
ATOM     42  C   UNL A   1      37.932  30.398  28.702  1.00  0.00     0.029 A 
ATOM     43  C   UNL A   1      38.622  30.932  29.861  1.00  0.00     0.049 A 
ATOM     44  H   UNL A   1      40.370  30.197  30.738  1.00  0.00     0.167 HD
ATOM     45  C   UNL A   1      43.873  28.320  32.609  1.00  0.00     0.037 A 
ATOM     46  C   UNL A   1      38.192  31.991  30.574  1.00  0.00     0.037 A 
ATOM     47  C   UNL A   1      43.437  29.342  33.527  1.00  0.00     0.049 A 
ATOM     48  C   UNL A   1      38.894  32.273  31.871  1.00  0.00     0.074 A 
ATOM     49  C   UNL A   1      44.001  29.726  34.731  1.00  0.00     0.029 A 
ATOM     50  N   UNL A   1      42.328  30.155  33.329  1.00  0.00    -0.354 N 
ATOM     51  N   UNL A   1      39.968  31.701  32.361  1.00  0.00    -0.248 NA
ATOM     52  C   UNL A   1      38.295  33.289  32.744  1.00  0.00     0.031 C 
ATOM     53  C   UNL A   1      43.202  30.737  35.281  1.00  0.00     0.029 A 
ATOM     54  C   UNL A   1      42.171  31.020  34.397  1.00  0.00     0.049 A 
ATOM     55  H   UNL A   1      41.738  30.121  32.541  1.00  0.00     0.167 HD
ATOM     56  C   UNL A   1      40.169  32.277  33.607  1.00  0.00     0.074 A 
ATOM     57  C   UNL A   1      39.124  33.268  33.779  1.00  0.00     0.031 C 
ATOM     58  C   UNL A   1      41.119  31.998  34.533  1.00  0.00     0.037 A 
BRANCH  45  59
ATOM     59  C   UNL A   1      45.088  27.502  32.942  1.00  0.00     0.058 A 
ATOM     60  C   UNL A   1      46.381  27.857  32.532  1.00  0.00     0.135 A 
ATOM     61  C   UNL A   1      44.939  26.313  33.676  1.00  0.00     0.135 A 
ATOM     62  F   UNL A   1      46.581  28.968  31.806  1.00  0.00    -0.206 F 
ATOM     63  C   UNL A   1      47.480  27.047  32.814  1.00  0.00     0.059 A 
ATOM     64  C   UNL A   1      46.024  25.501  33.989  1.00  0.00     0.059 A 
ATOM     65  F   UNL A   1      43.722  25.920  34.085  1.00  0.00    -0.206 F 
ATOM     66  C   UNL A   1      47.290  25.867  33.538  1.00  0.00     0.060 A 
BRANCH  66  67
ATOM     67  S   UNL A   1      48.716  24.811  33.875  1.00  0.00     0.124 S 
ATOM     68  O   UNL A   1      49.408  24.839  32.592  1.00  0.00    -0.237 OA
ATOM     69  O   UNL A   1      49.377  25.518  34.967  1.00  0.00    -0.237 OA
ATOM     70  O   UNL A   1      48.114  23.531  34.235  1.00  0.00    -0.744 OA
ENDBRANCH  66  67
ENDBRANCH  45  59
BRANCH  46  71
ATOM     71  C   UNL A   1      36.955  32.730  30.179  1.00  0.00     0.058 A 
ATOM     72  C   UNL A   1      35.708  32.424  30.741  1.00  0.00     0.135 A 
ATOM     73  C   UNL A   1      36.994  33.765  29.225  1.00  0.00     0.135 A 
ATOM     74  F   UNL A   1      35.602  31.433  31.639  1.00  0.00    -0.206 F 
ATOM     75  C   UNL A   1      34.551  33.113  30.378  1.00  0.00     0.059 A 
ATOM     76  C   UNL A   1      35.862  34.493  28.875  1.00  0.00     0.059 A 
ATOM     77  F   UNL A   1      38.155  34.105  28.644  1.00  0.00    -0.206 F 
ATOM     78  C   UNL A   1      34.640  34.151  29.448  1.00  0.00     0.060 A 
BRANCH  78  79
ATOM     79  S   UNL A   1      33.147  35.075  29.019  1.00  0.00     0.124 S 
ATOM     80  O   UNL A   1      33.707  36.335  28.546  1.00  0.00    -0.237 OA
ATOM     81  O   UNL A   1      32.539  34.222  28.002  1.00  0.00    -0.237 OA
ATOM     82  O   UNL A   1      32.420  35.141  30.284  1.00  0.00    -0.744 OA
ENDBRANCH  78  79
ENDBRANCH  46  71
BRANCH  58  83
ATOM     83  C   UNL A   1      41.075  32.792  35.803  1.00  0.00     0.058 A 
ATOM     84  C   UNL A   1      41.872  33.934  35.979  1.00  0.00     0.135 A 
ATOM     85  C   UNL A   1      40.184  32.441  36.828  1.00  0.00     0.135 A 
ATOM     86  F   UNL A   1      42.752  34.297  35.034  1.00  0.00    -0.206 F 
ATOM     87  C   UNL A   1      41.788  34.700  37.136  1.00  0.00     0.059 A 
ATOM     88  C   UNL A   1      40.065  33.206  37.981  1.00  0.00     0.059 A 
ATOM     89  F   UNL A   1      39.402  31.356  36.701  1.00  0.00    -0.206 F 
ATOM     90  C   UNL A   1      40.876  34.332  38.127  1.00  0.00     0.060 A 
BRANCH  90  91
ATOM     91  S   UNL A   1      40.732  35.371  39.595  1.00  0.00     0.124 S 
ATOM     92  O   UNL A   1      41.966  35.051  40.304  1.00  0.00    -0.237 OA
ATOM     93  O   UNL A   1      40.657  36.712  39.022  1.00  0.00    -0.237 OA
ATOM     94  O   UNL A   1      39.503  34.898  40.226  1.00  0.00    -0.744 OA
ENDBRANCH  90  91
ENDBRANCH  58  83
ENDBRANCH  32  33
ENDBRANCH  25  27
ENDBRANCH  24  25
ENDBRANCH  23  24
ENDBRANCH   1  23
TORSDOF 20
ENDMDL
