MODEL 1
REMARK VINA RESULT:     -12.7      0.000      0.000
REMARK SMILES Cc1ccc(C(c2ccccc2)(c2ccccc2)n2cnc(C[C@H]([NH3+])C(=O)OCCOC(=O)c3ccc(-c4c5nc(c(-c6c(F)cc(S(=O)(=O)[O-])cc6F)c6ccc([nH]6)c(-c6c(F)cc(S(=O)(=O)[O-])cc6F)c6nc(c(-c7c(F)cc(S(=O)(=O)[O-])cc7F)c7ccc4[nH]7)C=C6)C=C5)cc3)c2)cc1
REMARK SMILES IDX 29 1 28 2 26 3 27 4 24 5 23 6 22 7 19 8 20 9 100 10 21 11
REMARK SMILES IDX 6 12 5 13 1 14 2 15 3 16 102 17 4 18 101 19 7 20 8 21 12 22
REMARK SMILES IDX 9 23 11 24 10 25 13 26 14 27 18 28 15 29 17 30 16 31 25 32
REMARK SMILES IDX 30 36 31 37 32 38 33 39 34 40 35 41 99 42 36 43 98 44 37 45
REMARK SMILES IDX 38 46 39 47 92 48 40 49 97 50 91 51 93 52 41 53 96 54 90 55
REMARK SMILES IDX 89 56 42 58 76 59 55 60 75 61 56 62 59 63 74 64 94 65 57 66
REMARK SMILES IDX 58 67 73 69 95 70 60 71 43 72 44 73 53 74 45 75 46 76 52 77
REMARK SMILES IDX 54 78 47 79 48 80 49 81 50 82 51 83 77 84 78 85 87 86 79 87
REMARK SMILES IDX 80 88 86 89 88 90 81 91 82 92 83 93 84 94 85 95 61 96 62 97
REMARK SMILES IDX 71 98 63 99 64 100 70 101 72 102 65 103 66 104 67 105 68 106
REMARK SMILES IDX 69 107
REMARK H PARENT 25 33 25 34 25 35 93 57 59 68
REMARK Flexibility Score: inf
ROOT
ATOM      1  C   UNL A   1      36.008  31.915  30.422  1.00  0.00     0.274 C 
ENDROOT
BRANCH   1   2
ATOM      2  O   UNL A   1      36.318  31.563  29.068  1.00  0.00    -0.458 OA
BRANCH   2   3
ATOM      3  C   UNL A   1      35.516  32.223  28.194  1.00  0.00     0.365 C 
ATOM      4  O   UNL A   1      35.934  33.276  27.726  1.00  0.00    -0.245 OA
BRANCH   3   5
ATOM      5  C   UNL A   1      34.111  31.586  27.668  1.00  0.00     0.297 C 
BRANCH   5   6
ATOM      6  C   UNL A   1      34.666  29.842  27.229  1.00  0.00     0.135 C 
BRANCH   6   7
ATOM      7  C   UNL A   1      33.827  28.529  27.038  1.00  0.00     0.065 A 
ATOM      8  N   UNL A   1      32.639  26.778  26.205  1.00  0.00    -0.319 N 
ATOM      9  C   UNL A   1      32.014  27.351  27.274  1.00  0.00     0.201 A 
ATOM     10  C   UNL A   1      33.853  27.488  26.096  1.00  0.00     0.112 A 
ATOM     11  N   UNL A   1      32.648  28.408  27.703  1.00  0.00    -0.241 NA
BRANCH   8  12
ATOM     12  C   UNL A   1      31.883  25.856  25.240  1.00  0.00     0.121 C 
BRANCH  12  13
ATOM     13  C   UNL A   1      30.972  26.708  24.222  1.00  0.00    -0.013 A 
ATOM     14  C   UNL A   1      27.882  30.321  22.091  1.00  0.00     0.044 C 
ATOM     15  C   UNL A   1      29.167  28.668  22.600  1.00  0.00    -0.051 A 
ATOM     16  C   UNL A   1      28.811  27.338  23.244  1.00  0.00     0.004 A 
ATOM     17  C   UNL A   1      30.650  28.520  22.524  1.00  0.00     0.004 A 
ATOM     18  C   UNL A   1      29.619  26.489  24.061  1.00  0.00     0.007 A 
ATOM     19  C   UNL A   1      31.478  27.595  23.263  1.00  0.00     0.007 A 
ENDBRANCH  12  13
BRANCH  12  20
ATOM     20  C   UNL A   1      33.058  25.100  24.425  1.00  0.00    -0.013 A 
ATOM     21  C   UNL A   1      32.818  24.488  23.176  1.00  0.00     0.007 A 
ATOM     22  C   UNL A   1      34.328  24.801  24.982  1.00  0.00     0.007 A 
ATOM     23  C   UNL A   1      33.792  23.730  22.501  1.00  0.00     0.000 A 
ATOM     24  C   UNL A   1      35.310  24.053  24.313  1.00  0.00     0.000 A 
ATOM     25  C   UNL A   1      35.043  23.522  23.063  1.00  0.00     0.000 A 
ENDBRANCH  12  20
BRANCH  12  26
ATOM     26  C   UNL A   1      30.914  24.934  26.090  1.00  0.00    -0.013 A 
ATOM     27  C   UNL A   1      31.275  23.601  26.413  1.00  0.00     0.007 A 
ATOM     28  C   UNL A   1      29.604  25.303  26.447  1.00  0.00     0.007 A 
ATOM     29  C   UNL A   1      30.377  22.689  26.977  1.00  0.00     0.000 A 
ATOM     30  C   UNL A   1      28.693  24.386  26.991  1.00  0.00     0.000 A 
ATOM     31  C   UNL A   1      29.073  23.075  27.241  1.00  0.00     0.000 A 
ENDBRANCH  12  26
ENDBRANCH   8  12
ENDBRANCH   6   7
ENDBRANCH   5   6
BRANCH   5  32
ATOM     32  N   UNL A   1      32.289  32.528  27.304  1.00  0.00    -0.346 N 
ATOM     33  H   UNL A   1      31.563  31.823  27.169  1.00  0.00     0.345 HD
ATOM     34  H   UNL A   1      32.364  33.103  26.465  1.00  0.00     0.345 HD
ATOM     35  H   UNL A   1      32.045  33.117  28.100  1.00  0.00     0.345 HD
ENDBRANCH   5  32
ENDBRANCH   3   5
ENDBRANCH   2   3
ENDBRANCH   1   2
BRANCH   1  36
ATOM     36  C   UNL A   1      36.530  30.872  31.466  1.00  0.00     0.275 C 
BRANCH  36  37
ATOM     37  O   UNL A   1      36.708  29.481  31.003  1.00  0.00    -0.458 OA
BRANCH  37  38
ATOM     38  C   UNL A   1      37.889  28.795  30.807  1.00  0.00     0.338 C 
ATOM     39  O   UNL A   1      38.327  27.956  31.579  1.00  0.00    -0.246 OA
BRANCH  38  40
ATOM     40  C   UNL A   1      38.728  29.327  29.693  1.00  0.00     0.060 A 
ATOM     41  C   UNL A   1      38.768  28.681  27.948  1.00  0.00     0.016 A 
ATOM     42  C   UNL A   1      40.134  30.208  30.362  1.00  0.00     0.016 A 
ATOM     43  C   UNL A   1      40.351  28.844  26.979  1.00  0.00     0.010 A 
ATOM     44  C   UNL A   1      41.680  30.268  29.477  1.00  0.00     0.010 A 
ATOM     45  C   UNL A   1      41.853  29.519  27.838  1.00  0.00    -0.014 A 
BRANCH  45  46
ATOM     46  C   UNL A   1      43.299  29.333  27.690  1.00  0.00     0.031 A 
ATOM     47  C   UNL A   1      44.164  30.324  27.049  1.00  0.00     0.074 A 
ATOM     48  C   UNL A   1      43.899  28.389  28.490  1.00  0.00     0.049 A 
ATOM     49  N   UNL A   1      45.416  30.096  26.803  1.00  0.00    -0.248 NA
ATOM     50  C   UNL A   1      43.732  31.654  26.630  1.00  0.00     0.031 C 
ATOM     51  C   UNL A   1      45.222  28.484  29.079  1.00  0.00     0.029 A 
ATOM     52  N   UNL A   1      43.470  27.109  28.954  1.00  0.00    -0.354 N 
ATOM     53  C   UNL A   1      45.991  31.333  26.750  1.00  0.00     0.074 A 
ATOM     54  C   UNL A   1      44.918  32.200  26.319  1.00  0.00     0.031 C 
ATOM     55  C   UNL A   1      45.607  27.274  29.500  1.00  0.00     0.029 A 
ATOM     56  C   UNL A   1      44.609  26.293  29.109  1.00  0.00     0.049 A 
ATOM     57  H   UNL A   1      42.539  26.843  29.134  1.00  0.00     0.167 HD
ATOM     58  C   UNL A   1      47.205  31.536  27.343  1.00  0.00     0.037 A 
ATOM     59  C   UNL A   1      44.827  25.033  28.612  1.00  0.00     0.037 A 
ATOM     60  C   UNL A   1      47.859  30.303  27.844  1.00  0.00     0.049 A 
ATOM     61  C   UNL A   1      46.186  24.963  27.927  1.00  0.00     0.074 A 
ATOM     62  C   UNL A   1      48.510  29.915  29.008  1.00  0.00     0.029 A 
ATOM     63  N   UNL A   1      47.785  29.134  27.098  1.00  0.00    -0.354 N 
ATOM     64  N   UNL A   1      47.194  25.760  28.186  1.00  0.00    -0.248 NA
ATOM     65  C   UNL A   1      46.457  24.123  26.761  1.00  0.00     0.031 C 
ATOM     66  C   UNL A   1      48.933  28.550  28.867  1.00  0.00     0.029 A 
ATOM     67  C   UNL A   1      48.564  28.114  27.610  1.00  0.00     0.049 A 
ATOM     68  H   UNL A   1      47.232  29.042  26.288  1.00  0.00     0.167 HD
ATOM     69  C   UNL A   1      47.980  25.842  27.060  1.00  0.00     0.074 A 
ATOM     70  C   UNL A   1      47.556  24.710  26.258  1.00  0.00     0.031 C 
ATOM     71  C   UNL A   1      48.747  26.938  26.771  1.00  0.00     0.037 A 
BRANCH  58  72
ATOM     72  C   UNL A   1      47.786  32.917  27.594  1.00  0.00     0.058 A 
ATOM     73  C   UNL A   1      49.016  33.283  27.008  1.00  0.00     0.135 A 
ATOM     74  C   UNL A   1      47.219  33.904  28.434  1.00  0.00     0.135 A 
ATOM     75  F   UNL A   1      49.685  32.434  26.215  1.00  0.00    -0.206 F 
ATOM     76  C   UNL A   1      49.620  34.525  27.220  1.00  0.00     0.059 A 
ATOM     77  C   UNL A   1      47.761  35.179  28.595  1.00  0.00     0.059 A 
ATOM     78  F   UNL A   1      46.151  33.659  29.204  1.00  0.00    -0.206 F 
ATOM     79  C   UNL A   1      48.977  35.476  28.003  1.00  0.00     0.060 A 
BRANCH  79  80
ATOM     80  S   UNL A   1      49.749  37.080  28.272  1.00  0.00     0.124 S 
ATOM     81  O   UNL A   1      51.037  36.696  28.840  1.00  0.00    -0.237 OA
ATOM     82  O   UNL A   1      49.786  37.643  26.928  1.00  0.00    -0.237 OA
ATOM     83  O   UNL A   1      48.833  37.744  29.198  1.00  0.00    -0.744 OA
ENDBRANCH  79  80
ENDBRANCH  58  72
BRANCH  59  84
ATOM     84  C   UNL A   1      43.643  24.138  28.342  1.00  0.00     0.058 A 
ATOM     85  C   UNL A   1      43.055  24.183  27.064  1.00  0.00     0.135 A 
ATOM     86  C   UNL A   1      43.175  23.107  29.174  1.00  0.00     0.135 A 
ATOM     87  F   UNL A   1      43.340  25.203  26.238  1.00  0.00    -0.206 F 
ATOM     88  C   UNL A   1      42.221  23.167  26.575  1.00  0.00     0.059 A 
ATOM     89  C   UNL A   1      42.407  22.035  28.690  1.00  0.00     0.059 A 
ATOM     90  F   UNL A   1      43.474  23.089  30.477  1.00  0.00    -0.206 F 
ATOM     91  C   UNL A   1      41.998  22.038  27.362  1.00  0.00     0.060 A 
BRANCH  91  92
ATOM     92  S   UNL A   1      41.461  20.474  26.594  1.00  0.00     0.124 S 
ATOM     93  O   UNL A   1      41.658  19.521  27.684  1.00  0.00    -0.237 OA
ATOM     94  O   UNL A   1      40.063  20.717  26.241  1.00  0.00    -0.237 OA
ATOM     95  O   UNL A   1      42.379  20.313  25.466  1.00  0.00    -0.744 OA
ENDBRANCH  91  92
ENDBRANCH  59  84
BRANCH  71  96
ATOM     96  C   UNL A   1      49.516  27.128  25.480  1.00  0.00     0.058 A 
ATOM     97  C   UNL A   1      51.340  27.083  25.397  1.00  0.00     0.135 A 
ATOM     98  C   UNL A   1      48.588  27.299  23.895  1.00  0.00     0.135 A 
ATOM     99  F   UNL A   1      52.072  27.292  26.503  1.00  0.00    -0.206 F 
ATOM    100  C   UNL A   1      52.223  27.149  23.814  1.00  0.00     0.059 A 
ATOM    101  C   UNL A   1      49.453  27.198  22.279  1.00  0.00     0.059 A 
ATOM    102  F   UNL A   1      47.272  27.530  23.854  1.00  0.00    -0.206 F 
ATOM    103  C   UNL A   1      51.261  27.131  22.256  1.00  0.00     0.060 A 
BRANCH 103 104
ATOM    104  S   UNL A   1      52.140  27.499  20.744  1.00  0.00     0.124 S 
ATOM    105  O   UNL A   1      52.574  26.170  20.323  1.00  0.00    -0.237 OA
ATOM    106  O   UNL A   1      51.095  28.108  19.930  1.00  0.00    -0.237 OA
ATOM    107  O   UNL A   1      53.204  28.389  21.192  1.00  0.00    -0.744 OA
ENDBRANCH 103 104
ENDBRANCH  71  96
ENDBRANCH  45  46
ENDBRANCH  38  40
ENDBRANCH  37  38
ENDBRANCH  36  37
ENDBRANCH   1  36
TORSDOF 21
ENDMDL
MODEL 2
REMARK VINA RESULT:     -12.5      6.260     13.152
REMARK SMILES Cc1ccc(C(c2ccccc2)(c2ccccc2)n2cnc(C[C@H]([NH3+])C(=O)OCCOC(=O)c3ccc(-c4c5nc(c(-c6c(F)cc(S(=O)(=O)[O-])cc6F)c6ccc([nH]6)c(-c6c(F)cc(S(=O)(=O)[O-])cc6F)c6nc(c(-c7c(F)cc(S(=O)(=O)[O-])cc7F)c7ccc4[nH]7)C=C6)C=C5)cc3)c2)cc1
REMARK SMILES IDX 29 1 28 2 26 3 27 4 24 5 23 6 22 7 19 8 20 9 100 10 21 11
REMARK SMILES IDX 6 12 5 13 1 14 2 15 3 16 102 17 4 18 101 19 7 20 8 21 12 22
REMARK SMILES IDX 9 23 11 24 10 25 13 26 14 27 18 28 15 29 17 30 16 31 25 32
REMARK SMILES IDX 30 36 31 37 32 38 33 39 34 40 35 41 99 42 36 43 98 44 37 45
REMARK SMILES IDX 38 46 39 47 92 48 40 49 97 50 91 51 93 52 41 53 96 54 90 55
REMARK SMILES IDX 89 56 42 58 76 59 55 60 75 61 56 62 59 63 74 64 94 65 57 66
REMARK SMILES IDX 58 67 73 69 95 70 60 71 43 72 44 73 53 74 45 75 46 76 52 77
REMARK SMILES IDX 54 78 47 79 48 80 49 81 50 82 51 83 77 84 78 85 87 86 79 87
REMARK SMILES IDX 80 88 86 89 88 90 81 91 82 92 83 93 84 94 85 95 61 96 62 97
REMARK SMILES IDX 71 98 63 99 64 100 70 101 72 102 65 103 66 104 67 105 68 106
REMARK SMILES IDX 69 107
REMARK H PARENT 25 33 25 34 25 35 93 57 59 68
REMARK Flexibility Score: inf
ROOT
ATOM      1  C   UNL A   1      49.601  32.797  27.455  1.00  0.00     0.274 C 
ENDROOT
BRANCH   1   2
ATOM      2  O   UNL A   1      48.905  31.582  27.760  1.00  0.00    -0.458 OA
BRANCH   2   3
ATOM      3  C   UNL A   1      49.496  30.516  27.163  1.00  0.00     0.365 C 
ATOM      4  O   UNL A   1      50.338  30.743  26.302  1.00  0.00    -0.245 OA
BRANCH   3   5
ATOM      5  C   UNL A   1      49.213  28.988  27.659  1.00  0.00     0.297 C 
BRANCH   5   6
ATOM      6  C   UNL A   1      47.811  28.503  26.502  1.00  0.00     0.135 C 
BRANCH   6   7
ATOM      7  C   UNL A   1      46.309  28.169  26.814  1.00  0.00     0.065 A 
ATOM      8  N   UNL A   1      44.356  27.177  27.424  1.00  0.00    -0.319 N 
ATOM      9  C   UNL A   1      44.255  27.790  26.209  1.00  0.00     0.201 A 
ATOM     10  C   UNL A   1      45.663  27.485  27.856  1.00  0.00     0.112 A 
ATOM     11  N   UNL A   1      45.395  28.288  25.816  1.00  0.00    -0.241 NA
BRANCH   8  12
ATOM     12  C   UNL A   1      43.332  26.128  27.875  1.00  0.00     0.121 C 
BRANCH  12  13
ATOM     13  C   UNL A   1      41.837  26.723  27.830  1.00  0.00    -0.013 A 
ATOM     14  C   UNL A   1      37.505  29.458  28.780  1.00  0.00     0.044 C 
ATOM     15  C   UNL A   1      39.084  28.171  28.080  1.00  0.00    -0.051 A 
ATOM     16  C   UNL A   1      39.503  26.800  28.586  1.00  0.00     0.004 A 
ATOM     17  C   UNL A   1      40.137  28.387  27.044  1.00  0.00     0.004 A 
ATOM     18  C   UNL A   1      40.790  26.180  28.547  1.00  0.00     0.007 A 
ATOM     19  C   UNL A   1      41.402  27.697  26.922  1.00  0.00     0.007 A 
ENDBRANCH  12  13
BRANCH  12  20
ATOM     20  C   UNL A   1      43.485  24.943  26.784  1.00  0.00    -0.013 A 
ATOM     21  C   UNL A   1      44.687  24.740  26.073  1.00  0.00     0.007 A 
ATOM     22  C   UNL A   1      42.391  24.178  26.303  1.00  0.00     0.007 A 
ATOM     23  C   UNL A   1      44.810  23.790  25.042  1.00  0.00     0.000 A 
ATOM     24  C   UNL A   1      42.506  23.222  25.282  1.00  0.00     0.000 A 
ATOM     25  C   UNL A   1      43.722  23.022  24.654  1.00  0.00     0.000 A 
ENDBRANCH  12  20
BRANCH  12  26
ATOM     26  C   UNL A   1      43.646  25.741  29.379  1.00  0.00    -0.013 A 
ATOM     27  C   UNL A   1      43.808  26.742  30.370  1.00  0.00     0.007 A 
ATOM     28  C   UNL A   1      43.927  24.428  29.801  1.00  0.00     0.007 A 
ATOM     29  C   UNL A   1      44.285  26.465  31.656  1.00  0.00     0.000 A 
ATOM     30  C   UNL A   1      44.428  24.148  31.081  1.00  0.00     0.000 A 
ATOM     31  C   UNL A   1      44.622  25.167  32.003  1.00  0.00     0.000 A 
ENDBRANCH  12  26
ENDBRANCH   8  12
ENDBRANCH   6   7
ENDBRANCH   5   6
BRANCH   5  32
ATOM     32  N   UNL A   1      49.984  27.972  29.307  1.00  0.00    -0.346 N 
ATOM     33  H   UNL A   1      49.444  27.121  29.465  1.00  0.00     0.345 HD
ATOM     34  H   UNL A   1      49.927  28.569  30.132  1.00  0.00     0.345 HD
ATOM     35  H   UNL A   1      50.959  27.728  29.130  1.00  0.00     0.345 HD
ENDBRANCH   5  32
ENDBRANCH   3   5
ENDBRANCH   2   3
ENDBRANCH   1   2
BRANCH   1  36
ATOM     36  C   UNL A   1      48.688  33.881  26.792  1.00  0.00     0.275 C 
BRANCH  36  37
ATOM     37  O   UNL A   1      47.458  33.414  26.121  1.00  0.00    -0.458 OA
BRANCH  37  38
ATOM     38  C   UNL A   1      46.150  33.635  26.496  1.00  0.00     0.338 C 
ATOM     39  O   UNL A   1      45.556  34.686  26.310  1.00  0.00    -0.246 OA
BRANCH  38  40
ATOM     40  C   UNL A   1      45.575  32.571  27.369  1.00  0.00     0.060 A 
ATOM     41  C   UNL A   1      44.186  31.416  26.919  1.00  0.00     0.016 A 
ATOM     42  C   UNL A   1      45.916  32.947  29.085  1.00  0.00     0.016 A 
ATOM     43  C   UNL A   1      43.080  30.787  28.281  1.00  0.00     0.010 A 
ATOM     44  C   UNL A   1      44.796  32.435  30.373  1.00  0.00     0.010 A 
ATOM     45  C   UNL A   1      43.326  31.444  30.000  1.00  0.00    -0.014 A 
BRANCH  45  46
ATOM     46  C   UNL A   1      42.455  31.664  31.157  1.00  0.00     0.031 A 
ATOM     47  C   UNL A   1      41.502  32.771  31.234  1.00  0.00     0.074 A 
ATOM     48  C   UNL A   1      42.271  30.606  32.019  1.00  0.00     0.049 A 
ATOM     49  N   UNL A   1      40.832  33.036  32.312  1.00  0.00    -0.248 NA
ATOM     50  C   UNL A   1      41.195  33.677  30.132  1.00  0.00     0.031 C 
ATOM     51  C   UNL A   1      41.042  30.278  32.717  1.00  0.00     0.029 A 
ATOM     52  N   UNL A   1      43.148  29.581  32.482  1.00  0.00    -0.354 N 
ATOM     53  C   UNL A   1      39.718  33.695  31.875  1.00  0.00     0.074 A 
ATOM     54  C   UNL A   1      40.146  34.334  30.651  1.00  0.00     0.031 C 
ATOM     55  C   UNL A   1      41.312  29.417  33.705  1.00  0.00     0.029 A 
ATOM     56  C   UNL A   1      42.749  29.218  33.785  1.00  0.00     0.049 A 
ATOM     57  H   UNL A   1      43.901  29.194  31.980  1.00  0.00     0.167 HD
ATOM     58  C   UNL A   1      38.504  33.398  32.426  1.00  0.00     0.037 A 
ATOM     59  C   UNL A   1      43.519  29.133  34.918  1.00  0.00     0.037 A 
ATOM     60  C   UNL A   1      38.563  32.487  33.594  1.00  0.00     0.049 A 
ATOM     61  C   UNL A   1      42.847  29.871  36.069  1.00  0.00     0.074 A 
ATOM     62  C   UNL A   1      37.878  31.356  34.020  1.00  0.00     0.029 A 
ATOM     63  N   UNL A   1      39.584  32.629  34.525  1.00  0.00    -0.354 N 
ATOM     64  N   UNL A   1      41.561  30.108  36.154  1.00  0.00    -0.248 NA
ATOM     65  C   UNL A   1      43.589  30.572  37.116  1.00  0.00     0.031 C 
ATOM     66  C   UNL A   1      38.426  30.931  35.278  1.00  0.00     0.029 A 
ATOM     67  C   UNL A   1      39.426  31.816  35.631  1.00  0.00     0.049 A 
ATOM     68  H   UNL A   1      40.343  33.245  34.407  1.00  0.00     0.167 HD
ATOM     69  C   UNL A   1      41.381  31.240  36.916  1.00  0.00     0.074 A 
ATOM     70  C   UNL A   1      42.653  31.407  37.595  1.00  0.00     0.031 C 
ATOM     71  C   UNL A   1      40.302  32.069  36.767  1.00  0.00     0.037 A 
BRANCH  58  72
ATOM     72  C   UNL A   1      37.185  33.849  31.820  1.00  0.00     0.058 A 
ATOM     73  C   UNL A   1      36.263  34.578  32.601  1.00  0.00     0.135 A 
ATOM     74  C   UNL A   1      36.744  33.558  30.508  1.00  0.00     0.135 A 
ATOM     75  F   UNL A   1      36.532  34.895  33.875  1.00  0.00    -0.206 F 
ATOM     76  C   UNL A   1      35.021  34.998  32.116  1.00  0.00     0.059 A 
ATOM     77  C   UNL A   1      35.547  34.037  29.977  1.00  0.00     0.059 A 
ATOM     78  F   UNL A   1      37.414  32.730  29.696  1.00  0.00    -0.206 F 
ATOM     79  C   UNL A   1      34.677  34.738  30.795  1.00  0.00     0.060 A 
BRANCH  79  80
ATOM     80  S   UNL A   1      33.081  35.285  30.165  1.00  0.00     0.124 S 
ATOM     81  O   UNL A   1      32.795  34.264  29.162  1.00  0.00    -0.237 OA
ATOM     82  O   UNL A   1      32.244  35.259  31.359  1.00  0.00    -0.237 OA
ATOM     83  O   UNL A   1      33.366  36.616  29.636  1.00  0.00    -0.744 OA
ENDBRANCH  79  80
ENDBRANCH  58  72
BRANCH  59  84
ATOM     84  C   UNL A   1      44.993  28.841  34.781  1.00  0.00     0.058 A 
ATOM     85  C   UNL A   1      45.426  27.515  34.969  1.00  0.00     0.135 A 
ATOM     86  C   UNL A   1      45.971  29.720  34.287  1.00  0.00     0.135 A 
ATOM     87  F   UNL A   1      44.607  26.626  35.554  1.00  0.00    -0.206 F 
ATOM     88  C   UNL A   1      46.668  27.049  34.512  1.00  0.00     0.059 A 
ATOM     89  C   UNL A   1      47.187  29.271  33.749  1.00  0.00     0.059 A 
ATOM     90  F   UNL A   1      45.764  31.041  34.281  1.00  0.00    -0.206 F 
ATOM     91  C   UNL A   1      47.494  27.916  33.798  1.00  0.00     0.060 A 
BRANCH  91  92
ATOM     92  S   UNL A   1      48.781  27.255  32.688  1.00  0.00     0.124 S 
ATOM     93  O   UNL A   1      49.353  26.182  33.497  1.00  0.00    -0.237 OA
ATOM     94  O   UNL A   1      48.035  26.804  31.514  1.00  0.00    -0.237 OA
ATOM     95  O   UNL A   1      49.668  28.400  32.474  1.00  0.00    -0.744 OA
ENDBRANCH  91  92
ENDBRANCH  59  84
BRANCH  71  96
ATOM     96  C   UNL A   1      40.134  33.392  37.484  1.00  0.00     0.058 A 
ATOM     97  C   UNL A   1      38.851  33.675  38.753  1.00  0.00     0.135 A 
ATOM     98  C   UNL A   1      41.336  34.752  37.160  1.00  0.00     0.135 A 
ATOM     99  F   UNL A   1      37.767  32.884  38.808  1.00  0.00    -0.206 F 
ATOM    100  C   UNL A   1      38.782  35.214  39.709  1.00  0.00     0.059 A 
ATOM    101  C   UNL A   1      41.385  36.244  38.228  1.00  0.00     0.059 A 
ATOM    102  F   UNL A   1      42.190  34.726  36.131  1.00  0.00    -0.206 F 
ATOM    103  C   UNL A   1      40.103  36.461  39.487  1.00  0.00     0.060 A 
BRANCH 103 104
ATOM    104  S   UNL A   1      39.841  38.074  40.211  1.00  0.00     0.124 S 
ATOM    105  O   UNL A   1      41.086  38.758  39.870  1.00  0.00    -0.237 OA
ATOM    106  O   UNL A   1      38.654  38.534  39.499  1.00  0.00    -0.237 OA
ATOM    107  O   UNL A   1      39.664  37.773  41.626  1.00  0.00    -0.744 OA
ENDBRANCH 103 104
ENDBRANCH  71  96
ENDBRANCH  45  46
ENDBRANCH  38  40
ENDBRANCH  37  38
ENDBRANCH  36  37
ENDBRANCH   1  36
TORSDOF 21
ENDMDL
MODEL 3
REMARK VINA RESULT:     -12.5      6.383     13.192
REMARK SMILES Cc1ccc(C(c2ccccc2)(c2ccccc2)n2cnc(C[C@H]([NH3+])C(=O)OCCOC(=O)c3ccc(-c4c5nc(c(-c6c(F)cc(S(=O)(=O)[O-])cc6F)c6ccc([nH]6)c(-c6c(F)cc(S(=O)(=O)[O-])cc6F)c6nc(c(-c7c(F)cc(S(=O)(=O)[O-])cc7F)c7ccc4[nH]7)C=C6)C=C5)cc3)c2)cc1
REMARK SMILES IDX 29 1 28 2 26 3 27 4 24 5 23 6 22 7 19 8 20 9 100 10 21 11
REMARK SMILES IDX 6 12 5 13 1 14 2 15 3 16 102 17 4 18 101 19 7 20 8 21 12 22
REMARK SMILES IDX 9 23 11 24 10 25 13 26 14 27 18 28 15 29 17 30 16 31 25 32
REMARK SMILES IDX 30 36 31 37 32 38 33 39 34 40 35 41 99 42 36 43 98 44 37 45
REMARK SMILES IDX 38 46 39 47 92 48 40 49 97 50 91 51 93 52 41 53 96 54 90 55
REMARK SMILES IDX 89 56 42 58 76 59 55 60 75 61 56 62 59 63 74 64 94 65 57 66
REMARK SMILES IDX 58 67 73 69 95 70 60 71 43 72 44 73 53 74 45 75 46 76 52 77
REMARK SMILES IDX 54 78 47 79 48 80 49 81 50 82 51 83 77 84 78 85 87 86 79 87
REMARK SMILES IDX 80 88 86 89 88 90 81 91 82 92 83 93 84 94 85 95 61 96 62 97
REMARK SMILES IDX 71 98 63 99 64 100 70 101 72 102 65 103 66 104 67 105 68 106
REMARK SMILES IDX 69 107
REMARK H PARENT 25 33 25 34 25 35 93 57 59 68
REMARK Flexibility Score: inf
ROOT
ATOM      1  C   UNL A   1      50.216  32.189  26.802  1.00  0.00     0.274 C 
ENDROOT
BRANCH   1   2
ATOM      2  O   UNL A   1      49.378  31.027  26.828  1.00  0.00    -0.458 OA
BRANCH   2   3
ATOM      3  C   UNL A   1      50.048  29.930  26.391  1.00  0.00     0.365 C 
ATOM      4  O   UNL A   1      50.999  30.109  25.639  1.00  0.00    -0.245 OA
BRANCH   3   5
ATOM      5  C   UNL A   1      49.704  28.436  26.947  1.00  0.00     0.297 C 
BRANCH   5   6
ATOM      6  C   UNL A   1      48.161  28.041  25.945  1.00  0.00     0.135 C 
BRANCH   6   7
ATOM      7  C   UNL A   1      46.668  27.882  26.404  1.00  0.00     0.065 A 
ATOM      8  N   UNL A   1      44.660  27.100  27.130  1.00  0.00    -0.319 N 
ATOM      9  C   UNL A   1      44.526  27.896  26.030  1.00  0.00     0.201 A 
ATOM     10  C   UNL A   1      46.038  27.150  27.424  1.00  0.00     0.112 A 
ATOM     11  N   UNL A   1      45.681  28.279  25.559  1.00  0.00    -0.241 NA
BRANCH   8  12
ATOM     12  C   UNL A   1      43.537  26.152  27.569  1.00  0.00     0.121 C 
BRANCH  12  13
ATOM     13  C   UNL A   1      43.905  25.424  28.957  1.00  0.00    -0.013 A 
ATOM     14  C   UNL A   1      43.680  23.281  33.701  1.00  0.00     0.044 C 
ATOM     15  C   UNL A   1      44.158  24.042  31.743  1.00  0.00    -0.051 A 
ATOM     16  C   UNL A   1      44.540  25.453  31.327  1.00  0.00     0.004 A 
ATOM     17  C   UNL A   1      44.120  23.389  30.401  1.00  0.00     0.004 A 
ATOM     18  C   UNL A   1      44.339  26.108  30.074  1.00  0.00     0.007 A 
ATOM     19  C   UNL A   1      44.023  24.036  29.113  1.00  0.00     0.007 A 
ENDBRANCH  12  13
BRANCH  12  20
ATOM     20  C   UNL A   1      42.265  27.129  27.782  1.00  0.00    -0.013 A 
ATOM     21  C   UNL A   1      41.535  27.144  28.990  1.00  0.00     0.007 A 
ATOM     22  C   UNL A   1      41.659  27.863  26.730  1.00  0.00     0.007 A 
ATOM     23  C   UNL A   1      40.362  27.900  29.160  1.00  0.00     0.000 A 
ATOM     24  C   UNL A   1      40.493  28.628  26.892  1.00  0.00     0.000 A 
ATOM     25  C   UNL A   1      39.846  28.653  28.115  1.00  0.00     0.000 A 
ENDBRANCH  12  20
BRANCH  12  26
ATOM     26  C   UNL A   1      43.377  25.025  26.467  1.00  0.00    -0.013 A 
ATOM     27  C   UNL A   1      42.256  24.157  26.469  1.00  0.00     0.007 A 
ATOM     28  C   UNL A   1      44.375  24.711  25.525  1.00  0.00     0.007 A 
ATOM     29  C   UNL A   1      42.171  23.025  25.652  1.00  0.00     0.000 A 
ATOM     30  C   UNL A   1      44.307  23.565  24.720  1.00  0.00     0.000 A 
ATOM     31  C   UNL A   1      43.213  22.713  24.794  1.00  0.00     0.000 A 
ENDBRANCH  12  26
ENDBRANCH   8  12
ENDBRANCH   6   7
ENDBRANCH   5   6
BRANCH   5  32
ATOM     32  N   UNL A   1      50.559  27.389  28.532  1.00  0.00    -0.346 N 
ATOM     33  H   UNL A   1      50.068  27.620  29.397  1.00  0.00     0.345 HD
ATOM     34  H   UNL A   1      51.542  27.647  28.620  1.00  0.00     0.345 HD
ATOM     35  H   UNL A   1      50.485  26.387  28.357  1.00  0.00     0.345 HD
ENDBRANCH   5  32
ENDBRANCH   3   5
ENDBRANCH   2   3
ENDBRANCH   1   2
BRANCH   1  36
ATOM     36  C   UNL A   1      49.422  33.517  26.569  1.00  0.00     0.275 C 
BRANCH  36  37
ATOM     37  O   UNL A   1      48.085  33.408  25.952  1.00  0.00    -0.458 OA
BRANCH  37  38
ATOM     38  C   UNL A   1      46.866  33.743  26.502  1.00  0.00     0.338 C 
ATOM     39  O   UNL A   1      46.465  34.891  26.626  1.00  0.00    -0.246 OA
BRANCH  38  40
ATOM     40  C   UNL A   1      46.160  32.607  27.164  1.00  0.00     0.060 A 
ATOM     41  C   UNL A   1      44.725  31.652  26.463  1.00  0.00     0.016 A 
ATOM     42  C   UNL A   1      46.415  32.685  28.933  1.00  0.00     0.016 A 
ATOM     43  C   UNL A   1      43.490  30.912  27.647  1.00  0.00     0.010 A 
ATOM     44  C   UNL A   1      45.180  32.072  30.062  1.00  0.00     0.010 A 
ATOM     45  C   UNL A   1      43.670  31.274  29.460  1.00  0.00    -0.014 A 
BRANCH  45  46
ATOM     46  C   UNL A   1      42.744  31.382  30.589  1.00  0.00     0.031 A 
ATOM     47  C   UNL A   1      41.765  32.463  30.712  1.00  0.00     0.074 A 
ATOM     48  C   UNL A   1      42.542  30.254  31.351  1.00  0.00     0.049 A 
ATOM     49  N   UNL A   1      41.042  32.627  31.775  1.00  0.00    -0.248 NA
ATOM     50  C   UNL A   1      41.489  33.452  29.674  1.00  0.00     0.031 C 
ATOM     51  C   UNL A   1      41.291  29.849  31.963  1.00  0.00     0.029 A 
ATOM     52  N   UNL A   1      43.420  29.209  31.770  1.00  0.00    -0.354 N 
ATOM     53  C   UNL A   1      39.936  33.301  31.343  1.00  0.00     0.074 A 
ATOM     54  C   UNL A   1      40.404  34.046  30.196  1.00  0.00     0.031 C 
ATOM     55  C   UNL A   1      41.534  28.913  32.888  1.00  0.00     0.029 A 
ATOM     56  C   UNL A   1      42.970  28.733  33.018  1.00  0.00     0.049 A 
ATOM     57  H   UNL A   1      44.202  28.878  31.273  1.00  0.00     0.167 HD
ATOM     58  C   UNL A   1      38.704  32.938  31.810  1.00  0.00     0.037 A 
ATOM     59  C   UNL A   1      43.689  28.567  34.176  1.00  0.00     0.037 A 
ATOM     60  C   UNL A   1      38.730  31.935  32.902  1.00  0.00     0.049 A 
ATOM     61  C   UNL A   1      42.952  29.196  35.350  1.00  0.00     0.074 A 
ATOM     62  C   UNL A   1      38.050  30.761  33.201  1.00  0.00     0.029 A 
ATOM     63  N   UNL A   1      39.705  32.016  33.887  1.00  0.00    -0.354 N 
ATOM     64  N   UNL A   1      41.659  29.404  35.394  1.00  0.00    -0.248 NA
ATOM     65  C   UNL A   1      43.631  29.820  36.485  1.00  0.00     0.031 C 
ATOM     66  C   UNL A   1      38.549  30.243  34.444  1.00  0.00     0.029 A 
ATOM     67  C   UNL A   1      39.514  31.112  34.914  1.00  0.00     0.049 A 
ATOM     68  H   UNL A   1      40.455  32.653  33.856  1.00  0.00     0.167 HD
ATOM     69  C   UNL A   1      41.421  30.465  36.237  1.00  0.00     0.074 A 
ATOM     70  C   UNL A   1      42.657  30.597  36.986  1.00  0.00     0.031 C 
ATOM     71  C   UNL A   1      40.332  31.285  36.107  1.00  0.00     0.037 A 
BRANCH  58  72
ATOM     72  C   UNL A   1      37.405  33.415  31.183  1.00  0.00     0.058 A 
ATOM     73  C   UNL A   1      37.131  33.134  29.828  1.00  0.00     0.135 A 
ATOM     74  C   UNL A   1      36.417  34.190  31.833  1.00  0.00     0.135 A 
ATOM     75  F   UNL A   1      37.996  32.438  29.076  1.00  0.00    -0.206 F 
ATOM     76  C   UNL A   1      35.970  33.567  29.180  1.00  0.00     0.059 A 
ATOM     77  C   UNL A   1      35.214  34.562  31.233  1.00  0.00     0.059 A 
ATOM     78  F   UNL A   1      36.597  34.694  33.061  1.00  0.00    -0.206 F 
ATOM     79  C   UNL A   1      35.007  34.267  29.896  1.00  0.00     0.060 A 
BRANCH  79  80
ATOM     80  S   UNL A   1      33.507  34.820  29.067  1.00  0.00     0.124 S 
ATOM     81  O   UNL A   1      33.971  36.027  28.391  1.00  0.00    -0.237 OA
ATOM     82  O   UNL A   1      33.188  33.688  28.204  1.00  0.00    -0.237 OA
ATOM     83  O   UNL A   1      32.575  35.042  30.170  1.00  0.00    -0.744 OA
ENDBRANCH  79  80
ENDBRANCH  58  72
BRANCH  59  84
ATOM     84  C   UNL A   1      45.174  28.312  34.083  1.00  0.00     0.058 A 
ATOM     85  C   UNL A   1      45.638  27.005  34.318  1.00  0.00     0.135 A 
ATOM     86  C   UNL A   1      46.140  29.205  33.590  1.00  0.00     0.135 A 
ATOM     87  F   UNL A   1      44.828  26.108  34.906  1.00  0.00    -0.206 F 
ATOM     88  C   UNL A   1      46.903  26.562  33.906  1.00  0.00     0.059 A 
ATOM     89  C   UNL A   1      47.382  28.777  33.096  1.00  0.00     0.059 A 
ATOM     90  F   UNL A   1      45.898  30.519  33.544  1.00  0.00    -0.206 F 
ATOM     91  C   UNL A   1      47.724  27.432  33.189  1.00  0.00     0.060 A 
BRANCH  91  92
ATOM     92  S   UNL A   1      49.057  26.778  32.131  1.00  0.00     0.124 S 
ATOM     93  O   UNL A   1      49.986  26.236  33.119  1.00  0.00    -0.237 OA
ATOM     94  O   UNL A   1      48.389  25.773  31.305  1.00  0.00    -0.237 OA
ATOM     95  O   UNL A   1      49.540  27.962  31.420  1.00  0.00    -0.744 OA
ENDBRANCH  91  92
ENDBRANCH  59  84
BRANCH  71  96
ATOM     96  C   UNL A   1      40.105  32.541  36.921  1.00  0.00     0.058 A 
ATOM     97  C   UNL A   1      38.743  32.707  38.127  1.00  0.00     0.135 A 
ATOM     98  C   UNL A   1      41.309  33.931  36.789  1.00  0.00     0.135 A 
ATOM     99  F   UNL A   1      37.667  31.908  38.046  1.00  0.00    -0.206 F 
ATOM    100  C   UNL A   1      38.597  34.159  39.203  1.00  0.00     0.059 A 
ATOM    101  C   UNL A   1      41.274  35.327  37.981  1.00  0.00     0.059 A 
ATOM    102  F   UNL A   1      42.226  33.999  35.818  1.00  0.00    -0.206 F 
ATOM    103  C   UNL A   1      39.915  35.429  39.171  1.00  0.00     0.060 A 
BRANCH 103 104
ATOM    104  S   UNL A   1      39.590  36.972  40.010  1.00  0.00     0.124 S 
ATOM    105  O   UNL A   1      38.967  37.761  38.950  1.00  0.00    -0.237 OA
ATOM    106  O   UNL A   1      38.700  36.548  41.085  1.00  0.00    -0.237 OA
ATOM    107  O   UNL A   1      40.920  37.412  40.415  1.00  0.00    -0.744 OA
ENDBRANCH 103 104
ENDBRANCH  71  96
ENDBRANCH  45  46
ENDBRANCH  38  40
ENDBRANCH  37  38
ENDBRANCH  36  37
ENDBRANCH   1  36
TORSDOF 21
ENDMDL
