MODEL 1
REMARK VINA RESULT:     -11.1      0.000      0.000
REMARK SMILES C[C@@H](C(=O)OCCOC(=O)c1ccc(-c2c3nc(c(-c4c(F)cc(S(=O)(=O)[O-])cc4F)c4ccc([nH]4)c(-c4c(F)cc(S(=O)(=O)[O-])cc4F)c4nc(c(-c5c(F)cc(S(=O)(=O)[O-])cc5F)c5ccc2[nH]5)C=C4)C=C3)cc1)c1ccc(Cc2cccs2)cc1F
REMARK SMILES IDX 6 1 5 2 3 3 4 4 2 5 1 6 77 7 78 8 88 9 79 10 87 11 89 12
REMARK SMILES IDX 80 13 81 14 82 15 83 16 86 17 84 18 85 19 7 20 8 21 9 22
REMARK SMILES IDX 10 23 11 24 12 25 76 26 13 27 75 28 14 29 15 30 16 31 69 32
REMARK SMILES IDX 17 33 74 34 68 35 70 36 18 37 73 38 67 39 66 40 19 42 53 43
REMARK SMILES IDX 32 44 52 45 33 46 36 47 51 48 71 49 34 50 35 51 50 53 72 54
REMARK SMILES IDX 37 55 20 56 21 57 30 58 22 59 23 60 29 61 31 62 24 63 25 64
REMARK SMILES IDX 26 65 27 66 28 67 54 68 55 69 64 70 56 71 57 72 63 73 65 74
REMARK SMILES IDX 58 75 59 76 60 77 61 78 62 79 38 80 39 81 48 82 40 83 41 84
REMARK SMILES IDX 47 85 49 86 42 87 43 88 44 89 45 90 46 91
REMARK H PARENT 70 41 36 52
REMARK Flexibility Score: inf
ROOT
ATOM      1  C   UNL A   1      34.025  29.608  26.832  1.00  0.00     0.274 C 
ENDROOT
BRANCH   1   2
ATOM      2  O   UNL A   1      33.466  28.488  27.554  1.00  0.00    -0.462 OA
BRANCH   2   3
ATOM      3  C   UNL A   1      32.267  28.010  27.116  1.00  0.00     0.313 C 
ATOM      4  O   UNL A   1      31.298  27.858  27.852  1.00  0.00    -0.252 OA
BRANCH   3   5
ATOM      5  C   UNL A   1      32.291  27.600  25.625  1.00  0.00     0.129 C 
ATOM      6  C   UNL A   1      30.911  27.779  24.976  1.00  0.00     0.025 C 
BRANCH   5   7
ATOM      7  C   UNL A   1      32.942  26.227  25.403  1.00  0.00     0.002 A 
ATOM      8  C   UNL A   1      33.951  26.090  24.431  1.00  0.00     0.008 A 
ATOM      9  C   UNL A   1      32.623  25.075  26.131  1.00  0.00     0.127 A 
ATOM     10  C   UNL A   1      34.662  24.889  24.265  1.00  0.00     0.004 A 
ATOM     11  C   UNL A   1      33.311  23.870  25.956  1.00  0.00     0.043 A 
ATOM     12  F   UNL A   1      31.663  25.093  27.066  1.00  0.00    -0.207 F 
ATOM     13  C   UNL A   1      34.362  23.760  25.035  1.00  0.00    -0.040 A 
BRANCH  13  14
ATOM     14  C   UNL A   1      35.225  22.508  25.053  1.00  0.00     0.082 C 
BRANCH  14  15
ATOM     15  C   UNL A   1      36.663  22.678  25.452  1.00  0.00     0.009 A 
ATOM     16  C   UNL A   1      37.258  23.752  26.089  1.00  0.00     0.016 A 
ATOM     17  S   UNL A   1      37.773  21.387  25.244  1.00  0.00    -0.149 S 
ATOM     18  C   UNL A   1      38.621  23.504  26.419  1.00  0.00     0.012 A 
ATOM     19  C   UNL A   1      39.019  22.242  26.042  1.00  0.00     0.065 A 
ENDBRANCH  14  15
ENDBRANCH  13  14
ENDBRANCH   5   7
ENDBRANCH   3   5
ENDBRANCH   2   3
ENDBRANCH   1   2
BRANCH   1  20
ATOM     20  C   UNL A   1      34.222  30.798  27.765  1.00  0.00     0.275 C 
BRANCH  20  21
ATOM     21  O   UNL A   1      35.618  31.132  27.805  1.00  0.00    -0.458 OA
BRANCH  21  22
ATOM     22  C   UNL A   1      36.233  30.987  29.000  1.00  0.00     0.338 C 
ATOM     23  O   UNL A   1      35.822  31.319  30.097  1.00  0.00    -0.246 OA
BRANCH  22  24
ATOM     24  C   UNL A   1      37.521  30.312  28.777  1.00  0.00     0.060 A 
ATOM     25  C   UNL A   1      38.381  30.135  29.857  1.00  0.00     0.016 A 
ATOM     26  C   UNL A   1      37.914  29.929  27.496  1.00  0.00     0.016 A 
ATOM     27  C   UNL A   1      39.658  29.626  29.650  1.00  0.00     0.010 A 
ATOM     28  C   UNL A   1      39.183  29.365  27.302  1.00  0.00     0.010 A 
ATOM     29  C   UNL A   1      40.084  29.239  28.375  1.00  0.00    -0.014 A 
BRANCH  29  30
ATOM     30  C   UNL A   1      41.491  28.795  28.172  1.00  0.00     0.031 A 
ATOM     31  C   UNL A   1      42.621  29.771  28.367  1.00  0.00     0.074 A 
ATOM     32  C   UNL A   1      41.777  27.506  27.894  1.00  0.00     0.049 A 
ATOM     33  N   UNL A   1      43.898  29.619  28.125  1.00  0.00    -0.248 NA
ATOM     34  C   UNL A   1      42.268  31.093  28.910  1.00  0.00     0.031 C 
ATOM     35  C   UNL A   1      40.796  26.428  27.764  1.00  0.00     0.029 A 
ATOM     36  N   UNL A   1      42.984  26.879  27.694  1.00  0.00    -0.354 N 
ATOM     37  C   UNL A   1      44.492  30.839  28.430  1.00  0.00     0.074 A 
ATOM     38  C   UNL A   1      43.438  31.718  28.888  1.00  0.00     0.031 C 
ATOM     39  C   UNL A   1      41.440  25.269  27.549  1.00  0.00     0.029 A 
ATOM     40  C   UNL A   1      42.873  25.531  27.447  1.00  0.00     0.049 A 
ATOM     41  H   UNL A   1      43.846  27.352  27.726  1.00  0.00     0.167 HD
ATOM     42  C   UNL A   1      45.794  31.197  28.326  1.00  0.00     0.037 A 
ATOM     43  C   UNL A   1      43.811  24.614  27.135  1.00  0.00     0.037 A 
ATOM     44  C   UNL A   1      46.852  30.313  27.914  1.00  0.00     0.049 A 
ATOM     45  C   UNL A   1      45.245  25.047  26.977  1.00  0.00     0.074 A 
ATOM     46  C   UNL A   1      48.199  30.595  27.757  1.00  0.00     0.029 A 
ATOM     47  N   UNL A   1      46.689  28.969  27.612  1.00  0.00    -0.354 N 
ATOM     48  N   UNL A   1      45.776  26.229  27.175  1.00  0.00    -0.248 NA
ATOM     49  C   UNL A   1      46.199  24.027  26.516  1.00  0.00     0.031 C 
ATOM     50  C   UNL A   1      48.844  29.429  27.329  1.00  0.00     0.029 A 
ATOM     51  C   UNL A   1      47.906  28.412  27.256  1.00  0.00     0.049 A 
ATOM     52  H   UNL A   1      45.833  28.483  27.645  1.00  0.00     0.167 HD
ATOM     53  C   UNL A   1      47.126  26.094  26.867  1.00  0.00     0.074 A 
ATOM     54  C   UNL A   1      47.335  24.712  26.491  1.00  0.00     0.031 C 
ATOM     55  C   UNL A   1      48.102  27.035  26.884  1.00  0.00     0.037 A 
BRANCH  42  56
ATOM     56  C   UNL A   1      46.141  32.631  28.608  1.00  0.00     0.058 A 
ATOM     57  C   UNL A   1      46.529  33.068  29.882  1.00  0.00     0.135 A 
ATOM     58  C   UNL A   1      46.105  33.577  27.570  1.00  0.00     0.135 A 
ATOM     59  F   UNL A   1      46.559  32.207  30.913  1.00  0.00    -0.206 F 
ATOM     60  C   UNL A   1      46.850  34.401  30.124  1.00  0.00     0.059 A 
ATOM     61  C   UNL A   1      46.441  34.910  27.785  1.00  0.00     0.059 A 
ATOM     62  F   UNL A   1      45.737  33.208  26.333  1.00  0.00    -0.206 F 
ATOM     63  C   UNL A   1      46.798  35.315  29.070  1.00  0.00     0.060 A 
BRANCH  63  64
ATOM     64  S   UNL A   1      47.209  37.043  29.394  1.00  0.00     0.124 S 
ATOM     65  O   UNL A   1      47.989  37.383  28.209  1.00  0.00    -0.237 OA
ATOM     66  O   UNL A   1      45.892  37.667  29.486  1.00  0.00    -0.237 OA
ATOM     67  O   UNL A   1      47.959  36.984  30.645  1.00  0.00    -0.744 OA
ENDBRANCH  63  64
ENDBRANCH  42  56
BRANCH  43  68
ATOM     68  C   UNL A   1      43.423  23.198  26.896  1.00  0.00     0.058 A 
ATOM     69  C   UNL A   1      43.381  22.670  25.598  1.00  0.00     0.135 A 
ATOM     70  C   UNL A   1      43.077  22.350  27.960  1.00  0.00     0.135 A 
ATOM     71  F   UNL A   1      43.686  23.445  24.547  1.00  0.00    -0.206 F 
ATOM     72  C   UNL A   1      43.001  21.352  25.360  1.00  0.00     0.059 A 
ATOM     73  C   UNL A   1      42.720  21.023  27.750  1.00  0.00     0.059 A 
ATOM     74  F   UNL A   1      43.106  22.806  29.222  1.00  0.00    -0.206 F 
ATOM     75  C   UNL A   1      42.675  20.536  26.444  1.00  0.00     0.060 A 
BRANCH  75  76
ATOM     76  S   UNL A   1      42.236  18.812  26.138  1.00  0.00     0.124 S 
ATOM     77  O   UNL A   1      40.832  18.930  25.760  1.00  0.00    -0.237 OA
ATOM     78  O   UNL A   1      43.157  18.442  25.067  1.00  0.00    -0.237 OA
ATOM     79  O   UNL A   1      42.494  18.170  27.424  1.00  0.00    -0.744 OA
ENDBRANCH  75  76
ENDBRANCH  43  68
BRANCH  55  80
ATOM     80  C   UNL A   1      49.487  26.603  26.497  1.00  0.00     0.058 A 
ATOM     81  C   UNL A   1      50.352  26.000  27.424  1.00  0.00     0.135 A 
ATOM     82  C   UNL A   1      49.938  26.745  25.175  1.00  0.00     0.135 A 
ATOM     83  F   UNL A   1      49.972  25.847  28.702  1.00  0.00    -0.206 F 
ATOM     84  C   UNL A   1      51.623  25.568  27.057  1.00  0.00     0.059 A 
ATOM     85  C   UNL A   1      51.197  26.302  24.782  1.00  0.00     0.059 A 
ATOM     86  F   UNL A   1      49.146  27.308  24.249  1.00  0.00    -0.206 F 
ATOM     87  C   UNL A   1      52.037  25.723  25.733  1.00  0.00     0.060 A 
BRANCH  87  88
ATOM     88  S   UNL A   1      53.673  25.126  25.257  1.00  0.00     0.124 S 
ATOM     89  O   UNL A   1      53.802  25.662  23.907  1.00  0.00    -0.237 OA
ATOM     90  O   UNL A   1      54.536  25.734  26.265  1.00  0.00    -0.237 OA
ATOM     91  O   UNL A   1      53.543  23.674  25.348  1.00  0.00    -0.744 OA
ENDBRANCH  87  88
ENDBRANCH  55  80
ENDBRANCH  29  30
ENDBRANCH  22  24
ENDBRANCH  21  22
ENDBRANCH  20  21
ENDBRANCH   1  20
TORSDOF 17
ENDMDL
MODEL 2
REMARK VINA RESULT:     -10.8      2.222      2.806
REMARK SMILES C[C@@H](C(=O)OCCOC(=O)c1ccc(-c2c3nc(c(-c4c(F)cc(S(=O)(=O)[O-])cc4F)c4ccc([nH]4)c(-c4c(F)cc(S(=O)(=O)[O-])cc4F)c4nc(c(-c5c(F)cc(S(=O)(=O)[O-])cc5F)c5ccc2[nH]5)C=C4)C=C3)cc1)c1ccc(Cc2cccs2)cc1F
REMARK SMILES IDX 6 1 5 2 3 3 4 4 2 5 1 6 77 7 78 8 88 9 79 10 87 11 89 12
REMARK SMILES IDX 80 13 81 14 82 15 83 16 86 17 84 18 85 19 7 20 8 21 9 22
REMARK SMILES IDX 10 23 11 24 12 25 76 26 13 27 75 28 14 29 15 30 16 31 69 32
REMARK SMILES IDX 17 33 74 34 68 35 70 36 18 37 73 38 67 39 66 40 19 42 53 43
REMARK SMILES IDX 32 44 52 45 33 46 36 47 51 48 71 49 34 50 35 51 50 53 72 54
REMARK SMILES IDX 37 55 20 56 21 57 30 58 22 59 23 60 29 61 31 62 24 63 25 64
REMARK SMILES IDX 26 65 27 66 28 67 54 68 55 69 64 70 56 71 57 72 63 73 65 74
REMARK SMILES IDX 58 75 59 76 60 77 61 78 62 79 38 80 39 81 48 82 40 83 41 84
REMARK SMILES IDX 47 85 49 86 42 87 43 88 44 89 45 90 46 91
REMARK H PARENT 70 41 36 52
REMARK Flexibility Score: inf
ROOT
ATOM      1  C   UNL A   1      33.103  29.498  25.450  1.00  0.00     0.274 C 
ENDROOT
BRANCH   1   2
ATOM      2  O   UNL A   1      31.990  29.321  24.547  1.00  0.00    -0.462 OA
BRANCH   2   3
ATOM      3  C   UNL A   1      32.223  28.594  23.417  1.00  0.00     0.313 C 
ATOM      4  O   UNL A   1      32.977  28.966  22.525  1.00  0.00    -0.252 OA
BRANCH   3   5
ATOM      5  C   UNL A   1      31.370  27.306  23.345  1.00  0.00     0.129 C 
ATOM      6  C   UNL A   1      29.890  27.600  23.631  1.00  0.00     0.025 C 
BRANCH   5   7
ATOM      7  C   UNL A   1      31.975  26.153  24.160  1.00  0.00     0.002 A 
ATOM      8  C   UNL A   1      32.742  25.171  23.505  1.00  0.00     0.008 A 
ATOM      9  C   UNL A   1      31.845  26.015  25.547  1.00  0.00     0.127 A 
ATOM     10  C   UNL A   1      33.416  24.161  24.214  1.00  0.00     0.004 A 
ATOM     11  C   UNL A   1      32.494  24.999  26.257  1.00  0.00     0.043 A 
ATOM     12  F   UNL A   1      31.120  26.885  26.263  1.00  0.00    -0.207 F 
ATOM     13  C   UNL A   1      33.313  24.066  25.606  1.00  0.00    -0.040 A 
BRANCH  13  14
ATOM     14  C   UNL A   1      34.176  23.138  26.446  1.00  0.00     0.082 C 
BRANCH  14  15
ATOM     15  C   UNL A   1      35.605  22.963  26.016  1.00  0.00     0.009 A 
ATOM     16  C   UNL A   1      36.636  23.883  26.064  1.00  0.00     0.016 A 
ATOM     17  S   UNL A   1      36.166  21.428  25.495  1.00  0.00    -0.149 S 
ATOM     18  C   UNL A   1      37.889  23.320  25.687  1.00  0.00     0.012 A 
ATOM     19  C   UNL A   1      37.779  21.983  25.382  1.00  0.00     0.065 A 
ENDBRANCH  14  15
ENDBRANCH  13  14
ENDBRANCH   5   7
ENDBRANCH   3   5
ENDBRANCH   2   3
ENDBRANCH   1   2
BRANCH   1  20
ATOM     20  C   UNL A   1      32.644  30.185  26.732  1.00  0.00     0.275 C 
BRANCH  20  21
ATOM     21  O   UNL A   1      33.509  29.789  27.807  1.00  0.00    -0.458 OA
BRANCH  21  22
ATOM     22  C   UNL A   1      34.325  30.747  28.302  1.00  0.00     0.338 C 
ATOM     23  O   UNL A   1      34.023  31.868  28.669  1.00  0.00    -0.246 OA
BRANCH  22  24
ATOM     24  C   UNL A   1      35.691  30.205  28.361  1.00  0.00     0.060 A 
ATOM     25  C   UNL A   1      36.187  29.771  29.587  1.00  0.00     0.016 A 
ATOM     26  C   UNL A   1      36.507  30.199  27.231  1.00  0.00     0.016 A 
ATOM     27  C   UNL A   1      37.517  29.383  29.698  1.00  0.00     0.010 A 
ATOM     28  C   UNL A   1      37.833  29.755  27.338  1.00  0.00     0.010 A 
ATOM     29  C   UNL A   1      38.363  29.374  28.583  1.00  0.00    -0.014 A 
BRANCH  29  30
ATOM     30  C   UNL A   1      39.807  29.052  28.757  1.00  0.00     0.031 A 
ATOM     31  C   UNL A   1      40.733  30.069  29.370  1.00  0.00     0.074 A 
ATOM     32  C   UNL A   1      40.286  27.829  28.449  1.00  0.00     0.049 A 
ATOM     33  N   UNL A   1      42.035  30.033  29.498  1.00  0.00    -0.248 NA
ATOM     34  C   UNL A   1      40.112  31.287  29.915  1.00  0.00     0.031 C 
ATOM     35  C   UNL A   1      39.493  26.713  27.931  1.00  0.00     0.029 A 
ATOM     36  N   UNL A   1      41.555  27.312  28.548  1.00  0.00    -0.354 N 
ATOM     37  C   UNL A   1      42.395  31.242  30.082  1.00  0.00     0.074 A 
ATOM     38  C   UNL A   1      41.173  31.986  30.298  1.00  0.00     0.031 C 
ATOM     39  C   UNL A   1      40.283  25.635  27.799  1.00  0.00     0.029 A 
ATOM     40  C   UNL A   1      41.653  26.001  28.147  1.00  0.00     0.049 A 
ATOM     41  H   UNL A   1      42.323  27.834  28.878  1.00  0.00     0.167 HD
ATOM     42  C   UNL A   1      43.631  31.696  30.399  1.00  0.00     0.037 A 
ATOM     43  C   UNL A   1      42.727  25.194  28.034  1.00  0.00     0.037 A 
ATOM     44  C   UNL A   1      44.845  30.940  30.229  1.00  0.00     0.049 A 
ATOM     45  C   UNL A   1      44.097  25.736  28.345  1.00  0.00     0.074 A 
ATOM     46  C   UNL A   1      46.146  31.328  30.501  1.00  0.00     0.029 A 
ATOM     47  N   UNL A   1      44.907  29.637  29.761  1.00  0.00    -0.354 N 
ATOM     48  N   UNL A   1      44.430  26.917  28.806  1.00  0.00    -0.248 NA
ATOM     49  C   UNL A   1      45.238  24.847  28.084  1.00  0.00     0.031 C 
ATOM     50  C   UNL A   1      46.998  30.269  30.167  1.00  0.00     0.029 A 
ATOM     51  C   UNL A   1      46.225  29.209  29.722  1.00  0.00     0.049 A 
ATOM     52  H   UNL A   1      44.130  29.095  29.494  1.00  0.00     0.167 HD
ATOM     53  C   UNL A   1      45.819  26.911  28.894  1.00  0.00     0.074 A 
ATOM     54  C   UNL A   1      46.262  25.602  28.460  1.00  0.00     0.031 C 
ATOM     55  C   UNL A   1      46.652  27.904  29.289  1.00  0.00     0.037 A 
BRANCH  42  56
ATOM     56  C   UNL A   1      43.741  33.103  30.911  1.00  0.00     0.058 A 
ATOM     57  C   UNL A   1      43.738  33.401  32.282  1.00  0.00     0.135 A 
ATOM     58  C   UNL A   1      43.876  34.169  30.007  1.00  0.00     0.135 A 
ATOM     59  F   UNL A   1      43.590  32.421  33.187  1.00  0.00    -0.206 F 
ATOM     60  C   UNL A   1      43.843  34.712  32.738  1.00  0.00     0.059 A 
ATOM     61  C   UNL A   1      44.003  35.484  30.440  1.00  0.00     0.059 A 
ATOM     62  F   UNL A   1      43.882  33.935  28.684  1.00  0.00    -0.206 F 
ATOM     63  C   UNL A   1      43.970  35.747  31.809  1.00  0.00     0.060 A 
BRANCH  63  64
ATOM     64  S   UNL A   1      44.100  37.445  32.409  1.00  0.00     0.124 S 
ATOM     65  O   UNL A   1      43.080  37.462  33.452  1.00  0.00    -0.237 OA
ATOM     66  O   UNL A   1      45.482  37.509  32.874  1.00  0.00    -0.237 OA
ATOM     67  O   UNL A   1      43.803  38.246  31.226  1.00  0.00    -0.744 OA
ENDBRANCH  63  64
ENDBRANCH  42  56
BRANCH  43  68
ATOM     68  C   UNL A   1      42.564  23.796  27.553  1.00  0.00     0.058 A 
ATOM     69  C   UNL A   1      42.487  23.508  26.182  1.00  0.00     0.135 A 
ATOM     70  C   UNL A   1      42.472  22.723  28.453  1.00  0.00     0.135 A 
ATOM     71  F   UNL A   1      42.552  24.500  25.282  1.00  0.00    -0.206 F 
ATOM     72  C   UNL A   1      42.315  22.206  25.720  1.00  0.00     0.059 A 
ATOM     73  C   UNL A   1      42.328  21.411  28.015  1.00  0.00     0.059 A 
ATOM     74  F   UNL A   1      42.546  22.945  29.775  1.00  0.00    -0.206 F 
ATOM     75  C   UNL A   1      42.239  21.164  26.646  1.00  0.00     0.060 A 
BRANCH  75  76
ATOM     76  S   UNL A   1      42.073  19.470  26.043  1.00  0.00     0.124 S 
ATOM     77  O   UNL A   1      42.533  18.703  27.194  1.00  0.00    -0.237 OA
ATOM     78  O   UNL A   1      40.645  19.385  25.747  1.00  0.00    -0.237 OA
ATOM     79  O   UNL A   1      42.948  19.447  24.874  1.00  0.00    -0.744 OA
ENDBRANCH  75  76
ENDBRANCH  43  68
BRANCH  55  80
ATOM     80  C   UNL A   1      48.126  27.616  29.283  1.00  0.00     0.058 A 
ATOM     81  C   UNL A   1      48.733  26.883  30.315  1.00  0.00     0.135 A 
ATOM     82  C   UNL A   1      48.932  28.031  28.210  1.00  0.00     0.135 A 
ATOM     83  F   UNL A   1      48.009  26.470  31.366  1.00  0.00    -0.206 F 
ATOM     84  C   UNL A   1      50.093  26.586  30.292  1.00  0.00     0.059 A 
ATOM     85  C   UNL A   1      50.288  27.727  28.157  1.00  0.00     0.059 A 
ATOM     86  F   UNL A   1      48.397  28.727  27.194  1.00  0.00    -0.206 F 
ATOM     87  C   UNL A   1      50.862  27.012  29.207  1.00  0.00     0.060 A 
BRANCH  87  88
ATOM     88  S   UNL A   1      52.618  26.589  29.168  1.00  0.00     0.124 S 
ATOM     89  O   UNL A   1      52.679  25.691  28.021  1.00  0.00    -0.237 OA
ATOM     90  O   UNL A   1      53.252  27.892  28.988  1.00  0.00    -0.237 OA
ATOM     91  O   UNL A   1      52.845  25.965  30.468  1.00  0.00    -0.744 OA
ENDBRANCH  87  88
ENDBRANCH  55  80
ENDBRANCH  29  30
ENDBRANCH  22  24
ENDBRANCH  21  22
ENDBRANCH  20  21
ENDBRANCH   1  20
TORSDOF 17
ENDMDL
MODEL 3
REMARK VINA RESULT:     -10.7      6.797     12.179
REMARK SMILES C[C@@H](C(=O)OCCOC(=O)c1ccc(-c2c3nc(c(-c4c(F)cc(S(=O)(=O)[O-])cc4F)c4ccc([nH]4)c(-c4c(F)cc(S(=O)(=O)[O-])cc4F)c4nc(c(-c5c(F)cc(S(=O)(=O)[O-])cc5F)c5ccc2[nH]5)C=C4)C=C3)cc1)c1ccc(Cc2cccs2)cc1F
REMARK SMILES IDX 6 1 5 2 3 3 4 4 2 5 1 6 77 7 78 8 88 9 79 10 87 11 89 12
REMARK SMILES IDX 80 13 81 14 82 15 83 16 86 17 84 18 85 19 7 20 8 21 9 22
REMARK SMILES IDX 10 23 11 24 12 25 76 26 13 27 75 28 14 29 15 30 16 31 69 32
REMARK SMILES IDX 17 33 74 34 68 35 70 36 18 37 73 38 67 39 66 40 19 42 53 43
REMARK SMILES IDX 32 44 52 45 33 46 36 47 51 48 71 49 34 50 35 51 50 53 72 54
REMARK SMILES IDX 37 55 20 56 21 57 30 58 22 59 23 60 29 61 31 62 24 63 25 64
REMARK SMILES IDX 26 65 27 66 28 67 54 68 55 69 64 70 56 71 57 72 63 73 65 74
REMARK SMILES IDX 58 75 59 76 60 77 61 78 62 79 38 80 39 81 48 82 40 83 41 84
REMARK SMILES IDX 47 85 49 86 42 87 43 88 44 89 45 90 46 91
REMARK H PARENT 70 41 36 52
REMARK Flexibility Score: inf
ROOT
ATOM      1  C   UNL A   1      37.208  22.974  25.279  1.00  0.00     0.274 C 
ENDROOT
BRANCH   1   2
ATOM      2  O   UNL A   1      36.101  22.462  26.052  1.00  0.00    -0.462 OA
BRANCH   2   3
ATOM      3  C   UNL A   1      35.267  21.581  25.428  1.00  0.00     0.313 C 
ATOM      4  O   UNL A   1      35.665  20.570  24.861  1.00  0.00    -0.252 OA
BRANCH   3   5
ATOM      5  C   UNL A   1      33.791  22.041  25.438  1.00  0.00     0.129 C 
ATOM      6  C   UNL A   1      32.904  21.084  24.628  1.00  0.00     0.025 C 
BRANCH   5   7
ATOM      7  C   UNL A   1      33.635  23.528  25.086  1.00  0.00     0.002 A 
ATOM      8  C   UNL A   1      33.106  24.414  26.044  1.00  0.00     0.008 A 
ATOM      9  C   UNL A   1      34.016  24.093  23.864  1.00  0.00     0.127 A 
ATOM     10  C   UNL A   1      33.049  25.800  25.821  1.00  0.00     0.004 A 
ATOM     11  C   UNL A   1      33.941  25.470  23.626  1.00  0.00     0.043 A 
ATOM     12  F   UNL A   1      34.512  23.335  22.877  1.00  0.00    -0.207 F 
ATOM     13  C   UNL A   1      33.479  26.354  24.611  1.00  0.00    -0.040 A 
BRANCH  13  14
ATOM     14  C   UNL A   1      33.641  27.849  24.388  1.00  0.00     0.082 C 
BRANCH  14  15
ATOM     15  C   UNL A   1      33.624  28.725  25.608  1.00  0.00     0.009 A 
ATOM     16  C   UNL A   1      34.610  28.888  26.563  1.00  0.00     0.016 A 
ATOM     17  S   UNL A   1      32.310  29.792  25.884  1.00  0.00    -0.149 S 
ATOM     18  C   UNL A   1      34.291  29.901  27.512  1.00  0.00     0.012 A 
ATOM     19  C   UNL A   1      33.079  30.494  27.240  1.00  0.00     0.065 A 
ENDBRANCH  14  15
ENDBRANCH  13  14
ENDBRANCH   5   7
ENDBRANCH   3   5
ENDBRANCH   2   3
ENDBRANCH   1   2
BRANCH   1  20
ATOM     20  C   UNL A   1      38.479  22.997  26.121  1.00  0.00     0.275 C 
BRANCH  20  21
ATOM     21  O   UNL A   1      38.814  24.362  26.418  1.00  0.00    -0.458 OA
BRANCH  21  22
ATOM     22  C   UNL A   1      40.130  24.633  26.578  1.00  0.00     0.338 C 
ATOM     23  O   UNL A   1      41.063  24.215  25.917  1.00  0.00    -0.246 OA
BRANCH  22  24
ATOM     24  C   UNL A   1      40.275  25.572  27.701  1.00  0.00     0.060 A 
ATOM     25  C   UNL A   1      39.359  25.512  28.747  1.00  0.00     0.016 A 
ATOM     26  C   UNL A   1      41.259  26.560  27.683  1.00  0.00     0.016 A 
ATOM     27  C   UNL A   1      39.389  26.474  29.750  1.00  0.00     0.010 A 
ATOM     28  C   UNL A   1      41.319  27.494  28.727  1.00  0.00     0.010 A 
ATOM     29  C   UNL A   1      40.360  27.482  29.756  1.00  0.00    -0.014 A 
BRANCH  29  30
ATOM     30  C   UNL A   1      40.301  28.554  30.788  1.00  0.00     0.031 A 
ATOM     31  C   UNL A   1      41.310  28.575  31.906  1.00  0.00     0.074 A 
ATOM     32  C   UNL A   1      39.406  29.559  30.693  1.00  0.00     0.049 A 
ATOM     33  N   UNL A   1      41.359  29.344  32.964  1.00  0.00    -0.248 NA
ATOM     34  C   UNL A   1      42.412  27.603  31.822  1.00  0.00     0.031 C 
ATOM     35  C   UNL A   1      38.425  29.723  29.618  1.00  0.00     0.029 A 
ATOM     36  N   UNL A   1      39.191  30.648  31.504  1.00  0.00    -0.354 N 
ATOM     37  C   UNL A   1      42.458  28.913  33.698  1.00  0.00     0.074 A 
ATOM     38  C   UNL A   1      43.058  27.823  32.959  1.00  0.00     0.031 C 
ATOM     39  C   UNL A   1      37.745  30.864  29.813  1.00  0.00     0.029 A 
ATOM     40  C   UNL A   1      38.184  31.474  31.066  1.00  0.00     0.049 A 
ATOM     41  H   UNL A   1      39.711  30.819  32.321  1.00  0.00     0.167 HD
ATOM     42  C   UNL A   1      42.919  29.376  34.885  1.00  0.00     0.037 A 
ATOM     43  C   UNL A   1      37.646  32.577  31.624  1.00  0.00     0.037 A 
ATOM     44  C   UNL A   1      42.353  30.490  35.600  1.00  0.00     0.049 A 
ATOM     45  C   UNL A   1      38.141  33.043  32.968  1.00  0.00     0.074 A 
ATOM     46  C   UNL A   1      42.740  31.015  36.822  1.00  0.00     0.029 A 
ATOM     47  N   UNL A   1      41.293  31.263  35.152  1.00  0.00    -0.354 N 
ATOM     48  N   UNL A   1      39.121  32.565  33.696  1.00  0.00    -0.248 NA
ATOM     49  C   UNL A   1      37.432  34.176  33.580  1.00  0.00     0.031 C 
ATOM     50  C   UNL A   1      41.892  32.085  37.127  1.00  0.00     0.029 A 
ATOM     51  C   UNL A   1      41.001  32.251  36.078  1.00  0.00     0.049 A 
ATOM     52  H   UNL A   1      40.817  31.128  34.301  1.00  0.00     0.167 HD
ATOM     53  C   UNL A   1      39.147  33.340  34.851  1.00  0.00     0.074 A 
ATOM     54  C   UNL A   1      38.101  34.333  34.715  1.00  0.00     0.031 C 
ATOM     55  C   UNL A   1      39.959  33.233  35.931  1.00  0.00     0.037 A 
BRANCH  42  56
ATOM     56  C   UNL A   1      44.063  28.638  35.518  1.00  0.00     0.058 A 
ATOM     57  C   UNL A   1      43.865  27.562  36.395  1.00  0.00     0.135 A 
ATOM     58  C   UNL A   1      45.386  29.005  35.216  1.00  0.00     0.135 A 
ATOM     59  F   UNL A   1      42.621  27.185  36.731  1.00  0.00    -0.206 F 
ATOM     60  C   UNL A   1      44.938  26.889  36.970  1.00  0.00     0.059 A 
ATOM     61  C   UNL A   1      46.473  28.333  35.763  1.00  0.00     0.059 A 
ATOM     62  F   UNL A   1      45.628  30.031  34.384  1.00  0.00    -0.206 F 
ATOM     63  C   UNL A   1      46.239  27.285  36.651  1.00  0.00     0.060 A 
BRANCH  63  64
ATOM     64  S   UNL A   1      47.626  26.410  37.406  1.00  0.00     0.124 S 
ATOM     65  O   UNL A   1      48.730  26.814  36.542  1.00  0.00    -0.237 OA
ATOM     66  O   UNL A   1      47.647  26.961  38.758  1.00  0.00    -0.237 OA
ATOM     67  O   UNL A   1      47.234  25.007  37.312  1.00  0.00    -0.744 OA
ENDBRANCH  63  64
ENDBRANCH  42  56
BRANCH  43  68
ATOM     68  C   UNL A   1      36.535  33.294  30.944  1.00  0.00     0.058 A 
ATOM     69  C   UNL A   1      35.211  33.167  31.391  1.00  0.00     0.135 A 
ATOM     70  C   UNL A   1      36.772  34.111  29.826  1.00  0.00     0.135 A 
ATOM     71  F   UNL A   1      34.930  32.385  32.443  1.00  0.00    -0.206 F 
ATOM     72  C   UNL A   1      34.160  33.818  30.751  1.00  0.00     0.059 A 
ATOM     73  C   UNL A   1      35.743  34.793  29.187  1.00  0.00     0.059 A 
ATOM     74  F   UNL A   1      38.021  34.269  29.362  1.00  0.00    -0.206 F 
ATOM     75  C   UNL A   1      34.438  34.631  29.650  1.00  0.00     0.060 A 
BRANCH  75  76
ATOM     76  S   UNL A   1      33.081  35.517  28.855  1.00  0.00     0.124 S 
ATOM     77  O   UNL A   1      32.332  36.001  30.009  1.00  0.00    -0.237 OA
ATOM     78  O   UNL A   1      33.786  36.534  28.080  1.00  0.00    -0.237 OA
ATOM     79  O   UNL A   1      32.426  34.480  28.063  1.00  0.00    -0.744 OA
ENDBRANCH  75  76
ENDBRANCH  43  68
BRANCH  55  80
ATOM     80  C   UNL A   1      39.760  34.218  37.048  1.00  0.00     0.058 A 
ATOM     81  C   UNL A   1      39.091  33.860  38.229  1.00  0.00     0.135 A 
ATOM     82  C   UNL A   1      40.288  35.516  36.959  1.00  0.00     0.135 A 
ATOM     83  F   UNL A   1      38.562  32.633  38.360  1.00  0.00    -0.206 F 
ATOM     84  C   UNL A   1      38.937  34.761  39.278  1.00  0.00     0.059 A 
ATOM     85  C   UNL A   1      40.163  36.426  38.004  1.00  0.00     0.059 A 
ATOM     86  F   UNL A   1      40.943  35.904  35.855  1.00  0.00    -0.206 F 
ATOM     87  C   UNL A   1      39.478  36.043  39.157  1.00  0.00     0.060 A 
BRANCH  87  88
ATOM     88  S   UNL A   1      39.305  37.193  40.538  1.00  0.00     0.124 S 
ATOM     89  O   UNL A   1      38.482  36.422  41.462  1.00  0.00    -0.237 OA
ATOM     90  O   UNL A   1      40.691  37.403  40.948  1.00  0.00    -0.237 OA
ATOM     91  O   UNL A   1      38.656  38.352  39.934  1.00  0.00    -0.744 OA
ENDBRANCH  87  88
ENDBRANCH  55  80
ENDBRANCH  29  30
ENDBRANCH  22  24
ENDBRANCH  21  22
ENDBRANCH  20  21
ENDBRANCH   1  20
TORSDOF 17
ENDMDL
