MODEL 1
REMARK VINA RESULT:     -11.8      0.000      0.000
REMARK SMILES Cc1ccc(O[C@H](C)C(=O)NNC(=O)[C@@H]2[C@@H](C(=O)OCCOC(=O)c3ccc(-c4c5nc(c(-c6c(F)cc(S(=O)(=O)[O-])cc6F)c6ccc([nH]6)c(-c6c(F)cc(S(=O)(=O)[O-])cc6F)c6nc(c(-c7c(F)cc(S(=O)(=O)[O-])cc7F)c7ccc4[nH]7)C=C6)C=C5)cc3)[C@@H]3C=C[C@H]2C3)cc1C
REMARK SMILES IDX 20 1 19 2 17 3 18 4 16 5 15 6 94 7 91 8 93 9 95 10 92 11
REMARK SMILES IDX 13 12 12 13 14 15 11 16 9 17 10 18 7 20 8 21 6 22 5 23 1 24
REMARK SMILES IDX 2 25 3 26 97 27 4 28 96 29 98 30 21 31 22 32 23 33 24 34
REMARK SMILES IDX 25 35 26 36 90 37 27 38 89 39 28 40 29 41 30 42 83 43 31 44
REMARK SMILES IDX 88 45 82 46 84 47 32 48 87 49 81 50 80 51 33 53 67 54 46 55
REMARK SMILES IDX 66 56 47 57 50 58 65 59 85 60 48 61 49 62 64 64 86 65 51 66
REMARK SMILES IDX 34 67 35 68 44 69 36 70 37 71 43 72 45 73 38 74 39 75 40 76
REMARK SMILES IDX 41 77 42 78 68 79 69 80 78 81 70 82 71 83 77 84 79 85 72 86
REMARK SMILES IDX 73 87 74 88 75 89 76 90 52 91 53 92 62 93 54 94 55 95 61 96
REMARK SMILES IDX 63 97 56 98 57 99 58 100 59 101 60 102
REMARK H PARENT 12 14 11 19 84 52 50 63
REMARK Flexibility Score: inf
ROOT
ATOM      1  C   UNL A   1      33.410  32.455  27.558  1.00  0.00     0.274 C 
ENDROOT
BRANCH   1   2
ATOM      2  O   UNL A   1      32.948  31.089  27.551  1.00  0.00    -0.462 OA
BRANCH   2   3
ATOM      3  C   UNL A   1      32.317  30.691  26.415  1.00  0.00     0.310 C 
ATOM      4  O   UNL A   1      31.391  31.302  25.893  1.00  0.00    -0.252 OA
BRANCH   3   5
ATOM      5  C   UNL A   1      32.799  29.350  25.905  1.00  0.00     0.119 C 
ATOM      6  C   UNL A   1      31.830  28.576  24.930  1.00  0.00     0.102 C 
ATOM      7  C   UNL A   1      31.674  27.212  25.654  1.00  0.00     0.025 C 
ATOM      8  C   UNL A   1      32.951  28.353  27.085  1.00  0.00     0.027 C 
ATOM      9  C   UNL A   1      33.001  26.499  25.729  1.00  0.00    -0.027 C 
ATOM     10  C   UNL A   1      31.580  27.679  27.105  1.00  0.00     0.017 C 
ATOM     11  C   UNL A   1      33.769  27.183  26.589  1.00  0.00    -0.027 C 
BRANCH   6  12
ATOM     12  C   UNL A   1      32.408  28.586  23.515  1.00  0.00     0.242 C 
ATOM     13  N   UNL A   1      31.896  27.799  22.521  1.00  0.00    -0.267 N 
ATOM     14  H   UNL A   1      32.244  27.943  21.610  1.00  0.00     0.191 HD
ATOM     15  O   UNL A   1      33.290  29.392  23.195  1.00  0.00    -0.273 OA
BRANCH  13  16
ATOM     16  N   UNL A   1      30.935  26.819  22.678  1.00  0.00    -0.264 N 
ATOM     17  C   UNL A   1      31.193  25.470  22.626  1.00  0.00     0.279 C 
ATOM     18  O   UNL A   1      30.324  24.681  23.005  1.00  0.00    -0.269 OA
ATOM     19  H   UNL A   1      30.006  27.105  22.837  1.00  0.00     0.191 HD
BRANCH  17  20
ATOM     20  C   UNL A   1      32.483  24.962  21.951  1.00  0.00     0.260 C 
ATOM     21  C   UNL A   1      32.593  25.678  20.597  1.00  0.00     0.064 C 
BRANCH  20  22
ATOM     22  O   UNL A   1      33.641  25.170  22.760  1.00  0.00    -0.481 OA
BRANCH  22  23
ATOM     23  C   UNL A   1      34.188  24.094  23.408  1.00  0.00     0.120 A 
ATOM     24  C   UNL A   1      36.331  20.858  25.333  1.00  0.00     0.044 C 
ATOM     25  C   UNL A   1      35.601  22.012  24.705  1.00  0.00    -0.048 A 
ATOM     26  C   UNL A   1      34.383  21.769  24.058  1.00  0.00     0.007 A 
ATOM     27  C   UNL A   1      36.095  23.329  24.748  1.00  0.00    -0.045 A 
ATOM     28  C   UNL A   1      33.676  22.799  23.431  1.00  0.00     0.047 A 
ATOM     29  C   UNL A   1      35.380  24.352  24.092  1.00  0.00     0.050 A 
ATOM     30  C   UNL A   1      37.348  23.709  25.488  1.00  0.00     0.045 C 
ENDBRANCH  22  23
ENDBRANCH  20  22
ENDBRANCH  17  20
ENDBRANCH  13  16
ENDBRANCH   6  12
ENDBRANCH   3   5
ENDBRANCH   2   3
ENDBRANCH   1   2
BRANCH   1  31
ATOM     31  C   UNL A   1      34.826  32.572  28.117  1.00  0.00     0.275 C 
BRANCH  31  32
ATOM     32  O   UNL A   1      35.402  31.271  28.326  1.00  0.00    -0.458 OA
BRANCH  32  33
ATOM     33  C   UNL A   1      36.029  31.100  29.512  1.00  0.00     0.338 C 
ATOM     34  O   UNL A   1      35.650  31.474  30.609  1.00  0.00    -0.246 OA
BRANCH  33  35
ATOM     35  C   UNL A   1      37.285  30.358  29.320  1.00  0.00     0.060 A 
ATOM     36  C   UNL A   1      38.047  29.991  30.429  1.00  0.00     0.016 A 
ATOM     37  C   UNL A   1      37.788  30.185  28.031  1.00  0.00     0.016 A 
ATOM     38  C   UNL A   1      39.362  29.563  30.254  1.00  0.00     0.010 A 
ATOM     39  C   UNL A   1      39.069  29.652  27.858  1.00  0.00     0.010 A 
ATOM     40  C   UNL A   1      39.889  29.377  28.966  1.00  0.00    -0.014 A 
BRANCH  40  41
ATOM     41  C   UNL A   1      41.296  28.929  28.767  1.00  0.00     0.031 A 
ATOM     42  C   UNL A   1      42.431  29.914  28.900  1.00  0.00     0.074 A 
ATOM     43  C   UNL A   1      41.567  27.647  28.453  1.00  0.00     0.049 A 
ATOM     44  N   UNL A   1      43.682  29.788  28.541  1.00  0.00    -0.248 NA
ATOM     45  C   UNL A   1      42.110  31.219  29.503  1.00  0.00     0.031 C 
ATOM     46  C   UNL A   1      40.578  26.573  28.333  1.00  0.00     0.029 A 
ATOM     47  N   UNL A   1      42.760  27.029  28.168  1.00  0.00    -0.354 N 
ATOM     48  C   UNL A   1      44.283  31.014  28.811  1.00  0.00     0.074 A 
ATOM     49  C   UNL A   1      43.260  31.867  29.376  1.00  0.00     0.031 C 
ATOM     50  C   UNL A   1      41.205  25.428  28.028  1.00  0.00     0.029 A 
ATOM     51  C   UNL A   1      42.627  25.700  27.844  1.00  0.00     0.049 A 
ATOM     52  H   UNL A   1      43.627  27.493  28.194  1.00  0.00     0.167 HD
ATOM     53  C   UNL A   1      45.567  31.391  28.599  1.00  0.00     0.037 A 
ATOM     54  C   UNL A   1      43.531  24.808  27.399  1.00  0.00     0.037 A 
ATOM     55  C   UNL A   1      46.596  30.518  28.095  1.00  0.00     0.049 A 
ATOM     56  C   UNL A   1      44.948  25.246  27.170  1.00  0.00     0.074 A 
ATOM     57  C   UNL A   1      47.927  30.806  27.848  1.00  0.00     0.029 A 
ATOM     58  N   UNL A   1      46.413  29.179  27.784  1.00  0.00    -0.354 N 
ATOM     59  N   UNL A   1      45.481  26.429  27.351  1.00  0.00    -0.248 NA
ATOM     60  C   UNL A   1      45.882  24.234  26.657  1.00  0.00     0.031 C 
ATOM     61  C   UNL A   1      48.546  29.644  27.372  1.00  0.00     0.029 A 
ATOM     62  C   UNL A   1      47.607  28.626  27.349  1.00  0.00     0.049 A 
ATOM     63  H   UNL A   1      45.561  28.692  27.860  1.00  0.00     0.167 HD
ATOM     64  C   UNL A   1      46.813  26.306  26.976  1.00  0.00     0.074 A 
ATOM     65  C   UNL A   1      47.009  24.927  26.574  1.00  0.00     0.031 C 
ATOM     66  C   UNL A   1      47.783  27.252  26.959  1.00  0.00     0.037 A 
BRANCH  53  67
ATOM     67  C   UNL A   1      45.927  32.823  28.877  1.00  0.00     0.058 A 
ATOM     68  C   UNL A   1      45.793  33.827  27.908  1.00  0.00     0.135 A 
ATOM     69  C   UNL A   1      46.382  33.199  30.152  1.00  0.00     0.135 A 
ATOM     70  F   UNL A   1      45.377  33.518  26.669  1.00  0.00    -0.206 F 
ATOM     71  C   UNL A   1      46.119  35.152  28.183  1.00  0.00     0.059 A 
ATOM     72  C   UNL A   1      46.696  34.520  30.457  1.00  0.00     0.059 A 
ATOM     73  F   UNL A   1      46.529  32.277  31.117  1.00  0.00    -0.206 F 
ATOM     74  C   UNL A   1      46.576  35.488  29.460  1.00  0.00     0.060 A 
BRANCH  74  75
ATOM     75  S   UNL A   1      46.999  37.209  29.810  1.00  0.00     0.124 S 
ATOM     76  O   UNL A   1      45.729  37.878  29.549  1.00  0.00    -0.237 OA
ATOM     77  O   UNL A   1      47.411  37.156  31.209  1.00  0.00    -0.237 OA
ATOM     78  O   UNL A   1      48.068  37.494  28.857  1.00  0.00    -0.744 OA
ENDBRANCH  74  75
ENDBRANCH  53  67
BRANCH  54  79
ATOM     79  C   UNL A   1      43.101  23.418  27.098  1.00  0.00     0.058 A 
ATOM     80  C   UNL A   1      42.877  23.004  25.779  1.00  0.00     0.135 A 
ATOM     81  C   UNL A   1      42.952  22.468  28.120  1.00  0.00     0.135 A 
ATOM     82  F   UNL A   1      42.997  23.881  24.770  1.00  0.00    -0.206 F 
ATOM     83  C   UNL A   1      42.520  21.693  25.479  1.00  0.00     0.059 A 
ATOM     84  C   UNL A   1      42.619  21.147  27.844  1.00  0.00     0.059 A 
ATOM     85  F   UNL A   1      43.171  22.814  29.398  1.00  0.00    -0.206 F 
ATOM     86  C   UNL A   1      42.399  20.770  26.520  1.00  0.00     0.060 A 
BRANCH  86  87
ATOM     87  S   UNL A   1      42.017  19.049  26.123  1.00  0.00     0.124 S 
ATOM     88  O   UNL A   1      42.393  18.374  27.360  1.00  0.00    -0.237 OA
ATOM     89  O   UNL A   1      40.588  19.105  25.835  1.00  0.00    -0.237 OA
ATOM     90  O   UNL A   1      42.869  18.779  24.969  1.00  0.00    -0.744 OA
ENDBRANCH  86  87
ENDBRANCH  54  79
BRANCH  66  91
ATOM     91  C   UNL A   1      49.150  26.820  26.515  1.00  0.00     0.058 A 
ATOM     92  C   UNL A   1      50.075  26.279  27.419  1.00  0.00     0.135 A 
ATOM     93  C   UNL A   1      49.521  26.913  25.165  1.00  0.00     0.135 A 
ATOM     94  F   UNL A   1      49.767  26.178  28.722  1.00  0.00    -0.206 F 
ATOM     95  C   UNL A   1      51.332  25.854  27.002  1.00  0.00     0.059 A 
ATOM     96  C   UNL A   1      50.767  26.481  24.722  1.00  0.00     0.059 A 
ATOM     97  F   UNL A   1      48.668  27.420  24.261  1.00  0.00    -0.206 F 
ATOM     98  C   UNL A   1      51.670  25.961  25.651  1.00  0.00     0.060 A 
BRANCH  98  99
ATOM     99  S   UNL A   1      53.291  25.379  25.110  1.00  0.00     0.124 S 
ATOM    100  O   UNL A   1      54.182  26.163  25.958  1.00  0.00    -0.237 OA
ATOM    101  O   UNL A   1      53.230  23.951  25.404  1.00  0.00    -0.237 OA
ATOM    102  O   UNL A   1      53.314  25.717  23.690  1.00  0.00    -0.744 OA
ENDBRANCH  98  99
ENDBRANCH  66  91
ENDBRANCH  40  41
ENDBRANCH  33  35
ENDBRANCH  32  33
ENDBRANCH  31  32
ENDBRANCH   1  31
TORSDOF 19
ENDMDL
MODEL 2
REMARK VINA RESULT:     -11.8      1.828      2.717
REMARK SMILES Cc1ccc(O[C@H](C)C(=O)NNC(=O)[C@@H]2[C@@H](C(=O)OCCOC(=O)c3ccc(-c4c5nc(c(-c6c(F)cc(S(=O)(=O)[O-])cc6F)c6ccc([nH]6)c(-c6c(F)cc(S(=O)(=O)[O-])cc6F)c6nc(c(-c7c(F)cc(S(=O)(=O)[O-])cc7F)c7ccc4[nH]7)C=C6)C=C5)cc3)[C@@H]3C=C[C@H]2C3)cc1C
REMARK SMILES IDX 20 1 19 2 17 3 18 4 16 5 15 6 94 7 91 8 93 9 95 10 92 11
REMARK SMILES IDX 13 12 12 13 14 15 11 16 9 17 10 18 7 20 8 21 6 22 5 23 1 24
REMARK SMILES IDX 2 25 3 26 97 27 4 28 96 29 98 30 21 31 22 32 23 33 24 34
REMARK SMILES IDX 25 35 26 36 90 37 27 38 89 39 28 40 29 41 30 42 83 43 31 44
REMARK SMILES IDX 88 45 82 46 84 47 32 48 87 49 81 50 80 51 33 53 67 54 46 55
REMARK SMILES IDX 66 56 47 57 50 58 65 59 85 60 48 61 49 62 64 64 86 65 51 66
REMARK SMILES IDX 34 67 35 68 44 69 36 70 37 71 43 72 45 73 38 74 39 75 40 76
REMARK SMILES IDX 41 77 42 78 68 79 69 80 78 81 70 82 71 83 77 84 79 85 72 86
REMARK SMILES IDX 73 87 74 88 75 89 76 90 52 91 53 92 62 93 54 94 55 95 61 96
REMARK SMILES IDX 63 97 56 98 57 99 58 100 59 101 60 102
REMARK H PARENT 12 14 11 19 84 52 50 63
REMARK Flexibility Score: inf
ROOT
ATOM      1  C   UNL A   1      32.479  30.708  27.252  1.00  0.00     0.274 C 
ENDROOT
BRANCH   1   2
ATOM      2  O   UNL A   1      31.951  29.956  26.139  1.00  0.00    -0.462 OA
BRANCH   2   3
ATOM      3  C   UNL A   1      31.655  28.656  26.402  1.00  0.00     0.310 C 
ATOM      4  O   UNL A   1      31.260  28.247  27.487  1.00  0.00    -0.252 OA
BRANCH   3   5
ATOM      5  C   UNL A   1      31.965  27.730  25.245  1.00  0.00     0.119 C 
ATOM      6  C   UNL A   1      32.072  26.193  25.580  1.00  0.00     0.102 C 
ATOM      7  C   UNL A   1      33.485  25.846  25.038  1.00  0.00     0.025 C 
ATOM      8  C   UNL A   1      33.372  28.045  24.671  1.00  0.00     0.027 C 
ATOM      9  C   UNL A   1      33.542  26.049  23.545  1.00  0.00    -0.027 C 
ATOM     10  C   UNL A   1      34.258  27.090  25.470  1.00  0.00     0.017 C 
ATOM     11  C   UNL A   1      33.475  27.370  23.323  1.00  0.00    -0.027 C 
BRANCH   6  12
ATOM     12  C   UNL A   1      30.868  25.453  24.997  1.00  0.00     0.242 C 
ATOM     13  N   UNL A   1      30.264  24.421  25.660  1.00  0.00    -0.267 N 
ATOM     14  H   UNL A   1      29.427  24.070  25.278  1.00  0.00     0.191 HD
ATOM     15  O   UNL A   1      30.331  25.839  23.952  1.00  0.00    -0.273 OA
BRANCH  13  16
ATOM     16  N   UNL A   1      30.722  23.826  26.820  1.00  0.00    -0.264 N 
ATOM     17  C   UNL A   1      31.722  22.883  26.859  1.00  0.00     0.279 C 
ATOM     18  O   UNL A   1      32.217  22.584  27.949  1.00  0.00    -0.269 OA
ATOM     19  H   UNL A   1      30.307  24.093  27.671  1.00  0.00     0.191 HD
BRANCH  17  20
ATOM     20  C   UNL A   1      32.092  22.104  25.581  1.00  0.00     0.260 C 
ATOM     21  C   UNL A   1      33.621  22.154  25.452  1.00  0.00     0.064 C 
BRANCH  20  22
ATOM     22  O   UNL A   1      31.602  20.764  25.597  1.00  0.00    -0.481 OA
BRANCH  22  23
ATOM     23  C   UNL A   1      32.347  19.788  24.988  1.00  0.00     0.120 A 
ATOM     24  C   UNL A   1      34.312  16.574  22.848  1.00  0.00     0.044 C 
ATOM     25  C   UNL A   1      33.631  17.717  23.546  1.00  0.00    -0.048 A 
ATOM     26  C   UNL A   1      33.991  18.014  24.868  1.00  0.00     0.007 A 
ATOM     27  C   UNL A   1      32.647  18.504  22.920  1.00  0.00    -0.045 A 
ATOM     28  C   UNL A   1      33.369  19.046  25.575  1.00  0.00     0.047 A 
ATOM     29  C   UNL A   1      32.014  19.528  23.655  1.00  0.00     0.050 A 
ATOM     30  C   UNL A   1      32.249  18.322  21.480  1.00  0.00     0.045 C 
ENDBRANCH  22  23
ENDBRANCH  20  22
ENDBRANCH  17  20
ENDBRANCH  13  16
ENDBRANCH   6  12
ENDBRANCH   3   5
ENDBRANCH   2   3
ENDBRANCH   1   2
BRANCH   1  31
ATOM     31  C   UNL A   1      33.995  30.867  27.160  1.00  0.00     0.275 C 
BRANCH  31  32
ATOM     32  O   UNL A   1      34.659  29.963  28.060  1.00  0.00    -0.458 OA
BRANCH  32  33
ATOM     33  C   UNL A   1      35.550  30.536  28.900  1.00  0.00     0.338 C 
ATOM     34  O   UNL A   1      35.356  31.471  29.660  1.00  0.00    -0.246 OA
BRANCH  33  35
ATOM     35  C   UNL A   1      36.851  29.857  28.801  1.00  0.00     0.060 A 
ATOM     36  C   UNL A   1      37.461  29.359  29.951  1.00  0.00     0.016 A 
ATOM     37  C   UNL A   1      37.542  29.874  27.589  1.00  0.00     0.016 A 
ATOM     38  C   UNL A   1      38.806  28.990  29.919  1.00  0.00     0.010 A 
ATOM     39  C   UNL A   1      38.856  29.400  27.539  1.00  0.00     0.010 A 
ATOM     40  C   UNL A   1      39.519  28.995  28.710  1.00  0.00    -0.014 A 
BRANCH  40  41
ATOM     41  C   UNL A   1      40.958  28.612  28.664  1.00  0.00     0.031 A 
ATOM     42  C   UNL A   1      42.026  29.639  28.949  1.00  0.00     0.074 A 
ATOM     43  C   UNL A   1      41.321  27.351  28.354  1.00  0.00     0.049 A 
ATOM     44  N   UNL A   1      43.314  29.575  28.733  1.00  0.00    -0.248 NA
ATOM     45  C   UNL A   1      41.581  30.912  29.540  1.00  0.00     0.031 C 
ATOM     46  C   UNL A   1      40.400  26.241  28.097  1.00  0.00     0.029 A 
ATOM     47  N   UNL A   1      42.564  26.791  28.195  1.00  0.00    -0.354 N 
ATOM     48  C   UNL A   1      43.825  30.817  29.098  1.00  0.00     0.074 A 
ATOM     49  C   UNL A   1      42.707  31.611  29.561  1.00  0.00     0.031 C 
ATOM     50  C   UNL A   1      41.109  25.131  27.840  1.00  0.00     0.029 A 
ATOM     51  C   UNL A   1      42.528  25.468  27.827  1.00  0.00     0.049 A 
ATOM     52  H   UNL A   1      43.401  27.290  28.331  1.00  0.00     0.167 HD
ATOM     53  C   UNL A   1      45.107  31.253  29.043  1.00  0.00     0.037 A 
ATOM     54  C   UNL A   1      43.517  24.626  27.469  1.00  0.00     0.037 A 
ATOM     55  C   UNL A   1      46.224  30.438  28.642  1.00  0.00     0.049 A 
ATOM     56  C   UNL A   1      44.930  25.129  27.415  1.00  0.00     0.074 A 
ATOM     57  C   UNL A   1      47.561  30.788  28.556  1.00  0.00     0.029 A 
ATOM     58  N   UNL A   1      46.139  29.101  28.282  1.00  0.00    -0.354 N 
ATOM     59  N   UNL A   1      45.385  26.329  27.682  1.00  0.00    -0.248 NA
ATOM     60  C   UNL A   1      45.960  24.172  26.990  1.00  0.00     0.031 C 
ATOM     61  C   UNL A   1      48.282  29.666  28.129  1.00  0.00     0.029 A 
ATOM     62  C   UNL A   1      47.397  28.611  27.975  1.00  0.00     0.049 A 
ATOM     63  H   UNL A   1      45.305  28.578  28.249  1.00  0.00     0.167 HD
ATOM     64  C   UNL A   1      46.755  26.271  27.461  1.00  0.00     0.074 A 
ATOM     65  C   UNL A   1      47.057  24.914  27.053  1.00  0.00     0.031 C 
ATOM     66  C   UNL A   1      47.678  27.256  27.577  1.00  0.00     0.037 A 
BRANCH  53  67
ATOM     67  C   UNL A   1      45.369  32.691  29.394  1.00  0.00     0.058 A 
ATOM     68  C   UNL A   1      45.724  33.089  30.691  1.00  0.00     0.135 A 
ATOM     69  C   UNL A   1      45.295  33.682  28.401  1.00  0.00     0.135 A 
ATOM     70  F   UNL A   1      45.793  32.183  31.679  1.00  0.00    -0.206 F 
ATOM     71  C   UNL A   1      45.974  34.423  30.999  1.00  0.00     0.059 A 
ATOM     72  C   UNL A   1      45.560  35.019  28.681  1.00  0.00     0.059 A 
ATOM     73  F   UNL A   1      44.960  33.355  27.143  1.00  0.00    -0.206 F 
ATOM     74  C   UNL A   1      45.885  35.383  29.988  1.00  0.00     0.060 A 
BRANCH  74  75
ATOM     75  S   UNL A   1      46.209  37.112  30.395  1.00  0.00     0.124 S 
ATOM     76  O   UNL A   1      46.326  37.705  29.066  1.00  0.00    -0.237 OA
ATOM     77  O   UNL A   1      45.021  37.488  31.153  1.00  0.00    -0.237 OA
ATOM     78  O   UNL A   1      47.447  37.051  31.166  1.00  0.00    -0.744 OA
ENDBRANCH  74  75
ENDBRANCH  53  67
BRANCH  54  79
ATOM     79  C   UNL A   1      43.186  23.228  27.090  1.00  0.00     0.058 A 
ATOM     80  C   UNL A   1      43.242  22.813  25.753  1.00  0.00     0.135 A 
ATOM     81  C   UNL A   1      42.854  22.273  28.062  1.00  0.00     0.135 A 
ATOM     82  F   UNL A   1      43.545  23.696  24.788  1.00  0.00    -0.206 F 
ATOM     83  C   UNL A   1      42.981  21.497  25.389  1.00  0.00     0.059 A 
ATOM     84  C   UNL A   1      42.612  20.945  27.727  1.00  0.00     0.059 A 
ATOM     85  F   UNL A   1      42.803  22.620  29.358  1.00  0.00    -0.206 F 
ATOM     86  C   UNL A   1      42.672  20.568  26.386  1.00  0.00     0.060 A 
BRANCH  86  87
ATOM     87  S   UNL A   1      42.414  18.841  25.922  1.00  0.00     0.124 S 
ATOM     88  O   UNL A   1      40.973  18.810  25.702  1.00  0.00    -0.237 OA
ATOM     89  O   UNL A   1      43.246  18.708  24.731  1.00  0.00    -0.237 OA
ATOM     90  O   UNL A   1      42.892  18.110  27.092  1.00  0.00    -0.744 OA
ENDBRANCH  86  87
ENDBRANCH  54  79
BRANCH  66  91
ATOM     91  C   UNL A   1      49.104  26.895  27.283  1.00  0.00     0.058 A 
ATOM     92  C   UNL A   1      49.911  26.266  28.242  1.00  0.00     0.135 A 
ATOM     93  C   UNL A   1      49.655  27.144  26.017  1.00  0.00     0.135 A 
ATOM     94  F   UNL A   1      49.429  26.015  29.470  1.00  0.00    -0.206 F 
ATOM     95  C   UNL A   1      51.225  25.907  27.961  1.00  0.00     0.059 A 
ATOM     96  C   UNL A   1      50.962  26.780  25.708  1.00  0.00     0.059 A 
ATOM     97  F   UNL A   1      48.920  27.740  25.065  1.00  0.00    -0.206 F 
ATOM     98  C   UNL A   1      51.742  26.170  26.691  1.00  0.00     0.060 A 
BRANCH  98  99
ATOM     99  S   UNL A   1      53.438  25.672  26.321  1.00  0.00     0.124 S 
ATOM    100  O   UNL A   1      53.243  24.313  25.829  1.00  0.00    -0.237 OA
ATOM    101  O   UNL A   1      53.847  26.655  25.323  1.00  0.00    -0.237 OA
ATOM    102  O   UNL A   1      54.111  25.783  27.611  1.00  0.00    -0.744 OA
ENDBRANCH  98  99
ENDBRANCH  66  91
ENDBRANCH  40  41
ENDBRANCH  33  35
ENDBRANCH  32  33
ENDBRANCH  31  32
ENDBRANCH   1  31
TORSDOF 19
ENDMDL
MODEL 3
REMARK VINA RESULT:     -11.7      2.248      3.186
REMARK SMILES Cc1ccc(O[C@H](C)C(=O)NNC(=O)[C@@H]2[C@@H](C(=O)OCCOC(=O)c3ccc(-c4c5nc(c(-c6c(F)cc(S(=O)(=O)[O-])cc6F)c6ccc([nH]6)c(-c6c(F)cc(S(=O)(=O)[O-])cc6F)c6nc(c(-c7c(F)cc(S(=O)(=O)[O-])cc7F)c7ccc4[nH]7)C=C6)C=C5)cc3)[C@@H]3C=C[C@H]2C3)cc1C
REMARK SMILES IDX 20 1 19 2 17 3 18 4 16 5 15 6 94 7 91 8 93 9 95 10 92 11
REMARK SMILES IDX 13 12 12 13 14 15 11 16 9 17 10 18 7 20 8 21 6 22 5 23 1 24
REMARK SMILES IDX 2 25 3 26 97 27 4 28 96 29 98 30 21 31 22 32 23 33 24 34
REMARK SMILES IDX 25 35 26 36 90 37 27 38 89 39 28 40 29 41 30 42 83 43 31 44
REMARK SMILES IDX 88 45 82 46 84 47 32 48 87 49 81 50 80 51 33 53 67 54 46 55
REMARK SMILES IDX 66 56 47 57 50 58 65 59 85 60 48 61 49 62 64 64 86 65 51 66
REMARK SMILES IDX 34 67 35 68 44 69 36 70 37 71 43 72 45 73 38 74 39 75 40 76
REMARK SMILES IDX 41 77 42 78 68 79 69 80 78 81 70 82 71 83 77 84 79 85 72 86
REMARK SMILES IDX 73 87 74 88 75 89 76 90 52 91 53 92 62 93 54 94 55 95 61 96
REMARK SMILES IDX 63 97 56 98 57 99 58 100 59 101 60 102
REMARK H PARENT 12 14 11 19 84 52 50 63
REMARK Flexibility Score: inf
ROOT
ATOM      1  C   UNL A   1      31.684  29.599  27.185  1.00  0.00     0.274 C 
ENDROOT
BRANCH   1   2
ATOM      2  O   UNL A   1      31.510  28.915  25.927  1.00  0.00    -0.462 OA
BRANCH   2   3
ATOM      3  C   UNL A   1      31.342  27.569  26.013  1.00  0.00     0.310 C 
ATOM      4  O   UNL A   1      31.090  26.973  27.054  1.00  0.00    -0.252 OA
BRANCH   3   5
ATOM      5  C   UNL A   1      31.607  26.852  24.707  1.00  0.00     0.119 C 
ATOM      6  C   UNL A   1      32.530  25.576  24.776  1.00  0.00     0.102 C 
ATOM      7  C   UNL A   1      33.638  25.927  23.747  1.00  0.00     0.025 C 
ATOM      8  C   UNL A   1      32.390  27.778  23.738  1.00  0.00     0.027 C 
ATOM      9  C   UNL A   1      33.051  26.059  22.364  1.00  0.00    -0.027 C 
ATOM     10  C   UNL A   1      33.839  27.410  24.054  1.00  0.00     0.017 C 
ATOM     11  C   UNL A   1      32.302  27.171  22.357  1.00  0.00    -0.027 C 
BRANCH   6  12
ATOM     12  C   UNL A   1      31.691  24.319  24.541  1.00  0.00     0.242 C 
ATOM     13  N   UNL A   1      31.913  23.163  25.237  1.00  0.00    -0.267 N 
ATOM     14  H   UNL A   1      31.261  22.434  25.114  1.00  0.00     0.191 HD
ATOM     15  O   UNL A   1      30.710  24.343  23.789  1.00  0.00    -0.273 OA
BRANCH  13  16
ATOM     16  N   UNL A   1      32.967  22.925  26.097  1.00  0.00    -0.264 N 
ATOM     17  C   UNL A   1      34.170  22.384  25.710  1.00  0.00     0.279 C 
ATOM     18  O   UNL A   1      35.121  22.424  26.494  1.00  0.00    -0.269 OA
ATOM     19  H   UNL A   1      32.849  23.157  27.046  1.00  0.00     0.191 HD
BRANCH  17  20
ATOM     20  C   UNL A   1      34.267  21.599  24.386  1.00  0.00     0.260 C 
ATOM     21  C   UNL A   1      34.879  22.549  23.346  1.00  0.00     0.064 C 
BRANCH  20  22
ATOM     22  O   UNL A   1      35.022  20.396  24.519  1.00  0.00    -0.481 OA
BRANCH  22  23
ATOM     23  C   UNL A   1      34.354  19.231  24.796  1.00  0.00     0.120 A 
ATOM     24  C   UNL A   1      32.532  15.344  25.378  1.00  0.00     0.044 C 
ATOM     25  C   UNL A   1      33.204  16.677  25.206  1.00  0.00    -0.048 A 
ATOM     26  C   UNL A   1      32.415  17.835  25.190  1.00  0.00     0.007 A 
ATOM     27  C   UNL A   1      34.598  16.806  25.067  1.00  0.00    -0.045 A 
ATOM     28  C   UNL A   1      32.983  19.098  25.003  1.00  0.00     0.047 A 
ATOM     29  C   UNL A   1      35.153  18.086  24.858  1.00  0.00     0.050 A 
ATOM     30  C   UNL A   1      35.540  15.636  25.155  1.00  0.00     0.045 C 
ENDBRANCH  22  23
ENDBRANCH  20  22
ENDBRANCH  17  20
ENDBRANCH  13  16
ENDBRANCH   6  12
ENDBRANCH   3   5
ENDBRANCH   2   3
ENDBRANCH   1   2
BRANCH   1  31
ATOM     31  C   UNL A   1      32.948  30.455  27.194  1.00  0.00     0.275 C 
BRANCH  31  32
ATOM     32  O   UNL A   1      33.999  29.807  27.932  1.00  0.00    -0.458 OA
BRANCH  32  33
ATOM     33  C   UNL A   1      34.910  30.637  28.489  1.00  0.00     0.338 C 
ATOM     34  O   UNL A   1      34.719  31.759  28.926  1.00  0.00    -0.246 OA
BRANCH  33  35
ATOM     35  C   UNL A   1      36.231  29.991  28.524  1.00  0.00     0.060 A 
ATOM     36  C   UNL A   1      36.705  29.449  29.719  1.00  0.00     0.016 A 
ATOM     37  C   UNL A   1      37.068  30.082  27.412  1.00  0.00     0.016 A 
ATOM     38  C   UNL A   1      38.052  29.111  29.840  1.00  0.00     0.010 A 
ATOM     39  C   UNL A   1      38.390  29.639  27.507  1.00  0.00     0.010 A 
ATOM     40  C   UNL A   1      38.911  29.191  28.733  1.00  0.00    -0.014 A 
BRANCH  40  41
ATOM     41  C   UNL A   1      40.355  28.840  28.853  1.00  0.00     0.031 A 
ATOM     42  C   UNL A   1      41.351  29.877  29.310  1.00  0.00     0.074 A 
ATOM     43  C   UNL A   1      40.786  27.602  28.541  1.00  0.00     0.049 A 
ATOM     44  N   UNL A   1      42.658  29.850  29.255  1.00  0.00    -0.248 NA
ATOM     45  C   UNL A   1      40.803  31.113  29.891  1.00  0.00     0.031 C 
ATOM     46  C   UNL A   1      39.934  26.485  28.126  1.00  0.00     0.029 A 
ATOM     47  N   UNL A   1      42.054  27.076  28.516  1.00  0.00    -0.354 N 
ATOM     48  C   UNL A   1      43.086  31.085  29.730  1.00  0.00     0.074 A 
ATOM     49  C   UNL A   1      41.899  31.835  30.081  1.00  0.00     0.031 C 
ATOM     50  C   UNL A   1      40.698  25.402  27.916  1.00  0.00     0.029 A 
ATOM     51  C   UNL A   1      42.099  25.769  28.095  1.00  0.00     0.049 A 
ATOM     52  H   UNL A   1      42.854  27.586  28.776  1.00  0.00     0.167 HD
ATOM     53  C   UNL A   1      44.353  31.550  29.854  1.00  0.00     0.037 A 
ATOM     54  C   UNL A   1      43.146  24.964  27.830  1.00  0.00     0.037 A 
ATOM     55  C   UNL A   1      45.533  30.777  29.564  1.00  0.00     0.049 A 
ATOM     56  C   UNL A   1      44.541  25.499  27.974  1.00  0.00     0.074 A 
ATOM     57  C   UNL A   1      46.860  31.158  29.660  1.00  0.00     0.029 A 
ATOM     58  N   UNL A   1      45.528  29.455  29.142  1.00  0.00    -0.354 N 
ATOM     59  N   UNL A   1      44.928  26.695  28.344  1.00  0.00    -0.248 NA
ATOM     60  C   UNL A   1      45.641  24.583  27.643  1.00  0.00     0.031 C 
ATOM     61  C   UNL A   1      47.657  30.072  29.282  1.00  0.00     0.029 A 
ATOM     62  C   UNL A   1      46.827  29.005  28.976  1.00  0.00     0.049 A 
ATOM     63  H   UNL A   1      44.719  28.916  28.985  1.00  0.00     0.167 HD
ATOM     64  C   UNL A   1      46.316  26.676  28.293  1.00  0.00     0.074 A 
ATOM     65  C   UNL A   1      46.701  25.344  27.873  1.00  0.00     0.031 C 
ATOM     66  C   UNL A   1      47.191  27.675  28.563  1.00  0.00     0.037 A 
BRANCH  53  67
ATOM     67  C   UNL A   1      44.531  32.977  30.292  1.00  0.00     0.058 A 
ATOM     68  C   UNL A   1      44.582  34.037  29.374  1.00  0.00     0.135 A 
ATOM     69  C   UNL A   1      44.617  33.288  31.659  1.00  0.00     0.135 A 
ATOM     70  F   UNL A   1      44.520  33.791  28.056  1.00  0.00    -0.206 F 
ATOM     71  C   UNL A   1      44.735  35.355  29.795  1.00  0.00     0.059 A 
ATOM     72  C   UNL A   1      44.752  34.600  32.104  1.00  0.00     0.059 A 
ATOM     73  F   UNL A   1      44.574  32.311  32.579  1.00  0.00    -0.206 F 
ATOM     74  C   UNL A   1      44.825  35.626  31.162  1.00  0.00     0.060 A 
BRANCH  74  75
ATOM     75  S   UNL A   1      45.027  37.338  31.700  1.00  0.00     0.124 S 
ATOM     76  O   UNL A   1      44.559  38.067  30.526  1.00  0.00    -0.237 OA
ATOM     77  O   UNL A   1      44.163  37.407  32.874  1.00  0.00    -0.237 OA
ATOM     78  O   UNL A   1      46.458  37.440  31.974  1.00  0.00    -0.744 OA
ENDBRANCH  74  75
ENDBRANCH  53  67
BRANCH  54  79
ATOM     79  C   UNL A   1      42.902  23.578  27.357  1.00  0.00     0.058 A 
ATOM     80  C   UNL A   1      43.026  23.248  26.001  1.00  0.00     0.135 A 
ATOM     81  C   UNL A   1      42.586  22.549  28.258  1.00  0.00     0.135 A 
ATOM     82  F   UNL A   1      43.316  24.202  25.102  1.00  0.00    -0.206 F 
ATOM     83  C   UNL A   1      42.847  21.944  25.551  1.00  0.00     0.059 A 
ATOM     84  C   UNL A   1      42.426  21.234  27.836  1.00  0.00     0.059 A 
ATOM     85  F   UNL A   1      42.472  22.814  29.569  1.00  0.00    -0.206 F 
ATOM     86  C   UNL A   1      42.553  20.942  26.478  1.00  0.00     0.060 A 
BRANCH  86  87
ATOM     87  S   UNL A   1      42.401  19.236  25.905  1.00  0.00     0.124 S 
ATOM     88  O   UNL A   1      42.974  18.500  27.026  1.00  0.00    -0.237 OA
ATOM     89  O   UNL A   1      40.962  19.095  25.716  1.00  0.00    -0.237 OA
ATOM     90  O   UNL A   1      43.188  19.230  24.675  1.00  0.00    -0.744 OA
ENDBRANCH  86  87
ENDBRANCH  54  79
BRANCH  66  91
ATOM     91  C   UNL A   1      48.652  27.357  28.437  1.00  0.00     0.058 A 
ATOM     92  C   UNL A   1      49.324  27.483  27.212  1.00  0.00     0.135 A 
ATOM     93  C   UNL A   1      49.393  26.961  29.560  1.00  0.00     0.135 A 
ATOM     94  F   UNL A   1      48.653  27.851  26.109  1.00  0.00    -0.206 F 
ATOM     95  C   UNL A   1      50.684  27.214  27.102  1.00  0.00     0.059 A 
ATOM     96  C   UNL A   1      50.757  26.701  29.477  1.00  0.00     0.059 A 
ATOM     97  F   UNL A   1      48.794  26.832  30.755  1.00  0.00    -0.206 F 
ATOM     98  C   UNL A   1      51.392  26.821  28.239  1.00  0.00     0.060 A 
BRANCH  98  99
ATOM     99  S   UNL A   1      53.163  26.505  28.097  1.00  0.00     0.124 S 
ATOM    100  O   UNL A   1      53.494  26.075  29.451  1.00  0.00    -0.237 OA
ATOM    101  O   UNL A   1      53.219  25.468  27.071  1.00  0.00    -0.237 OA
ATOM    102  O   UNL A   1      53.706  27.800  27.697  1.00  0.00    -0.744 OA
ENDBRANCH  98  99
ENDBRANCH  66  91
ENDBRANCH  40  41
ENDBRANCH  33  35
ENDBRANCH  32  33
ENDBRANCH  31  32
ENDBRANCH   1  31
TORSDOF 19
ENDMDL
