MODEL 1
REMARK VINA RESULT:     -10.8      0.000      0.000
REMARK SMILES CC[C@@H](NC(=O)NC1(CC(=O)OCCOC(=O)c2ccc(-c3c4nc(c(-c5c(F)cc(S(=O)(=O)[O-])cc5F)c5ccc([nH]5)c(-c5c(F)cc(S(=O)(=O)[O-])cc5F)c5nc(c(-c6c(F)cc(S(=O)(=O)[O-])cc6F)c6ccc3[nH]6)C=C5)C=C4)cc2)CCC1)C(C)C
REMARK SMILES IDX 13 1 12 2 10 3 11 4 9 5 8 6 84 7 86 8 85 9 7 10 4 11 5 12
REMARK SMILES IDX 6 14 3 16 2 17 1 18 87 19 88 20 89 21 14 22 15 23 16 24
REMARK SMILES IDX 17 25 18 26 19 27 83 28 20 29 82 30 21 31 22 32 23 33 76 34
REMARK SMILES IDX 24 35 81 36 75 37 77 38 25 39 80 40 74 41 73 42 26 44 60 45
REMARK SMILES IDX 39 46 59 47 40 48 43 49 58 50 78 51 41 52 42 53 57 55 79 56
REMARK SMILES IDX 44 57 27 58 28 59 37 60 29 61 30 62 36 63 38 64 31 65 32 66
REMARK SMILES IDX 33 67 34 68 35 69 61 70 62 71 71 72 63 73 64 74 70 75 72 76
REMARK SMILES IDX 65 77 66 78 67 79 68 80 69 81 45 82 46 83 55 84 47 85 48 86
REMARK SMILES IDX 54 87 56 88 49 89 50 90 51 91 52 92 53 93
REMARK H PARENT 4 13 7 15 77 43 43 54
REMARK Flexibility Score: inf
ROOT
ATOM      1  C   UNL A   1      35.526  22.011  24.623  1.00  0.00     0.274 C 
ENDROOT
BRANCH   1   2
ATOM      2  O   UNL A   1      34.030  21.599  24.145  1.00  0.00    -0.462 OA
BRANCH   2   3
ATOM      3  C   UNL A   1      32.880  22.068  23.475  1.00  0.00     0.308 C 
ATOM      4  O   UNL A   1      32.730  22.278  22.270  1.00  0.00    -0.252 OA
BRANCH   3   5
ATOM      5  C   UNL A   1      31.636  22.311  24.155  1.00  0.00     0.151 C 
BRANCH   5   6
ATOM      6  C   UNL A   1      31.946  23.415  25.057  1.00  0.00     0.052 C 
ATOM      7  C   UNL A   1      32.229  22.883  26.491  1.00  0.00     0.029 C 
ATOM      8  C   UNL A   1      30.636  24.000  25.672  1.00  0.00     0.029 C 
ATOM      9  C   UNL A   1      30.681  22.815  26.673  1.00  0.00     0.005 C 
BRANCH   6  10
ATOM     10  N   UNL A   1      33.004  24.281  24.350  1.00  0.00    -0.332 N 
ATOM     11  N   UNL A   1      32.611  26.824  24.082  1.00  0.00    -0.335 N 
ATOM     12  C   UNL A   1      33.036  25.532  23.713  1.00  0.00     0.315 C 
ATOM     13  H   UNL A   1      32.949  27.334  23.309  1.00  0.00     0.165 HD
ATOM     14  O   UNL A   1      33.711  25.443  22.676  1.00  0.00    -0.249 OA
ATOM     15  H   UNL A   1      33.886  23.845  24.343  1.00  0.00     0.165 HD
BRANCH  11  16
ATOM     16  C   UNL A   1      31.881  28.137  25.002  1.00  0.00     0.086 C 
BRANCH  16  17
ATOM     17  C   UNL A   1      31.425  29.437  24.236  1.00  0.00     0.022 C 
ATOM     18  C   UNL A   1      30.111  29.577  23.500  1.00  0.00     0.006 C 
ENDBRANCH  16  17
BRANCH  16  19
ATOM     19  C   UNL A   1      32.370  28.687  26.550  1.00  0.00     0.005 C 
ATOM     20  C   UNL A   1      31.558  28.235  27.787  1.00  0.00     0.009 C 
ATOM     21  C   UNL A   1      33.856  28.408  26.894  1.00  0.00     0.009 C 
ENDBRANCH  16  19
ENDBRANCH  11  16
ENDBRANCH   6  10
ENDBRANCH   5   6
ENDBRANCH   3   5
ENDBRANCH   2   3
ENDBRANCH   1   2
BRANCH   1  22
ATOM     22  C   UNL A   1      36.595  23.286  24.315  1.00  0.00     0.275 C 
BRANCH  22  23
ATOM     23  O   UNL A   1      37.369  24.004  25.343  1.00  0.00    -0.458 OA
BRANCH  23  24
ATOM     24  C   UNL A   1      38.441  23.357  25.962  1.00  0.00     0.338 C 
ATOM     25  O   UNL A   1      38.782  22.229  25.723  1.00  0.00    -0.246 OA
BRANCH  24  26
ATOM     26  C   UNL A   1      39.273  24.312  26.830  1.00  0.00     0.060 A 
ATOM     27  C   UNL A   1      39.095  24.377  28.204  1.00  0.00     0.016 A 
ATOM     28  C   UNL A   1      40.059  25.324  26.246  1.00  0.00     0.016 A 
ATOM     29  C   UNL A   1      39.352  25.580  28.890  1.00  0.00     0.010 A 
ATOM     30  C   UNL A   1      40.514  26.440  27.008  1.00  0.00     0.010 A 
ATOM     31  C   UNL A   1      40.113  26.627  28.342  1.00  0.00    -0.014 A 
BRANCH  31  32
ATOM     32  C   UNL A   1      40.531  27.824  29.180  1.00  0.00     0.031 A 
ATOM     33  C   UNL A   1      41.794  27.839  30.035  1.00  0.00     0.074 A 
ATOM     34  C   UNL A   1      39.770  28.948  29.207  1.00  0.00     0.049 A 
ATOM     35  N   UNL A   1      42.115  28.633  31.033  1.00  0.00    -0.248 NA
ATOM     36  C   UNL A   1      42.835  26.850  29.719  1.00  0.00     0.031 C 
ATOM     37  C   UNL A   1      38.572  29.191  28.401  1.00  0.00     0.029 A 
ATOM     38  N   UNL A   1      39.880  30.103  29.959  1.00  0.00    -0.354 N 
ATOM     39  C   UNL A   1      43.357  28.204  31.504  1.00  0.00     0.074 A 
ATOM     40  C   UNL A   1      43.746  27.092  30.658  1.00  0.00     0.031 C 
ATOM     41  C   UNL A   1      38.085  30.408  28.664  1.00  0.00     0.029 A 
ATOM     42  C   UNL A   1      38.826  30.972  29.779  1.00  0.00     0.049 A 
ATOM     43  H   UNL A   1      40.636  30.286  30.562  1.00  0.00     0.167 HD
ATOM     44  C   UNL A   1      44.092  28.678  32.546  1.00  0.00     0.037 A 
ATOM     45  C   UNL A   1      38.401  32.044  30.477  1.00  0.00     0.037 A 
ATOM     46  C   UNL A   1      43.731  29.823  33.358  1.00  0.00     0.049 A 
ATOM     47  C   UNL A   1      39.144  32.476  31.701  1.00  0.00     0.074 A 
ATOM     48  C   UNL A   1      44.410  30.363  34.441  1.00  0.00     0.029 A 
ATOM     49  N   UNL A   1      42.607  30.611  33.170  1.00  0.00    -0.354 N 
ATOM     50  N   UNL A   1      40.243  31.982  32.211  1.00  0.00    -0.248 NA
ATOM     51  C   UNL A   1      38.570  33.595  32.464  1.00  0.00     0.031 C 
ATOM     52  C   UNL A   1      43.672  31.447  34.934  1.00  0.00     0.029 A 
ATOM     53  C   UNL A   1      42.559  31.613  34.130  1.00  0.00     0.049 A 
ATOM     54  H   UNL A   1      41.938  30.479  32.459  1.00  0.00     0.167 HD
ATOM     55  C   UNL A   1      40.500  32.734  33.349  1.00  0.00     0.074 A 
ATOM     56  C   UNL A   1      39.450  33.727  33.447  1.00  0.00     0.031 C 
ATOM     57  C   UNL A   1      41.519  32.605  34.232  1.00  0.00     0.037 A 
BRANCH  44  58
ATOM     58  C   UNL A   1      45.348  27.936  32.940  1.00  0.00     0.058 A 
ATOM     59  C   UNL A   1      45.330  26.793  33.752  1.00  0.00     0.135 A 
ATOM     60  C   UNL A   1      46.592  28.334  32.412  1.00  0.00     0.135 A 
ATOM     61  F   UNL A   1      44.175  26.358  34.280  1.00  0.00    -0.206 F 
ATOM     62  C   UNL A   1      46.497  26.088  34.050  1.00  0.00     0.059 A 
ATOM     63  C   UNL A   1      47.767  27.633  32.678  1.00  0.00     0.059 A 
ATOM     64  F   UNL A   1      46.671  29.407  31.609  1.00  0.00    -0.206 F 
ATOM     65  C   UNL A   1      47.712  26.520  33.513  1.00  0.00     0.060 A 
BRANCH  65  66
ATOM     66  S   UNL A   1      49.220  25.607  33.915  1.00  0.00     0.124 S 
ATOM     67  O   UNL A   1      48.798  24.852  35.091  1.00  0.00    -0.237 OA
ATOM     68  O   UNL A   1      49.446  24.820  32.707  1.00  0.00    -0.237 OA
ATOM     69  O   UNL A   1      50.201  26.658  34.166  1.00  0.00    -0.744 OA
ENDBRANCH  65  66
ENDBRANCH  44  58
BRANCH  45  70
ATOM     70  C   UNL A   1      37.122  32.702  30.090  1.00  0.00     0.058 A 
ATOM     71  C   UNL A   1      35.925  32.413  30.757  1.00  0.00     0.135 A 
ATOM     72  C   UNL A   1      37.088  33.668  29.068  1.00  0.00     0.135 A 
ATOM     73  F   UNL A   1      35.905  31.487  31.727  1.00  0.00    -0.206 F 
ATOM     74  C   UNL A   1      34.739  33.062  30.431  1.00  0.00     0.059 A 
ATOM     75  C   UNL A   1      35.922  34.353  28.747  1.00  0.00     0.059 A 
ATOM     76  F   UNL A   1      38.211  33.990  28.406  1.00  0.00    -0.206 F 
ATOM     77  C   UNL A   1      34.750  34.037  29.430  1.00  0.00     0.060 A 
BRANCH  77  78
ATOM     78  S   UNL A   1      33.223  34.927  29.063  1.00  0.00     0.124 S 
ATOM     79  O   UNL A   1      32.646  34.099  28.011  1.00  0.00    -0.237 OA
ATOM     80  O   UNL A   1      32.532  34.900  30.350  1.00  0.00    -0.237 OA
ATOM     81  O   UNL A   1      33.695  36.244  28.645  1.00  0.00    -0.744 OA
ENDBRANCH  77  78
ENDBRANCH  45  70
BRANCH  57  82
ATOM     82  C   UNL A   1      41.571  33.587  35.368  1.00  0.00     0.058 A 
ATOM     83  C   UNL A   1      42.321  34.770  35.284  1.00  0.00     0.135 A 
ATOM     84  C   UNL A   1      40.845  33.353  36.547  1.00  0.00     0.135 A 
ATOM     85  F   UNL A   1      43.048  35.034  34.187  1.00  0.00    -0.206 F 
ATOM     86  C   UNL A   1      42.361  35.681  36.336  1.00  0.00     0.059 A 
ATOM     87  C   UNL A   1      40.854  34.259  37.602  1.00  0.00     0.059 A 
ATOM     88  F   UNL A   1      40.113  32.235  36.678  1.00  0.00    -0.206 F 
ATOM     89  C   UNL A   1      41.622  35.417  37.491  1.00  0.00     0.060 A 
BRANCH  89  90
ATOM     90  S   UNL A   1      41.651  36.624  38.834  1.00  0.00     0.124 S 
ATOM     91  O   UNL A   1      42.545  37.643  38.296  1.00  0.00    -0.237 OA
ATOM     92  O   UNL A   1      40.246  37.006  38.944  1.00  0.00    -0.237 OA
ATOM     93  O   UNL A   1      42.175  35.862  39.964  1.00  0.00    -0.744 OA
ENDBRANCH  89  90
ENDBRANCH  57  82
ENDBRANCH  31  32
ENDBRANCH  24  26
ENDBRANCH  23  24
ENDBRANCH  22  23
ENDBRANCH   1  22
TORSDOF 19
ENDMDL
MODEL 2
REMARK VINA RESULT:     -10.7      4.068      9.072
REMARK SMILES CC[C@@H](NC(=O)NC1(CC(=O)OCCOC(=O)c2ccc(-c3c4nc(c(-c5c(F)cc(S(=O)(=O)[O-])cc5F)c5ccc([nH]5)c(-c5c(F)cc(S(=O)(=O)[O-])cc5F)c5nc(c(-c6c(F)cc(S(=O)(=O)[O-])cc6F)c6ccc3[nH]6)C=C5)C=C4)cc2)CCC1)C(C)C
REMARK SMILES IDX 13 1 12 2 10 3 11 4 9 5 8 6 84 7 86 8 85 9 7 10 4 11 5 12
REMARK SMILES IDX 6 14 3 16 2 17 1 18 87 19 88 20 89 21 14 22 15 23 16 24
REMARK SMILES IDX 17 25 18 26 19 27 83 28 20 29 82 30 21 31 22 32 23 33 76 34
REMARK SMILES IDX 24 35 81 36 75 37 77 38 25 39 80 40 74 41 73 42 26 44 60 45
REMARK SMILES IDX 39 46 59 47 40 48 43 49 58 50 78 51 41 52 42 53 57 55 79 56
REMARK SMILES IDX 44 57 27 58 28 59 37 60 29 61 30 62 36 63 38 64 31 65 32 66
REMARK SMILES IDX 33 67 34 68 35 69 61 70 62 71 71 72 63 73 64 74 70 75 72 76
REMARK SMILES IDX 65 77 66 78 67 79 68 80 69 81 45 82 46 83 55 84 47 85 48 86
REMARK SMILES IDX 54 87 56 88 49 89 50 90 51 91 52 92 53 93
REMARK H PARENT 4 13 7 15 77 43 43 54
REMARK Flexibility Score: inf
ROOT
ATOM      1  C   UNL A   1      36.127  20.313  25.020  1.00  0.00     0.274 C 
ENDROOT
BRANCH   1   2
ATOM      2  O   UNL A   1      34.562  20.518  25.401  1.00  0.00    -0.462 OA
BRANCH   2   3
ATOM      3  C   UNL A   1      33.248  20.122  25.067  1.00  0.00     0.308 C 
ATOM      4  O   UNL A   1      32.507  19.347  25.673  1.00  0.00    -0.252 OA
BRANCH   3   5
ATOM      5  C   UNL A   1      32.542  20.666  23.939  1.00  0.00     0.151 C 
BRANCH   5   6
ATOM      6  C   UNL A   1      32.503  22.098  24.214  1.00  0.00     0.052 C 
ATOM      7  C   UNL A   1      31.760  22.852  23.074  1.00  0.00     0.029 C 
ATOM      8  C   UNL A   1      33.786  22.794  23.661  1.00  0.00     0.029 C 
ATOM      9  C   UNL A   1      33.095  22.770  22.273  1.00  0.00     0.005 C 
BRANCH   6  10
ATOM     10  N   UNL A   1      32.019  22.257  25.666  1.00  0.00    -0.332 N 
ATOM     11  N   UNL A   1      31.642  24.623  26.644  1.00  0.00    -0.335 N 
ATOM     12  C   UNL A   1      32.033  23.270  26.640  1.00  0.00     0.315 C 
ATOM     13  H   UNL A   1      31.788  24.833  27.595  1.00  0.00     0.165 HD
ATOM     14  O   UNL A   1      32.333  22.774  27.737  1.00  0.00    -0.249 OA
ATOM     15  H   UNL A   1      31.589  21.437  25.998  1.00  0.00     0.165 HD
BRANCH  11  16
ATOM     16  C   UNL A   1      31.066  26.191  26.083  1.00  0.00     0.086 C 
BRANCH  16  17
ATOM     17  C   UNL A   1      30.545  26.320  24.601  1.00  0.00     0.022 C 
ATOM     18  C   UNL A   1      29.143  26.746  24.224  1.00  0.00     0.006 C 
ENDBRANCH  16  17
BRANCH  16  19
ATOM     19  C   UNL A   1      31.762  27.716  26.440  1.00  0.00     0.005 C 
ATOM     20  C   UNL A   1      31.425  28.384  27.795  1.00  0.00     0.009 C 
ATOM     21  C   UNL A   1      33.307  27.766  26.316  1.00  0.00     0.009 C 
ENDBRANCH  16  19
ENDBRANCH  11  16
ENDBRANCH   6  10
ENDBRANCH   5   6
ENDBRANCH   3   5
ENDBRANCH   2   3
ENDBRANCH   1   2
BRANCH   1  22
ATOM     22  C   UNL A   1      37.444  21.323  24.694  1.00  0.00     0.275 C 
BRANCH  22  23
ATOM     23  O   UNL A   1      38.187  22.093  25.707  1.00  0.00    -0.458 OA
BRANCH  23  24
ATOM     24  C   UNL A   1      37.764  23.387  26.023  1.00  0.00     0.338 C 
ATOM     25  O   UNL A   1      36.623  23.761  25.962  1.00  0.00    -0.246 OA
BRANCH  24  26
ATOM     26  C   UNL A   1      38.881  24.223  26.662  1.00  0.00     0.060 A 
ATOM     27  C   UNL A   1      38.939  24.422  28.034  1.00  0.00     0.016 A 
ATOM     28  C   UNL A   1      39.734  25.018  25.873  1.00  0.00     0.016 A 
ATOM     29  C   UNL A   1      39.514  25.599  28.550  1.00  0.00     0.010 A 
ATOM     30  C   UNL A   1      40.498  26.078  26.444  1.00  0.00     0.010 A 
ATOM     31  C   UNL A   1      40.355  26.435  27.795  1.00  0.00    -0.014 A 
BRANCH  31  32
ATOM     32  C   UNL A   1      41.110  27.587  28.440  1.00  0.00     0.031 A 
ATOM     33  C   UNL A   1      40.411  28.784  29.075  1.00  0.00     0.074 A 
ATOM     34  C   UNL A   1      42.467  27.596  28.464  1.00  0.00     0.049 A 
ATOM     35  N   UNL A   1      40.895  29.972  29.369  1.00  0.00    -0.248 NA
ATOM     36  C   UNL A   1      38.997  28.624  29.444  1.00  0.00     0.031 C 
ATOM     37  C   UNL A   1      43.340  26.517  27.999  1.00  0.00     0.029 A 
ATOM     38  N   UNL A   1      43.362  28.561  28.887  1.00  0.00    -0.354 N 
ATOM     39  C   UNL A   1      39.838  30.718  29.895  1.00  0.00     0.074 A 
ATOM     40  C   UNL A   1      38.688  29.834  29.906  1.00  0.00     0.031 C 
ATOM     41  C   UNL A   1      44.620  26.851  28.190  1.00  0.00     0.029 A 
ATOM     42  C   UNL A   1      44.676  28.233  28.631  1.00  0.00     0.049 A 
ATOM     43  H   UNL A   1      43.088  29.398  29.327  1.00  0.00     0.167 HD
ATOM     44  C   UNL A   1      39.824  32.013  30.310  1.00  0.00     0.037 A 
ATOM     45  C   UNL A   1      45.811  28.961  28.627  1.00  0.00     0.037 A 
ATOM     46  C   UNL A   1      40.983  32.881  30.351  1.00  0.00     0.049 A 
ATOM     47  C   UNL A   1      45.761  30.419  28.958  1.00  0.00     0.074 A 
ATOM     48  C   UNL A   1      41.055  34.210  30.744  1.00  0.00     0.029 A 
ATOM     49  N   UNL A   1      42.271  32.507  30.001  1.00  0.00    -0.354 N 
ATOM     50  N   UNL A   1      44.734  31.142  29.325  1.00  0.00    -0.248 NA
ATOM     51  C   UNL A   1      47.021  31.168  28.842  1.00  0.00     0.031 C 
ATOM     52  C   UNL A   1      42.376  34.649  30.589  1.00  0.00     0.029 A 
ATOM     53  C   UNL A   1      43.137  33.583  30.145  1.00  0.00     0.049 A 
ATOM     54  H   UNL A   1      42.534  31.609  29.695  1.00  0.00     0.167 HD
ATOM     55  C   UNL A   1      45.223  32.430  29.495  1.00  0.00     0.074 A 
ATOM     56  C   UNL A   1      46.642  32.386  29.205  1.00  0.00     0.031 C 
ATOM     57  C   UNL A   1      44.548  33.547  29.859  1.00  0.00     0.037 A 
BRANCH  44  58
ATOM     58  C   UNL A   1      38.501  32.629  30.706  1.00  0.00     0.058 A 
ATOM     59  C   UNL A   1      37.645  33.245  29.781  1.00  0.00     0.135 A 
ATOM     60  C   UNL A   1      38.044  32.515  32.033  1.00  0.00     0.135 A 
ATOM     61  F   UNL A   1      38.020  33.378  28.499  1.00  0.00    -0.206 F 
ATOM     62  C   UNL A   1      36.400  33.750  30.160  1.00  0.00     0.059 A 
ATOM     63  C   UNL A   1      36.796  32.992  32.430  1.00  0.00     0.059 A 
ATOM     64  F   UNL A   1      38.809  31.915  32.960  1.00  0.00    -0.206 F 
ATOM     65  C   UNL A   1      35.987  33.624  31.489  1.00  0.00     0.060 A 
BRANCH  65  66
ATOM     66  S   UNL A   1      34.378  34.293  31.972  1.00  0.00     0.124 S 
ATOM     67  O   UNL A   1      34.766  35.538  32.629  1.00  0.00    -0.237 OA
ATOM     68  O   UNL A   1      33.699  34.441  30.688  1.00  0.00    -0.237 OA
ATOM     69  O   UNL A   1      33.830  33.266  32.851  1.00  0.00    -0.744 OA
ENDBRANCH  65  66
ENDBRANCH  44  58
BRANCH  45  70
ATOM     70  C   UNL A   1      47.078  28.327  28.167  1.00  0.00     0.058 A 
ATOM     71  C   UNL A   1      47.961  27.727  29.074  1.00  0.00     0.135 A 
ATOM     72  C   UNL A   1      47.405  28.276  26.800  1.00  0.00     0.135 A 
ATOM     73  F   UNL A   1      47.700  27.766  30.389  1.00  0.00    -0.206 F 
ATOM     74  C   UNL A   1      49.120  27.091  28.644  1.00  0.00     0.059 A 
ATOM     75  C   UNL A   1      48.541  27.618  26.344  1.00  0.00     0.059 A 
ATOM     76  F   UNL A   1      46.587  28.826  25.890  1.00  0.00    -0.206 F 
ATOM     77  C   UNL A   1      49.397  27.035  27.275  1.00  0.00     0.060 A 
BRANCH  77  78
ATOM     78  S   UNL A   1      50.865  26.143  26.719  1.00  0.00     0.124 S 
ATOM     79  O   UNL A   1      50.630  24.816  27.275  1.00  0.00    -0.237 OA
ATOM     80  O   UNL A   1      50.763  26.255  25.266  1.00  0.00    -0.237 OA
ATOM     81  O   UNL A   1      51.962  26.897  27.320  1.00  0.00    -0.744 OA
ENDBRANCH  77  78
ENDBRANCH  45  70
BRANCH  57  82
ATOM     82  C   UNL A   1      45.344  34.813  30.000  1.00  0.00     0.058 A 
ATOM     83  C   UNL A   1      45.974  35.156  31.206  1.00  0.00     0.135 A 
ATOM     84  C   UNL A   1      45.496  35.684  28.909  1.00  0.00     0.135 A 
ATOM     85  F   UNL A   1      45.845  34.367  32.285  1.00  0.00    -0.206 F 
ATOM     86  C   UNL A   1      46.716  36.327  31.331  1.00  0.00     0.059 A 
ATOM     87  C   UNL A   1      46.250  36.850  29.005  1.00  0.00     0.059 A 
ATOM     88  F   UNL A   1      44.912  35.403  27.734  1.00  0.00    -0.206 F 
ATOM     89  C   UNL A   1      46.850  37.167  30.223  1.00  0.00     0.060 A 
BRANCH  89  90
ATOM     90  S   UNL A   1      47.846  38.665  30.386  1.00  0.00     0.124 S 
ATOM     91  O   UNL A   1      48.465  38.753  29.069  1.00  0.00    -0.237 OA
ATOM     92  O   UNL A   1      46.840  39.681  30.683  1.00  0.00    -0.237 OA
ATOM     93  O   UNL A   1      48.753  38.352  31.487  1.00  0.00    -0.744 OA
ENDBRANCH  89  90
ENDBRANCH  57  82
ENDBRANCH  31  32
ENDBRANCH  24  26
ENDBRANCH  23  24
ENDBRANCH  22  23
ENDBRANCH   1  22
TORSDOF 19
ENDMDL
MODEL 3
REMARK VINA RESULT:     -10.7      5.132     11.572
REMARK SMILES CC[C@@H](NC(=O)NC1(CC(=O)OCCOC(=O)c2ccc(-c3c4nc(c(-c5c(F)cc(S(=O)(=O)[O-])cc5F)c5ccc([nH]5)c(-c5c(F)cc(S(=O)(=O)[O-])cc5F)c5nc(c(-c6c(F)cc(S(=O)(=O)[O-])cc6F)c6ccc3[nH]6)C=C5)C=C4)cc2)CCC1)C(C)C
REMARK SMILES IDX 13 1 12 2 10 3 11 4 9 5 8 6 84 7 86 8 85 9 7 10 4 11 5 12
REMARK SMILES IDX 6 14 3 16 2 17 1 18 87 19 88 20 89 21 14 22 15 23 16 24
REMARK SMILES IDX 17 25 18 26 19 27 83 28 20 29 82 30 21 31 22 32 23 33 76 34
REMARK SMILES IDX 24 35 81 36 75 37 77 38 25 39 80 40 74 41 73 42 26 44 60 45
REMARK SMILES IDX 39 46 59 47 40 48 43 49 58 50 78 51 41 52 42 53 57 55 79 56
REMARK SMILES IDX 44 57 27 58 28 59 37 60 29 61 30 62 36 63 38 64 31 65 32 66
REMARK SMILES IDX 33 67 34 68 35 69 61 70 62 71 71 72 63 73 64 74 70 75 72 76
REMARK SMILES IDX 65 77 66 78 67 79 68 80 69 81 45 82 46 83 55 84 47 85 48 86
REMARK SMILES IDX 54 87 56 88 49 89 50 90 51 91 52 92 53 93
REMARK H PARENT 4 13 7 15 77 43 43 54
REMARK Flexibility Score: inf
ROOT
ATOM      1  C   UNL A   1      34.581  32.763  29.830  1.00  0.00     0.274 C 
ENDROOT
BRANCH   1   2
ATOM      2  O   UNL A   1      35.580  32.723  31.110  1.00  0.00    -0.462 OA
BRANCH   2   3
ATOM      3  C   UNL A   1      36.418  31.882  31.873  1.00  0.00     0.308 C 
ATOM      4  O   UNL A   1      36.119  30.851  32.479  1.00  0.00    -0.252 OA
BRANCH   3   5
ATOM      5  C   UNL A   1      37.835  32.102  31.987  1.00  0.00     0.151 C 
BRANCH   5   6
ATOM      6  C   UNL A   1      37.932  33.269  32.857  1.00  0.00     0.052 C 
ATOM      7  C   UNL A   1      37.985  34.575  32.014  1.00  0.00     0.029 C 
ATOM      8  C   UNL A   1      39.426  33.577  33.190  1.00  0.00     0.029 C 
ATOM      9  C   UNL A   1      39.500  34.270  31.804  1.00  0.00     0.005 C 
BRANCH   6  10
ATOM     10  N   UNL A   1      36.846  33.109  33.936  1.00  0.00    -0.332 N 
ATOM     11  N   UNL A   1      34.968  34.876  34.141  1.00  0.00    -0.335 N 
ATOM     12  C   UNL A   1      35.927  33.947  34.589  1.00  0.00     0.315 C 
ATOM     13  H   UNL A   1      34.551  35.110  35.003  1.00  0.00     0.165 HD
ATOM     14  O   UNL A   1      35.908  33.664  35.797  1.00  0.00    -0.249 OA
ATOM     15  H   UNL A   1      36.779  32.178  34.249  1.00  0.00     0.165 HD
BRANCH  11  16
ATOM     16  C   UNL A   1      34.016  35.900  33.069  1.00  0.00     0.086 C 
BRANCH  16  17
ATOM     17  C   UNL A   1      33.704  37.380  33.514  1.00  0.00     0.022 C 
ATOM     18  C   UNL A   1      34.020  38.605  32.684  1.00  0.00     0.006 C 
ENDBRANCH  16  17
BRANCH  16  19
ATOM     19  C   UNL A   1      32.648  35.418  32.154  1.00  0.00     0.005 C 
ATOM     20  C   UNL A   1      31.240  35.783  32.681  1.00  0.00     0.009 C 
ATOM     21  C   UNL A   1      32.675  35.866  30.669  1.00  0.00     0.009 C 
ENDBRANCH  16  19
ENDBRANCH  11  16
ENDBRANCH   6  10
ENDBRANCH   5   6
ENDBRANCH   3   5
ENDBRANCH   2   3
ENDBRANCH   1   2
BRANCH   1  22
ATOM     22  C   UNL A   1      34.561  32.088  28.279  1.00  0.00     0.275 C 
BRANCH  22  23
ATOM     23  O   UNL A   1      33.806  30.883  27.894  1.00  0.00    -0.458 OA
BRANCH  23  24
ATOM     24  C   UNL A   1      34.472  29.657  27.822  1.00  0.00     0.338 C 
ATOM     25  O   UNL A   1      34.006  28.659  27.341  1.00  0.00    -0.246 OA
BRANCH  24  26
ATOM     26  C   UNL A   1      35.946  29.773  28.234  1.00  0.00     0.060 A 
ATOM     27  C   UNL A   1      36.926  30.120  27.315  1.00  0.00     0.016 A 
ATOM     28  C   UNL A   1      36.391  29.293  29.480  1.00  0.00     0.016 A 
ATOM     29  C   UNL A   1      38.244  29.652  27.482  1.00  0.00     0.010 A 
ATOM     30  C   UNL A   1      37.772  29.032  29.724  1.00  0.00     0.010 A 
ATOM     31  C   UNL A   1      38.728  29.145  28.701  1.00  0.00    -0.014 A 
BRANCH  31  32
ATOM     32  C   UNL A   1      40.203  28.831  28.896  1.00  0.00     0.031 A 
ATOM     33  C   UNL A   1      41.228  29.883  29.308  1.00  0.00     0.074 A 
ATOM     34  C   UNL A   1      40.674  27.574  28.697  1.00  0.00     0.049 A 
ATOM     35  N   UNL A   1      42.539  29.854  29.204  1.00  0.00    -0.248 NA
ATOM     36  C   UNL A   1      40.720  31.114  29.929  1.00  0.00     0.031 C 
ATOM     37  C   UNL A   1      39.863  26.393  28.389  1.00  0.00     0.029 A 
ATOM     38  N   UNL A   1      41.962  27.073  28.706  1.00  0.00    -0.354 N 
ATOM     39  C   UNL A   1      43.007  31.078  29.684  1.00  0.00     0.074 A 
ATOM     40  C   UNL A   1      41.835  31.819  30.109  1.00  0.00     0.031 C 
ATOM     41  C   UNL A   1      40.649  25.318  28.278  1.00  0.00     0.029 A 
ATOM     42  C   UNL A   1      42.034  25.749  28.333  1.00  0.00     0.049 A 
ATOM     43  H   UNL A   1      42.749  27.610  28.955  1.00  0.00     0.167 HD
ATOM     44  C   UNL A   1      44.284  31.544  29.750  1.00  0.00     0.037 A 
ATOM     45  C   UNL A   1      43.065  24.964  27.958  1.00  0.00     0.037 A 
ATOM     46  C   UNL A   1      45.460  30.785  29.378  1.00  0.00     0.049 A 
ATOM     47  C   UNL A   1      44.449  25.527  27.907  1.00  0.00     0.074 A 
ATOM     48  C   UNL A   1      46.789  31.185  29.399  1.00  0.00     0.029 A 
ATOM     49  N   UNL A   1      45.455  29.473  28.932  1.00  0.00    -0.354 N 
ATOM     50  N   UNL A   1      44.860  26.725  28.238  1.00  0.00    -0.248 NA
ATOM     51  C   UNL A   1      45.506  24.641  27.400  1.00  0.00     0.031 C 
ATOM     52  C   UNL A   1      47.579  30.130  28.924  1.00  0.00     0.029 A 
ATOM     53  C   UNL A   1      46.749  29.057  28.651  1.00  0.00     0.049 A 
ATOM     54  H   UNL A   1      44.649  28.916  28.828  1.00  0.00     0.167 HD
ATOM     55  C   UNL A   1      46.226  26.735  27.990  1.00  0.00     0.074 A 
ATOM     56  C   UNL A   1      46.576  25.420  27.494  1.00  0.00     0.031 C 
ATOM     57  C   UNL A   1      47.105  27.751  28.159  1.00  0.00     0.037 A 
BRANCH  44  58
ATOM     58  C   UNL A   1      44.508  32.974  30.184  1.00  0.00     0.058 A 
ATOM     59  C   UNL A   1      44.410  34.058  29.299  1.00  0.00     0.135 A 
ATOM     60  C   UNL A   1      44.738  33.267  31.542  1.00  0.00     0.135 A 
ATOM     61  F   UNL A   1      44.185  33.846  27.993  1.00  0.00    -0.206 F 
ATOM     62  C   UNL A   1      44.559  35.376  29.736  1.00  0.00     0.059 A 
ATOM     63  C   UNL A   1      44.868  34.575  32.005  1.00  0.00     0.059 A 
ATOM     64  F   UNL A   1      44.819  32.273  32.441  1.00  0.00    -0.206 F 
ATOM     65  C   UNL A   1      44.794  35.624  31.091  1.00  0.00     0.060 A 
BRANCH  65  66
ATOM     66  S   UNL A   1      44.998  37.333  31.645  1.00  0.00     0.124 S 
ATOM     67  O   UNL A   1      43.822  37.507  32.491  1.00  0.00    -0.237 OA
ATOM     68  O   UNL A   1      46.279  37.288  32.344  1.00  0.00    -0.237 OA
ATOM     69  O   UNL A   1      44.994  38.098  30.402  1.00  0.00    -0.744 OA
ENDBRANCH  65  66
ENDBRANCH  44  58
BRANCH  45  70
ATOM     70  C   UNL A   1      42.786  23.582  27.477  1.00  0.00     0.058 A 
ATOM     71  C   UNL A   1      42.684  23.295  26.110  1.00  0.00     0.135 A 
ATOM     72  C   UNL A   1      42.660  22.514  28.383  1.00  0.00     0.135 A 
ATOM     73  F   UNL A   1      42.781  24.285  25.209  1.00  0.00    -0.206 F 
ATOM     74  C   UNL A   1      42.473  21.999  25.655  1.00  0.00     0.059 A 
ATOM     75  C   UNL A   1      42.482  21.205  27.951  1.00  0.00     0.059 A 
ATOM     76  F   UNL A   1      42.762  22.733  29.703  1.00  0.00    -0.206 F 
ATOM     77  C   UNL A   1      42.382  20.958  26.583  1.00  0.00     0.060 A 
BRANCH  77  78
ATOM     78  S   UNL A   1      42.183  19.268  25.982  1.00  0.00     0.124 S 
ATOM     79  O   UNL A   1      43.039  19.275  24.801  1.00  0.00    -0.237 OA
ATOM     80  O   UNL A   1      42.662  18.478  27.114  1.00  0.00    -0.237 OA
ATOM     81  O   UNL A   1      40.749  19.170  25.725  1.00  0.00    -0.744 OA
ENDBRANCH  77  78
ENDBRANCH  45  70
BRANCH  57  82
ATOM     82  C   UNL A   1      48.546  27.471  27.839  1.00  0.00     0.058 A 
ATOM     83  C   UNL A   1      49.451  27.048  28.825  1.00  0.00     0.135 A 
ATOM     84  C   UNL A   1      49.024  27.607  26.526  1.00  0.00     0.135 A 
ATOM     85  F   UNL A   1      49.050  26.919  30.100  1.00  0.00    -0.206 F 
ATOM     86  C   UNL A   1      50.783  26.783  28.523  1.00  0.00     0.059 A 
ATOM     87  C   UNL A   1      50.347  27.327  26.197  1.00  0.00     0.059 A 
ATOM     88  F   UNL A   1      48.200  28.010  25.546  1.00  0.00    -0.206 F 
ATOM     89  C   UNL A   1      51.222  26.923  27.205  1.00  0.00     0.060 A 
BRANCH  89  90
ATOM     90  S   UNL A   1      52.943  26.540  26.817  1.00  0.00     0.124 S 
ATOM     91  O   UNL A   1      53.616  26.922  28.054  1.00  0.00    -0.237 OA
ATOM     92  O   UNL A   1      52.892  25.107  26.539  1.00  0.00    -0.237 OA
ATOM     93  O   UNL A   1      53.227  27.385  25.661  1.00  0.00    -0.744 OA
ENDBRANCH  89  90
ENDBRANCH  57  82
ENDBRANCH  31  32
ENDBRANCH  24  26
ENDBRANCH  23  24
ENDBRANCH  22  23
ENDBRANCH   1  22
TORSDOF 19
ENDMDL
