MODEL 1
REMARK VINA RESULT:     -10.7      0.000      0.000
REMARK SMILES NC(=O)C[C@@H](NC(=O)[C@@H]1CCCN1C(=O)C1CC1)C(=O)OCCOC(=O)c1ccc(-c2c3nc(c(-c4c(F)cc(S(=O)(=O)[O-])cc4F)c4ccc([nH]4)c(-c4c(F)cc(S(=O)(=O)[O-])cc4F)c4nc(c(-c5c(F)cc(S(=O)(=O)[O-])cc5F)c5ccc2[nH]5)C=C4)C=C3)cc1
REMARK SMILES IDX 22 1 21 2 19 3 20 4 5 5 4 6 2 7 1 8 3 11 6 12 7 13 8 15 9 16
REMARK SMILES IDX 10 17 13 18 11 19 12 20 14 21 15 22 16 23 17 24 18 25 23 26
REMARK SMILES IDX 24 27 25 28 26 29 27 30 28 31 92 32 29 33 91 34 30 35 31 36
REMARK SMILES IDX 32 37 85 38 33 39 90 40 84 41 86 42 34 43 89 44 83 45 82 46
REMARK SMILES IDX 35 48 69 49 48 50 68 51 49 52 52 53 67 54 87 55 50 56 51 57
REMARK SMILES IDX 66 59 88 60 53 61 36 62 37 63 46 64 38 65 39 66 45 67 47 68
REMARK SMILES IDX 40 69 41 70 42 71 43 72 44 73 70 74 71 75 80 76 72 77 73 78
REMARK SMILES IDX 79 79 81 80 74 81 75 82 76 83 77 84 78 85 54 86 55 87 64 88
REMARK SMILES IDX 56 89 57 90 63 91 65 92 58 93 59 94 60 95 61 96 62 97
REMARK H PARENT 1 9 1 10 6 14 86 47 52 58
REMARK Flexibility Score: inf
ROOT
ATOM      1  C   UNL A   1      33.650  29.888  26.648  1.00  0.00     0.274 C 
ENDROOT
BRANCH   1   2
ATOM      2  O   UNL A   1      32.643  29.927  25.613  1.00  0.00    -0.461 OA
BRANCH   2   3
ATOM      3  C   UNL A   1      32.833  29.094  24.555  1.00  0.00     0.329 C 
ATOM      4  O   UNL A   1      33.533  29.366  23.580  1.00  0.00    -0.250 OA
BRANCH   3   5
ATOM      5  C   UNL A   1      31.889  27.885  24.541  1.00  0.00     0.201 C 
BRANCH   5   6
ATOM      6  C   UNL A   1      30.530  28.131  23.898  1.00  0.00     0.136 C 
BRANCH   6   7
ATOM      7  C   UNL A   1      30.699  28.271  22.409  1.00  0.00     0.220 C 
ATOM      8  N   UNL A   1      30.691  29.548  21.937  1.00  0.00    -0.370 N 
ATOM      9  H   UNL A   1      30.796  29.716  20.973  1.00  0.00     0.159 HD
ATOM     10  H   UNL A   1      30.580  30.302  22.560  1.00  0.00     0.159 HD
ATOM     11  O   UNL A   1      30.876  27.319  21.658  1.00  0.00    -0.275 OA
ENDBRANCH   6   7
ENDBRANCH   5   6
BRANCH   5  12
ATOM     12  N   UNL A   1      32.741  26.792  24.036  1.00  0.00    -0.340 N 
ATOM     13  C   UNL A   1      33.379  25.935  24.913  1.00  0.00     0.243 C 
ATOM     14  H   UNL A   1      32.855  26.672  23.066  1.00  0.00     0.164 HD
ATOM     15  O   UNL A   1      33.868  26.329  25.969  1.00  0.00    -0.273 OA
BRANCH  13  16
ATOM     16  C   UNL A   1      33.236  24.434  24.550  1.00  0.00     0.174 C 
ATOM     17  C   UNL A   1      32.854  24.365  23.061  1.00  0.00     0.037 C 
ATOM     18  N   UNL A   1      32.100  23.826  25.236  1.00  0.00    -0.330 N 
ATOM     19  C   UNL A   1      31.715  23.370  22.976  1.00  0.00     0.024 C 
ATOM     20  C   UNL A   1      31.014  23.580  24.303  1.00  0.00     0.120 C 
BRANCH  18  21
ATOM     21  C   UNL A   1      31.922  23.543  26.572  1.00  0.00     0.226 C 
ATOM     22  O   UNL A   1      31.070  24.140  27.230  1.00  0.00    -0.275 OA
BRANCH  21  23
ATOM     23  C   UNL A   1      32.650  22.454  27.281  1.00  0.00     0.079 C 
ATOM     24  C   UNL A   1      33.657  21.453  26.795  1.00  0.00     0.014 C 
ATOM     25  C   UNL A   1      34.103  22.591  27.664  1.00  0.00     0.014 C 
ENDBRANCH  21  23
ENDBRANCH  18  21
ENDBRANCH  13  16
ENDBRANCH   5  12
ENDBRANCH   3   5
ENDBRANCH   2   3
ENDBRANCH   1   2
BRANCH   1  26
ATOM     26  C   UNL A   1      33.535  31.041  27.645  1.00  0.00     0.275 C 
BRANCH  26  27
ATOM     27  O   UNL A   1      34.793  31.715  27.797  1.00  0.00    -0.458 OA
BRANCH  27  28
ATOM     28  C   UNL A   1      35.342  31.589  29.027  1.00  0.00     0.338 C 
ATOM     29  O   UNL A   1      34.828  31.907  30.093  1.00  0.00    -0.246 OA
BRANCH  28  30
ATOM     30  C   UNL A   1      36.570  30.788  28.943  1.00  0.00     0.060 A 
ATOM     31  C   UNL A   1      37.235  30.508  30.144  1.00  0.00     0.016 A 
ATOM     32  C   UNL A   1      37.085  30.358  27.720  1.00  0.00     0.016 A 
ATOM     33  C   UNL A   1      38.433  29.814  30.134  1.00  0.00     0.010 A 
ATOM     34  C   UNL A   1      38.311  29.699  27.703  1.00  0.00     0.010 A 
ATOM     35  C   UNL A   1      38.998  29.460  28.907  1.00  0.00    -0.014 A 
BRANCH  35  36
ATOM     36  C   UNL A   1      40.417  29.069  28.874  1.00  0.00     0.031 A 
ATOM     37  C   UNL A   1      41.434  30.139  29.145  1.00  0.00     0.074 A 
ATOM     38  C   UNL A   1      40.768  27.796  28.639  1.00  0.00     0.049 A 
ATOM     39  N   UNL A   1      42.732  30.095  29.036  1.00  0.00    -0.248 NA
ATOM     40  C   UNL A   1      40.909  31.440  29.597  1.00  0.00     0.031 C 
ATOM     41  C   UNL A   1      39.835  26.683  28.455  1.00  0.00     0.029 A 
ATOM     42  N   UNL A   1      42.005  27.228  28.502  1.00  0.00    -0.354 N 
ATOM     43  C   UNL A   1      43.177  31.367  29.374  1.00  0.00     0.074 A 
ATOM     44  C   UNL A   1      42.014  32.164  29.687  1.00  0.00     0.031 C 
ATOM     45  C   UNL A   1      40.538  25.567  28.199  1.00  0.00     0.029 A 
ATOM     46  C   UNL A   1      41.959  25.901  28.153  1.00  0.00     0.049 A 
ATOM     47  H   UNL A   1      42.845  27.723  28.640  1.00  0.00     0.167 HD
ATOM     48  C   UNL A   1      44.450  31.822  29.410  1.00  0.00     0.037 A 
ATOM     49  C   UNL A   1      42.958  25.073  27.792  1.00  0.00     0.037 A 
ATOM     50  C   UNL A   1      45.584  30.997  29.094  1.00  0.00     0.049 A 
ATOM     51  C   UNL A   1      44.362  25.617  27.773  1.00  0.00     0.074 A 
ATOM     52  C   UNL A   1      46.924  31.335  29.084  1.00  0.00     0.029 A 
ATOM     53  N   UNL A   1      45.503  29.659  28.726  1.00  0.00    -0.354 N 
ATOM     54  N   UNL A   1      44.780  26.829  28.065  1.00  0.00    -0.248 NA
ATOM     55  C   UNL A   1      45.428  24.694  27.369  1.00  0.00     0.031 C 
ATOM     56  C   UNL A   1      47.649  30.213  28.666  1.00  0.00     0.029 A 
ATOM     57  C   UNL A   1      46.765  29.161  28.468  1.00  0.00     0.049 A 
ATOM     58  H   UNL A   1      44.667  29.142  28.660  1.00  0.00     0.167 HD
ATOM     59  C   UNL A   1      46.160  26.808  27.902  1.00  0.00     0.074 A 
ATOM     60  C   UNL A   1      46.506  25.458  27.495  1.00  0.00     0.031 C 
ATOM     61  C   UNL A   1      47.064  27.806  28.071  1.00  0.00     0.037 A 
BRANCH  48  62
ATOM     62  C   UNL A   1      44.663  33.272  29.744  1.00  0.00     0.058 A 
ATOM     63  C   UNL A   1      44.934  33.706  31.052  1.00  0.00     0.135 A 
ATOM     64  C   UNL A   1      44.587  34.248  28.737  1.00  0.00     0.135 A 
ATOM     65  F   UNL A   1      44.989  32.821  32.059  1.00  0.00    -0.206 F 
ATOM     66  C   UNL A   1      45.097  35.056  31.353  1.00  0.00     0.059 A 
ATOM     67  C   UNL A   1      44.775  35.599  29.010  1.00  0.00     0.059 A 
ATOM     68  F   UNL A   1      44.319  33.892  27.471  1.00  0.00    -0.206 F 
ATOM     69  C   UNL A   1      45.014  35.995  30.325  1.00  0.00     0.060 A 
BRANCH  69  70
ATOM     70  S   UNL A   1      45.230  37.743  30.728  1.00  0.00     0.124 S 
ATOM     71  O   UNL A   1      44.190  38.361  29.911  1.00  0.00    -0.237 OA
ATOM     72  O   UNL A   1      44.998  37.762  32.169  1.00  0.00    -0.237 OA
ATOM     73  O   UNL A   1      46.601  38.021  30.313  1.00  0.00    -0.744 OA
ENDBRANCH  69  70
ENDBRANCH  48  62
BRANCH  49  74
ATOM     74  C   UNL A   1      42.655  23.674  27.392  1.00  0.00     0.058 A 
ATOM     75  C   UNL A   1      42.543  23.312  26.042  1.00  0.00     0.135 A 
ATOM     76  C   UNL A   1      42.504  22.660  28.353  1.00  0.00     0.135 A 
ATOM     77  F   UNL A   1      42.670  24.244  25.085  1.00  0.00    -0.206 F 
ATOM     78  C   UNL A   1      42.289  21.998  25.657  1.00  0.00     0.059 A 
ATOM     79  C   UNL A   1      42.276  21.336  27.994  1.00  0.00     0.059 A 
ATOM     80  F   UNL A   1      42.614  22.951  29.659  1.00  0.00    -0.206 F 
ATOM     81  C   UNL A   1      42.164  21.016  26.642  1.00  0.00     0.060 A 
BRANCH  81  82
ATOM     82  S   UNL A   1      41.903  19.304  26.129  1.00  0.00     0.124 S 
ATOM     83  O   UNL A   1      42.279  18.575  27.335  1.00  0.00    -0.237 OA
ATOM     84  O   UNL A   1      40.482  19.297  25.795  1.00  0.00    -0.237 OA
ATOM     85  O   UNL A   1      42.807  19.152  24.991  1.00  0.00    -0.744 OA
ENDBRANCH  81  82
ENDBRANCH  49  74
BRANCH  61  86
ATOM     86  C   UNL A   1      48.509  27.463  27.850  1.00  0.00     0.058 A 
ATOM     87  C   UNL A   1      49.304  26.932  28.875  1.00  0.00     0.135 A 
ATOM     88  C   UNL A   1      49.081  27.606  26.576  1.00  0.00     0.135 A 
ATOM     89  F   UNL A   1      48.804  26.782  30.112  1.00  0.00    -0.206 F 
ATOM     90  C   UNL A   1      50.628  26.570  28.649  1.00  0.00     0.059 A 
ATOM     91  C   UNL A   1      50.392  27.224  26.320  1.00  0.00     0.059 A 
ATOM     92  F   UNL A   1      48.354  28.098  25.559  1.00  0.00    -0.206 F 
ATOM     93  C   UNL A   1      51.161  26.718  27.366  1.00  0.00     0.060 A 
BRANCH  93  94
ATOM     94  S   UNL A   1      52.867  26.207  27.077  1.00  0.00     0.124 S 
ATOM     95  O   UNL A   1      53.332  27.242  26.159  1.00  0.00    -0.237 OA
ATOM     96  O   UNL A   1      53.437  26.247  28.420  1.00  0.00    -0.237 OA
ATOM     97  O   UNL A   1      52.729  24.872  26.501  1.00  0.00    -0.744 OA
ENDBRANCH  93  94
ENDBRANCH  61  86
ENDBRANCH  35  36
ENDBRANCH  28  30
ENDBRANCH  27  28
ENDBRANCH  26  27
ENDBRANCH   1  26
TORSDOF 20
ENDMDL
MODEL 2
REMARK VINA RESULT:     -10.5      1.456      2.253
REMARK SMILES NC(=O)C[C@@H](NC(=O)[C@@H]1CCCN1C(=O)C1CC1)C(=O)OCCOC(=O)c1ccc(-c2c3nc(c(-c4c(F)cc(S(=O)(=O)[O-])cc4F)c4ccc([nH]4)c(-c4c(F)cc(S(=O)(=O)[O-])cc4F)c4nc(c(-c5c(F)cc(S(=O)(=O)[O-])cc5F)c5ccc2[nH]5)C=C4)C=C3)cc1
REMARK SMILES IDX 22 1 21 2 19 3 20 4 5 5 4 6 2 7 1 8 3 11 6 12 7 13 8 15 9 16
REMARK SMILES IDX 10 17 13 18 11 19 12 20 14 21 15 22 16 23 17 24 18 25 23 26
REMARK SMILES IDX 24 27 25 28 26 29 27 30 28 31 92 32 29 33 91 34 30 35 31 36
REMARK SMILES IDX 32 37 85 38 33 39 90 40 84 41 86 42 34 43 89 44 83 45 82 46
REMARK SMILES IDX 35 48 69 49 48 50 68 51 49 52 52 53 67 54 87 55 50 56 51 57
REMARK SMILES IDX 66 59 88 60 53 61 36 62 37 63 46 64 38 65 39 66 45 67 47 68
REMARK SMILES IDX 40 69 41 70 42 71 43 72 44 73 70 74 71 75 80 76 72 77 73 78
REMARK SMILES IDX 79 79 81 80 74 81 75 82 76 83 77 84 78 85 54 86 55 87 64 88
REMARK SMILES IDX 56 89 57 90 63 91 65 92 58 93 59 94 60 95 61 96 62 97
REMARK H PARENT 1 9 1 10 6 14 86 47 52 58
REMARK Flexibility Score: inf
ROOT
ATOM      1  C   UNL A   1      32.001  29.824  26.943  1.00  0.00     0.274 C 
ENDROOT
BRANCH   1   2
ATOM      2  O   UNL A   1      31.633  29.752  25.548  1.00  0.00    -0.461 OA
BRANCH   2   3
ATOM      3  C   UNL A   1      32.315  28.854  24.788  1.00  0.00     0.329 C 
ATOM      4  O   UNL A   1      33.191  29.159  23.980  1.00  0.00    -0.250 OA
BRANCH   3   5
ATOM      5  C   UNL A   1      31.723  27.440  24.819  1.00  0.00     0.201 C 
BRANCH   5   6
ATOM      6  C   UNL A   1      31.139  26.952  23.499  1.00  0.00     0.136 C 
BRANCH   6   7
ATOM      7  C   UNL A   1      29.638  27.042  23.553  1.00  0.00     0.220 C 
ATOM      8  N   UNL A   1      29.005  25.963  24.090  1.00  0.00    -0.370 N 
ATOM      9  H   UNL A   1      28.023  25.951  24.156  1.00  0.00     0.159 HD
ATOM     10  H   UNL A   1      29.530  25.194  24.411  1.00  0.00     0.159 HD
ATOM     11  O   UNL A   1      29.008  28.026  23.183  1.00  0.00    -0.275 OA
ENDBRANCH   6   7
ENDBRANCH   5   6
BRANCH   5  12
ATOM     12  N   UNL A   1      32.771  26.644  25.485  1.00  0.00    -0.340 N 
ATOM     13  C   UNL A   1      32.450  25.485  26.165  1.00  0.00     0.243 C 
ATOM     14  H   UNL A   1      33.709  26.942  25.442  1.00  0.00     0.164 HD
ATOM     15  O   UNL A   1      31.428  25.388  26.839  1.00  0.00    -0.273 OA
BRANCH  13  16
ATOM     16  C   UNL A   1      33.369  24.280  25.835  1.00  0.00     0.174 C 
ATOM     17  C   UNL A   1      34.762  24.851  25.515  1.00  0.00     0.037 C 
ATOM     18  N   UNL A   1      32.962  23.624  24.596  1.00  0.00    -0.330 N 
ATOM     19  C   UNL A   1      35.216  24.141  24.256  1.00  0.00     0.024 C 
ATOM     20  C   UNL A   1      33.904  23.918  23.530  1.00  0.00     0.120 C 
BRANCH  18  21
ATOM     21  C   UNL A   1      31.841  22.872  24.320  1.00  0.00     0.226 C 
ATOM     22  O   UNL A   1      30.793  23.417  23.972  1.00  0.00    -0.275 OA
BRANCH  21  23
ATOM     23  C   UNL A   1      31.834  21.383  24.322  1.00  0.00     0.079 C 
ATOM     24  C   UNL A   1      32.884  20.385  23.929  1.00  0.00     0.014 C 
ATOM     25  C   UNL A   1      32.559  20.588  25.380  1.00  0.00     0.014 C 
ENDBRANCH  21  23
ENDBRANCH  18  21
ENDBRANCH  13  16
ENDBRANCH   5  12
ENDBRANCH   3   5
ENDBRANCH   2   3
ENDBRANCH   1   2
BRANCH   1  26
ATOM     26  C   UNL A   1      32.908  31.010  27.268  1.00  0.00     0.275 C 
BRANCH  26  27
ATOM     27  O   UNL A   1      34.289  30.619  27.253  1.00  0.00    -0.458 OA
BRANCH  27  28
ATOM     28  C   UNL A   1      34.993  31.036  28.330  1.00  0.00     0.338 C 
ATOM     29  O   UNL A   1      34.592  31.769  29.226  1.00  0.00    -0.246 OA
BRANCH  28  30
ATOM     30  C   UNL A   1      36.257  30.294  28.414  1.00  0.00     0.060 A 
ATOM     31  C   UNL A   1      36.641  29.823  29.677  1.00  0.00     0.016 A 
ATOM     32  C   UNL A   1      37.071  30.099  27.298  1.00  0.00     0.016 A 
ATOM     33  C   UNL A   1      37.852  29.172  29.841  1.00  0.00     0.010 A 
ATOM     34  C   UNL A   1      38.309  29.484  27.468  1.00  0.00     0.010 A 
ATOM     35  C   UNL A   1      38.710  29.054  28.746  1.00  0.00    -0.014 A 
BRANCH  35  36
ATOM     36  C   UNL A   1      40.120  28.712  28.992  1.00  0.00     0.031 A 
ATOM     37  C   UNL A   1      41.004  29.787  29.554  1.00  0.00     0.074 A 
ATOM     38  C   UNL A   1      40.574  27.473  28.747  1.00  0.00     0.049 A 
ATOM     39  N   UNL A   1      42.296  29.792  29.725  1.00  0.00    -0.248 NA
ATOM     40  C   UNL A   1      40.333  31.031  29.975  1.00  0.00     0.031 C 
ATOM     41  C   UNL A   1      39.756  26.351  28.285  1.00  0.00     0.029 A 
ATOM     42  N   UNL A   1      41.837  26.957  28.840  1.00  0.00    -0.354 N 
ATOM     43  C   UNL A   1      42.598  31.046  30.243  1.00  0.00     0.074 A 
ATOM     44  C   UNL A   1      41.358  31.778  30.353  1.00  0.00     0.031 C 
ATOM     45  C   UNL A   1      40.550  25.281  28.107  1.00  0.00     0.029 A 
ATOM     46  C   UNL A   1      41.930  25.662  28.393  1.00  0.00     0.049 A 
ATOM     47  H   UNL A   1      42.604  27.465  29.192  1.00  0.00     0.167 HD
ATOM     48  C   UNL A   1      43.811  31.536  30.585  1.00  0.00     0.037 A 
ATOM     49  C   UNL A   1      43.021  24.897  28.198  1.00  0.00     0.037 A 
ATOM     50  C   UNL A   1      45.024  30.775  30.463  1.00  0.00     0.049 A 
ATOM     51  C   UNL A   1      44.370  25.485  28.522  1.00  0.00     0.074 A 
ATOM     52  C   UNL A   1      46.317  31.154  30.767  1.00  0.00     0.029 A 
ATOM     53  N   UNL A   1      45.087  29.469  29.990  1.00  0.00    -0.354 N 
ATOM     54  N   UNL A   1      44.658  26.681  28.985  1.00  0.00    -0.248 NA
ATOM     55  C   UNL A   1      45.540  24.630  28.293  1.00  0.00     0.031 C 
ATOM     56  C   UNL A   1      47.167  30.092  30.436  1.00  0.00     0.029 A 
ATOM     57  C   UNL A   1      46.398  29.033  29.976  1.00  0.00     0.049 A 
ATOM     58  H   UNL A   1      44.309  28.933  29.708  1.00  0.00     0.167 HD
ATOM     59  C   UNL A   1      46.040  26.716  29.123  1.00  0.00     0.074 A 
ATOM     60  C   UNL A   1      46.528  25.415  28.704  1.00  0.00     0.031 C 
ATOM     61  C   UNL A   1      46.838  27.725  29.556  1.00  0.00     0.037 A 
BRANCH  48  62
ATOM     62  C   UNL A   1      43.878  32.960  31.062  1.00  0.00     0.058 A 
ATOM     63  C   UNL A   1      43.826  33.295  32.425  1.00  0.00     0.135 A 
ATOM     64  C   UNL A   1      43.990  34.010  30.136  1.00  0.00     0.135 A 
ATOM     65  F   UNL A   1      43.690  32.335  33.352  1.00  0.00    -0.206 F 
ATOM     66  C   UNL A   1      43.857  34.621  32.851  1.00  0.00     0.059 A 
ATOM     67  C   UNL A   1      44.051  35.341  30.541  1.00  0.00     0.059 A 
ATOM     68  F   UNL A   1      44.031  33.750  28.821  1.00  0.00    -0.206 F 
ATOM     69  C   UNL A   1      43.968  35.637  31.900  1.00  0.00     0.060 A 
BRANCH  69  70
ATOM     70  S   UNL A   1      44.009  37.352  32.465  1.00  0.00     0.124 S 
ATOM     71  O   UNL A   1      43.715  38.073  31.231  1.00  0.00    -0.237 OA
ATOM     72  O   UNL A   1      42.957  37.373  33.477  1.00  0.00    -0.237 OA
ATOM     73  O   UNL A   1      45.367  37.509  32.976  1.00  0.00    -0.744 OA
ENDBRANCH  69  70
ENDBRANCH  48  62
BRANCH  49  74
ATOM     74  C   UNL A   1      42.877  23.527  27.642  1.00  0.00     0.058 A 
ATOM     75  C   UNL A   1      42.669  22.421  28.479  1.00  0.00     0.135 A 
ATOM     76  C   UNL A   1      42.911  23.298  26.256  1.00  0.00     0.135 A 
ATOM     77  F   UNL A   1      42.636  22.584  29.809  1.00  0.00    -0.206 F 
ATOM     78  C   UNL A   1      42.503  21.137  27.964  1.00  0.00     0.059 A 
ATOM     79  C   UNL A   1      42.722  22.030  25.717  1.00  0.00     0.059 A 
ATOM     80  F   UNL A   1      43.096  24.323  25.410  1.00  0.00    -0.206 F 
ATOM     81  C   UNL A   1      42.525  20.954  26.580  1.00  0.00     0.060 A 
BRANCH  81  82
ATOM     82  S   UNL A   1      42.240  19.296  25.922  1.00  0.00     0.124 S 
ATOM     83  O   UNL A   1      43.085  19.303  24.734  1.00  0.00    -0.237 OA
ATOM     84  O   UNL A   1      42.690  18.449  27.022  1.00  0.00    -0.237 OA
ATOM     85  O   UNL A   1      40.800  19.276  25.674  1.00  0.00    -0.744 OA
ENDBRANCH  81  82
ENDBRANCH  49  74
BRANCH  61  86
ATOM     86  C   UNL A   1      48.312  27.446  29.628  1.00  0.00     0.058 A 
ATOM     87  C   UNL A   1      49.188  27.846  28.608  1.00  0.00     0.135 A 
ATOM     88  C   UNL A   1      48.858  26.832  30.766  1.00  0.00     0.135 A 
ATOM     89  F   UNL A   1      48.711  28.432  27.498  1.00  0.00    -0.206 F 
ATOM     90  C   UNL A   1      50.558  27.629  28.706  1.00  0.00     0.059 A 
ATOM     91  C   UNL A   1      50.227  26.631  30.898  1.00  0.00     0.059 A 
ATOM     92  F   UNL A   1      48.061  26.443  31.775  1.00  0.00    -0.206 F 
ATOM     93  C   UNL A   1      51.067  27.022  29.857  1.00  0.00     0.060 A 
BRANCH  93  94
ATOM     94  S   UNL A   1      52.851  26.783  29.989  1.00  0.00     0.124 S 
ATOM     95  O   UNL A   1      52.947  25.945  31.179  1.00  0.00    -0.237 OA
ATOM     96  O   UNL A   1      53.172  26.129  28.724  1.00  0.00    -0.237 OA
ATOM     97  O   UNL A   1      53.366  28.142  30.133  1.00  0.00    -0.744 OA
ENDBRANCH  93  94
ENDBRANCH  61  86
ENDBRANCH  35  36
ENDBRANCH  28  30
ENDBRANCH  27  28
ENDBRANCH  26  27
ENDBRANCH   1  26
TORSDOF 20
ENDMDL
MODEL 3
REMARK VINA RESULT:     -10.4      3.973     10.053
REMARK SMILES NC(=O)C[C@@H](NC(=O)[C@@H]1CCCN1C(=O)C1CC1)C(=O)OCCOC(=O)c1ccc(-c2c3nc(c(-c4c(F)cc(S(=O)(=O)[O-])cc4F)c4ccc([nH]4)c(-c4c(F)cc(S(=O)(=O)[O-])cc4F)c4nc(c(-c5c(F)cc(S(=O)(=O)[O-])cc5F)c5ccc2[nH]5)C=C4)C=C3)cc1
REMARK SMILES IDX 22 1 21 2 19 3 20 4 5 5 4 6 2 7 1 8 3 11 6 12 7 13 8 15 9 16
REMARK SMILES IDX 10 17 13 18 11 19 12 20 14 21 15 22 16 23 17 24 18 25 23 26
REMARK SMILES IDX 24 27 25 28 26 29 27 30 28 31 92 32 29 33 91 34 30 35 31 36
REMARK SMILES IDX 32 37 85 38 33 39 90 40 84 41 86 42 34 43 89 44 83 45 82 46
REMARK SMILES IDX 35 48 69 49 48 50 68 51 49 52 52 53 67 54 87 55 50 56 51 57
REMARK SMILES IDX 66 59 88 60 53 61 36 62 37 63 46 64 38 65 39 66 45 67 47 68
REMARK SMILES IDX 40 69 41 70 42 71 43 72 44 73 70 74 71 75 80 76 72 77 73 78
REMARK SMILES IDX 79 79 81 80 74 81 75 82 76 83 77 84 78 85 54 86 55 87 64 88
REMARK SMILES IDX 56 89 57 90 63 91 65 92 58 93 59 94 60 95 61 96 62 97
REMARK H PARENT 1 9 1 10 6 14 86 47 52 58
REMARK Flexibility Score: inf
ROOT
ATOM      1  C   UNL A   1      37.980  34.268  34.574  1.00  0.00     0.274 C 
ENDROOT
BRANCH   1   2
ATOM      2  O   UNL A   1      36.900  35.044  34.012  1.00  0.00    -0.461 OA
BRANCH   2   3
ATOM      3  C   UNL A   1      35.649  34.526  34.147  1.00  0.00     0.329 C 
ATOM      4  O   UNL A   1      35.360  33.615  34.922  1.00  0.00    -0.250 OA
BRANCH   3   5
ATOM      5  C   UNL A   1      34.667  34.986  33.063  1.00  0.00     0.201 C 
BRANCH   5   6
ATOM      6  C   UNL A   1      34.108  36.391  33.248  1.00  0.00     0.136 C 
BRANCH   6   7
ATOM      7  C   UNL A   1      32.832  36.529  32.463  1.00  0.00     0.220 C 
ATOM      8  N   UNL A   1      31.892  35.573  32.701  1.00  0.00    -0.370 N 
ATOM      9  H   UNL A   1      31.032  35.599  32.223  1.00  0.00     0.159 HD
ATOM     10  H   UNL A   1      32.073  34.856  33.351  1.00  0.00     0.159 HD
ATOM     11  O   UNL A   1      32.614  37.452  31.688  1.00  0.00    -0.275 OA
ENDBRANCH   6   7
ENDBRANCH   5   6
BRANCH   5  12
ATOM     12  N   UNL A   1      35.359  34.643  31.806  1.00  0.00    -0.340 N 
ATOM     13  C   UNL A   1      34.846  33.678  30.960  1.00  0.00     0.243 C 
ATOM     14  H   UNL A   1      36.195  35.107  31.569  1.00  0.00     0.164 HD
ATOM     15  O   UNL A   1      34.320  32.653  31.386  1.00  0.00    -0.273 OA
BRANCH  13  16
ATOM     16  C   UNL A   1      34.805  34.100  29.469  1.00  0.00     0.174 C 
ATOM     17  C   UNL A   1      33.444  34.777  29.229  1.00  0.00     0.037 C 
ATOM     18  N   UNL A   1      34.782  32.937  28.587  1.00  0.00    -0.330 N 
ATOM     19  C   UNL A   1      32.910  34.181  27.944  1.00  0.00     0.024 C 
ATOM     20  C   UNL A   1      33.465  32.771  27.997  1.00  0.00     0.120 C 
BRANCH  18  21
ATOM     21  C   UNL A   1      35.765  32.009  28.320  1.00  0.00     0.226 C 
ATOM     22  O   UNL A   1      36.937  32.362  28.184  1.00  0.00    -0.275 OA
BRANCH  21  23
ATOM     23  C   UNL A   1      35.515  30.542  28.278  1.00  0.00     0.079 C 
ATOM     24  C   UNL A   1      36.094  29.461  27.412  1.00  0.00     0.014 C 
ATOM     25  C   UNL A   1      36.497  29.552  28.854  1.00  0.00     0.014 C 
ENDBRANCH  21  23
ENDBRANCH  18  21
ENDBRANCH  13  16
ENDBRANCH   5  12
ENDBRANCH   3   5
ENDBRANCH   2   3
ENDBRANCH   1   2
BRANCH   1  26
ATOM     26  C   UNL A   1      38.859  33.601  33.516  1.00  0.00     0.275 C 
BRANCH  26  27
ATOM     27  O   UNL A   1      38.974  32.191  33.760  1.00  0.00    -0.458 OA
BRANCH  27  28
ATOM     28  C   UNL A   1      38.305  31.420  32.873  1.00  0.00     0.338 C 
ATOM     29  O   UNL A   1      37.093  31.391  32.698  1.00  0.00    -0.246 OA
BRANCH  28  30
ATOM     30  C   UNL A   1      39.257  30.776  31.959  1.00  0.00     0.060 A 
ATOM     31  C   UNL A   1      40.265  29.990  32.534  1.00  0.00     0.016 A 
ATOM     32  C   UNL A   1      39.195  30.966  30.579  1.00  0.00     0.016 A 
ATOM     33  C   UNL A   1      41.235  29.405  31.738  1.00  0.00     0.010 A 
ATOM     34  C   UNL A   1      40.194  30.416  29.780  1.00  0.00     0.010 A 
ATOM     35  C   UNL A   1      41.230  29.667  30.367  1.00  0.00    -0.014 A 
BRANCH  35  36
ATOM     36  C   UNL A   1      42.445  29.367  29.590  1.00  0.00     0.031 A 
ATOM     37  C   UNL A   1      42.553  28.002  28.977  1.00  0.00     0.074 A 
ATOM     38  C   UNL A   1      43.394  30.301  29.423  1.00  0.00     0.049 A 
ATOM     39  N   UNL A   1      43.566  27.441  28.378  1.00  0.00    -0.248 NA
ATOM     40  C   UNL A   1      41.352  27.151  29.059  1.00  0.00     0.031 C 
ATOM     41  C   UNL A   1      43.319  31.678  29.912  1.00  0.00     0.029 A 
ATOM     42  N   UNL A   1      44.611  30.226  28.804  1.00  0.00    -0.354 N 
ATOM     43  C   UNL A   1      43.136  26.163  28.039  1.00  0.00     0.074 A 
ATOM     44  C   UNL A   1      41.775  26.027  28.503  1.00  0.00     0.031 C 
ATOM     45  C   UNL A   1      44.462  32.312  29.598  1.00  0.00     0.029 A 
ATOM     46  C   UNL A   1      45.359  31.371  28.934  1.00  0.00     0.049 A 
ATOM     47  H   UNL A   1      44.922  29.429  28.315  1.00  0.00     0.167 HD
ATOM     48  C   UNL A   1      43.830  25.193  27.401  1.00  0.00     0.037 A 
ATOM     49  C   UNL A   1      46.641  31.602  28.592  1.00  0.00     0.037 A 
ATOM     50  C   UNL A   1      45.184  25.368  26.951  1.00  0.00     0.049 A 
ATOM     51  C   UNL A   1      47.418  30.486  27.944  1.00  0.00     0.074 A 
ATOM     52  C   UNL A   1      46.002  24.465  26.300  1.00  0.00     0.029 A 
ATOM     53  N   UNL A   1      45.920  26.535  27.114  1.00  0.00    -0.354 N 
ATOM     54  N   UNL A   1      47.020  29.269  27.649  1.00  0.00    -0.248 NA
ATOM     55  C   UNL A   1      48.814  30.767  27.589  1.00  0.00     0.031 C 
ATOM     56  C   UNL A   1      47.248  25.071  26.109  1.00  0.00     0.029 A 
ATOM     57  C   UNL A   1      47.190  26.371  26.593  1.00  0.00     0.049 A 
ATOM     58  H   UNL A   1      45.585  27.359  27.537  1.00  0.00     0.167 HD
ATOM     59  C   UNL A   1      48.110  28.643  27.055  1.00  0.00     0.074 A 
ATOM     60  C   UNL A   1      49.180  29.623  27.023  1.00  0.00     0.031 C 
ATOM     61  C   UNL A   1      48.223  27.378  26.577  1.00  0.00     0.037 A 
BRANCH  48  62
ATOM     62  C   UNL A   1      43.155  23.863  27.214  1.00  0.00     0.058 A 
ATOM     63  C   UNL A   1      43.138  22.885  28.222  1.00  0.00     0.135 A 
ATOM     64  C   UNL A   1      42.518  23.559  26.000  1.00  0.00     0.135 A 
ATOM     65  F   UNL A   1      43.756  23.109  29.392  1.00  0.00    -0.206 F 
ATOM     66  C   UNL A   1      42.537  21.644  28.023  1.00  0.00     0.059 A 
ATOM     67  C   UNL A   1      41.886  22.337  25.789  1.00  0.00     0.059 A 
ATOM     68  F   UNL A   1      42.513  24.452  24.998  1.00  0.00    -0.206 F 
ATOM     69  C   UNL A   1      41.914  21.380  26.802  1.00  0.00     0.060 A 
BRANCH  69  70
ATOM     70  S   UNL A   1      41.136  19.768  26.558  1.00  0.00     0.124 S 
ATOM     71  O   UNL A   1      41.013  19.292  27.932  1.00  0.00    -0.237 OA
ATOM     72  O   UNL A   1      39.884  20.123  25.896  1.00  0.00    -0.237 OA
ATOM     73  O   UNL A   1      42.097  19.049  25.729  1.00  0.00    -0.744 OA
ENDBRANCH  69  70
ENDBRANCH  48  62
BRANCH  49  74
ATOM     74  C   UNL A   1      47.262  32.919  28.890  1.00  0.00     0.058 A 
ATOM     75  C   UNL A   1      47.234  33.964  27.955  1.00  0.00     0.135 A 
ATOM     76  C   UNL A   1      47.868  33.172  30.132  1.00  0.00     0.135 A 
ATOM     77  F   UNL A   1      46.674  33.772  26.751  1.00  0.00    -0.206 F 
ATOM     78  C   UNL A   1      47.787  35.210  28.237  1.00  0.00     0.059 A 
ATOM     79  C   UNL A   1      48.405  34.416  30.447  1.00  0.00     0.059 A 
ATOM     80  F   UNL A   1      47.912  32.210  31.067  1.00  0.00    -0.206 F 
ATOM     81  C   UNL A   1      48.365  35.428  29.489  1.00  0.00     0.060 A 
BRANCH  81  82
ATOM     82  S   UNL A   1      49.017  37.069  29.868  1.00  0.00     0.124 S 
ATOM     83  O   UNL A   1      49.800  36.804  31.070  1.00  0.00    -0.237 OA
ATOM     84  O   UNL A   1      49.781  37.381  28.664  1.00  0.00    -0.237 OA
ATOM     85  O   UNL A   1      47.813  37.873  30.063  1.00  0.00    -0.744 OA
ENDBRANCH  81  82
ENDBRANCH  49  74
BRANCH  61  86
ATOM     86  C   UNL A   1      49.534  27.000  25.951  1.00  0.00     0.058 A 
ATOM     87  C   UNL A   1      49.788  27.213  24.588  1.00  0.00     0.135 A 
ATOM     88  C   UNL A   1      50.570  26.482  26.744  1.00  0.00     0.135 A 
ATOM     89  F   UNL A   1      48.826  27.701  23.789  1.00  0.00    -0.206 F 
ATOM     90  C   UNL A   1      51.022  26.906  24.026  1.00  0.00     0.059 A 
ATOM     91  C   UNL A   1      51.821  26.194  26.210  1.00  0.00     0.059 A 
ATOM     92  F   UNL A   1      50.379  26.273  28.056  1.00  0.00    -0.206 F 
ATOM     93  C   UNL A   1      52.033  26.399  24.848  1.00  0.00     0.060 A 
BRANCH  93  94
ATOM     94  S   UNL A   1      53.643  26.044  24.114  1.00  0.00     0.124 S 
ATOM     95  O   UNL A   1      53.963  24.755  24.721  1.00  0.00    -0.237 OA
ATOM     96  O   UNL A   1      53.337  26.015  22.687  1.00  0.00    -0.237 OA
ATOM     97  O   UNL A   1      54.470  27.166  24.549  1.00  0.00    -0.744 OA
ENDBRANCH  93  94
ENDBRANCH  61  86
ENDBRANCH  35  36
ENDBRANCH  28  30
ENDBRANCH  27  28
ENDBRANCH  26  27
ENDBRANCH   1  26
TORSDOF 20
ENDMDL
