MODEL 1
REMARK VINA RESULT:      -9.7      0.000      0.000
REMARK SMILES O=C(OCCOC(=O)C1CN(C(=O)c2c(F)cc(Br)cc2F)C1)c1ccc(-c2c3nc(c(-c4c(F)cc(S(=O)(=O)[O-])cc4F)c4ccc([nH]4)c(-c4c(F)cc(S(=O)(=O)[O-])cc4F)c4nc(c(-c5c(F)cc(S(=O)(=O)[O-])cc5F)c5ccc2[nH]5)C=C4)C=C3)cc1
REMARK SMILES IDX 4 1 3 2 2 3 1 4 24 5 25 6 89 7 26 8 88 9 27 10 28 11 29 12
REMARK SMILES IDX 82 13 30 14 87 15 81 16 83 17 31 18 86 19 80 20 79 21 32 23
REMARK SMILES IDX 66 24 45 25 65 26 46 27 49 28 64 29 84 30 47 31 48 32 63 34
REMARK SMILES IDX 85 35 50 36 33 37 34 38 43 39 35 40 36 41 42 42 44 43 37 44
REMARK SMILES IDX 38 45 39 46 40 47 41 48 67 49 68 50 77 51 69 52 70 53 76 54
REMARK SMILES IDX 78 55 71 56 72 57 73 58 74 59 75 60 51 61 52 62 61 63 53 64
REMARK SMILES IDX 54 65 60 66 62 67 55 68 56 69 57 70 58 71 59 72 5 73 6 74
REMARK SMILES IDX 7 75 8 76 9 77 10 78 23 79 11 80 12 81 13 82 14 83 15 84
REMARK SMILES IDX 21 85 16 86 17 87 20 88 22 89 18 90 19 91
REMARK H PARENT 83 22 49 33
REMARK Flexibility Score: inf
ROOT
ATOM      1  C   UNL A   1      40.404  21.131  26.716  1.00  0.00     0.275 C 
ENDROOT
BRANCH   1   2
ATOM      2  O   UNL A   1      39.606  21.917  25.824  1.00  0.00    -0.458 OA
BRANCH   2   3
ATOM      3  C   UNL A   1      38.902  23.043  26.079  1.00  0.00     0.338 C 
ATOM      4  O   UNL A   1      37.752  23.118  25.652  1.00  0.00    -0.246 OA
BRANCH   3   5
ATOM      5  C   UNL A   1      39.491  24.256  26.734  1.00  0.00     0.060 A 
ATOM      6  C   UNL A   1      40.400  25.165  26.172  1.00  0.00     0.016 A 
ATOM      7  C   UNL A   1      39.052  24.503  28.042  1.00  0.00     0.016 A 
ATOM      8  C   UNL A   1      40.743  26.362  26.818  1.00  0.00     0.010 A 
ATOM      9  C   UNL A   1      39.426  25.670  28.704  1.00  0.00     0.010 A 
ATOM     10  C   UNL A   1      40.230  26.638  28.078  1.00  0.00    -0.014 A 
BRANCH  10  11
ATOM     11  C   UNL A   1      40.618  27.840  28.851  1.00  0.00     0.031 A 
ATOM     12  C   UNL A   1      41.791  27.684  29.764  1.00  0.00     0.074 A 
ATOM     13  C   UNL A   1      39.868  28.960  28.864  1.00  0.00     0.049 A 
ATOM     14  N   UNL A   1      42.177  28.432  30.757  1.00  0.00    -0.248 NA
ATOM     15  C   UNL A   1      42.600  26.468  29.559  1.00  0.00     0.031 C 
ATOM     16  C   UNL A   1      38.703  29.225  28.021  1.00  0.00     0.029 A 
ATOM     17  N   UNL A   1      39.928  30.060  29.689  1.00  0.00    -0.354 N 
ATOM     18  C   UNL A   1      43.262  27.765  31.306  1.00  0.00     0.074 A 
ATOM     19  C   UNL A   1      43.394  26.505  30.613  1.00  0.00     0.031 C 
ATOM     20  C   UNL A   1      38.097  30.351  28.439  1.00  0.00     0.029 A 
ATOM     21  C   UNL A   1      38.834  30.892  29.576  1.00  0.00     0.049 A 
ATOM     22  H   UNL A   1      40.680  30.237  30.300  1.00  0.00     0.167 HD
ATOM     23  C   UNL A   1      44.110  28.187  32.271  1.00  0.00     0.037 A 
ATOM     24  C   UNL A   1      38.456  31.943  30.334  1.00  0.00     0.037 A 
ATOM     25  C   UNL A   1      43.963  29.444  32.942  1.00  0.00     0.049 A 
ATOM     26  C   UNL A   1      39.362  32.378  31.458  1.00  0.00     0.074 A 
ATOM     27  C   UNL A   1      44.773  30.015  33.901  1.00  0.00     0.029 A 
ATOM     28  N   UNL A   1      42.908  30.319  32.724  1.00  0.00    -0.354 N 
ATOM     29  N   UNL A   1      40.452  31.796  31.904  1.00  0.00    -0.248 NA
ATOM     30  C   UNL A   1      39.015  33.622  32.160  1.00  0.00     0.031 C 
ATOM     31  C   UNL A   1      44.178  31.216  34.302  1.00  0.00     0.029 A 
ATOM     32  C   UNL A   1      43.027  31.416  33.552  1.00  0.00     0.049 A 
ATOM     33  H   UNL A   1      42.182  30.179  32.074  1.00  0.00     0.167 HD
ATOM     34  C   UNL A   1      40.963  32.643  32.882  1.00  0.00     0.074 A 
ATOM     35  C   UNL A   1      40.039  33.753  32.994  1.00  0.00     0.031 C 
ATOM     36  C   UNL A   1      42.108  32.528  33.599  1.00  0.00     0.037 A 
BRANCH  23  37
ATOM     37  C   UNL A   1      45.232  27.255  32.622  1.00  0.00     0.058 A 
ATOM     38  C   UNL A   1      45.088  26.291  33.637  1.00  0.00     0.135 A 
ATOM     39  C   UNL A   1      46.497  27.409  32.036  1.00  0.00     0.135 A 
ATOM     40  F   UNL A   1      43.905  26.125  34.250  1.00  0.00    -0.206 F 
ATOM     41  C   UNL A   1      46.178  25.579  34.121  1.00  0.00     0.059 A 
ATOM     42  C   UNL A   1      47.594  26.674  32.477  1.00  0.00     0.059 A 
ATOM     43  F   UNL A   1      46.689  28.314  31.065  1.00  0.00    -0.206 F 
ATOM     44  C   UNL A   1      47.431  25.792  33.544  1.00  0.00     0.060 A 
BRANCH  44  45
ATOM     45  S   UNL A   1      48.851  24.927  34.244  1.00  0.00     0.124 S 
ATOM     46  O   UNL A   1      49.718  24.804  33.075  1.00  0.00    -0.237 OA
ATOM     47  O   UNL A   1      49.304  25.846  35.276  1.00  0.00    -0.237 OA
ATOM     48  O   UNL A   1      48.273  23.674  34.731  1.00  0.00    -0.744 OA
ENDBRANCH  44  45
ENDBRANCH  23  37
BRANCH  24  49
ATOM     49  C   UNL A   1      37.187  32.669  30.050  1.00  0.00     0.058 A 
ATOM     50  C   UNL A   1      35.987  32.299  30.676  1.00  0.00     0.135 A 
ATOM     51  C   UNL A   1      37.145  33.749  29.154  1.00  0.00     0.135 A 
ATOM     52  F   UNL A   1      35.970  31.263  31.527  1.00  0.00    -0.206 F 
ATOM     53  C   UNL A   1      34.792  32.968  30.424  1.00  0.00     0.059 A 
ATOM     54  C   UNL A   1      35.964  34.447  28.897  1.00  0.00     0.059 A 
ATOM     55  F   UNL A   1      38.264  34.143  28.526  1.00  0.00    -0.206 F 
ATOM     56  C   UNL A   1      34.792  34.047  29.538  1.00  0.00     0.060 A 
BRANCH  56  57
ATOM     57  S   UNL A   1      33.242  34.943  29.276  1.00  0.00     0.124 S 
ATOM     58  O   UNL A   1      32.671  34.948  30.618  1.00  0.00    -0.237 OA
ATOM     59  O   UNL A   1      33.721  36.230  28.781  1.00  0.00    -0.237 OA
ATOM     60  O   UNL A   1      32.540  34.123  28.294  1.00  0.00    -0.744 OA
ENDBRANCH  56  57
ENDBRANCH  24  49
BRANCH  36  61
ATOM     61  C   UNL A   1      42.499  33.664  34.501  1.00  0.00     0.058 A 
ATOM     62  C   UNL A   1      42.150  33.688  35.857  1.00  0.00     0.135 A 
ATOM     63  C   UNL A   1      43.384  34.646  34.024  1.00  0.00     0.135 A 
ATOM     64  F   UNL A   1      41.300  32.777  36.354  1.00  0.00    -0.206 F 
ATOM     65  C   UNL A   1      42.687  34.638  36.719  1.00  0.00     0.059 A 
ATOM     66  C   UNL A   1      43.951  35.587  34.872  1.00  0.00     0.059 A 
ATOM     67  F   UNL A   1      43.750  34.655  32.732  1.00  0.00    -0.206 F 
ATOM     68  C   UNL A   1      43.602  35.570  36.222  1.00  0.00     0.060 A 
BRANCH  68  69
ATOM     69  S   UNL A   1      44.393  36.711  37.376  1.00  0.00     0.124 S 
ATOM     70  O   UNL A   1      45.790  36.302  37.282  1.00  0.00    -0.237 OA
ATOM     71  O   UNL A   1      44.070  38.012  36.796  1.00  0.00    -0.237 OA
ATOM     72  O   UNL A   1      43.735  36.419  38.646  1.00  0.00    -0.744 OA
ENDBRANCH  68  69
ENDBRANCH  36  61
ENDBRANCH  10  11
ENDBRANCH   3   5
ENDBRANCH   2   3
ENDBRANCH   1   2
BRANCH   1  73
ATOM     73  C   UNL A   1      41.890  21.038  26.350  1.00  0.00     0.274 C 
BRANCH  73  74
ATOM     74  O   UNL A   1      42.701  22.171  26.729  1.00  0.00    -0.462 OA
BRANCH  74  75
ATOM     75  C   UNL A   1      43.287  22.852  25.690  1.00  0.00     0.312 C 
ATOM     76  O   UNL A   1      42.994  22.621  24.514  1.00  0.00    -0.252 OA
BRANCH  75  77
ATOM     77  C   UNL A   1      44.380  23.863  26.097  1.00  0.00     0.138 C 
ATOM     78  C   UNL A   1      44.750  24.882  25.011  1.00  0.00     0.137 C 
ATOM     79  C   UNL A   1      44.142  25.045  27.047  1.00  0.00     0.137 C 
ATOM     80  N   UNL A   1      44.609  25.928  26.007  1.00  0.00    -0.337 N 
ATOM     81  C   UNL A   1      44.828  27.268  25.796  1.00  0.00     0.259 C 
ATOM     82  O   UNL A   1      45.296  27.660  24.725  1.00  0.00    -0.269 OA
BRANCH  81  83
ATOM     83  C   UNL A   1      44.478  28.297  26.793  1.00  0.00     0.111 A 
ATOM     84  C   UNL A   1      45.285  28.633  27.873  1.00  0.00     0.140 A 
ATOM     85  C   UNL A   1      43.327  29.065  26.566  1.00  0.00     0.140 A 
ATOM     86  F   UNL A   1      46.426  27.972  28.103  1.00  0.00    -0.206 F 
ATOM     87  C   UNL A   1      44.951  29.702  28.715  1.00  0.00     0.056 A 
ATOM     88  C   UNL A   1      42.978  30.130  27.395  1.00  0.00     0.056 A 
ATOM     89  F   UNL A   1      42.495  28.770  25.555  1.00  0.00    -0.206 F 
ATOM     90  C   UNL A   1      43.800  30.449  28.468  1.00  0.00     0.023 A 
ATOM     91  Br  UNL A   1      43.371  31.928  29.560  1.00  0.00    -0.051 Br
ENDBRANCH  81  83
ENDBRANCH  75  77
ENDBRANCH  74  75
ENDBRANCH  73  74
ENDBRANCH   1  73
TORSDOF 15
ENDMDL
MODEL 2
REMARK VINA RESULT:      -9.6      3.366     10.511
REMARK SMILES O=C(OCCOC(=O)C1CN(C(=O)c2c(F)cc(Br)cc2F)C1)c1ccc(-c2c3nc(c(-c4c(F)cc(S(=O)(=O)[O-])cc4F)c4ccc([nH]4)c(-c4c(F)cc(S(=O)(=O)[O-])cc4F)c4nc(c(-c5c(F)cc(S(=O)(=O)[O-])cc5F)c5ccc2[nH]5)C=C4)C=C3)cc1
REMARK SMILES IDX 4 1 3 2 2 3 1 4 24 5 25 6 89 7 26 8 88 9 27 10 28 11 29 12
REMARK SMILES IDX 82 13 30 14 87 15 81 16 83 17 31 18 86 19 80 20 79 21 32 23
REMARK SMILES IDX 66 24 45 25 65 26 46 27 49 28 64 29 84 30 47 31 48 32 63 34
REMARK SMILES IDX 85 35 50 36 33 37 34 38 43 39 35 40 36 41 42 42 44 43 37 44
REMARK SMILES IDX 38 45 39 46 40 47 41 48 67 49 68 50 77 51 69 52 70 53 76 54
REMARK SMILES IDX 78 55 71 56 72 57 73 58 74 59 75 60 51 61 52 62 61 63 53 64
REMARK SMILES IDX 54 65 60 66 62 67 55 68 56 69 57 70 58 71 59 72 5 73 6 74
REMARK SMILES IDX 7 75 8 76 9 77 10 78 23 79 11 80 12 81 13 82 14 83 15 84
REMARK SMILES IDX 21 85 16 86 17 87 20 88 22 89 18 90 19 91
REMARK H PARENT 83 22 49 33
REMARK Flexibility Score: inf
ROOT
ATOM      1  C   UNL A   1      33.628  32.730  27.638  1.00  0.00     0.275 C 
ENDROOT
BRANCH   1   2
ATOM      2  O   UNL A   1      33.660  31.392  28.147  1.00  0.00    -0.458 OA
BRANCH   2   3
ATOM      3  C   UNL A   1      34.398  30.339  27.731  1.00  0.00     0.338 C 
ATOM      4  O   UNL A   1      33.879  29.532  26.963  1.00  0.00    -0.246 OA
BRANCH   3   5
ATOM      5  C   UNL A   1      35.767  30.028  28.260  1.00  0.00     0.060 A 
ATOM      6  C   UNL A   1      36.109  29.692  29.579  1.00  0.00     0.016 A 
ATOM      7  C   UNL A   1      36.797  30.059  27.311  1.00  0.00     0.016 A 
ATOM      8  C   UNL A   1      37.395  29.248  29.918  1.00  0.00     0.010 A 
ATOM      9  C   UNL A   1      38.086  29.659  27.655  1.00  0.00     0.010 A 
ATOM     10  C   UNL A   1      38.386  29.196  28.948  1.00  0.00    -0.014 A 
BRANCH  10  11
ATOM     11  C   UNL A   1      39.784  28.819  29.255  1.00  0.00     0.031 A 
ATOM     12  C   UNL A   1      40.705  29.942  29.612  1.00  0.00     0.074 A 
ATOM     13  C   UNL A   1      40.250  27.568  29.067  1.00  0.00     0.049 A 
ATOM     14  N   UNL A   1      42.006  29.973  29.640  1.00  0.00    -0.248 NA
ATOM     15  C   UNL A   1      40.052  31.229  29.913  1.00  0.00     0.031 C 
ATOM     16  C   UNL A   1      39.449  26.396  28.717  1.00  0.00     0.029 A 
ATOM     17  N   UNL A   1      41.542  27.093  29.059  1.00  0.00    -0.354 N 
ATOM     18  C   UNL A   1      42.325  31.288  29.944  1.00  0.00     0.074 A 
ATOM     19  C   UNL A   1      41.091  32.039  29.972  1.00  0.00     0.031 C 
ATOM     20  C   UNL A   1      40.267  25.368  28.425  1.00  0.00     0.029 A 
ATOM     21  C   UNL A   1      41.651  25.807  28.573  1.00  0.00     0.049 A 
ATOM     22  H   UNL A   1      42.313  27.619  29.372  1.00  0.00     0.167 HD
ATOM     23  C   UNL A   1      43.536  31.817  30.228  1.00  0.00     0.037 A 
ATOM     24  C   UNL A   1      42.747  25.089  28.247  1.00  0.00     0.037 A 
ATOM     25  C   UNL A   1      44.747  31.052  30.199  1.00  0.00     0.049 A 
ATOM     26  C   UNL A   1      44.103  25.698  28.495  1.00  0.00     0.074 A 
ATOM     27  C   UNL A   1      46.031  31.448  30.508  1.00  0.00     0.029 A 
ATOM     28  N   UNL A   1      44.811  29.719  29.813  1.00  0.00    -0.354 N 
ATOM     29  N   UNL A   1      44.394  26.917  28.888  1.00  0.00    -0.248 NA
ATOM     30  C   UNL A   1      45.276  24.837  28.291  1.00  0.00     0.031 C 
ATOM     31  C   UNL A   1      46.882  30.366  30.260  1.00  0.00     0.029 A 
ATOM     32  C   UNL A   1      46.119  29.282  29.848  1.00  0.00     0.049 A 
ATOM     33  H   UNL A   1      44.038  29.168  29.555  1.00  0.00     0.167 HD
ATOM     34  C   UNL A   1      45.774  26.945  29.055  1.00  0.00     0.074 A 
ATOM     35  C   UNL A   1      46.264  25.634  28.676  1.00  0.00     0.031 C 
ATOM     36  C   UNL A   1      46.562  27.950  29.509  1.00  0.00     0.037 A 
BRANCH  23  37
ATOM     37  C   UNL A   1      43.559  33.277  30.573  1.00  0.00     0.058 A 
ATOM     38  C   UNL A   1      43.759  34.257  29.582  1.00  0.00     0.135 A 
ATOM     39  C   UNL A   1      43.511  33.695  31.910  1.00  0.00     0.135 A 
ATOM     40  F   UNL A   1      43.840  33.906  28.289  1.00  0.00    -0.206 F 
ATOM     41  C   UNL A   1      44.002  35.584  29.914  1.00  0.00     0.059 A 
ATOM     42  C   UNL A   1      43.710  35.027  32.261  1.00  0.00     0.059 A 
ATOM     43  F   UNL A   1      43.324  32.801  32.893  1.00  0.00    -0.206 F 
ATOM     44  C   UNL A   1      43.993  35.954  31.260  1.00  0.00     0.060 A 
BRANCH  44  45
ATOM     45  S   UNL A   1      44.401  37.661  31.678  1.00  0.00     0.124 S 
ATOM     46  O   UNL A   1      43.809  38.381  30.552  1.00  0.00    -0.237 OA
ATOM     47  O   UNL A   1      43.741  37.838  32.961  1.00  0.00    -0.237 OA
ATOM     48  O   UNL A   1      45.863  37.656  31.720  1.00  0.00    -0.744 OA
ENDBRANCH  44  45
ENDBRANCH  23  37
BRANCH  24  49
ATOM     49  C   UNL A   1      42.616  23.717  27.681  1.00  0.00     0.058 A 
ATOM     50  C   UNL A   1      42.541  22.593  28.518  1.00  0.00     0.135 A 
ATOM     51  C   UNL A   1      42.557  23.499  26.295  1.00  0.00     0.135 A 
ATOM     52  F   UNL A   1      42.609  22.746  29.848  1.00  0.00    -0.206 F 
ATOM     53  C   UNL A   1      42.415  21.305  28.005  1.00  0.00     0.059 A 
ATOM     54  C   UNL A   1      42.415  22.219  25.757  1.00  0.00     0.059 A 
ATOM     55  F   UNL A   1      42.627  24.539  25.450  1.00  0.00    -0.206 F 
ATOM     56  C   UNL A   1      42.345  21.128  26.622  1.00  0.00     0.060 A 
BRANCH  56  57
ATOM     57  S   UNL A   1      42.116  19.452  25.981  1.00  0.00     0.124 S 
ATOM     58  O   UNL A   1      40.677  19.417  25.748  1.00  0.00    -0.237 OA
ATOM     59  O   UNL A   1      42.956  19.471  24.787  1.00  0.00    -0.237 OA
ATOM     60  O   UNL A   1      42.601  18.606  27.067  1.00  0.00    -0.744 OA
ENDBRANCH  56  57
ENDBRANCH  24  49
BRANCH  36  61
ATOM     61  C   UNL A   1      48.021  27.669  29.727  1.00  0.00     0.058 A 
ATOM     62  C   UNL A   1      48.987  27.976  28.761  1.00  0.00     0.135 A 
ATOM     63  C   UNL A   1      48.457  27.249  30.995  1.00  0.00     0.135 A 
ATOM     64  F   UNL A   1      48.617  28.370  27.534  1.00  0.00    -0.206 F 
ATOM     65  C   UNL A   1      50.344  27.898  29.054  1.00  0.00     0.059 A 
ATOM     66  C   UNL A   1      49.806  27.189  31.317  1.00  0.00     0.059 A 
ATOM     67  F   UNL A   1      47.563  26.952  31.953  1.00  0.00    -0.206 F 
ATOM     68  C   UNL A   1      50.744  27.523  30.340  1.00  0.00     0.060 A 
BRANCH  68  69
ATOM     69  S   UNL A   1      52.502  27.555  30.747  1.00  0.00     0.124 S 
ATOM     70  O   UNL A   1      52.831  28.958  30.520  1.00  0.00    -0.237 OA
ATOM     71  O   UNL A   1      52.507  27.118  32.140  1.00  0.00    -0.237 OA
ATOM     72  O   UNL A   1      53.087  26.611  29.800  1.00  0.00    -0.744 OA
ENDBRANCH  68  69
ENDBRANCH  36  61
ENDBRANCH  10  11
ENDBRANCH   3   5
ENDBRANCH   2   3
ENDBRANCH   1   2
BRANCH   1  73
ATOM     73  C   UNL A   1      34.155  33.803  28.597  1.00  0.00     0.274 C 
BRANCH  73  74
ATOM     74  O   UNL A   1      35.199  33.379  29.501  1.00  0.00    -0.462 OA
BRANCH  74  75
ATOM     75  C   UNL A   1      34.978  33.653  30.828  1.00  0.00     0.312 C 
ATOM     76  O   UNL A   1      33.846  33.861  31.269  1.00  0.00    -0.252 OA
BRANCH  75  77
ATOM     77  C   UNL A   1      36.248  33.750  31.701  1.00  0.00     0.138 C 
ATOM     78  C   UNL A   1      36.061  33.303  33.157  1.00  0.00     0.137 C 
ATOM     79  C   UNL A   1      37.427  32.772  31.609  1.00  0.00     0.137 C 
ATOM     80  N   UNL A   1      37.255  32.490  33.013  1.00  0.00    -0.337 N 
ATOM     81  C   UNL A   1      37.823  31.721  34.000  1.00  0.00     0.259 C 
ATOM     82  O   UNL A   1      37.396  31.778  35.156  1.00  0.00    -0.269 OA
BRANCH  81  83
ATOM     83  C   UNL A   1      38.917  30.769  33.735  1.00  0.00     0.111 A 
ATOM     84  C   UNL A   1      38.719  29.460  33.315  1.00  0.00     0.140 A 
ATOM     85  C   UNL A   1      40.233  31.252  33.789  1.00  0.00     0.140 A 
ATOM     86  F   UNL A   1      37.482  28.965  33.189  1.00  0.00    -0.206 F 
ATOM     87  C   UNL A   1      39.804  28.644  32.967  1.00  0.00     0.056 A 
ATOM     88  C   UNL A   1      41.324  30.453  33.448  1.00  0.00     0.056 A 
ATOM     89  F   UNL A   1      40.489  32.499  34.213  1.00  0.00    -0.206 F 
ATOM     90  C   UNL A   1      41.102  29.148  33.030  1.00  0.00     0.023 A 
ATOM     91  Br  UNL A   1      42.566  28.078  32.506  1.00  0.00    -0.051 Br
ENDBRANCH  81  83
ENDBRANCH  75  77
ENDBRANCH  74  75
ENDBRANCH  73  74
ENDBRANCH   1  73
TORSDOF 15
ENDMDL
MODEL 3
REMARK VINA RESULT:      -9.4      4.563     10.723
REMARK SMILES O=C(OCCOC(=O)C1CN(C(=O)c2c(F)cc(Br)cc2F)C1)c1ccc(-c2c3nc(c(-c4c(F)cc(S(=O)(=O)[O-])cc4F)c4ccc([nH]4)c(-c4c(F)cc(S(=O)(=O)[O-])cc4F)c4nc(c(-c5c(F)cc(S(=O)(=O)[O-])cc5F)c5ccc2[nH]5)C=C4)C=C3)cc1
REMARK SMILES IDX 4 1 3 2 2 3 1 4 24 5 25 6 89 7 26 8 88 9 27 10 28 11 29 12
REMARK SMILES IDX 82 13 30 14 87 15 81 16 83 17 31 18 86 19 80 20 79 21 32 23
REMARK SMILES IDX 66 24 45 25 65 26 46 27 49 28 64 29 84 30 47 31 48 32 63 34
REMARK SMILES IDX 85 35 50 36 33 37 34 38 43 39 35 40 36 41 42 42 44 43 37 44
REMARK SMILES IDX 38 45 39 46 40 47 41 48 67 49 68 50 77 51 69 52 70 53 76 54
REMARK SMILES IDX 78 55 71 56 72 57 73 58 74 59 75 60 51 61 52 62 61 63 53 64
REMARK SMILES IDX 54 65 60 66 62 67 55 68 56 69 57 70 58 71 59 72 5 73 6 74
REMARK SMILES IDX 7 75 8 76 9 77 10 78 23 79 11 80 12 81 13 82 14 83 15 84
REMARK SMILES IDX 21 85 16 86 17 87 20 88 22 89 18 90 19 91
REMARK H PARENT 83 22 49 33
REMARK Flexibility Score: inf
ROOT
ATOM      1  C   UNL A   1      32.983  28.142  27.243  1.00  0.00     0.275 C 
ENDROOT
BRANCH   1   2
ATOM      2  O   UNL A   1      33.763  29.282  26.866  1.00  0.00    -0.458 OA
BRANCH   2   3
ATOM      3  C   UNL A   1      34.456  30.136  27.651  1.00  0.00     0.338 C 
ATOM      4  O   UNL A   1      33.994  31.260  27.837  1.00  0.00    -0.246 OA
BRANCH   3   5
ATOM      5  C   UNL A   1      35.822  29.838  28.195  1.00  0.00     0.060 A 
ATOM      6  C   UNL A   1      36.147  29.464  29.508  1.00  0.00     0.016 A 
ATOM      7  C   UNL A   1      36.868  29.926  27.267  1.00  0.00     0.016 A 
ATOM      8  C   UNL A   1      37.437  29.037  29.856  1.00  0.00     0.010 A 
ATOM      9  C   UNL A   1      38.160  29.544  27.622  1.00  0.00     0.010 A 
ATOM     10  C   UNL A   1      38.447  29.043  28.904  1.00  0.00    -0.014 A 
BRANCH  10  11
ATOM     11  C   UNL A   1      39.847  28.686  29.225  1.00  0.00     0.031 A 
ATOM     12  C   UNL A   1      40.741  29.820  29.615  1.00  0.00     0.074 A 
ATOM     13  C   UNL A   1      40.340  27.448  29.022  1.00  0.00     0.049 A 
ATOM     14  N   UNL A   1      42.041  29.875  29.662  1.00  0.00    -0.248 NA
ATOM     15  C   UNL A   1      40.059  31.089  29.929  1.00  0.00     0.031 C 
ATOM     16  C   UNL A   1      39.567  26.268  28.640  1.00  0.00     0.029 A 
ATOM     17  N   UNL A   1      41.641  26.998  29.024  1.00  0.00    -0.354 N 
ATOM     18  C   UNL A   1      42.330  31.191  29.994  1.00  0.00     0.074 A 
ATOM     19  C   UNL A   1      41.082  31.917  30.018  1.00  0.00     0.031 C 
ATOM     20  C   UNL A   1      40.409  25.261  28.341  1.00  0.00     0.029 A 
ATOM     21  C   UNL A   1      41.782  25.723  28.517  1.00  0.00     0.049 A 
ATOM     22  H   UNL A   1      42.397  27.533  29.357  1.00  0.00     0.167 HD
ATOM     23  C   UNL A   1      43.527  31.738  30.304  1.00  0.00     0.037 A 
ATOM     24  C   UNL A   1      42.895  25.032  28.195  1.00  0.00     0.037 A 
ATOM     25  C   UNL A   1      44.752  30.996  30.279  1.00  0.00     0.049 A 
ATOM     26  C   UNL A   1      44.236  25.663  28.472  1.00  0.00     0.074 A 
ATOM     27  C   UNL A   1      46.024  31.411  30.614  1.00  0.00     0.029 A 
ATOM     28  N   UNL A   1      44.848  29.673  29.872  1.00  0.00    -0.354 N 
ATOM     29  N   UNL A   1      44.498  26.880  28.891  1.00  0.00    -0.248 NA
ATOM     30  C   UNL A   1      45.428  24.828  28.270  1.00  0.00     0.031 C 
ATOM     31  C   UNL A   1      46.899  30.351  30.360  1.00  0.00     0.029 A 
ATOM     32  C   UNL A   1      46.163  29.260  29.918  1.00  0.00     0.049 A 
ATOM     33  H   UNL A   1      44.089  29.111  29.592  1.00  0.00     0.167 HD
ATOM     34  C   UNL A   1      45.875  26.931  29.078  1.00  0.00     0.074 A 
ATOM     35  C   UNL A   1      46.395  25.637  28.684  1.00  0.00     0.031 C 
ATOM     36  C   UNL A   1      46.636  27.943  29.562  1.00  0.00     0.037 A 
BRANCH  23  37
ATOM     37  C   UNL A   1      43.516  33.192  30.675  1.00  0.00     0.058 A 
ATOM     38  C   UNL A   1      43.790  34.189  29.721  1.00  0.00     0.135 A 
ATOM     39  C   UNL A   1      43.361  33.585  32.012  1.00  0.00     0.135 A 
ATOM     40  F   UNL A   1      43.976  33.861  28.432  1.00  0.00    -0.206 F 
ATOM     41  C   UNL A   1      44.001  35.510  30.094  1.00  0.00     0.059 A 
ATOM     42  C   UNL A   1      43.526  34.912  32.401  1.00  0.00     0.059 A 
ATOM     43  F   UNL A   1      43.100  32.674  32.961  1.00  0.00    -0.206 F 
ATOM     44  C   UNL A   1      43.885  35.857  31.441  1.00  0.00     0.060 A 
BRANCH  44  45
ATOM     45  S   UNL A   1      44.251  37.558  31.919  1.00  0.00     0.124 S 
ATOM     46  O   UNL A   1      45.705  37.514  32.046  1.00  0.00    -0.237 OA
ATOM     47  O   UNL A   1      43.735  38.320  30.794  1.00  0.00    -0.237 OA
ATOM     48  O   UNL A   1      43.516  37.718  33.175  1.00  0.00    -0.744 OA
ENDBRANCH  44  45
ENDBRANCH  23  37
BRANCH  24  49
ATOM     49  C   UNL A   1      42.799  23.669  27.602  1.00  0.00     0.058 A 
ATOM     50  C   UNL A   1      42.938  23.469  26.220  1.00  0.00     0.135 A 
ATOM     51  C   UNL A   1      42.574  22.536  28.401  1.00  0.00     0.135 A 
ATOM     52  F   UNL A   1      43.138  24.520  25.411  1.00  0.00    -0.206 F 
ATOM     53  C   UNL A   1      42.854  22.202  25.650  1.00  0.00     0.059 A 
ATOM     54  C   UNL A   1      42.501  21.253  27.856  1.00  0.00     0.059 A 
ATOM     55  F   UNL A   1      42.431  22.671  29.729  1.00  0.00    -0.206 F 
ATOM     56  C   UNL A   1      42.643  21.097  26.478  1.00  0.00     0.060 A 
BRANCH  56  57
ATOM     57  S   UNL A   1      42.602  19.454  25.724  1.00  0.00     0.124 S 
ATOM     58  O   UNL A   1      43.515  19.621  24.598  1.00  0.00    -0.237 OA
ATOM     59  O   UNL A   1      43.083  18.612  26.816  1.00  0.00    -0.237 OA
ATOM     60  O   UNL A   1      41.196  19.276  25.376  1.00  0.00    -0.744 OA
ENDBRANCH  56  57
ENDBRANCH  24  49
BRANCH  36  61
ATOM     61  C   UNL A   1      48.097  27.686  29.795  1.00  0.00     0.058 A 
ATOM     62  C   UNL A   1      49.063  27.952  28.817  1.00  0.00     0.135 A 
ATOM     63  C   UNL A   1      48.534  27.334  31.084  1.00  0.00     0.135 A 
ATOM     64  F   UNL A   1      48.691  28.281  27.571  1.00  0.00    -0.206 F 
ATOM     65  C   UNL A   1      50.420  27.901  29.116  1.00  0.00     0.059 A 
ATOM     66  C   UNL A   1      49.884  27.302  31.410  1.00  0.00     0.059 A 
ATOM     67  F   UNL A   1      47.641  27.077  32.054  1.00  0.00    -0.206 F 
ATOM     68  C   UNL A   1      50.820  27.595  30.420  1.00  0.00     0.060 A 
BRANCH  68  69
ATOM     69  S   UNL A   1      52.577  27.662  30.827  1.00  0.00     0.124 S 
ATOM     70  O   UNL A   1      53.076  28.593  29.821  1.00  0.00    -0.237 OA
ATOM     71  O   UNL A   1      52.559  28.158  32.200  1.00  0.00    -0.237 OA
ATOM     72  O   UNL A   1      53.015  26.278  30.675  1.00  0.00    -0.744 OA
ENDBRANCH  68  69
ENDBRANCH  36  61
ENDBRANCH  10  11
ENDBRANCH   3   5
ENDBRANCH   2   3
ENDBRANCH   1   2
BRANCH   1  73
ATOM     73  C   UNL A   1      31.813  27.817  26.307  1.00  0.00     0.274 C 
BRANCH  73  74
ATOM     74  O   UNL A   1      30.875  26.832  26.795  1.00  0.00    -0.462 OA
BRANCH  74  75
ATOM     75  C   UNL A   1      30.383  25.967  25.849  1.00  0.00     0.312 C 
ATOM     76  O   UNL A   1      29.500  26.303  25.056  1.00  0.00    -0.252 OA
BRANCH  75  77
ATOM     77  C   UNL A   1      30.960  24.536  25.901  1.00  0.00     0.138 C 
ATOM     78  C   UNL A   1      31.113  23.854  24.535  1.00  0.00     0.137 C 
ATOM     79  C   UNL A   1      32.438  24.218  26.164  1.00  0.00     0.137 C 
ATOM     80  N   UNL A   1      32.468  23.499  24.914  1.00  0.00    -0.337 N 
ATOM     81  C   UNL A   1      33.348  22.772  24.150  1.00  0.00     0.259 C 
ATOM     82  O   UNL A   1      32.973  22.252  23.096  1.00  0.00    -0.269 OA
BRANCH  81  83
ATOM     83  C   UNL A   1      34.770  22.614  24.507  1.00  0.00     0.111 A 
ATOM     84  C   UNL A   1      35.666  23.671  24.601  1.00  0.00     0.140 A 
ATOM     85  C   UNL A   1      35.209  21.340  24.898  1.00  0.00     0.140 A 
ATOM     86  F   UNL A   1      35.283  24.917  24.297  1.00  0.00    -0.206 F 
ATOM     87  C   UNL A   1      36.974  23.467  25.061  1.00  0.00     0.056 A 
ATOM     88  C   UNL A   1      36.508  21.119  25.356  1.00  0.00     0.056 A 
ATOM     89  F   UNL A   1      34.397  20.277  24.804  1.00  0.00    -0.206 F 
ATOM     90  C   UNL A   1      37.386  22.192  25.442  1.00  0.00     0.023 A 
ATOM     91  Br  UNL A   1      39.126  21.915  26.120  1.00  0.00    -0.051 Br
ENDBRANCH  81  83
ENDBRANCH  75  77
ENDBRANCH  74  75
ENDBRANCH  73  74
ENDBRANCH   1  73
TORSDOF 15
ENDMDL
