MODEL 1
REMARK VINA RESULT:      -8.3      0.000      0.000
REMARK SMILES NS(=O)(=O)c1ccc(-n2nc(C(=O)NCCCCCCCCCCC(=O)OCCOC(=O)c3ccc(-c4c5nc(c(-c6c(F)cc(S(=O)(=O)[O-])cc6F)c6ccc([nH]6)c(-c6c(F)cc(S(=O)(=O)[O-])cc6F)c6nc(c(-c7c(F)cc(S(=O)(=O)[O-])cc7F)c7ccc4[nH]7)C=C6)C=C5)cc3)cc2-c2ccccc2)cc1
REMARK SMILES IDX 22 1 21 2 20 3 19 4 18 5 17 6 16 7 15 8 14 9 12 10 13 11
REMARK SMILES IDX 11 13 9 14 10 15 100 16 99 17 8 18 5 19 6 20 108 21 7 22
REMARK SMILES IDX 107 23 2 24 3 25 4 26 1 27 101 30 102 31 106 32 103 33
REMARK SMILES IDX 105 34 104 35 23 36 24 37 25 38 26 39 27 40 28 41 29 42
REMARK SMILES IDX 30 43 31 44 32 45 33 46 34 47 98 48 35 49 97 50 36 51 37 52
REMARK SMILES IDX 38 53 91 54 39 55 96 56 90 57 92 58 40 59 95 60 89 61 88 62
REMARK SMILES IDX 41 64 75 65 54 66 74 67 55 68 58 69 73 70 93 71 56 72 57 73
REMARK SMILES IDX 72 75 94 76 59 77 42 78 43 79 52 80 44 81 45 82 51 83 53 84
REMARK SMILES IDX 46 85 47 86 48 87 49 88 50 89 76 90 77 91 86 92 78 93 79 94
REMARK SMILES IDX 85 95 87 96 80 97 81 98 82 99 83 100 84 101 60 102 61 103
REMARK SMILES IDX 70 104 62 105 63 106 69 107 71 108 64 109 65 110 66 111
REMARK SMILES IDX 67 112 68 113
REMARK H PARENT 14 12 1 28 1 29 92 63 58 74
REMARK Flexibility Score: inf
ROOT
ATOM      1  C   UNL A   1      51.384  30.759  29.934  1.00  0.00     0.001 C 
ENDROOT
BRANCH   1   2
ATOM      2  C   UNL A   1      50.678  30.502  31.266  1.00  0.00     0.000 C 
BRANCH   2   3
ATOM      3  C   UNL A   1      49.765  29.277  31.185  1.00  0.00     0.000 C 
BRANCH   3   4
ATOM      4  C   UNL A   1      49.824  28.614  29.807  1.00  0.00     0.000 C 
BRANCH   4   5
ATOM      5  C   UNL A   1      48.454  28.617  29.118  1.00  0.00     0.000 C 
BRANCH   5   6
ATOM      6  C   UNL A   1      48.043  30.015  28.636  1.00  0.00     0.002 C 
BRANCH   6   7
ATOM      7  C   UNL A   1      47.598  30.019  27.173  1.00  0.00     0.021 C 
BRANCH   7   8
ATOM      8  C   UNL A   1      47.716  28.623  26.576  1.00  0.00     0.116 C 
BRANCH   8   9
ATOM      9  N   UNL A   1      47.380  28.659  25.177  1.00  0.00    -0.351 N 
ATOM     10  C   UNL A   1      46.569  27.875  24.399  1.00  0.00     0.271 C 
ATOM     11  O   UNL A   1      46.622  28.094  23.185  1.00  0.00    -0.267 OA
ATOM     12  H   UNL A   1      47.815  29.392  24.683  1.00  0.00     0.163 HD
BRANCH  10  13
ATOM     13  C   UNL A   1      45.657  26.871  24.984  1.00  0.00     0.151 A 
ATOM     14  N   UNL A   1      44.917  24.892  25.371  1.00  0.00    -0.232 N 
ATOM     15  N   UNL A   1      46.019  25.571  24.995  1.00  0.00    -0.162 NA
ATOM     16  C   UNL A   1      43.900  25.723  25.783  1.00  0.00     0.075 A 
ATOM     17  C   UNL A   1      44.386  26.993  25.590  1.00  0.00     0.065 A 
BRANCH  14  18
ATOM     18  C   UNL A   1      44.908  23.484  25.359  1.00  0.00     0.065 A 
ATOM     19  C   UNL A   1      44.844  20.747  25.036  1.00  0.00     0.082 A 
ATOM     20  C   UNL A   1      46.072  21.414  24.984  1.00  0.00     0.024 A 
ATOM     21  C   UNL A   1      43.651  21.435  25.285  1.00  0.00     0.024 A 
ATOM     22  C   UNL A   1      46.104  22.792  25.138  1.00  0.00     0.030 A 
ATOM     23  C   UNL A   1      43.686  22.813  25.483  1.00  0.00     0.030 A 
BRANCH  19  24
ATOM     24  S   UNL A   1      44.826  19.012  24.725  1.00  0.00     0.238 S 
ATOM     25  O   UNL A   1      46.176  18.506  24.775  1.00  0.00    -0.207 OA
ATOM     26  O   UNL A   1      43.934  18.731  23.620  1.00  0.00    -0.207 OA
BRANCH  24  27
ATOM     27  N   UNL A   1      44.060  18.441  26.101  1.00  0.00    -0.225 NA
ATOM     28  H   UNL A   1      44.705  17.855  26.631  1.00  0.00     0.137 HD
ATOM     29  H   UNL A   1      43.244  17.890  25.832  1.00  0.00     0.137 HD
ENDBRANCH  24  27
ENDBRANCH  19  24
ENDBRANCH  14  18
BRANCH  16  30
ATOM     30  C   UNL A   1      42.653  25.356  26.442  1.00  0.00     0.000 A 
ATOM     31  C   UNL A   1      42.658  24.890  27.760  1.00  0.00     0.010 A 
ATOM     32  C   UNL A   1      41.431  25.567  25.789  1.00  0.00     0.010 A 
ATOM     33  C   UNL A   1      41.456  24.631  28.416  1.00  0.00     0.001 A 
ATOM     34  C   UNL A   1      40.230  25.308  26.447  1.00  0.00     0.001 A 
ATOM     35  C   UNL A   1      40.243  24.842  27.761  1.00  0.00     0.000 A 
ENDBRANCH  16  30
ENDBRANCH  10  13
ENDBRANCH   8   9
ENDBRANCH   7   8
ENDBRANCH   6   7
ENDBRANCH   5   6
ENDBRANCH   4   5
ENDBRANCH   3   4
ENDBRANCH   2   3
ENDBRANCH   1   2
BRANCH   1  36
ATOM     36  C   UNL A   1      51.015  32.127  29.358  1.00  0.00     0.012 C 
BRANCH  36  37
ATOM     37  C   UNL A   1      51.635  32.463  27.996  1.00  0.00     0.123 C 
BRANCH  37  38
ATOM     38  C   UNL A   1      50.709  32.757  26.829  1.00  0.00     0.305 C 
ATOM     39  O   UNL A   1      50.339  31.892  26.043  1.00  0.00    -0.252 OA
BRANCH  38  40
ATOM     40  O   UNL A   1      50.278  34.042  26.804  1.00  0.00    -0.462 OA
BRANCH  40  41
ATOM     41  C   UNL A   1      48.864  34.273  26.701  1.00  0.00     0.274 C 
BRANCH  41  42
ATOM     42  C   UNL A   1      48.536  35.759  26.783  1.00  0.00     0.275 C 
BRANCH  42  43
ATOM     43  O   UNL A   1      47.164  35.979  27.114  1.00  0.00    -0.458 OA
BRANCH  43  44
ATOM     44  C   UNL A   1      46.957  36.210  28.428  1.00  0.00     0.338 C 
ATOM     45  O   UNL A   1      47.416  37.129  29.085  1.00  0.00    -0.246 OA
BRANCH  44  46
ATOM     46  C   UNL A   1      46.302  35.071  29.061  1.00  0.00     0.060 A 
ATOM     47  C   UNL A   1      45.394  34.324  28.304  1.00  0.00     0.016 A 
ATOM     48  C   UNL A   1      46.362  34.979  30.455  1.00  0.00     0.016 A 
ATOM     49  C   UNL A   1      44.445  33.573  28.972  1.00  0.00     0.010 A 
ATOM     50  C   UNL A   1      45.402  34.252  31.116  1.00  0.00     0.010 A 
ATOM     51  C   UNL A   1      44.419  33.599  30.374  1.00  0.00    -0.014 A 
BRANCH  51  52
ATOM     52  C   UNL A   1      43.507  32.707  31.071  1.00  0.00     0.031 A 
ATOM     53  C   UNL A   1      43.964  31.302  30.934  1.00  0.00     0.074 A 
ATOM     54  C   UNL A   1      42.500  33.127  31.868  1.00  0.00     0.049 A 
ATOM     55  N   UNL A   1      43.415  30.369  30.231  1.00  0.00    -0.248 NA
ATOM     56  C   UNL A   1      45.312  30.951  31.427  1.00  0.00     0.031 C 
ATOM     57  C   UNL A   1      42.180  34.512  32.228  1.00  0.00     0.029 A 
ATOM     58  N   UNL A   1      41.602  32.412  32.610  1.00  0.00    -0.354 N 
ATOM     59  C   UNL A   1      44.179  29.235  30.485  1.00  0.00     0.074 A 
ATOM     60  C   UNL A   1      45.444  29.699  30.981  1.00  0.00     0.031 C 
ATOM     61  C   UNL A   1      41.331  34.522  33.282  1.00  0.00     0.029 A 
ATOM     62  C   UNL A   1      40.937  33.157  33.589  1.00  0.00     0.049 A 
ATOM     63  H   UNL A   1      41.438  31.452  32.467  1.00  0.00     0.167 HD
ATOM     64  C   UNL A   1      43.555  28.040  30.667  1.00  0.00     0.037 A 
ATOM     65  C   UNL A   1      40.140  32.679  34.584  1.00  0.00     0.037 A 
ATOM     66  C   UNL A   1      42.213  28.090  30.142  1.00  0.00     0.049 A 
ATOM     67  C   UNL A   1      39.678  31.339  34.156  1.00  0.00     0.074 A 
ATOM     68  C   UNL A   1      41.628  28.187  28.897  1.00  0.00     0.029 A 
ATOM     69  N   UNL A   1      41.288  28.502  31.062  1.00  0.00    -0.354 N 
ATOM     70  N   UNL A   1      38.855  31.154  33.162  1.00  0.00    -0.248 NA
ATOM     71  C   UNL A   1      40.404  30.154  34.597  1.00  0.00     0.031 C 
ATOM     72  C   UNL A   1      40.367  28.826  29.099  1.00  0.00     0.029 A 
ATOM     73  C   UNL A   1      40.184  29.041  30.462  1.00  0.00     0.049 A 
ATOM     74  H   UNL A   1      41.403  28.420  32.037  1.00  0.00     0.167 HD
ATOM     75  C   UNL A   1      39.294  29.987  32.576  1.00  0.00     0.074 A 
ATOM     76  C   UNL A   1      40.107  29.328  33.591  1.00  0.00     0.031 C 
ATOM     77  C   UNL A   1      39.246  29.839  31.220  1.00  0.00     0.037 A 
BRANCH  64  78
ATOM     78  C   UNL A   1      43.922  27.074  31.779  1.00  0.00     0.058 A 
ATOM     79  C   UNL A   1      44.297  25.756  31.450  1.00  0.00     0.135 A 
ATOM     80  C   UNL A   1      43.640  27.294  33.148  1.00  0.00     0.135 A 
ATOM     81  F   UNL A   1      44.537  25.416  30.173  1.00  0.00    -0.206 F 
ATOM     82  C   UNL A   1      44.368  24.737  32.404  1.00  0.00     0.059 A 
ATOM     83  C   UNL A   1      43.759  26.312  34.121  1.00  0.00     0.059 A 
ATOM     84  F   UNL A   1      43.135  28.445  33.605  1.00  0.00    -0.206 F 
ATOM     85  C   UNL A   1      44.102  25.028  33.739  1.00  0.00     0.060 A 
BRANCH  85  86
ATOM     86  S   UNL A   1      44.181  23.722  34.976  1.00  0.00     0.124 S 
ATOM     87  O   UNL A   1      45.175  24.254  35.900  1.00  0.00    -0.237 OA
ATOM     88  O   UNL A   1      42.806  23.686  35.461  1.00  0.00    -0.237 OA
ATOM     89  O   UNL A   1      44.596  22.555  34.202  1.00  0.00    -0.744 OA
ENDBRANCH  85  86
ENDBRANCH  64  78
BRANCH  65  90
ATOM     90  C   UNL A   1      39.888  33.166  35.970  1.00  0.00     0.058 A 
ATOM     91  C   UNL A   1      38.581  33.469  36.409  1.00  0.00     0.135 A 
ATOM     92  C   UNL A   1      40.857  33.025  36.980  1.00  0.00     0.135 A 
ATOM     93  F   UNL A   1      37.588  33.624  35.519  1.00  0.00    -0.206 F 
ATOM     94  C   UNL A   1      38.238  33.538  37.765  1.00  0.00     0.059 A 
ATOM     95  C   UNL A   1      40.539  33.097  38.340  1.00  0.00     0.059 A 
ATOM     96  F   UNL A   1      42.125  32.715  36.676  1.00  0.00    -0.206 F 
ATOM     97  C   UNL A   1      39.221  33.317  38.726  1.00  0.00     0.060 A 
BRANCH  97  98
ATOM     98  S   UNL A   1      38.744  33.179  40.468  1.00  0.00     0.124 S 
ATOM     99  O   UNL A   1      39.331  31.898  40.845  1.00  0.00    -0.237 OA
ATOM    100  O   UNL A   1      39.364  34.362  41.055  1.00  0.00    -0.237 OA
ATOM    101  O   UNL A   1      37.284  33.205  40.420  1.00  0.00    -0.744 OA
ENDBRANCH  97  98
ENDBRANCH  65  90
BRANCH  77 102
ATOM    102  C   UNL A   1      38.216  30.641  30.480  1.00  0.00     0.058 A 
ATOM    103  C   UNL A   1      38.393  31.944  29.984  1.00  0.00     0.135 A 
ATOM    104  C   UNL A   1      36.979  30.024  30.240  1.00  0.00     0.135 A 
ATOM    105  F   UNL A   1      39.574  32.570  30.089  1.00  0.00    -0.206 F 
ATOM    106  C   UNL A   1      37.360  32.624  29.335  1.00  0.00     0.059 A 
ATOM    107  C   UNL A   1      35.950  30.666  29.566  1.00  0.00     0.059 A 
ATOM    108  F   UNL A   1      36.768  28.761  30.647  1.00  0.00    -0.206 F 
ATOM    109  C   UNL A   1      36.138  31.978  29.139  1.00  0.00     0.060 A 
BRANCH 109 110
ATOM    110  S   UNL A   1      34.801  32.844  28.292  1.00  0.00     0.124 S 
ATOM    111  O   UNL A   1      35.528  33.666  27.329  1.00  0.00    -0.237 OA
ATOM    112  O   UNL A   1      34.020  31.747  27.728  1.00  0.00    -0.237 OA
ATOM    113  O   UNL A   1      34.138  33.582  29.365  1.00  0.00    -0.744 OA
ENDBRANCH 109 110
ENDBRANCH  77 102
ENDBRANCH  51  52
ENDBRANCH  44  46
ENDBRANCH  43  44
ENDBRANCH  42  43
ENDBRANCH  41  42
ENDBRANCH  40  41
ENDBRANCH  38  40
ENDBRANCH  37  38
ENDBRANCH  36  37
ENDBRANCH   1  36
TORSDOF 29
ENDMDL
MODEL 2
REMARK VINA RESULT:      -7.9      4.396     11.685
REMARK SMILES NS(=O)(=O)c1ccc(-n2nc(C(=O)NCCCCCCCCCCC(=O)OCCOC(=O)c3ccc(-c4c5nc(c(-c6c(F)cc(S(=O)(=O)[O-])cc6F)c6ccc([nH]6)c(-c6c(F)cc(S(=O)(=O)[O-])cc6F)c6nc(c(-c7c(F)cc(S(=O)(=O)[O-])cc7F)c7ccc4[nH]7)C=C6)C=C5)cc3)cc2-c2ccccc2)cc1
REMARK SMILES IDX 22 1 21 2 20 3 19 4 18 5 17 6 16 7 15 8 14 9 12 10 13 11
REMARK SMILES IDX 11 13 9 14 10 15 100 16 99 17 8 18 5 19 6 20 108 21 7 22
REMARK SMILES IDX 107 23 2 24 3 25 4 26 1 27 101 30 102 31 106 32 103 33
REMARK SMILES IDX 105 34 104 35 23 36 24 37 25 38 26 39 27 40 28 41 29 42
REMARK SMILES IDX 30 43 31 44 32 45 33 46 34 47 98 48 35 49 97 50 36 51 37 52
REMARK SMILES IDX 38 53 91 54 39 55 96 56 90 57 92 58 40 59 95 60 89 61 88 62
REMARK SMILES IDX 41 64 75 65 54 66 74 67 55 68 58 69 73 70 93 71 56 72 57 73
REMARK SMILES IDX 72 75 94 76 59 77 42 78 43 79 52 80 44 81 45 82 51 83 53 84
REMARK SMILES IDX 46 85 47 86 48 87 49 88 50 89 76 90 77 91 86 92 78 93 79 94
REMARK SMILES IDX 85 95 87 96 80 97 81 98 82 99 83 100 84 101 60 102 61 103
REMARK SMILES IDX 70 104 62 105 63 106 69 107 71 108 64 109 65 110 66 111
REMARK SMILES IDX 67 112 68 113
REMARK H PARENT 14 12 1 28 1 29 92 63 58 74
REMARK Flexibility Score: inf
ROOT
ATOM      1  C   UNL A   1      41.291  28.652  32.185  1.00  0.00     0.001 C 
ENDROOT
BRANCH   1   2
ATOM      2  C   UNL A   1      42.074  29.138  30.964  1.00  0.00     0.000 C 
BRANCH   2   3
ATOM      3  C   UNL A   1      41.583  30.511  30.501  1.00  0.00     0.000 C 
BRANCH   3   4
ATOM      4  C   UNL A   1      41.689  31.558  31.612  1.00  0.00     0.000 C 
BRANCH   4   5
ATOM      5  C   UNL A   1      41.257  32.946  31.125  1.00  0.00     0.000 C 
BRANCH   5   6
ATOM      6  C   UNL A   1      41.613  34.055  32.127  1.00  0.00     0.002 C 
BRANCH   6   7
ATOM      7  C   UNL A   1      40.421  34.458  32.996  1.00  0.00     0.021 C 
BRANCH   7   8
ATOM      8  C   UNL A   1      39.148  34.513  32.163  1.00  0.00     0.116 C 
BRANCH   8   9
ATOM      9  N   UNL A   1      38.040  34.007  32.929  1.00  0.00    -0.351 N 
ATOM     10  C   UNL A   1      37.096  33.048  32.670  1.00  0.00     0.271 C 
ATOM     11  O   UNL A   1      36.182  32.964  33.495  1.00  0.00    -0.267 OA
ATOM     12  H   UNL A   1      37.942  34.430  33.813  1.00  0.00     0.163 HD
BRANCH  10  13
ATOM     13  C   UNL A   1      37.200  32.143  31.507  1.00  0.00     0.151 A 
ATOM     14  N   UNL A   1      36.493  31.129  29.750  1.00  0.00    -0.232 N 
ATOM     15  N   UNL A   1      36.264  32.199  30.536  1.00  0.00    -0.162 NA
ATOM     16  C   UNL A   1      37.663  30.479  30.072  1.00  0.00     0.075 A 
ATOM     17  C   UNL A   1      38.151  31.156  31.163  1.00  0.00     0.065 A 
BRANCH  14  18
ATOM     18  C   UNL A   1      35.608  30.809  28.704  1.00  0.00     0.065 A 
ATOM     19  C   UNL A   1      33.692  30.062  26.868  1.00  0.00     0.082 A 
ATOM     20  C   UNL A   1      33.642  31.343  27.425  1.00  0.00     0.024 A 
ATOM     21  C   UNL A   1      34.714  29.163  27.195  1.00  0.00     0.024 A 
ATOM     22  C   UNL A   1      34.601  31.716  28.355  1.00  0.00     0.030 A 
ATOM     23  C   UNL A   1      35.702  29.552  28.096  1.00  0.00     0.030 A 
BRANCH  19  24
ATOM     24  S   UNL A   1      32.395  29.579  25.774  1.00  0.00     0.238 S 
ATOM     25  O   UNL A   1      31.419  30.638  25.699  1.00  0.00    -0.207 OA
ATOM     26  O   UNL A   1      32.029  28.204  26.042  1.00  0.00    -0.207 OA
BRANCH  24  27
ATOM     27  N   UNL A   1      33.194  29.572  24.303  1.00  0.00    -0.225 NA
ATOM     28  H   UNL A   1      34.201  29.545  24.462  1.00  0.00     0.137 HD
ATOM     29  H   UNL A   1      32.956  30.418  23.782  1.00  0.00     0.137 HD
ENDBRANCH  24  27
ENDBRANCH  19  24
ENDBRANCH  14  18
BRANCH  16  30
ATOM     30  C   UNL A   1      38.337  29.422  29.328  1.00  0.00     0.000 A 
ATOM     31  C   UNL A   1      38.905  29.686  28.077  1.00  0.00     0.010 A 
ATOM     32  C   UNL A   1      38.508  28.159  29.910  1.00  0.00     0.010 A 
ATOM     33  C   UNL A   1      39.629  28.697  27.414  1.00  0.00     0.001 A 
ATOM     34  C   UNL A   1      39.232  27.172  29.245  1.00  0.00     0.001 A 
ATOM     35  C   UNL A   1      39.794  27.442  27.998  1.00  0.00     0.000 A 
ENDBRANCH  16  30
ENDBRANCH  10  13
ENDBRANCH   8   9
ENDBRANCH   7   8
ENDBRANCH   6   7
ENDBRANCH   5   6
ENDBRANCH   4   5
ENDBRANCH   3   4
ENDBRANCH   2   3
ENDBRANCH   1   2
BRANCH   1  36
ATOM     36  C   UNL A   1      41.949  29.102  33.490  1.00  0.00     0.012 C 
BRANCH  36  37
ATOM     37  C   UNL A   1      42.335  27.979  34.461  1.00  0.00     0.123 C 
BRANCH  37  38
ATOM     38  C   UNL A   1      41.648  27.921  35.814  1.00  0.00     0.305 C 
ATOM     39  O   UNL A   1      40.814  28.746  36.169  1.00  0.00    -0.252 OA
BRANCH  38  40
ATOM     40  O   UNL A   1      41.993  26.828  36.538  1.00  0.00    -0.462 OA
BRANCH  40  41
ATOM     41  C   UNL A   1      43.267  26.222  36.272  1.00  0.00     0.274 C 
BRANCH  41  42
ATOM     42  C   UNL A   1      43.190  24.703  36.360  1.00  0.00     0.275 C 
BRANCH  42  43
ATOM     43  O   UNL A   1      44.439  24.091  36.034  1.00  0.00    -0.458 OA
BRANCH  43  44
ATOM     44  C   UNL A   1      44.406  23.373  34.891  1.00  0.00     0.338 C 
ATOM     45  O   UNL A   1      44.091  22.201  34.777  1.00  0.00    -0.246 OA
BRANCH  44  46
ATOM     46  C   UNL A   1      45.041  24.103  33.799  1.00  0.00     0.060 A 
ATOM     47  C   UNL A   1      46.380  24.480  33.944  1.00  0.00     0.016 A 
ATOM     48  C   UNL A   1      44.212  24.665  32.824  1.00  0.00     0.016 A 
ATOM     49  C   UNL A   1      46.852  25.531  33.182  1.00  0.00     0.010 A 
ATOM     50  C   UNL A   1      44.676  25.727  32.085  1.00  0.00     0.010 A 
ATOM     51  C   UNL A   1      45.973  26.187  32.307  1.00  0.00    -0.014 A 
BRANCH  51  52
ATOM     52  C   UNL A   1      46.506  27.203  31.414  1.00  0.00     0.031 A 
ATOM     53  C   UNL A   1      47.140  26.563  30.234  1.00  0.00     0.074 A 
ATOM     54  C   UNL A   1      46.291  28.528  31.562  1.00  0.00     0.049 A 
ATOM     55  N   UNL A   1      48.401  26.496  29.968  1.00  0.00    -0.248 NA
ATOM     56  C   UNL A   1      46.312  25.684  29.383  1.00  0.00     0.031 C 
ATOM     57  C   UNL A   1      45.454  29.178  32.576  1.00  0.00     0.029 A 
ATOM     58  N   UNL A   1      46.689  29.581  30.787  1.00  0.00    -0.354 N 
ATOM     59  C   UNL A   1      48.471  25.858  28.734  1.00  0.00     0.074 A 
ATOM     60  C   UNL A   1      47.228  25.159  28.566  1.00  0.00     0.031 C 
ATOM     61  C   UNL A   1      45.221  30.462  32.217  1.00  0.00     0.029 A 
ATOM     62  C   UNL A   1      45.996  30.771  31.027  1.00  0.00     0.049 A 
ATOM     63  H   UNL A   1      47.405  29.507  30.114  1.00  0.00     0.167 HD
ATOM     64  C   UNL A   1      49.352  26.310  27.802  1.00  0.00     0.037 A 
ATOM     65  C   UNL A   1      46.046  31.914  30.288  1.00  0.00     0.037 A 
ATOM     66  C   UNL A   1      50.367  27.125  28.423  1.00  0.00     0.049 A 
ATOM     67  C   UNL A   1      47.313  31.875  29.524  1.00  0.00     0.074 A 
ATOM     68  C   UNL A   1      51.416  26.924  29.294  1.00  0.00     0.029 A 
ATOM     69  N   UNL A   1      50.034  28.451  28.481  1.00  0.00    -0.354 N 
ATOM     70  N   UNL A   1      48.486  31.971  30.085  1.00  0.00    -0.248 NA
ATOM     71  C   UNL A   1      47.312  31.365  28.158  1.00  0.00     0.031 C 
ATOM     72  C   UNL A   1      51.594  28.156  29.993  1.00  0.00     0.029 A 
ATOM     73  C   UNL A   1      50.697  29.094  29.488  1.00  0.00     0.049 A 
ATOM     74  H   UNL A   1      49.396  28.887  27.871  1.00  0.00     0.167 HD
ATOM     75  C   UNL A   1      49.284  31.127  29.342  1.00  0.00     0.074 A 
ATOM     76  C   UNL A   1      48.575  30.938  28.082  1.00  0.00     0.031 C 
ATOM     77  C   UNL A   1      50.259  30.392  29.951  1.00  0.00     0.037 A 
BRANCH  64  78
ATOM     78  C   UNL A   1      48.988  26.497  26.340  1.00  0.00     0.058 A 
ATOM     79  C   UNL A   1      49.892  26.072  25.345  1.00  0.00     0.135 A 
ATOM     80  C   UNL A   1      47.941  27.333  25.883  1.00  0.00     0.135 A 
ATOM     81  F   UNL A   1      50.955  25.320  25.670  1.00  0.00    -0.206 F 
ATOM     82  C   UNL A   1      49.771  26.461  24.008  1.00  0.00     0.059 A 
ATOM     83  C   UNL A   1      47.770  27.685  24.551  1.00  0.00     0.059 A 
ATOM     84  F   UNL A   1      47.085  27.937  26.713  1.00  0.00    -0.206 F 
ATOM     85  C   UNL A   1      48.702  27.264  23.621  1.00  0.00     0.060 A 
BRANCH  85  86
ATOM     86  S   UNL A   1      48.541  27.779  21.903  1.00  0.00     0.124 S 
ATOM     87  O   UNL A   1      47.208  28.369  21.898  1.00  0.00    -0.237 OA
ATOM     88  O   UNL A   1      49.657  28.709  21.764  1.00  0.00    -0.237 OA
ATOM     89  O   UNL A   1      48.683  26.527  21.165  1.00  0.00    -0.744 OA
ENDBRANCH  85  86
ENDBRANCH  64  78
BRANCH  65  90
ATOM     90  C   UNL A   1      45.019  32.958  30.009  1.00  0.00     0.058 A 
ATOM     91  C   UNL A   1      45.123  34.251  30.567  1.00  0.00     0.135 A 
ATOM     92  C   UNL A   1      44.114  32.822  28.941  1.00  0.00     0.135 A 
ATOM     93  F   UNL A   1      45.961  34.479  31.591  1.00  0.00    -0.206 F 
ATOM     94  C   UNL A   1      44.443  35.356  30.042  1.00  0.00     0.059 A 
ATOM     95  C   UNL A   1      43.418  33.910  28.405  1.00  0.00     0.059 A 
ATOM     96  F   UNL A   1      43.953  31.644  28.323  1.00  0.00    -0.206 F 
ATOM     97  C   UNL A   1      43.615  35.180  28.936  1.00  0.00     0.060 A 
BRANCH  97  98
ATOM     98  S   UNL A   1      42.913  36.634  28.114  1.00  0.00     0.124 S 
ATOM     99  O   UNL A   1      43.369  37.720  28.974  1.00  0.00    -0.237 OA
ATOM    100  O   UNL A   1      43.524  36.569  26.791  1.00  0.00    -0.237 OA
ATOM    101  O   UNL A   1      41.475  36.376  28.145  1.00  0.00    -0.744 OA
ENDBRANCH  97  98
ENDBRANCH  65  90
BRANCH  77 102
ATOM    102  C   UNL A   1      50.826  30.933  31.230  1.00  0.00     0.058 A 
ATOM    103  C   UNL A   1      50.338  30.666  32.520  1.00  0.00     0.135 A 
ATOM    104  C   UNL A   1      51.959  31.755  31.129  1.00  0.00     0.135 A 
ATOM    105  F   UNL A   1      49.317  29.817  32.711  1.00  0.00    -0.206 F 
ATOM    106  C   UNL A   1      50.914  31.244  33.653  1.00  0.00     0.059 A 
ATOM    107  C   UNL A   1      52.570  32.313  32.243  1.00  0.00     0.059 A 
ATOM    108  F   UNL A   1      52.501  32.006  29.926  1.00  0.00    -0.206 F 
ATOM    109  C   UNL A   1      52.026  32.075  33.502  1.00  0.00     0.060 A 
BRANCH 109 110
ATOM    110  S   UNL A   1      52.784  32.818  34.961  1.00  0.00     0.124 S 
ATOM    111  O   UNL A   1      52.850  34.228  34.588  1.00  0.00    -0.237 OA
ATOM    112  O   UNL A   1      51.833  32.485  36.016  1.00  0.00    -0.237 OA
ATOM    113  O   UNL A   1      54.074  32.138  35.059  1.00  0.00    -0.744 OA
ENDBRANCH 109 110
ENDBRANCH  77 102
ENDBRANCH  51  52
ENDBRANCH  44  46
ENDBRANCH  43  44
ENDBRANCH  42  43
ENDBRANCH  41  42
ENDBRANCH  40  41
ENDBRANCH  38  40
ENDBRANCH  37  38
ENDBRANCH  36  37
ENDBRANCH   1  36
TORSDOF 29
ENDMDL
MODEL 3
REMARK VINA RESULT:      -7.5      3.662      8.947
REMARK SMILES NS(=O)(=O)c1ccc(-n2nc(C(=O)NCCCCCCCCCCC(=O)OCCOC(=O)c3ccc(-c4c5nc(c(-c6c(F)cc(S(=O)(=O)[O-])cc6F)c6ccc([nH]6)c(-c6c(F)cc(S(=O)(=O)[O-])cc6F)c6nc(c(-c7c(F)cc(S(=O)(=O)[O-])cc7F)c7ccc4[nH]7)C=C6)C=C5)cc3)cc2-c2ccccc2)cc1
REMARK SMILES IDX 22 1 21 2 20 3 19 4 18 5 17 6 16 7 15 8 14 9 12 10 13 11
REMARK SMILES IDX 11 13 9 14 10 15 100 16 99 17 8 18 5 19 6 20 108 21 7 22
REMARK SMILES IDX 107 23 2 24 3 25 4 26 1 27 101 30 102 31 106 32 103 33
REMARK SMILES IDX 105 34 104 35 23 36 24 37 25 38 26 39 27 40 28 41 29 42
REMARK SMILES IDX 30 43 31 44 32 45 33 46 34 47 98 48 35 49 97 50 36 51 37 52
REMARK SMILES IDX 38 53 91 54 39 55 96 56 90 57 92 58 40 59 95 60 89 61 88 62
REMARK SMILES IDX 41 64 75 65 54 66 74 67 55 68 58 69 73 70 93 71 56 72 57 73
REMARK SMILES IDX 72 75 94 76 59 77 42 78 43 79 52 80 44 81 45 82 51 83 53 84
REMARK SMILES IDX 46 85 47 86 48 87 49 88 50 89 76 90 77 91 86 92 78 93 79 94
REMARK SMILES IDX 85 95 87 96 80 97 81 98 82 99 83 100 84 101 60 102 61 103
REMARK SMILES IDX 70 104 62 105 63 106 69 107 71 108 64 109 65 110 66 111
REMARK SMILES IDX 67 112 68 113
REMARK H PARENT 14 12 1 28 1 29 92 63 58 74
REMARK Flexibility Score: inf
ROOT
ATOM      1  C   UNL A   1      49.603  36.893  28.418  1.00  0.00     0.001 C 
ENDROOT
BRANCH   1   2
ATOM      2  C   UNL A   1      48.983  38.287  28.520  1.00  0.00     0.000 C 
BRANCH   2   3
ATOM      3  C   UNL A   1      49.207  39.090  27.237  1.00  0.00     0.000 C 
BRANCH   3   4
ATOM      4  C   UNL A   1      48.063  40.070  26.971  1.00  0.00     0.000 C 
BRANCH   4   5
ATOM      5  C   UNL A   1      47.567  40.727  28.264  1.00  0.00     0.000 C 
BRANCH   5   6
ATOM      6  C   UNL A   1      46.115  41.214  28.154  1.00  0.00     0.002 C 
BRANCH   6   7
ATOM      7  C   UNL A   1      45.443  40.756  26.859  1.00  0.00     0.021 C 
BRANCH   7   8
ATOM      8  C   UNL A   1      44.092  41.438  26.690  1.00  0.00     0.116 C 
BRANCH   8   9
ATOM      9  N   UNL A   1      43.039  40.460  26.763  1.00  0.00    -0.351 N 
ATOM     10  C   UNL A   1      42.573  39.676  27.786  1.00  0.00     0.271 C 
ATOM     11  O   UNL A   1      41.741  38.822  27.466  1.00  0.00    -0.267 OA
ATOM     12  H   UNL A   1      42.557  40.330  25.914  1.00  0.00     0.163 HD
BRANCH  10  13
ATOM     13  C   UNL A   1      43.004  39.879  29.185  1.00  0.00     0.151 A 
ATOM     14  N   UNL A   1      43.665  39.267  31.135  1.00  0.00    -0.232 N 
ATOM     15  N   UNL A   1      43.600  38.867  29.850  1.00  0.00    -0.162 NA
ATOM     16  C   UNL A   1      43.297  40.583  31.297  1.00  0.00     0.075 A 
ATOM     17  C   UNL A   1      42.923  41.000  30.042  1.00  0.00     0.065 A 
BRANCH  14  18
ATOM     18  C   UNL A   1      44.118  38.386  32.135  1.00  0.00     0.065 A 
ATOM     19  C   UNL A   1      45.159  36.898  34.209  1.00  0.00     0.082 A 
ATOM     20  C   UNL A   1      43.913  37.513  34.366  1.00  0.00     0.024 A 
ATOM     21  C   UNL A   1      45.873  36.992  33.009  1.00  0.00     0.024 A 
ATOM     22  C   UNL A   1      43.393  38.269  33.326  1.00  0.00     0.030 A 
ATOM     23  C   UNL A   1      45.332  37.715  31.948  1.00  0.00     0.030 A 
BRANCH  19  24
ATOM     24  S   UNL A   1      45.842  36.039  35.589  1.00  0.00     0.238 S 
ATOM     25  O   UNL A   1      47.158  36.557  35.867  1.00  0.00    -0.207 OA
ATOM     26  O   UNL A   1      45.581  34.621  35.450  1.00  0.00    -0.207 OA
BRANCH  24  27
ATOM     27  N   UNL A   1      44.854  36.577  36.830  1.00  0.00    -0.225 NA
ATOM     28  H   UNL A   1      44.796  37.594  36.801  1.00  0.00     0.137 HD
ATOM     29  H   UNL A   1      45.245  36.284  37.727  1.00  0.00     0.137 HD
ENDBRANCH  24  27
ENDBRANCH  19  24
ENDBRANCH  14  18
BRANCH  16  30
ATOM     30  C   UNL A   1      43.433  41.414  32.487  1.00  0.00     0.000 A 
ATOM     31  C   UNL A   1      42.302  41.814  33.206  1.00  0.00     0.010 A 
ATOM     32  C   UNL A   1      44.707  41.730  32.975  1.00  0.00     0.010 A 
ATOM     33  C   UNL A   1      42.443  42.528  34.394  1.00  0.00     0.001 A 
ATOM     34  C   UNL A   1      44.847  42.445  34.163  1.00  0.00     0.001 A 
ATOM     35  C   UNL A   1      43.715  42.841  34.873  1.00  0.00     0.000 A 
ENDBRANCH  16  30
ENDBRANCH  10  13
ENDBRANCH   8   9
ENDBRANCH   7   8
ENDBRANCH   6   7
ENDBRANCH   5   6
ENDBRANCH   4   5
ENDBRANCH   3   4
ENDBRANCH   2   3
ENDBRANCH   1   2
BRANCH   1  36
ATOM     36  C   UNL A   1      48.986  35.929  29.433  1.00  0.00     0.012 C 
BRANCH  36  37
ATOM     37  C   UNL A   1      49.032  34.444  29.052  1.00  0.00     0.123 C 
BRANCH  37  38
ATOM     38  C   UNL A   1      49.969  34.008  27.939  1.00  0.00     0.305 C 
ATOM     39  O   UNL A   1      51.184  33.933  28.088  1.00  0.00    -0.252 OA
BRANCH  38  40
ATOM     40  O   UNL A   1      49.317  33.638  26.811  1.00  0.00    -0.462 OA
BRANCH  40  41
ATOM     41  C   UNL A   1      49.587  34.375  25.608  1.00  0.00     0.274 C 
BRANCH  41  42
ATOM     42  C   UNL A   1      48.443  35.322  25.268  1.00  0.00     0.275 C 
BRANCH  42  43
ATOM     43  O   UNL A   1      47.202  34.867  25.809  1.00  0.00    -0.458 OA
BRANCH  43  44
ATOM     44  C   UNL A   1      46.388  35.869  26.206  1.00  0.00     0.338 C 
ATOM     45  O   UNL A   1      46.573  37.063  26.044  1.00  0.00    -0.246 OA
BRANCH  44  46
ATOM     46  C   UNL A   1      45.345  35.371  27.096  1.00  0.00     0.060 A 
ATOM     47  C   UNL A   1      45.568  35.427  28.476  1.00  0.00     0.016 A 
ATOM     48  C   UNL A   1      44.337  34.580  26.537  1.00  0.00     0.016 A 
ATOM     49  C   UNL A   1      44.851  34.573  29.291  1.00  0.00     0.010 A 
ATOM     50  C   UNL A   1      43.643  33.714  27.348  1.00  0.00     0.010 A 
ATOM     51  C   UNL A   1      43.942  33.677  28.708  1.00  0.00    -0.014 A 
BRANCH  51  52
ATOM     52  C   UNL A   1      43.096  32.876  29.579  1.00  0.00     0.031 A 
ATOM     53  C   UNL A   1      43.379  31.433  29.379  1.00  0.00     0.074 A 
ATOM     54  C   UNL A   1      42.306  33.391  30.545  1.00  0.00     0.049 A 
ATOM     55  N   UNL A   1      42.618  30.562  28.806  1.00  0.00    -0.248 NA
ATOM     56  C   UNL A   1      44.755  30.949  29.612  1.00  0.00     0.031 C 
ATOM     57  C   UNL A   1      42.196  34.799  30.939  1.00  0.00     0.029 A 
ATOM     58  N   UNL A   1      41.499  32.765  31.455  1.00  0.00    -0.354 N 
ATOM     59  C   UNL A   1      43.302  29.357  28.928  1.00  0.00     0.074 A 
ATOM     60  C   UNL A   1      44.677  29.692  29.167  1.00  0.00     0.031 C 
ATOM     61  C   UNL A   1      41.569  34.889  32.135  1.00  0.00     0.029 A 
ATOM     62  C   UNL A   1      41.109  33.568  32.531  1.00  0.00     0.049 A 
ATOM     63  H   UNL A   1      41.218  31.827  31.360  1.00  0.00     0.167 HD
ATOM     64  C   UNL A   1      42.609  28.229  29.242  1.00  0.00     0.037 A 
ATOM     65  C   UNL A   1      40.473  33.168  33.666  1.00  0.00     0.037 A 
ATOM     66  C   UNL A   1      41.203  28.414  28.981  1.00  0.00     0.049 A 
ATOM     67  C   UNL A   1      39.809  31.882  33.354  1.00  0.00     0.074 A 
ATOM     68  C   UNL A   1      40.406  28.573  27.868  1.00  0.00     0.029 A 
ATOM     69  N   UNL A   1      40.515  28.912  30.053  1.00  0.00    -0.354 N 
ATOM     70  N   UNL A   1      38.798  31.783  32.537  1.00  0.00    -0.248 NA
ATOM     71  C   UNL A   1      40.486  30.629  33.666  1.00  0.00     0.031 C 
ATOM     72  C   UNL A   1      39.274  29.333  28.296  1.00  0.00     0.029 A 
ATOM     73  C   UNL A   1      39.376  29.560  29.666  1.00  0.00     0.049 A 
ATOM     74  H   UNL A   1      40.805  28.815  30.989  1.00  0.00     0.167 HD
ATOM     75  C   UNL A   1      39.001  30.580  31.895  1.00  0.00     0.074 A 
ATOM     76  C   UNL A   1      39.923  29.840  32.748  1.00  0.00     0.031 C 
ATOM     77  C   UNL A   1      38.682  30.444  30.575  1.00  0.00     0.037 A 
BRANCH  64  78
ATOM     78  C   UNL A   1      43.085  27.227  30.278  1.00  0.00     0.058 A 
ATOM     79  C   UNL A   1      43.335  27.664  31.595  1.00  0.00     0.135 A 
ATOM     80  C   UNL A   1      43.585  25.939  29.967  1.00  0.00     0.135 A 
ATOM     81  F   UNL A   1      42.955  28.890  31.988  1.00  0.00    -0.206 F 
ATOM     82  C   UNL A   1      44.039  26.888  32.521  1.00  0.00     0.059 A 
ATOM     83  C   UNL A   1      44.236  25.130  30.887  1.00  0.00     0.059 A 
ATOM     84  F   UNL A   1      43.560  25.435  28.729  1.00  0.00    -0.206 F 
ATOM     85  C   UNL A   1      44.481  25.619  32.157  1.00  0.00     0.060 A 
BRANCH  85  86
ATOM     86  S   UNL A   1      45.397  24.614  33.337  1.00  0.00     0.124 S 
ATOM     87  O   UNL A   1      44.999  23.268  32.946  1.00  0.00    -0.237 OA
ATOM     88  O   UNL A   1      46.776  24.989  33.042  1.00  0.00    -0.237 OA
ATOM     89  O   UNL A   1      44.893  25.074  34.628  1.00  0.00    -0.744 OA
ENDBRANCH  85  86
ENDBRANCH  64  78
BRANCH  65  90
ATOM     90  C   UNL A   1      40.538  33.671  35.068  1.00  0.00     0.058 A 
ATOM     91  C   UNL A   1      41.772  33.793  35.742  1.00  0.00     0.135 A 
ATOM     92  C   UNL A   1      39.451  34.348  35.650  1.00  0.00     0.135 A 
ATOM     93  F   UNL A   1      42.867  33.181  35.264  1.00  0.00    -0.206 F 
ATOM     94  C   UNL A   1      41.939  34.609  36.868  1.00  0.00     0.059 A 
ATOM     95  C   UNL A   1      39.592  35.162  36.778  1.00  0.00     0.059 A 
ATOM     96  F   UNL A   1      38.238  34.318  35.080  1.00  0.00    -0.206 F 
ATOM     97  C   UNL A   1      40.845  35.318  37.360  1.00  0.00     0.060 A 
BRANCH  97  98
ATOM     98  S   UNL A   1      41.101  36.544  38.669  1.00  0.00     0.124 S 
ATOM     99  O   UNL A   1      41.189  35.706  39.859  1.00  0.00    -0.237 OA
ATOM    100  O   UNL A   1      42.340  37.191  38.252  1.00  0.00    -0.237 OA
ATOM    101  O   UNL A   1      39.906  37.381  38.584  1.00  0.00    -0.744 OA
ENDBRANCH  97  98
ENDBRANCH  65  90
BRANCH  77 102
ATOM    102  C   UNL A   1      37.613  31.346  30.032  1.00  0.00     0.058 A 
ATOM    103  C   UNL A   1      37.816  32.638  29.517  1.00  0.00     0.135 A 
ATOM    104  C   UNL A   1      36.303  30.844  30.013  1.00  0.00     0.135 A 
ATOM    105  F   UNL A   1      39.048  33.156  29.414  1.00  0.00    -0.206 F 
ATOM    106  C   UNL A   1      36.750  33.418  29.064  1.00  0.00     0.059 A 
ATOM    107  C   UNL A   1      35.233  31.587  29.535  1.00  0.00     0.059 A 
ATOM    108  F   UNL A   1      36.055  29.597  30.447  1.00  0.00    -0.206 F 
ATOM    109  C   UNL A   1      35.459  32.885  29.085  1.00  0.00     0.060 A 
BRANCH 109 110
ATOM    110  S   UNL A   1      34.077  33.881  28.491  1.00  0.00     0.124 S 
ATOM    111  O   UNL A   1      34.755  34.923  27.726  1.00  0.00    -0.237 OA
ATOM    112  O   UNL A   1      33.307  32.919  27.710  1.00  0.00    -0.237 OA
ATOM    113  O   UNL A   1      33.429  34.333  29.720  1.00  0.00    -0.744 OA
ENDBRANCH 109 110
ENDBRANCH  77 102
ENDBRANCH  51  52
ENDBRANCH  44  46
ENDBRANCH  43  44
ENDBRANCH  42  43
ENDBRANCH  41  42
ENDBRANCH  40  41
ENDBRANCH  38  40
ENDBRANCH  37  38
ENDBRANCH  36  37
ENDBRANCH   1  36
TORSDOF 29
ENDMDL
