MODEL 1
REMARK VINA RESULT:     -11.9      0.000      0.000
REMARK SMILES Cc1nc(C(=O)OCCOC(=O)c2ccc(-c3c4nc(c(-c5c(F)cc(S(=O)(=O)[O-])cc5F)c5ccc([nH]5)c(-c5c(F)cc(S(=O)(=O)[O-])cc5F)c5nc(c(-c6c(F)cc(S(=O)(=O)[O-])cc6F)c6ccc3[nH]6)C=C5)C=C4)cc2)nn1-c1cccc(C(F)(F)F)c1
REMARK SMILES IDX 9 1 8 2 7 3 5 4 6 5 4 6 1 7 2 8 3 9 80 10 79 11 81 12 82 13
REMARK SMILES IDX 90 14 83 15 85 16 84 17 86 18 87 19 88 20 89 21 10 22 11 23
REMARK SMILES IDX 12 24 13 25 14 26 78 27 15 28 77 29 16 30 17 31 18 32 71 33
REMARK SMILES IDX 19 34 76 35 70 36 72 37 20 38 75 39 69 40 68 41 21 43 55 44
REMARK SMILES IDX 34 45 54 46 35 47 38 48 53 49 73 50 36 51 37 52 52 54 74 55
REMARK SMILES IDX 39 56 22 57 23 58 32 59 24 60 25 61 31 62 33 63 26 64 27 65
REMARK SMILES IDX 28 66 29 67 30 68 56 69 57 70 66 71 58 72 59 73 65 74 67 75
REMARK SMILES IDX 60 76 61 77 62 78 63 79 64 80 40 81 41 82 50 83 42 84 43 85
REMARK SMILES IDX 49 86 51 87 44 88 45 89 46 90 47 91 48 92
REMARK H PARENT 72 42 38 53
REMARK Flexibility Score: inf
ROOT
ATOM      1  C   UNL A   1      41.380  19.724  26.315  1.00  0.00     0.275 C 
ENDROOT
BRANCH   1   2
ATOM      2  C   UNL A   1      42.775  19.148  26.103  1.00  0.00     0.275 C 
BRANCH   2   3
ATOM      3  O   UNL A   1      43.234  19.352  24.762  1.00  0.00    -0.456 OA
BRANCH   3   4
ATOM      4  C   UNL A   1      44.468  19.935  24.620  1.00  0.00     0.378 C 
ATOM      5  O   UNL A   1      45.447  19.356  24.151  1.00  0.00    -0.242 OA
BRANCH   4   6
ATOM      6  C   UNL A   1      44.475  21.342  25.057  1.00  0.00     0.260 A 
ATOM      7  C   UNL A   1      43.332  24.725  25.008  1.00  0.00     0.090 C 
ATOM      8  C   UNL A   1      43.883  23.377  25.284  1.00  0.00     0.130 A 
ATOM      9  N   UNL A   1      43.618  22.304  24.563  1.00  0.00    -0.206 NA
ATOM     10  N   UNL A   1      44.883  23.074  26.189  1.00  0.00    -0.217 N 
ATOM     11  N   UNL A   1      45.345  21.823  25.962  1.00  0.00    -0.138 NA
BRANCH  10  12
ATOM     12  C   UNL A   1      45.488  23.857  27.199  1.00  0.00     0.067 A 
ATOM     13  C   UNL A   1      46.751  24.408  26.936  1.00  0.00     0.028 A 
ATOM     14  C   UNL A   1      44.893  24.028  28.456  1.00  0.00     0.041 A 
ATOM     15  C   UNL A   1      47.394  25.179  27.898  1.00  0.00     0.003 A 
ATOM     16  C   UNL A   1      45.566  24.761  29.451  1.00  0.00     0.058 A 
ATOM     17  C   UNL A   1      46.805  25.353  29.149  1.00  0.00     0.013 A 
BRANCH  16  18
ATOM     18  C   UNL A   1      45.013  24.891  30.851  1.00  0.00     0.416 C 
ATOM     19  F   UNL A   1      43.978  25.773  30.917  1.00  0.00    -0.166 F 
ATOM     20  F   UNL A   1      44.523  23.710  31.322  1.00  0.00    -0.166 F 
ATOM     21  F   UNL A   1      45.927  25.309  31.765  1.00  0.00    -0.166 F 
ENDBRANCH  16  18
ENDBRANCH  10  12
ENDBRANCH   4   6
ENDBRANCH   3   4
ENDBRANCH   2   3
ENDBRANCH   1   2
BRANCH   1  22
ATOM     22  O   UNL A   1      41.415  21.106  26.673  1.00  0.00    -0.458 OA
BRANCH  22  23
ATOM     23  C   UNL A   1      40.222  21.746  26.618  1.00  0.00     0.338 C 
ATOM     24  O   UNL A   1      39.252  21.425  25.951  1.00  0.00    -0.246 OA
BRANCH  23  25
ATOM     25  C   UNL A   1      40.334  23.026  27.332  1.00  0.00     0.060 A 
ATOM     26  C   UNL A   1      39.444  24.053  27.009  1.00  0.00     0.016 A 
ATOM     27  C   UNL A   1      41.440  23.256  28.164  1.00  0.00     0.016 A 
ATOM     28  C   UNL A   1      39.717  25.337  27.453  1.00  0.00     0.010 A 
ATOM     29  C   UNL A   1      41.718  24.537  28.594  1.00  0.00     0.010 A 
ATOM     30  C   UNL A   1      40.881  25.577  28.200  1.00  0.00    -0.014 A 
BRANCH  30  31
ATOM     31  C   UNL A   1      41.106  26.909  28.743  1.00  0.00     0.031 A 
ATOM     32  C   UNL A   1      42.314  27.550  28.163  1.00  0.00     0.074 A 
ATOM     33  C   UNL A   1      40.236  27.552  29.550  1.00  0.00     0.049 A 
ATOM     34  N   UNL A   1      43.429  27.806  28.761  1.00  0.00    -0.248 NA
ATOM     35  C   UNL A   1      42.362  27.762  26.706  1.00  0.00     0.031 C 
ATOM     36  C   UNL A   1      38.893  27.111  29.943  1.00  0.00     0.029 A 
ATOM     37  N   UNL A   1      40.329  28.786  30.131  1.00  0.00    -0.354 N 
ATOM     38  C   UNL A   1      44.215  28.461  27.818  1.00  0.00     0.074 A 
ATOM     39  C   UNL A   1      43.608  28.211  26.540  1.00  0.00     0.031 C 
ATOM     40  C   UNL A   1      38.223  28.143  30.506  1.00  0.00     0.029 A 
ATOM     41  C   UNL A   1      39.131  29.269  30.657  1.00  0.00     0.049 A 
ATOM     42  H   UNL A   1      41.172  29.292  30.174  1.00  0.00     0.167 HD
ATOM     43  C   UNL A   1      45.110  29.408  28.212  1.00  0.00     0.037 A 
ATOM     44  C   UNL A   1      38.903  30.503  31.179  1.00  0.00     0.037 A 
ATOM     45  C   UNL A   1      45.335  29.332  29.632  1.00  0.00     0.049 A 
ATOM     46  C   UNL A   1      40.215  31.048  31.597  1.00  0.00     0.074 A 
ATOM     47  C   UNL A   1      46.044  28.527  30.495  1.00  0.00     0.029 A 
ATOM     48  N   UNL A   1      44.401  30.006  30.372  1.00  0.00    -0.354 N 
ATOM     49  N   UNL A   1      40.920  30.542  32.570  1.00  0.00    -0.248 NA
ATOM     50  C   UNL A   1      40.933  31.955  30.709  1.00  0.00     0.031 C 
ATOM     51  C   UNL A   1      45.393  28.628  31.761  1.00  0.00     0.029 A 
ATOM     52  C   UNL A   1      44.333  29.522  31.650  1.00  0.00     0.049 A 
ATOM     53  H   UNL A   1      43.850  30.746  30.029  1.00  0.00     0.167 HD
ATOM     54  C   UNL A   1      42.227  30.717  32.170  1.00  0.00     0.074 A 
ATOM     55  C   UNL A   1      42.183  31.736  31.128  1.00  0.00     0.031 C 
ATOM     56  C   UNL A   1      43.179  29.792  32.477  1.00  0.00     0.037 A 
BRANCH  43  57
ATOM     57  C   UNL A   1      45.387  30.695  27.456  1.00  0.00     0.058 A 
ATOM     58  C   UNL A   1      46.694  30.946  26.986  1.00  0.00     0.135 A 
ATOM     59  C   UNL A   1      44.519  31.811  27.449  1.00  0.00     0.135 A 
ATOM     60  F   UNL A   1      47.609  29.963  26.957  1.00  0.00    -0.206 F 
ATOM     61  C   UNL A   1      47.122  32.218  26.601  1.00  0.00     0.059 A 
ATOM     62  C   UNL A   1      44.912  33.075  27.022  1.00  0.00     0.059 A 
ATOM     63  F   UNL A   1      43.278  31.761  27.946  1.00  0.00    -0.206 F 
ATOM     64  C   UNL A   1      46.224  33.280  26.635  1.00  0.00     0.060 A 
BRANCH  64  65
ATOM     65  S   UNL A   1      46.789  34.938  26.213  1.00  0.00     0.124 S 
ATOM     66  O   UNL A   1      45.538  35.589  25.842  1.00  0.00    -0.237 OA
ATOM     67  O   UNL A   1      47.394  35.378  27.466  1.00  0.00    -0.237 OA
ATOM     68  O   UNL A   1      47.729  34.704  25.120  1.00  0.00    -0.744 OA
ENDBRANCH  64  65
ENDBRANCH  43  57
BRANCH  44  69
ATOM     69  C   UNL A   1      37.681  31.347  31.183  1.00  0.00     0.058 A 
ATOM     70  C   UNL A   1      36.690  31.204  32.174  1.00  0.00     0.135 A 
ATOM     71  C   UNL A   1      37.618  32.521  30.408  1.00  0.00     0.135 A 
ATOM     72  F   UNL A   1      36.681  30.122  32.968  1.00  0.00    -0.206 F 
ATOM     73  C   UNL A   1      35.734  32.195  32.426  1.00  0.00     0.059 A 
ATOM     74  C   UNL A   1      36.672  33.523  30.640  1.00  0.00     0.059 A 
ATOM     75  F   UNL A   1      38.542  32.767  29.466  1.00  0.00    -0.206 F 
ATOM     76  C   UNL A   1      35.750  33.365  31.670  1.00  0.00     0.060 A 
BRANCH  76  77
ATOM     77  S   UNL A   1      34.643  34.726  32.121  1.00  0.00     0.124 S 
ATOM     78  O   UNL A   1      35.538  35.617  32.851  1.00  0.00    -0.237 OA
ATOM     79  O   UNL A   1      34.192  35.204  30.818  1.00  0.00    -0.237 OA
ATOM     80  O   UNL A   1      33.616  34.074  32.930  1.00  0.00    -0.744 OA
ENDBRANCH  76  77
ENDBRANCH  44  69
BRANCH  56  81
ATOM     81  C   UNL A   1      42.932  28.920  33.670  1.00  0.00     0.058 A 
ATOM     82  C   UNL A   1      43.222  29.270  34.999  1.00  0.00     0.135 A 
ATOM     83  C   UNL A   1      42.301  27.689  33.449  1.00  0.00     0.135 A 
ATOM     84  F   UNL A   1      43.762  30.461  35.297  1.00  0.00    -0.206 F 
ATOM     85  C   UNL A   1      42.922  28.414  36.060  1.00  0.00     0.059 A 
ATOM     86  C   UNL A   1      41.967  26.834  34.491  1.00  0.00     0.059 A 
ATOM     87  F   UNL A   1      41.962  27.322  32.201  1.00  0.00    -0.206 F 
ATOM     88  C   UNL A   1      42.291  27.197  35.795  1.00  0.00     0.060 A 
BRANCH  88  89
ATOM     89  S   UNL A   1      41.836  26.118  37.169  1.00  0.00     0.124 S 
ATOM     90  O   UNL A   1      41.789  24.808  36.529  1.00  0.00    -0.237 OA
ATOM     91  O   UNL A   1      42.931  26.326  38.112  1.00  0.00    -0.237 OA
ATOM     92  O   UNL A   1      40.543  26.646  37.603  1.00  0.00    -0.744 OA
ENDBRANCH  88  89
ENDBRANCH  56  81
ENDBRANCH  30  31
ENDBRANCH  23  25
ENDBRANCH  22  23
ENDBRANCH   1  22
TORSDOF 16
ENDMDL
MODEL 2
REMARK VINA RESULT:     -11.8      1.194      2.204
REMARK SMILES Cc1nc(C(=O)OCCOC(=O)c2ccc(-c3c4nc(c(-c5c(F)cc(S(=O)(=O)[O-])cc5F)c5ccc([nH]5)c(-c5c(F)cc(S(=O)(=O)[O-])cc5F)c5nc(c(-c6c(F)cc(S(=O)(=O)[O-])cc6F)c6ccc3[nH]6)C=C5)C=C4)cc2)nn1-c1cccc(C(F)(F)F)c1
REMARK SMILES IDX 9 1 8 2 7 3 5 4 6 5 4 6 1 7 2 8 3 9 80 10 79 11 81 12 82 13
REMARK SMILES IDX 90 14 83 15 85 16 84 17 86 18 87 19 88 20 89 21 10 22 11 23
REMARK SMILES IDX 12 24 13 25 14 26 78 27 15 28 77 29 16 30 17 31 18 32 71 33
REMARK SMILES IDX 19 34 76 35 70 36 72 37 20 38 75 39 69 40 68 41 21 43 55 44
REMARK SMILES IDX 34 45 54 46 35 47 38 48 53 49 73 50 36 51 37 52 52 54 74 55
REMARK SMILES IDX 39 56 22 57 23 58 32 59 24 60 25 61 31 62 33 63 26 64 27 65
REMARK SMILES IDX 28 66 29 67 30 68 56 69 57 70 66 71 58 72 59 73 65 74 67 75
REMARK SMILES IDX 60 76 61 77 62 78 63 79 64 80 40 81 41 82 50 83 42 84 43 85
REMARK SMILES IDX 49 86 51 87 44 88 45 89 46 90 47 91 48 92
REMARK H PARENT 72 42 38 53
REMARK Flexibility Score: inf
ROOT
ATOM      1  C   UNL A   1      40.913  19.637  26.363  1.00  0.00     0.275 C 
ENDROOT
BRANCH   1   2
ATOM      2  C   UNL A   1      42.298  19.005  26.285  1.00  0.00     0.275 C 
BRANCH   2   3
ATOM      3  O   UNL A   1      42.920  19.249  25.018  1.00  0.00    -0.456 OA
BRANCH   3   4
ATOM      4  C   UNL A   1      44.224  19.675  25.049  1.00  0.00     0.378 C 
ATOM      5  O   UNL A   1      45.191  18.921  24.941  1.00  0.00    -0.242 OA
BRANCH   4   6
ATOM      6  C   UNL A   1      44.331  21.137  25.188  1.00  0.00     0.260 A 
ATOM      7  C   UNL A   1      43.075  24.477  25.042  1.00  0.00     0.090 C 
ATOM      8  C   UNL A   1      43.771  23.191  25.286  1.00  0.00     0.130 A 
ATOM      9  N   UNL A   1      43.290  22.010  24.948  1.00  0.00    -0.206 NA
ATOM     10  N   UNL A   1      45.076  23.039  25.713  1.00  0.00    -0.217 N 
ATOM     11  N   UNL A   1      45.473  21.758  25.533  1.00  0.00    -0.138 NA
BRANCH  10  12
ATOM     12  C   UNL A   1      46.006  23.981  26.213  1.00  0.00     0.067 A 
ATOM     13  C   UNL A   1      46.176  24.063  27.603  1.00  0.00     0.028 A 
ATOM     14  C   UNL A   1      46.691  24.862  25.366  1.00  0.00     0.041 A 
ATOM     15  C   UNL A   1      47.071  24.978  28.146  1.00  0.00     0.003 A 
ATOM     16  C   UNL A   1      47.554  25.827  25.916  1.00  0.00     0.058 A 
ATOM     17  C   UNL A   1      47.755  25.856  27.308  1.00  0.00     0.013 A 
BRANCH  16  18
ATOM     18  C   UNL A   1      48.239  26.862  25.055  1.00  0.00     0.416 C 
ATOM     19  F   UNL A   1      48.735  26.330  23.903  1.00  0.00    -0.166 F 
ATOM     20  F   UNL A   1      47.388  27.853  24.667  1.00  0.00    -0.166 F 
ATOM     21  F   UNL A   1      49.283  27.481  25.667  1.00  0.00    -0.166 F 
ENDBRANCH  16  18
ENDBRANCH  10  12
ENDBRANCH   4   6
ENDBRANCH   3   4
ENDBRANCH   2   3
ENDBRANCH   1   2
BRANCH   1  22
ATOM     22  O   UNL A   1      40.914  20.849  27.118  1.00  0.00    -0.458 OA
BRANCH  22  23
ATOM     23  C   UNL A   1      40.008  21.776  26.722  1.00  0.00     0.338 C 
ATOM     24  O   UNL A   1      39.197  21.663  25.818  1.00  0.00    -0.246 OA
BRANCH  23  25
ATOM     25  C   UNL A   1      40.285  23.041  27.416  1.00  0.00     0.060 A 
ATOM     26  C   UNL A   1      39.496  24.155  27.119  1.00  0.00     0.016 A 
ATOM     27  C   UNL A   1      41.444  23.158  28.199  1.00  0.00     0.016 A 
ATOM     28  C   UNL A   1      39.923  25.406  27.537  1.00  0.00     0.010 A 
ATOM     29  C   UNL A   1      41.874  24.405  28.603  1.00  0.00     0.010 A 
ATOM     30  C   UNL A   1      41.136  25.526  28.232  1.00  0.00    -0.014 A 
BRANCH  30  31
ATOM     31  C   UNL A   1      41.524  26.830  28.751  1.00  0.00     0.031 A 
ATOM     32  C   UNL A   1      42.813  27.296  28.177  1.00  0.00     0.074 A 
ATOM     33  C   UNL A   1      40.734  27.599  29.529  1.00  0.00     0.049 A 
ATOM     34  N   UNL A   1      43.943  27.420  28.787  1.00  0.00    -0.248 NA
ATOM     35  C   UNL A   1      42.907  27.466  26.716  1.00  0.00     0.031 C 
ATOM     36  C   UNL A   1      39.340  27.343  29.910  1.00  0.00     0.029 A 
ATOM     37  N   UNL A   1      40.978  28.824  30.085  1.00  0.00    -0.354 N 
ATOM     38  C   UNL A   1      44.820  27.946  27.843  1.00  0.00     0.074 A 
ATOM     39  C   UNL A   1      44.203  27.747  26.561  1.00  0.00     0.031 C 
ATOM     40  C   UNL A   1      38.802  28.467  30.440  1.00  0.00     0.029 A 
ATOM     41  C   UNL A   1      39.845  29.469  30.581  1.00  0.00     0.049 A 
ATOM     42  H   UNL A   1      41.879  29.217  30.131  1.00  0.00     0.167 HD
ATOM     43  C   UNL A   1      45.825  28.779  28.231  1.00  0.00     0.037 A 
ATOM     44  C   UNL A   1      39.772  30.734  31.072  1.00  0.00     0.037 A 
ATOM     45  C   UNL A   1      46.019  28.708  29.656  1.00  0.00     0.049 A 
ATOM     46  C   UNL A   1      41.138  31.115  31.500  1.00  0.00     0.074 A 
ATOM     47  C   UNL A   1      46.606  27.838  30.547  1.00  0.00     0.029 A 
ATOM     48  N   UNL A   1      45.170  29.514  30.366  1.00  0.00    -0.354 N 
ATOM     49  N   UNL A   1      41.758  30.545  32.495  1.00  0.00    -0.248 NA
ATOM     50  C   UNL A   1      41.979  31.901  30.605  1.00  0.00     0.031 C 
ATOM     51  C   UNL A   1      45.957  28.051  31.801  1.00  0.00     0.029 A 
ATOM     52  C   UNL A   1      45.022  29.072  31.653  1.00  0.00     0.049 A 
ATOM     53  H   UNL A   1      44.724  30.310  29.998  1.00  0.00     0.167 HD
ATOM     54  C   UNL A   1      43.083  30.541  32.113  1.00  0.00     0.074 A 
ATOM     55  C   UNL A   1      43.184  31.532  31.049  1.00  0.00     0.031 C 
ATOM     56  C   UNL A   1      43.902  29.508  32.455  1.00  0.00     0.037 A 
BRANCH  43  57
ATOM     57  C   UNL A   1      46.275  30.002  27.453  1.00  0.00     0.058 A 
ATOM     58  C   UNL A   1      47.657  30.260  27.323  1.00  0.00     0.135 A 
ATOM     59  C   UNL A   1      45.426  31.077  27.107  1.00  0.00     0.135 A 
ATOM     60  F   UNL A   1      48.561  29.315  27.634  1.00  0.00    -0.206 F 
ATOM     61  C   UNL A   1      48.155  31.508  26.942  1.00  0.00     0.059 A 
ATOM     62  C   UNL A   1      45.901  32.312  26.677  1.00  0.00     0.059 A 
ATOM     63  F   UNL A   1      44.098  31.023  27.260  1.00  0.00    -0.206 F 
ATOM     64  C   UNL A   1      47.267  32.532  26.633  1.00  0.00     0.060 A 
BRANCH  64  65
ATOM     65  S   UNL A   1      47.900  34.165  26.215  1.00  0.00     0.124 S 
ATOM     66  O   UNL A   1      47.669  34.897  27.455  1.00  0.00    -0.237 OA
ATOM     67  O   UNL A   1      49.293  33.875  25.890  1.00  0.00    -0.237 OA
ATOM     68  O   UNL A   1      47.071  34.567  25.081  1.00  0.00    -0.744 OA
ENDBRANCH  64  65
ENDBRANCH  43  57
BRANCH  44  69
ATOM     69  C   UNL A   1      38.669  31.728  31.038  1.00  0.00     0.058 A 
ATOM     70  C   UNL A   1      37.897  31.932  29.878  1.00  0.00     0.135 A 
ATOM     71  C   UNL A   1      38.147  32.261  32.232  1.00  0.00     0.135 A 
ATOM     72  F   UNL A   1      38.311  31.447  28.698  1.00  0.00    -0.206 F 
ATOM     73  C   UNL A   1      36.649  32.567  29.910  1.00  0.00     0.059 A 
ATOM     74  C   UNL A   1      36.906  32.900  32.289  1.00  0.00     0.059 A 
ATOM     75  F   UNL A   1      38.790  32.083  33.397  1.00  0.00    -0.206 F 
ATOM     76  C   UNL A   1      36.150  33.025  31.127  1.00  0.00     0.060 A 
BRANCH  76  77
ATOM     77  S   UNL A   1      34.459  33.670  31.204  1.00  0.00     0.124 S 
ATOM     78  O   UNL A   1      33.843  32.791  32.192  1.00  0.00    -0.237 OA
ATOM     79  O   UNL A   1      34.672  35.051  31.626  1.00  0.00    -0.237 OA
ATOM     80  O   UNL A   1      33.972  33.508  29.837  1.00  0.00    -0.744 OA
ENDBRANCH  76  77
ENDBRANCH  44  69
BRANCH  56  81
ATOM     81  C   UNL A   1      43.529  28.703  33.662  1.00  0.00     0.058 A 
ATOM     82  C   UNL A   1      43.769  29.085  34.993  1.00  0.00     0.135 A 
ATOM     83  C   UNL A   1      42.825  27.510  33.449  1.00  0.00     0.135 A 
ATOM     84  F   UNL A   1      44.374  30.247  35.278  1.00  0.00    -0.206 F 
ATOM     85  C   UNL A   1      43.350  28.294  36.065  1.00  0.00     0.059 A 
ATOM     86  C   UNL A   1      42.374  26.722  34.500  1.00  0.00     0.059 A 
ATOM     87  F   UNL A   1      42.531  27.118  32.197  1.00  0.00    -0.206 F 
ATOM     88  C   UNL A   1      42.651  27.114  35.807  1.00  0.00     0.060 A 
BRANCH  88  89
ATOM     89  S   UNL A   1      42.045  26.124  37.190  1.00  0.00     0.124 S 
ATOM     90  O   UNL A   1      40.753  26.742  37.467  1.00  0.00    -0.237 OA
ATOM     91  O   UNL A   1      41.999  24.780  36.622  1.00  0.00    -0.237 OA
ATOM     92  O   UNL A   1      43.063  26.320  38.221  1.00  0.00    -0.744 OA
ENDBRANCH  88  89
ENDBRANCH  56  81
ENDBRANCH  30  31
ENDBRANCH  23  25
ENDBRANCH  22  23
ENDBRANCH   1  22
TORSDOF 16
ENDMDL
MODEL 3
REMARK VINA RESULT:     -11.6      2.857     11.580
REMARK SMILES Cc1nc(C(=O)OCCOC(=O)c2ccc(-c3c4nc(c(-c5c(F)cc(S(=O)(=O)[O-])cc5F)c5ccc([nH]5)c(-c5c(F)cc(S(=O)(=O)[O-])cc5F)c5nc(c(-c6c(F)cc(S(=O)(=O)[O-])cc6F)c6ccc3[nH]6)C=C5)C=C4)cc2)nn1-c1cccc(C(F)(F)F)c1
REMARK SMILES IDX 9 1 8 2 7 3 5 4 6 5 4 6 1 7 2 8 3 9 80 10 79 11 81 12 82 13
REMARK SMILES IDX 90 14 83 15 85 16 84 17 86 18 87 19 88 20 89 21 10 22 11 23
REMARK SMILES IDX 12 24 13 25 14 26 78 27 15 28 77 29 16 30 17 31 18 32 71 33
REMARK SMILES IDX 19 34 76 35 70 36 72 37 20 38 75 39 69 40 68 41 21 43 55 44
REMARK SMILES IDX 34 45 54 46 35 47 38 48 53 49 73 50 36 51 37 52 52 54 74 55
REMARK SMILES IDX 39 56 22 57 23 58 32 59 24 60 25 61 31 62 33 63 26 64 27 65
REMARK SMILES IDX 28 66 29 67 30 68 56 69 57 70 66 71 58 72 59 73 65 74 67 75
REMARK SMILES IDX 60 76 61 77 62 78 63 79 64 80 40 81 41 82 50 83 42 84 43 85
REMARK SMILES IDX 49 86 51 87 44 88 45 89 46 90 47 91 48 92
REMARK H PARENT 72 42 38 53
REMARK Flexibility Score: inf
ROOT
ATOM      1  C   UNL A   1      33.372  34.213  28.384  1.00  0.00     0.275 C 
ENDROOT
BRANCH   1   2
ATOM      2  C   UNL A   1      33.450  35.400  29.335  1.00  0.00     0.275 C 
BRANCH   2   3
ATOM      3  O   UNL A   1      32.535  35.264  30.428  1.00  0.00    -0.456 OA
BRANCH   3   4
ATOM      4  C   UNL A   1      33.062  35.399  31.688  1.00  0.00     0.378 C 
ATOM      5  O   UNL A   1      32.582  36.131  32.554  1.00  0.00    -0.242 OA
BRANCH   4   6
ATOM      6  C   UNL A   1      34.241  34.541  31.896  1.00  0.00     0.260 A 
ATOM      7  C   UNL A   1      35.953  31.409  32.014  1.00  0.00     0.090 C 
ATOM      8  C   UNL A   1      35.489  32.814  31.914  1.00  0.00     0.130 A 
ATOM      9  N   UNL A   1      34.231  33.170  31.742  1.00  0.00    -0.206 NA
ATOM     10  N   UNL A   1      36.244  33.942  32.175  1.00  0.00    -0.217 N 
ATOM     11  N   UNL A   1      35.435  35.021  32.287  1.00  0.00    -0.138 NA
BRANCH  10  12
ATOM     12  C   UNL A   1      37.633  34.100  32.389  1.00  0.00     0.067 A 
ATOM     13  C   UNL A   1      38.069  34.375  33.694  1.00  0.00     0.028 A 
ATOM     14  C   UNL A   1      38.552  34.058  31.332  1.00  0.00     0.041 A 
ATOM     15  C   UNL A   1      39.424  34.547  33.957  1.00  0.00     0.003 A 
ATOM     16  C   UNL A   1      39.916  34.288  31.587  1.00  0.00     0.058 A 
ATOM     17  C   UNL A   1      40.342  34.506  32.910  1.00  0.00     0.013 A 
BRANCH  16  18
ATOM     18  C   UNL A   1      40.932  34.351  30.470  1.00  0.00     0.416 C 
ATOM     19  F   UNL A   1      40.530  35.162  29.452  1.00  0.00    -0.166 F 
ATOM     20  F   UNL A   1      42.128  34.852  30.891  1.00  0.00    -0.166 F 
ATOM     21  F   UNL A   1      41.206  33.145  29.909  1.00  0.00    -0.166 F 
ENDBRANCH  16  18
ENDBRANCH  10  12
ENDBRANCH   4   6
ENDBRANCH   3   4
ENDBRANCH   2   3
ENDBRANCH   1   2
BRANCH   1  22
ATOM     22  O   UNL A   1      34.625  33.542  28.252  1.00  0.00    -0.458 OA
BRANCH  22  23
ATOM     23  C   UNL A   1      34.545  32.215  27.990  1.00  0.00     0.338 C 
ATOM     24  O   UNL A   1      33.526  31.556  27.867  1.00  0.00    -0.246 OA
BRANCH  23  25
ATOM     25  C   UNL A   1      35.890  31.628  28.083  1.00  0.00     0.060 A 
ATOM     26  C   UNL A   1      36.037  30.255  27.871  1.00  0.00     0.016 A 
ATOM     27  C   UNL A   1      36.949  32.407  28.573  1.00  0.00     0.016 A 
ATOM     28  C   UNL A   1      37.228  29.647  28.237  1.00  0.00     0.010 A 
ATOM     29  C   UNL A   1      38.129  31.799  28.949  1.00  0.00     0.010 A 
ATOM     30  C   UNL A   1      38.246  30.417  28.821  1.00  0.00    -0.014 A 
BRANCH  30  31
ATOM     31  C   UNL A   1      39.527  29.788  29.110  1.00  0.00     0.031 A 
ATOM     32  C   UNL A   1      39.801  29.728  30.569  1.00  0.00     0.074 A 
ATOM     33  C   UNL A   1      40.297  29.182  28.182  1.00  0.00     0.049 A 
ATOM     34  N   UNL A   1      40.693  30.390  31.226  1.00  0.00    -0.248 NA
ATOM     35  C   UNL A   1      38.856  28.995  31.429  1.00  0.00     0.031 C 
ATOM     36  C   UNL A   1      39.970  28.945  26.771  1.00  0.00     0.029 A 
ATOM     37  N   UNL A   1      41.511  28.569  28.317  1.00  0.00    -0.354 N 
ATOM     38  C   UNL A   1      40.596  29.942  32.540  1.00  0.00     0.074 A 
ATOM     39  C   UNL A   1      39.331  29.268  32.646  1.00  0.00     0.031 C 
ATOM     40  C   UNL A   1      40.849  28.060  26.244  1.00  0.00     0.029 A 
ATOM     41  C   UNL A   1      41.888  27.787  27.224  1.00  0.00     0.049 A 
ATOM     42  H   UNL A   1      42.072  28.670  29.119  1.00  0.00     0.167 HD
ATOM     43  C   UNL A   1      41.703  29.893  33.331  1.00  0.00     0.037 A 
ATOM     44  C   UNL A   1      42.975  26.976  27.134  1.00  0.00     0.037 A 
ATOM     45  C   UNL A   1      42.774  30.660  32.748  1.00  0.00     0.049 A 
ATOM     46  C   UNL A   1      43.962  27.457  28.127  1.00  0.00     0.074 A 
ATOM     47  C   UNL A   1      43.108  31.990  32.630  1.00  0.00     0.029 A 
ATOM     48  N   UNL A   1      43.497  29.969  31.813  1.00  0.00    -0.354 N 
ATOM     49  N   UNL A   1      44.560  28.611  28.036  1.00  0.00    -0.248 NA
ATOM     50  C   UNL A   1      44.042  26.811  29.432  1.00  0.00     0.031 C 
ATOM     51  C   UNL A   1      43.946  32.090  31.478  1.00  0.00     0.029 A 
ATOM     52  C   UNL A   1      44.136  30.817  30.949  1.00  0.00     0.049 A 
ATOM     53  H   UNL A   1      43.551  28.987  31.768  1.00  0.00     0.167 HD
ATOM     54  C   UNL A   1      44.709  29.022  29.344  1.00  0.00     0.074 A 
ATOM     55  C   UNL A   1      44.545  27.819  30.150  1.00  0.00     0.031 C 
ATOM     56  C   UNL A   1      44.618  30.340  29.674  1.00  0.00     0.037 A 
BRANCH  43  57
ATOM     57  C   UNL A   1      42.001  28.785  34.324  1.00  0.00     0.058 A 
ATOM     58  C   UNL A   1      42.109  29.106  35.695  1.00  0.00     0.135 A 
ATOM     59  C   UNL A   1      42.485  27.507  33.964  1.00  0.00     0.135 A 
ATOM     60  F   UNL A   1      41.691  30.298  36.152  1.00  0.00    -0.206 F 
ATOM     61  C   UNL A   1      42.710  28.250  36.621  1.00  0.00     0.059 A 
ATOM     62  C   UNL A   1      43.042  26.620  34.879  1.00  0.00     0.059 A 
ATOM     63  F   UNL A   1      42.536  27.089  32.694  1.00  0.00    -0.206 F 
ATOM     64  C   UNL A   1      43.185  27.013  36.198  1.00  0.00     0.060 A 
BRANCH  64  65
ATOM     65  S   UNL A   1      44.030  25.936  37.369  1.00  0.00     0.124 S 
ATOM     66  O   UNL A   1      43.483  26.396  38.640  1.00  0.00    -0.237 OA
ATOM     67  O   UNL A   1      43.600  24.614  36.927  1.00  0.00    -0.237 OA
ATOM     68  O   UNL A   1      45.441  26.236  37.143  1.00  0.00    -0.744 OA
ENDBRANCH  64  65
ENDBRANCH  43  57
BRANCH  44  69
ATOM     69  C   UNL A   1      43.177  25.700  26.400  1.00  0.00     0.058 A 
ATOM     70  C   UNL A   1      44.200  25.556  25.442  1.00  0.00     0.135 A 
ATOM     71  C   UNL A   1      42.584  24.509  26.858  1.00  0.00     0.135 A 
ATOM     72  F   UNL A   1      44.831  26.638  24.960  1.00  0.00    -0.206 F 
ATOM     73  C   UNL A   1      44.652  24.303  25.011  1.00  0.00     0.059 A 
ATOM     74  C   UNL A   1      43.016  23.247  26.441  1.00  0.00     0.059 A 
ATOM     75  F   UNL A   1      41.629  24.540  27.800  1.00  0.00    -0.206 F 
ATOM     76  C   UNL A   1      44.071  23.152  25.538  1.00  0.00     0.060 A 
BRANCH  76  77
ATOM     77  S   UNL A   1      44.781  21.536  25.132  1.00  0.00     0.124 S 
ATOM     78  O   UNL A   1      44.728  21.538  23.674  1.00  0.00    -0.237 OA
ATOM     79  O   UNL A   1      46.113  21.624  25.720  1.00  0.00    -0.237 OA
ATOM     80  O   UNL A   1      43.876  20.594  25.786  1.00  0.00    -0.744 OA
ENDBRANCH  76  77
ENDBRANCH  44  69
BRANCH  56  81
ATOM     81  C   UNL A   1      44.910  31.342  28.598  1.00  0.00     0.058 A 
ATOM     82  C   UNL A   1      43.974  31.820  27.666  1.00  0.00     0.135 A 
ATOM     83  C   UNL A   1      46.197  31.895  28.564  1.00  0.00     0.135 A 
ATOM     84  F   UNL A   1      42.704  31.390  27.681  1.00  0.00    -0.206 F 
ATOM     85  C   UNL A   1      44.317  32.787  26.720  1.00  0.00     0.059 A 
ATOM     86  C   UNL A   1      46.553  32.878  27.651  1.00  0.00     0.059 A 
ATOM     87  F   UNL A   1      47.119  31.505  29.460  1.00  0.00    -0.206 F 
ATOM     88  C   UNL A   1      45.611  33.312  26.722  1.00  0.00     0.060 A 
BRANCH  88  89
ATOM     89  S   UNL A   1      46.039  34.615  25.547  1.00  0.00     0.124 S 
ATOM     90  O   UNL A   1      45.639  35.820  26.265  1.00  0.00    -0.237 OA
ATOM     91  O   UNL A   1      47.476  34.426  25.374  1.00  0.00    -0.237 OA
ATOM     92  O   UNL A   1      45.232  34.293  24.372  1.00  0.00    -0.744 OA
ENDBRANCH  88  89
ENDBRANCH  56  81
ENDBRANCH  30  31
ENDBRANCH  23  25
ENDBRANCH  22  23
ENDBRANCH   1  22
TORSDOF 16
ENDMDL
