MODEL 1
REMARK VINA RESULT:     -10.9      0.000      0.000
REMARK SMILES CCc1cc(Oc2cncc(C(=O)OCCOC(=O)c3ccc(-c4c5nc(c(-c6c(F)cc(S(=O)(=O)[O-])cc6F)c6ccc([nH]6)c(-c6c(F)cc(S(=O)(=O)[O-])cc6F)c6nc(c(-c7c(F)cc(S(=O)(=O)[O-])cc7F)c7ccc4[nH]7)C=C6)C=C5)cc3)n2)ccc1Cl
REMARK SMILES IDX 15 1 14 2 12 3 13 4 11 5 7 6 8 7 86 8 9 9 10 10 6 11 5 12
REMARK SMILES IDX 3 13 4 14 89 15 88 16 90 17 87 18 2 19 1 20 16 21 17 22
REMARK SMILES IDX 18 23 19 24 20 25 21 26 85 27 22 28 84 29 23 30 24 31 25 32
REMARK SMILES IDX 78 33 26 34 83 35 77 36 79 37 27 38 82 39 76 40 75 41 28 43
REMARK SMILES IDX 62 44 41 45 61 46 42 47 45 48 60 49 80 50 43 51 44 52 59 54
REMARK SMILES IDX 81 55 46 56 29 57 30 58 39 59 31 60 32 61 38 62 40 63 33 64
REMARK SMILES IDX 34 65 35 66 36 67 37 68 63 69 64 70 73 71 65 72 66 73 72 74
REMARK SMILES IDX 74 75 67 76 68 77 69 78 70 79 71 80 47 81 48 82 57 83 49 84
REMARK SMILES IDX 50 85 56 86 58 87 51 88 52 89 53 90 54 91 55 92
REMARK H PARENT 79 42 45 53
REMARK Flexibility Score: inf
ROOT
ATOM      1  C   UNL A   1      46.011  23.596  25.421  1.00  0.00     0.275 C 
ENDROOT
BRANCH   1   2
ATOM      2  O   UNL A   1      45.789  22.184  25.253  1.00  0.00    -0.457 OA
BRANCH   2   3
ATOM      3  C   UNL A   1      44.758  21.837  24.436  1.00  0.00     0.358 C 
ATOM      4  O   UNL A   1      44.488  22.343  23.365  1.00  0.00    -0.244 OA
BRANCH   3   5
ATOM      5  C   UNL A   1      44.004  20.683  24.992  1.00  0.00     0.170 A 
ATOM      6  C   UNL A   1      42.322  19.803  26.274  1.00  0.00     0.238 A 
ATOM      7  C   UNL A   1      42.779  18.519  25.990  1.00  0.00     0.179 A 
ATOM      8  N   UNL A   1      42.914  20.911  25.772  1.00  0.00    -0.203 NA
ATOM      9  N   UNL A   1      43.864  18.289  25.212  1.00  0.00    -0.257 NA
ATOM     10  C   UNL A   1      44.462  19.399  24.713  1.00  0.00     0.147 A 
BRANCH   6  11
ATOM     11  O   UNL A   1      41.158  20.028  26.967  1.00  0.00    -0.437 OA
BRANCH  11  12
ATOM     12  C   UNL A   1      40.023  20.363  26.268  1.00  0.00     0.129 A 
ATOM     13  C   UNL A   1      38.439  22.164  25.784  1.00  0.00    -0.026 A 
ATOM     14  C   UNL A   1      39.612  21.694  26.402  1.00  0.00     0.052 A 
ATOM     15  C   UNL A   1      37.686  21.261  25.019  1.00  0.00     0.044 A 
ATOM     16  C   UNL A   1      38.084  19.926  24.898  1.00  0.00     0.024 A 
ATOM     17  Cl  UNL A   1      36.240  21.741  24.204  1.00  0.00    -0.084 Cl
ATOM     18  C   UNL A   1      39.244  19.471  25.533  1.00  0.00     0.049 A 
BRANCH  13  19
ATOM     19  C   UNL A   1      38.028  23.600  26.009  1.00  0.00     0.034 C 
ATOM     20  C   UNL A   1      38.673  24.197  27.251  1.00  0.00     0.009 C 
ENDBRANCH  13  19
ENDBRANCH  11  12
ENDBRANCH   6  11
ENDBRANCH   3   5
ENDBRANCH   2   3
ENDBRANCH   1   2
BRANCH   1  21
ATOM     21  C   UNL A   1      45.151  24.155  26.554  1.00  0.00     0.275 C 
BRANCH  21  22
ATOM     22  O   UNL A   1      44.289  25.197  26.059  1.00  0.00    -0.458 OA
BRANCH  22  23
ATOM     23  C   UNL A   1      42.965  25.003  26.246  1.00  0.00     0.338 C 
ATOM     24  O   UNL A   1      42.252  24.158  25.729  1.00  0.00    -0.246 OA
BRANCH  23  25
ATOM     25  C   UNL A   1      42.478  25.937  27.270  1.00  0.00     0.060 A 
ATOM     26  C   UNL A   1      43.035  27.212  27.318  1.00  0.00     0.016 A 
ATOM     27  C   UNL A   1      41.576  25.523  28.251  1.00  0.00     0.016 A 
ATOM     28  C   UNL A   1      42.716  28.076  28.363  1.00  0.00     0.010 A 
ATOM     29  C   UNL A   1      41.227  26.407  29.282  1.00  0.00     0.010 A 
ATOM     30  C   UNL A   1      41.810  27.685  29.359  1.00  0.00    -0.014 A 
BRANCH  30  31
ATOM     31  C   UNL A   1      41.538  28.601  30.502  1.00  0.00     0.031 A 
ATOM     32  C   UNL A   1      42.438  28.597  31.712  1.00  0.00     0.074 A 
ATOM     33  C   UNL A   1      40.523  29.486  30.431  1.00  0.00     0.049 A 
ATOM     34  N   UNL A   1      42.323  29.267  32.830  1.00  0.00    -0.248 NA
ATOM     35  C   UNL A   1      43.619  27.721  31.659  1.00  0.00     0.031 C 
ATOM     36  C   UNL A   1      39.596  29.622  29.305  1.00  0.00     0.029 A 
ATOM     37  N   UNL A   1      40.109  30.451  31.317  1.00  0.00    -0.354 N 
ATOM     38  C   UNL A   1      43.396  28.876  33.623  1.00  0.00     0.074 A 
ATOM     39  C   UNL A   1      44.145  27.897  32.863  1.00  0.00     0.031 C 
ATOM     40  C   UNL A   1      38.746  30.631  29.553  1.00  0.00     0.029 A 
ATOM     41  C   UNL A   1      39.026  31.177  30.878  1.00  0.00     0.049 A 
ATOM     42  H   UNL A   1      40.547  30.609  32.185  1.00  0.00     0.167 HD
ATOM     43  C   UNL A   1      43.731  29.298  34.867  1.00  0.00     0.037 A 
ATOM     44  C   UNL A   1      38.319  32.152  31.483  1.00  0.00     0.037 A 
ATOM     45  C   UNL A   1      43.009  30.300  35.608  1.00  0.00     0.049 A 
ATOM     46  C   UNL A   1      38.705  32.591  32.868  1.00  0.00     0.074 A 
ATOM     47  C   UNL A   1      43.262  30.778  36.883  1.00  0.00     0.029 A 
ATOM     48  N   UNL A   1      41.906  30.995  35.135  1.00  0.00    -0.354 N 
ATOM     49  N   UNL A   1      39.689  32.166  33.624  1.00  0.00    -0.248 NA
ATOM     50  C   UNL A   1      37.876  33.634  33.491  1.00  0.00     0.031 C 
ATOM     51  C   UNL A   1      42.300  31.747  37.190  1.00  0.00     0.029 A 
ATOM     52  C   UNL A   1      41.470  31.898  36.092  1.00  0.00     0.049 A 
ATOM     53  H   UNL A   1      41.495  30.867  34.250  1.00  0.00     0.167 HD
ATOM     54  C   UNL A   1      39.598  32.890  34.808  1.00  0.00     0.074 A 
ATOM     55  C   UNL A   1      38.484  33.803  34.657  1.00  0.00     0.031 C 
ATOM     56  C   UNL A   1      40.360  32.799  35.926  1.00  0.00     0.037 A 
BRANCH  43  57
ATOM     57  C   UNL A   1      44.930  28.669  35.521  1.00  0.00     0.058 A 
ATOM     58  C   UNL A   1      44.840  27.445  36.201  1.00  0.00     0.135 A 
ATOM     59  C   UNL A   1      46.195  29.266  35.409  1.00  0.00     0.135 A 
ATOM     60  F   UNL A   1      43.651  26.841  36.352  1.00  0.00    -0.206 F 
ATOM     61  C   UNL A   1      45.963  26.839  36.756  1.00  0.00     0.059 A 
ATOM     62  C   UNL A   1      47.335  28.668  35.939  1.00  0.00     0.059 A 
ATOM     63  F   UNL A   1      46.335  30.439  34.771  1.00  0.00    -0.206 F 
ATOM     64  C   UNL A   1      47.207  27.458  36.617  1.00  0.00     0.060 A 
BRANCH  64  65
ATOM     65  S   UNL A   1      48.661  26.646  37.318  1.00  0.00     0.124 S 
ATOM     66  O   UNL A   1      49.630  27.736  37.318  1.00  0.00    -0.237 OA
ATOM     67  O   UNL A   1      48.182  26.224  38.631  1.00  0.00    -0.237 OA
ATOM     68  O   UNL A   1      48.932  25.564  36.377  1.00  0.00    -0.744 OA
ENDBRANCH  64  65
ENDBRANCH  43  57
BRANCH  44  69
ATOM     69  C   UNL A   1      37.141  32.755  30.802  1.00  0.00     0.058 A 
ATOM     70  C   UNL A   1      37.289  33.796  29.874  1.00  0.00     0.135 A 
ATOM     71  C   UNL A   1      35.839  32.313  31.087  1.00  0.00     0.135 A 
ATOM     72  F   UNL A   1      38.512  34.261  29.577  1.00  0.00    -0.206 F 
ATOM     73  C   UNL A   1      36.187  34.395  29.272  1.00  0.00     0.059 A 
ATOM     74  C   UNL A   1      34.725  32.877  30.476  1.00  0.00     0.059 A 
ATOM     75  F   UNL A   1      35.645  31.311  31.959  1.00  0.00    -0.206 F 
ATOM     76  C   UNL A   1      34.908  33.931  29.582  1.00  0.00     0.060 A 
BRANCH  76  77
ATOM     77  S   UNL A   1      33.480  34.689  28.781  1.00  0.00     0.124 S 
ATOM     78  O   UNL A   1      33.090  33.650  27.835  1.00  0.00    -0.237 OA
ATOM     79  O   UNL A   1      32.570  34.906  29.901  1.00  0.00    -0.237 OA
ATOM     80  O   UNL A   1      34.036  35.904  28.193  1.00  0.00    -0.744 OA
ENDBRANCH  76  77
ENDBRANCH  44  69
BRANCH  56  81
ATOM     81  C   UNL A   1      40.019  33.723  37.060  1.00  0.00     0.058 A 
ATOM     82  C   UNL A   1      39.099  33.355  38.054  1.00  0.00     0.135 A 
ATOM     83  C   UNL A   1      40.630  34.982  37.165  1.00  0.00     0.135 A 
ATOM     84  F   UNL A   1      38.484  32.162  37.995  1.00  0.00    -0.206 F 
ATOM     85  C   UNL A   1      38.769  34.216  39.094  1.00  0.00     0.059 A 
ATOM     86  C   UNL A   1      40.333  35.852  38.209  1.00  0.00     0.059 A 
ATOM     87  F   UNL A   1      41.526  35.378  36.246  1.00  0.00    -0.206 F 
ATOM     88  C   UNL A   1      39.388  35.466  39.160  1.00  0.00     0.060 A 
BRANCH  88  89
ATOM     89  S   UNL A   1      38.959  36.578  40.517  1.00  0.00     0.124 S 
ATOM     90  O   UNL A   1      38.528  37.770  39.793  1.00  0.00    -0.237 OA
ATOM     91  O   UNL A   1      37.906  35.841  41.209  1.00  0.00    -0.237 OA
ATOM     92  O   UNL A   1      40.212  36.709  41.254  1.00  0.00    -0.744 OA
ENDBRANCH  88  89
ENDBRANCH  56  81
ENDBRANCH  30  31
ENDBRANCH  23  25
ENDBRANCH  22  23
ENDBRANCH  21  22
ENDBRANCH   1  21
TORSDOF 17
ENDMDL
MODEL 2
REMARK VINA RESULT:     -10.8      0.576      8.394
REMARK SMILES CCc1cc(Oc2cncc(C(=O)OCCOC(=O)c3ccc(-c4c5nc(c(-c6c(F)cc(S(=O)(=O)[O-])cc6F)c6ccc([nH]6)c(-c6c(F)cc(S(=O)(=O)[O-])cc6F)c6nc(c(-c7c(F)cc(S(=O)(=O)[O-])cc7F)c7ccc4[nH]7)C=C6)C=C5)cc3)n2)ccc1Cl
REMARK SMILES IDX 15 1 14 2 12 3 13 4 11 5 7 6 8 7 86 8 9 9 10 10 6 11 5 12
REMARK SMILES IDX 3 13 4 14 89 15 88 16 90 17 87 18 2 19 1 20 16 21 17 22
REMARK SMILES IDX 18 23 19 24 20 25 21 26 85 27 22 28 84 29 23 30 24 31 25 32
REMARK SMILES IDX 78 33 26 34 83 35 77 36 79 37 27 38 82 39 76 40 75 41 28 43
REMARK SMILES IDX 62 44 41 45 61 46 42 47 45 48 60 49 80 50 43 51 44 52 59 54
REMARK SMILES IDX 81 55 46 56 29 57 30 58 39 59 31 60 32 61 38 62 40 63 33 64
REMARK SMILES IDX 34 65 35 66 36 67 37 68 63 69 64 70 73 71 65 72 66 73 72 74
REMARK SMILES IDX 74 75 67 76 68 77 69 78 70 79 71 80 47 81 48 82 57 83 49 84
REMARK SMILES IDX 50 85 56 86 58 87 51 88 52 89 53 90 54 91 55 92
REMARK H PARENT 79 42 45 53
REMARK Flexibility Score: inf
ROOT
ATOM      1  C   UNL A   1      45.868  23.525  25.374  1.00  0.00     0.275 C 
ENDROOT
BRANCH   1   2
ATOM      2  O   UNL A   1      45.822  22.121  25.060  1.00  0.00    -0.457 OA
BRANCH   2   3
ATOM      3  C   UNL A   1      44.788  21.720  24.273  1.00  0.00     0.358 C 
ATOM      4  O   UNL A   1      44.503  22.164  23.179  1.00  0.00    -0.244 OA
BRANCH   3   5
ATOM      5  C   UNL A   1      44.049  20.592  24.899  1.00  0.00     0.170 A 
ATOM      6  C   UNL A   1      42.413  19.771  26.276  1.00  0.00     0.238 A 
ATOM      7  C   UNL A   1      42.851  18.475  26.021  1.00  0.00     0.179 A 
ATOM      8  N   UNL A   1      42.992  20.856  25.712  1.00  0.00    -0.203 NA
ATOM      9  N   UNL A   1      43.904  18.209  25.210  1.00  0.00    -0.257 NA
ATOM     10  C   UNL A   1      44.488  19.296  24.649  1.00  0.00     0.147 A 
BRANCH   6  11
ATOM     11  O   UNL A   1      41.278  20.029  27.004  1.00  0.00    -0.437 OA
BRANCH  11  12
ATOM     12  C   UNL A   1      40.133  20.401  26.341  1.00  0.00     0.129 A 
ATOM     13  C   UNL A   1      38.575  22.242  25.934  1.00  0.00    -0.026 A 
ATOM     14  C   UNL A   1      39.753  21.737  26.513  1.00  0.00     0.052 A 
ATOM     15  C   UNL A   1      37.784  21.371  25.169  1.00  0.00     0.044 A 
ATOM     16  C   UNL A   1      38.153  20.030  25.012  1.00  0.00     0.024 A 
ATOM     17  Cl  UNL A   1      36.329  21.896  24.401  1.00  0.00    -0.084 Cl
ATOM     18  C   UNL A   1      39.318  19.540  25.608  1.00  0.00     0.049 A 
BRANCH  13  19
ATOM     19  C   UNL A   1      38.198  23.681  26.198  1.00  0.00     0.034 C 
ATOM     20  C   UNL A   1      38.929  24.257  27.402  1.00  0.00     0.009 C 
ENDBRANCH  13  19
ENDBRANCH  11  12
ENDBRANCH   6  11
ENDBRANCH   3   5
ENDBRANCH   2   3
ENDBRANCH   1   2
BRANCH   1  21
ATOM     21  C   UNL A   1      44.824  23.885  26.431  1.00  0.00     0.275 C 
BRANCH  21  22
ATOM     22  O   UNL A   1      44.643  25.313  26.487  1.00  0.00    -0.458 OA
BRANCH  22  23
ATOM     23  C   UNL A   1      43.423  25.766  26.125  1.00  0.00     0.338 C 
ATOM     24  O   UNL A   1      42.803  25.512  25.106  1.00  0.00    -0.246 OA
BRANCH  23  25
ATOM     25  C   UNL A   1      42.867  26.584  27.212  1.00  0.00     0.060 A 
ATOM     26  C   UNL A   1      43.306  27.900  27.337  1.00  0.00     0.016 A 
ATOM     27  C   UNL A   1      42.022  26.027  28.172  1.00  0.00     0.016 A 
ATOM     28  C   UNL A   1      42.925  28.662  28.438  1.00  0.00     0.010 A 
ATOM     29  C   UNL A   1      41.608  26.807  29.261  1.00  0.00     0.010 A 
ATOM     30  C   UNL A   1      42.073  28.127  29.415  1.00  0.00    -0.014 A 
BRANCH  30  31
ATOM     31  C   UNL A   1      41.735  28.939  30.617  1.00  0.00     0.031 A 
ATOM     32  C   UNL A   1      40.526  29.841  30.610  1.00  0.00     0.074 A 
ATOM     33  C   UNL A   1      42.471  28.822  31.741  1.00  0.00     0.049 A 
ATOM     34  N   UNL A   1      40.112  30.675  31.530  1.00  0.00    -0.248 NA
ATOM     35  C   UNL A   1      39.675  29.804  29.410  1.00  0.00     0.031 C 
ATOM     36  C   UNL A   1      43.645  27.960  31.897  1.00  0.00     0.029 A 
ATOM     37  N   UNL A   1      42.332  29.415  32.971  1.00  0.00    -0.354 N 
ATOM     38  C   UNL A   1      38.972  31.280  31.012  1.00  0.00     0.074 A 
ATOM     39  C   UNL A   1      38.767  30.729  29.689  1.00  0.00     0.031 C 
ATOM     40  C   UNL A   1      44.097  28.056  33.157  1.00  0.00     0.029 A 
ATOM     41  C   UNL A   1      43.286  29.028  33.884  1.00  0.00     0.049 A 
ATOM     42  H   UNL A   1      41.616  30.058  33.182  1.00  0.00     0.167 HD
ATOM     43  C   UNL A   1      38.166  32.206  31.589  1.00  0.00     0.037 A 
ATOM     44  C   UNL A   1      43.502  29.428  35.153  1.00  0.00     0.037 A 
ATOM     45  C   UNL A   1      38.347  32.726  32.919  1.00  0.00     0.049 A 
ATOM     46  C   UNL A   1      42.600  30.466  35.761  1.00  0.00     0.074 A 
ATOM     47  C   UNL A   1      37.592  33.682  33.581  1.00  0.00     0.029 A 
ATOM     48  N   UNL A   1      39.337  32.322  33.802  1.00  0.00    -0.354 N 
ATOM     49  N   UNL A   1      41.562  31.070  35.233  1.00  0.00    -0.248 NA
ATOM     50  C   UNL A   1      42.906  30.890  37.136  1.00  0.00     0.031 C 
ATOM     51  C   UNL A   1      38.138  33.870  34.855  1.00  0.00     0.029 A 
ATOM     52  C   UNL A   1      39.212  33.007  35.000  1.00  0.00     0.049 A 
ATOM     53  H   UNL A   1      40.027  31.648  33.606  1.00  0.00     0.167 HD
ATOM     54  C   UNL A   1      41.092  31.940  36.210  1.00  0.00     0.074 A 
ATOM     55  C   UNL A   1      41.937  31.763  37.372  1.00  0.00     0.031 C 
ATOM     56  C   UNL A   1      40.061  32.818  36.147  1.00  0.00     0.037 A 
BRANCH  43  57
ATOM     57  C   UNL A   1      37.014  32.732  30.779  1.00  0.00     0.058 A 
ATOM     58  C   UNL A   1      37.192  33.726  29.804  1.00  0.00     0.135 A 
ATOM     59  C   UNL A   1      35.729  32.189  30.935  1.00  0.00     0.135 A 
ATOM     60  F   UNL A   1      38.396  34.292  29.627  1.00  0.00    -0.206 F 
ATOM     61  C   UNL A   1      36.133  34.170  29.019  1.00  0.00     0.059 A 
ATOM     62  C   UNL A   1      34.659  32.603  30.146  1.00  0.00     0.059 A 
ATOM     63  F   UNL A   1      35.505  31.238  31.855  1.00  0.00    -0.206 F 
ATOM     64  C   UNL A   1      34.870  33.601  29.196  1.00  0.00     0.060 A 
BRANCH  64  65
ATOM     65  S   UNL A   1      33.511  34.165  28.149  1.00  0.00     0.124 S 
ATOM     66  O   UNL A   1      32.987  32.901  27.645  1.00  0.00    -0.237 OA
ATOM     67  O   UNL A   1      32.655  34.870  29.100  1.00  0.00    -0.237 OA
ATOM     68  O   UNL A   1      34.171  35.011  27.160  1.00  0.00    -0.744 OA
ENDBRANCH  64  65
ENDBRANCH  43  57
BRANCH  44  69
ATOM     69  C   UNL A   1      44.651  28.881  35.924  1.00  0.00     0.058 A 
ATOM     70  C   UNL A   1      44.501  27.766  36.761  1.00  0.00     0.135 A 
ATOM     71  C   UNL A   1      45.917  29.483  35.856  1.00  0.00     0.135 A 
ATOM     72  F   UNL A   1      43.306  27.164  36.869  1.00  0.00    -0.206 F 
ATOM     73  C   UNL A   1      45.560  27.280  37.522  1.00  0.00     0.059 A 
ATOM     74  C   UNL A   1      46.997  28.998  36.586  1.00  0.00     0.059 A 
ATOM     75  F   UNL A   1      46.116  30.546  35.061  1.00  0.00    -0.206 F 
ATOM     76  C   UNL A   1      46.804  27.906  37.430  1.00  0.00     0.060 A 
BRANCH  76  77
ATOM     77  S   UNL A   1      48.185  27.261  38.397  1.00  0.00     0.124 S 
ATOM     78  O   UNL A   1      47.716  27.482  39.760  1.00  0.00    -0.237 OA
ATOM     79  O   UNL A   1      48.248  25.869  37.962  1.00  0.00    -0.237 OA
ATOM     80  O   UNL A   1      49.306  28.092  37.969  1.00  0.00    -0.744 OA
ENDBRANCH  76  77
ENDBRANCH  44  69
BRANCH  56  81
ATOM     81  C   UNL A   1      39.786  33.637  37.377  1.00  0.00     0.058 A 
ATOM     82  C   UNL A   1      40.456  34.846  37.617  1.00  0.00     0.135 A 
ATOM     83  C   UNL A   1      38.831  33.217  38.316  1.00  0.00     0.135 A 
ATOM     84  F   UNL A   1      41.382  35.288  36.750  1.00  0.00    -0.206 F 
ATOM     85  C   UNL A   1      40.216  35.594  38.763  1.00  0.00     0.059 A 
ATOM     86  C   UNL A   1      38.558  33.960  39.459  1.00  0.00     0.059 A 
ATOM     87  F   UNL A   1      38.154  32.072  38.127  1.00  0.00    -0.206 F 
ATOM     88  C   UNL A   1      39.267  35.140  39.682  1.00  0.00     0.060 A 
BRANCH  88  89
ATOM     89  S   UNL A   1      38.956  36.121  41.166  1.00  0.00     0.124 S 
ATOM     90  O   UNL A   1      37.768  35.468  41.704  1.00  0.00    -0.237 OA
ATOM     91  O   UNL A   1      40.184  35.934  41.932  1.00  0.00    -0.237 OA
ATOM     92  O   UNL A   1      38.750  37.468  40.643  1.00  0.00    -0.744 OA
ENDBRANCH  88  89
ENDBRANCH  56  81
ENDBRANCH  30  31
ENDBRANCH  23  25
ENDBRANCH  22  23
ENDBRANCH  21  22
ENDBRANCH   1  21
TORSDOF 17
ENDMDL
MODEL 3
REMARK VINA RESULT:     -10.5      2.753      4.104
REMARK SMILES CCc1cc(Oc2cncc(C(=O)OCCOC(=O)c3ccc(-c4c5nc(c(-c6c(F)cc(S(=O)(=O)[O-])cc6F)c6ccc([nH]6)c(-c6c(F)cc(S(=O)(=O)[O-])cc6F)c6nc(c(-c7c(F)cc(S(=O)(=O)[O-])cc7F)c7ccc4[nH]7)C=C6)C=C5)cc3)n2)ccc1Cl
REMARK SMILES IDX 15 1 14 2 12 3 13 4 11 5 7 6 8 7 86 8 9 9 10 10 6 11 5 12
REMARK SMILES IDX 3 13 4 14 89 15 88 16 90 17 87 18 2 19 1 20 16 21 17 22
REMARK SMILES IDX 18 23 19 24 20 25 21 26 85 27 22 28 84 29 23 30 24 31 25 32
REMARK SMILES IDX 78 33 26 34 83 35 77 36 79 37 27 38 82 39 76 40 75 41 28 43
REMARK SMILES IDX 62 44 41 45 61 46 42 47 45 48 60 49 80 50 43 51 44 52 59 54
REMARK SMILES IDX 81 55 46 56 29 57 30 58 39 59 31 60 32 61 38 62 40 63 33 64
REMARK SMILES IDX 34 65 35 66 36 67 37 68 63 69 64 70 73 71 65 72 66 73 72 74
REMARK SMILES IDX 74 75 67 76 68 77 69 78 70 79 71 80 47 81 48 82 57 83 49 84
REMARK SMILES IDX 50 85 56 86 58 87 51 88 52 89 53 90 54 91 55 92
REMARK H PARENT 79 42 45 53
REMARK Flexibility Score: inf
ROOT
ATOM      1  C   UNL A   1      39.639  21.596  26.396  1.00  0.00     0.275 C 
ENDROOT
BRANCH   1   2
ATOM      2  O   UNL A   1      38.372  22.033  25.871  1.00  0.00    -0.457 OA
BRANCH   2   3
ATOM      3  C   UNL A   1      37.612  21.074  25.277  1.00  0.00     0.358 C 
ATOM      4  O   UNL A   1      38.019  20.058  24.750  1.00  0.00    -0.244 OA
BRANCH   3   5
ATOM      5  C   UNL A   1      36.164  21.390  25.401  1.00  0.00     0.170 A 
ATOM      6  C   UNL A   1      34.448  22.728  26.113  1.00  0.00     0.238 A 
ATOM      7  C   UNL A   1      33.527  21.805  25.625  1.00  0.00     0.179 A 
ATOM      8  N   UNL A   1      35.783  22.549  26.001  1.00  0.00    -0.203 NA
ATOM      9  N   UNL A   1      33.904  20.649  25.026  1.00  0.00    -0.257 NA
ATOM     10  C   UNL A   1      35.244  20.467  24.918  1.00  0.00     0.147 A 
BRANCH   6  11
ATOM     11  O   UNL A   1      34.064  23.947  26.615  1.00  0.00    -0.437 OA
BRANCH  11  12
ATOM     12  C   UNL A   1      33.766  24.964  25.738  1.00  0.00     0.129 A 
ATOM     13  C   UNL A   1      32.447  26.999  25.421  1.00  0.00    -0.026 A 
ATOM     14  C   UNL A   1      32.878  25.929  26.226  1.00  0.00     0.052 A 
ATOM     15  C   UNL A   1      32.934  27.080  24.108  1.00  0.00     0.044 A 
ATOM     16  C   UNL A   1      33.808  26.105  23.612  1.00  0.00     0.024 A 
ATOM     17  Cl  UNL A   1      32.481  28.363  23.044  1.00  0.00    -0.084 Cl
ATOM     18  C   UNL A   1      34.214  25.040  24.420  1.00  0.00     0.049 A 
BRANCH  13  19
ATOM     19  C   UNL A   1      31.450  27.979  25.993  1.00  0.00     0.034 C 
ATOM     20  C   UNL A   1      32.045  28.818  27.115  1.00  0.00     0.009 C 
ENDBRANCH  13  19
ENDBRANCH  11  12
ENDBRANCH   6  11
ENDBRANCH   3   5
ENDBRANCH   2   3
ENDBRANCH   1   2
BRANCH   1  21
ATOM     21  C   UNL A   1      40.608  22.770  26.534  1.00  0.00     0.275 C 
BRANCH  21  22
ATOM     22  O   UNL A   1      39.883  24.013  26.584  1.00  0.00    -0.458 OA
BRANCH  22  23
ATOM     23  C   UNL A   1      40.594  25.122  26.281  1.00  0.00     0.338 C 
ATOM     24  O   UNL A   1      41.057  25.440  25.199  1.00  0.00    -0.246 OA
BRANCH  23  25
ATOM     25  C   UNL A   1      40.673  25.987  27.467  1.00  0.00     0.060 A 
ATOM     26  C   UNL A   1      39.700  25.844  28.453  1.00  0.00     0.016 A 
ATOM     27  C   UNL A   1      41.616  27.011  27.547  1.00  0.00     0.016 A 
ATOM     28  C   UNL A   1      39.646  26.741  29.517  1.00  0.00     0.010 A 
ATOM     29  C   UNL A   1      41.584  27.892  28.638  1.00  0.00     0.010 A 
ATOM     30  C   UNL A   1      40.585  27.777  29.623  1.00  0.00    -0.014 A 
BRANCH  30  31
ATOM     31  C   UNL A   1      40.464  28.764  30.733  1.00  0.00     0.031 A 
ATOM     32  C   UNL A   1      41.413  28.711  31.904  1.00  0.00     0.074 A 
ATOM     33  C   UNL A   1      39.547  29.749  30.663  1.00  0.00     0.049 A 
ATOM     34  N   UNL A   1      41.421  29.435  32.994  1.00  0.00    -0.248 NA
ATOM     35  C   UNL A   1      42.491  27.711  31.842  1.00  0.00     0.031 C 
ATOM     36  C   UNL A   1      38.589  29.938  29.572  1.00  0.00     0.029 A 
ATOM     37  N   UNL A   1      39.279  30.789  31.520  1.00  0.00    -0.354 N 
ATOM     38  C   UNL A   1      42.482  28.963  33.759  1.00  0.00     0.074 A 
ATOM     39  C   UNL A   1      43.087  27.879  33.015  1.00  0.00     0.031 C 
ATOM     40  C   UNL A   1      37.864  31.043  29.807  1.00  0.00     0.029 A 
ATOM     41  C   UNL A   1      38.260  31.609  31.093  1.00  0.00     0.049 A 
ATOM     42  H   UNL A   1      39.770  30.935  32.361  1.00  0.00     0.167 HD
ATOM     43  C   UNL A   1      42.916  29.398  34.967  1.00  0.00     0.037 A 
ATOM     44  C   UNL A   1      37.690  32.680  31.681  1.00  0.00     0.037 A 
ATOM     45  C   UNL A   1      42.340  30.502  35.691  1.00  0.00     0.049 A 
ATOM     46  C   UNL A   1      38.183  33.131  33.028  1.00  0.00     0.074 A 
ATOM     47  C   UNL A   1      42.700  31.001  36.932  1.00  0.00     0.029 A 
ATOM     48  N   UNL A   1      41.297  31.292  35.232  1.00  0.00    -0.354 N 
ATOM     49  N   UNL A   1      39.150  32.633  33.762  1.00  0.00    -0.248 NA
ATOM     50  C   UNL A   1      37.499  34.282  33.636  1.00  0.00     0.031 C 
ATOM     51  C   UNL A   1      41.862  32.081  37.232  1.00  0.00     0.029 A 
ATOM     52  C   UNL A   1      41.003  32.275  36.164  1.00  0.00     0.049 A 
ATOM     53  H   UNL A   1      40.834  31.173  34.372  1.00  0.00     0.167 HD
ATOM     54  C   UNL A   1      39.191  33.411  34.914  1.00  0.00     0.074 A 
ATOM     55  C   UNL A   1      38.174  34.432  34.767  1.00  0.00     0.031 C 
ATOM     56  C   UNL A   1      39.989  33.284  36.002  1.00  0.00     0.037 A 
BRANCH  43  57
ATOM     57  C   UNL A   1      44.070  28.670  35.600  1.00  0.00     0.058 A 
ATOM     58  C   UNL A   1      45.398  29.079  35.400  1.00  0.00     0.135 A 
ATOM     59  C   UNL A   1      43.840  27.591  36.469  1.00  0.00     0.135 A 
ATOM     60  F   UNL A   1      45.674  30.093  34.565  1.00  0.00    -0.206 F 
ATOM     61  C   UNL A   1      46.458  28.438  36.032  1.00  0.00     0.059 A 
ATOM     62  C   UNL A   1      44.883  26.948  37.128  1.00  0.00     0.059 A 
ATOM     63  F   UNL A   1      42.589  27.159  36.692  1.00  0.00    -0.206 F 
ATOM     64  C   UNL A   1      46.190  27.374  36.897  1.00  0.00     0.060 A 
BRANCH  64  65
ATOM     65  S   UNL A   1      47.573  26.569  37.734  1.00  0.00     0.124 S 
ATOM     66  O   UNL A   1      48.468  27.698  37.968  1.00  0.00    -0.237 OA
ATOM     67  O   UNL A   1      46.937  26.008  38.922  1.00  0.00    -0.237 OA
ATOM     68  O   UNL A   1      48.039  25.590  36.757  1.00  0.00    -0.744 OA
ENDBRANCH  64  65
ENDBRANCH  43  57
BRANCH  44  69
ATOM     69  C   UNL A   1      36.553  33.378  31.022  1.00  0.00     0.058 A 
ATOM     70  C   UNL A   1      36.749  34.185  29.892  1.00  0.00     0.135 A 
ATOM     71  C   UNL A   1      35.248  33.268  31.529  1.00  0.00     0.135 A 
ATOM     72  F   UNL A   1      37.980  34.330  29.377  1.00  0.00    -0.206 F 
ATOM     73  C   UNL A   1      35.697  34.878  29.302  1.00  0.00     0.059 A 
ATOM     74  C   UNL A   1      34.176  33.929  30.939  1.00  0.00     0.059 A 
ATOM     75  F   UNL A   1      35.005  32.499  32.602  1.00  0.00    -0.206 F 
ATOM     76  C   UNL A   1      34.414  34.746  29.836  1.00  0.00     0.060 A 
BRANCH  76  77
ATOM     77  S   UNL A   1      33.043  35.624  29.054  1.00  0.00     0.124 S 
ATOM     78  O   UNL A   1      32.441  34.567  28.250  1.00  0.00    -0.237 OA
ATOM     79  O   UNL A   1      32.264  36.074  30.203  1.00  0.00    -0.237 OA
ATOM     80  O   UNL A   1      33.713  36.685  28.308  1.00  0.00    -0.744 OA
ENDBRANCH  76  77
ENDBRANCH  44  69
BRANCH  56  81
ATOM     81  C   UNL A   1      39.801  34.285  37.106  1.00  0.00     0.058 A 
ATOM     82  C   UNL A   1      38.988  34.008  38.216  1.00  0.00     0.135 A 
ATOM     83  C   UNL A   1      40.452  35.528  37.063  1.00  0.00     0.135 A 
ATOM     84  F   UNL A   1      38.340  32.835  38.301  1.00  0.00    -0.206 F 
ATOM     85  C   UNL A   1      38.798  34.941  39.229  1.00  0.00     0.059 A 
ATOM     86  C   UNL A   1      40.295  36.468  38.076  1.00  0.00     0.059 A 
ATOM     87  F   UNL A   1      41.249  35.838  36.028  1.00  0.00    -0.206 F 
ATOM     88  C   UNL A   1      39.453  36.172  39.147  1.00  0.00     0.060 A 
BRANCH  88  89
ATOM     89  S   UNL A   1      39.207  37.376  40.470  1.00  0.00     0.124 S 
ATOM     90  O   UNL A   1      38.737  36.524  41.558  1.00  0.00    -0.237 OA
ATOM     91  O   UNL A   1      40.542  37.941  40.637  1.00  0.00    -0.237 OA
ATOM     92  O   UNL A   1      38.212  38.289  39.914  1.00  0.00    -0.744 OA
ENDBRANCH  88  89
ENDBRANCH  56  81
ENDBRANCH  30  31
ENDBRANCH  23  25
ENDBRANCH  22  23
ENDBRANCH  21  22
ENDBRANCH   1  21
TORSDOF 17
ENDMDL
