MODEL 1
REMARK VINA RESULT:     -10.8      0.000      0.000
REMARK SMILES C[C@@H](C(=O)OCCOC(=O)c1ccc(-c2c3nc(c(-c4c(F)cc(S(=O)(=O)[O-])cc4F)c4ccc([nH]4)c(-c4c(F)cc(S(=O)(=O)[O-])cc4F)c4nc(c(-c5c(F)cc(S(=O)(=O)[O-])cc5F)c5ccc2[nH]5)C=C4)C=C3)cc1)[C@@H](C)C(=O)c1ccc(Br)cc1
REMARK SMILES IDX 6 1 5 2 3 3 4 4 2 5 1 6 77 7 78 8 79 9 80 10 81 11 82 12
REMARK SMILES IDX 87 13 83 14 86 15 84 16 85 17 7 18 8 19 9 20 10 21 11 22
REMARK SMILES IDX 12 23 76 24 13 25 75 26 14 27 15 28 16 29 69 30 17 31 74 32
REMARK SMILES IDX 68 33 70 34 18 35 73 36 67 37 66 38 19 40 53 41 32 42 52 43
REMARK SMILES IDX 33 44 36 45 51 46 71 47 34 48 35 49 50 51 72 52 37 53 20 54
REMARK SMILES IDX 21 55 30 56 22 57 23 58 29 59 31 60 24 61 25 62 26 63 27 64
REMARK SMILES IDX 28 65 54 66 55 67 64 68 56 69 57 70 63 71 65 72 58 73 59 74
REMARK SMILES IDX 60 75 61 76 62 77 38 78 39 79 48 80 40 81 41 82 47 83 49 84
REMARK SMILES IDX 42 85 43 86 44 87 45 88 46 89
REMARK H PARENT 70 39 36 50
REMARK Flexibility Score: inf
ROOT
ATOM      1  C   UNL A   1      31.925  29.527  26.693  1.00  0.00     0.274 C 
ENDROOT
BRANCH   1   2
ATOM      2  O   UNL A   1      31.538  28.696  25.579  1.00  0.00    -0.462 OA
BRANCH   2   3
ATOM      3  C   UNL A   1      31.396  27.365  25.830  1.00  0.00     0.309 C 
ATOM      4  O   UNL A   1      30.998  26.914  26.893  1.00  0.00    -0.252 OA
BRANCH   3   5
ATOM      5  C   UNL A   1      31.919  26.498  24.678  1.00  0.00     0.106 C 
ATOM      6  C   UNL A   1      33.126  27.154  23.984  1.00  0.00     0.021 C 
BRANCH   5   7
ATOM      7  C   UNL A   1      30.832  26.132  23.632  1.00  0.00     0.072 C 
ATOM      8  C   UNL A   1      30.619  24.623  23.474  1.00  0.00     0.017 C 
BRANCH   7   9
ATOM      9  C   UNL A   1      29.461  26.820  23.705  1.00  0.00     0.166 C 
ATOM     10  O   UNL A   1      28.569  26.328  24.398  1.00  0.00    -0.294 OA
BRANCH   9  11
ATOM     11  C   UNL A   1      29.187  28.145  23.071  1.00  0.00     0.018 A 
ATOM     12  C   UNL A   1      27.870  28.628  23.128  1.00  0.00     0.013 A 
ATOM     13  C   UNL A   1      30.151  28.881  22.377  1.00  0.00     0.013 A 
ATOM     14  C   UNL A   1      27.522  29.829  22.505  1.00  0.00     0.016 A 
ATOM     15  C   UNL A   1      29.801  30.077  21.742  1.00  0.00     0.016 A 
ATOM     16  C   UNL A   1      28.491  30.546  21.809  1.00  0.00     0.018 A 
ATOM     17  Br  UNL A   1      28.028  32.155  20.932  1.00  0.00    -0.051 Br
ENDBRANCH   9  11
ENDBRANCH   7   9
ENDBRANCH   5   7
ENDBRANCH   3   5
ENDBRANCH   2   3
ENDBRANCH   1   2
BRANCH   1  18
ATOM     18  C   UNL A   1      33.418  29.821  26.614  1.00  0.00     0.275 C 
BRANCH  18  19
ATOM     19  O   UNL A   1      34.006  29.533  27.893  1.00  0.00    -0.458 OA
BRANCH  19  20
ATOM     20  C   UNL A   1      34.809  30.487  28.409  1.00  0.00     0.338 C 
ATOM     21  O   UNL A   1      34.481  31.603  28.794  1.00  0.00    -0.246 OA
BRANCH  20  22
ATOM     22  C   UNL A   1      36.188  29.977  28.458  1.00  0.00     0.060 A 
ATOM     23  C   UNL A   1      36.692  29.465  29.653  1.00  0.00     0.016 A 
ATOM     24  C   UNL A   1      37.012  30.078  27.338  1.00  0.00     0.016 A 
ATOM     25  C   UNL A   1      38.033  29.103  29.750  1.00  0.00     0.010 A 
ATOM     26  C   UNL A   1      38.340  29.642  27.418  1.00  0.00     0.010 A 
ATOM     27  C   UNL A   1      38.873  29.174  28.633  1.00  0.00    -0.014 A 
BRANCH  27  28
ATOM     28  C   UNL A   1      40.316  28.826  28.752  1.00  0.00     0.031 A 
ATOM     29  C   UNL A   1      41.293  29.870  29.221  1.00  0.00     0.074 A 
ATOM     30  C   UNL A   1      40.756  27.584  28.471  1.00  0.00     0.049 A 
ATOM     31  N   UNL A   1      42.601  29.844  29.215  1.00  0.00    -0.248 NA
ATOM     32  C   UNL A   1      40.719  31.110  29.767  1.00  0.00     0.031 C 
ATOM     33  C   UNL A   1      39.915  26.448  28.089  1.00  0.00     0.029 A 
ATOM     34  N   UNL A   1      42.031  27.067  28.466  1.00  0.00    -0.354 N 
ATOM     35  C   UNL A   1      43.006  31.077  29.712  1.00  0.00     0.074 A 
ATOM     36  C   UNL A   1      41.806  31.828  30.010  1.00  0.00     0.031 C 
ATOM     37  C   UNL A   1      40.692  25.369  27.900  1.00  0.00     0.029 A 
ATOM     38  C   UNL A   1      42.090  25.749  28.078  1.00  0.00     0.049 A 
ATOM     39  H   UNL A   1      42.825  27.591  28.718  1.00  0.00     0.167 HD
ATOM     40  C   UNL A   1      44.265  31.540  29.900  1.00  0.00     0.037 A 
ATOM     41  C   UNL A   1      43.150  24.950  27.847  1.00  0.00     0.037 A 
ATOM     42  C   UNL A   1      45.457  30.778  29.642  1.00  0.00     0.049 A 
ATOM     43  C   UNL A   1      44.540  25.501  28.013  1.00  0.00     0.074 A 
ATOM     44  C   UNL A   1      46.778  31.170  29.772  1.00  0.00     0.029 A 
ATOM     45  N   UNL A   1      45.473  29.457  29.217  1.00  0.00    -0.354 N 
ATOM     46  N   UNL A   1      44.911  26.697  28.398  1.00  0.00    -0.248 NA
ATOM     47  C   UNL A   1      45.655  24.599  27.691  1.00  0.00     0.031 C 
ATOM     48  C   UNL A   1      47.593  30.092  29.405  1.00  0.00     0.029 A 
ATOM     49  C   UNL A   1      46.779  29.020  29.076  1.00  0.00     0.049 A 
ATOM     50  H   UNL A   1      44.672  28.911  29.042  1.00  0.00     0.167 HD
ATOM     51  C   UNL A   1      46.301  26.691  28.371  1.00  0.00     0.074 A 
ATOM     52  C   UNL A   1      46.706  25.366  27.949  1.00  0.00     0.031 C 
ATOM     53  C   UNL A   1      47.164  27.696  28.661  1.00  0.00     0.037 A 
BRANCH  40  54
ATOM     54  C   UNL A   1      44.411  32.959  30.371  1.00  0.00     0.058 A 
ATOM     55  C   UNL A   1      44.447  34.038  29.474  1.00  0.00     0.135 A 
ATOM     56  C   UNL A   1      44.512  33.241  31.743  1.00  0.00     0.135 A 
ATOM     57  F   UNL A   1      44.377  33.821  28.151  1.00  0.00    -0.206 F 
ATOM     58  C   UNL A   1      44.607  35.346  29.920  1.00  0.00     0.059 A 
ATOM     59  C   UNL A   1      44.652  34.542  32.213  1.00  0.00     0.059 A 
ATOM     60  F   UNL A   1      44.486  32.243  32.640  1.00  0.00    -0.206 F 
ATOM     61  C   UNL A   1      44.715  35.588  31.292  1.00  0.00     0.060 A 
BRANCH  61  62
ATOM     62  S   UNL A   1      44.939  37.286  31.861  1.00  0.00     0.124 S 
ATOM     63  O   UNL A   1      44.354  38.041  30.757  1.00  0.00    -0.237 OA
ATOM     64  O   UNL A   1      44.183  37.303  33.109  1.00  0.00    -0.237 OA
ATOM     65  O   UNL A   1      46.386  37.407  32.007  1.00  0.00    -0.744 OA
ENDBRANCH  61  62
ENDBRANCH  40  54
BRANCH  41  66
ATOM     66  C   UNL A   1      42.937  23.552  27.383  1.00  0.00     0.058 A 
ATOM     67  C   UNL A   1      42.646  22.523  28.289  1.00  0.00     0.135 A 
ATOM     68  C   UNL A   1      43.016  23.223  26.021  1.00  0.00     0.135 A 
ATOM     69  F   UNL A   1      42.574  22.786  29.603  1.00  0.00    -0.206 F 
ATOM     70  C   UNL A   1      42.450  21.213  27.864  1.00  0.00     0.059 A 
ATOM     71  C   UNL A   1      42.800  21.926  25.569  1.00  0.00     0.059 A 
ATOM     72  F   UNL A   1      43.287  24.173  25.113  1.00  0.00    -0.206 F 
ATOM     73  C   UNL A   1      42.526  20.924  26.500  1.00  0.00     0.060 A 
BRANCH  73  74
ATOM     74  S   UNL A   1      42.219  19.233  25.945  1.00  0.00     0.124 S 
ATOM     75  O   UNL A   1      40.775  19.245  25.750  1.00  0.00    -0.237 OA
ATOM     76  O   UNL A   1      43.026  19.153  24.731  1.00  0.00    -0.237 OA
ATOM     77  O   UNL A   1      42.701  18.424  27.061  1.00  0.00    -0.744 OA
ENDBRANCH  73  74
ENDBRANCH  41  66
BRANCH  53  78
ATOM     78  C   UNL A   1      48.631  27.396  28.554  1.00  0.00     0.058 A 
ATOM     79  C   UNL A   1      49.340  27.621  27.364  1.00  0.00     0.135 A 
ATOM     80  C   UNL A   1      49.346  26.925  29.668  1.00  0.00     0.135 A 
ATOM     81  F   UNL A   1      48.700  28.064  26.271  1.00  0.00    -0.206 F 
ATOM     82  C   UNL A   1      50.706  27.377  27.277  1.00  0.00     0.059 A 
ATOM     83  C   UNL A   1      50.716  26.692  29.608  1.00  0.00     0.059 A 
ATOM     84  F   UNL A   1      48.714  26.701  30.830  1.00  0.00    -0.206 F 
ATOM     85  C   UNL A   1      51.386  26.912  28.404  1.00  0.00     0.060 A 
BRANCH  85  86
ATOM     86  S   UNL A   1      53.168  26.636  28.294  1.00  0.00     0.124 S 
ATOM     87  O   UNL A   1      53.242  25.620  27.250  1.00  0.00    -0.237 OA
ATOM     88  O   UNL A   1      53.671  27.957  27.932  1.00  0.00    -0.237 OA
ATOM     89  O   UNL A   1      53.523  26.185  29.636  1.00  0.00    -0.744 OA
ENDBRANCH  85  86
ENDBRANCH  53  78
ENDBRANCH  27  28
ENDBRANCH  20  22
ENDBRANCH  19  20
ENDBRANCH  18  19
ENDBRANCH   1  18
TORSDOF 17
ENDMDL
MODEL 2
REMARK VINA RESULT:     -10.6      6.391     11.688
REMARK SMILES C[C@@H](C(=O)OCCOC(=O)c1ccc(-c2c3nc(c(-c4c(F)cc(S(=O)(=O)[O-])cc4F)c4ccc([nH]4)c(-c4c(F)cc(S(=O)(=O)[O-])cc4F)c4nc(c(-c5c(F)cc(S(=O)(=O)[O-])cc5F)c5ccc2[nH]5)C=C4)C=C3)cc1)[C@@H](C)C(=O)c1ccc(Br)cc1
REMARK SMILES IDX 6 1 5 2 3 3 4 4 2 5 1 6 77 7 78 8 79 9 80 10 81 11 82 12
REMARK SMILES IDX 87 13 83 14 86 15 84 16 85 17 7 18 8 19 9 20 10 21 11 22
REMARK SMILES IDX 12 23 76 24 13 25 75 26 14 27 15 28 16 29 69 30 17 31 74 32
REMARK SMILES IDX 68 33 70 34 18 35 73 36 67 37 66 38 19 40 53 41 32 42 52 43
REMARK SMILES IDX 33 44 36 45 51 46 71 47 34 48 35 49 50 51 72 52 37 53 20 54
REMARK SMILES IDX 21 55 30 56 22 57 23 58 29 59 31 60 24 61 25 62 26 63 27 64
REMARK SMILES IDX 28 65 54 66 55 67 64 68 56 69 57 70 63 71 65 72 58 73 59 74
REMARK SMILES IDX 60 75 61 76 62 77 38 78 39 79 48 80 40 81 41 82 47 83 49 84
REMARK SMILES IDX 42 85 43 86 44 87 45 88 46 89
REMARK H PARENT 70 39 36 50
REMARK Flexibility Score: inf
ROOT
ATOM      1  C   UNL A   1      38.292  21.905  25.295  1.00  0.00     0.274 C 
ENDROOT
BRANCH   1   2
ATOM      2  O   UNL A   1      36.966  22.473  25.283  1.00  0.00    -0.462 OA
BRANCH   2   3
ATOM      3  C   UNL A   1      35.956  21.658  24.870  1.00  0.00     0.309 C 
ATOM      4  O   UNL A   1      35.923  20.456  25.087  1.00  0.00    -0.252 OA
BRANCH   3   5
ATOM      5  C   UNL A   1      34.939  22.394  23.989  1.00  0.00     0.106 C 
ATOM      6  C   UNL A   1      35.210  23.909  23.964  1.00  0.00     0.021 C 
BRANCH   5   7
ATOM      7  C   UNL A   1      33.463  22.119  24.381  1.00  0.00     0.072 C 
ATOM      8  C   UNL A   1      32.618  23.389  24.510  1.00  0.00     0.017 C 
BRANCH   7   9
ATOM      9  C   UNL A   1      32.663  21.070  23.595  1.00  0.00     0.166 C 
ATOM     10  O   UNL A   1      32.090  21.397  22.554  1.00  0.00    -0.294 OA
BRANCH   9  11
ATOM     11  C   UNL A   1      32.646  19.622  23.964  1.00  0.00     0.018 A 
ATOM     12  C   UNL A   1      32.608  19.305  25.332  1.00  0.00     0.013 A 
ATOM     13  C   UNL A   1      32.734  18.588  23.030  1.00  0.00     0.013 A 
ATOM     14  C   UNL A   1      32.653  17.975  25.758  1.00  0.00     0.016 A 
ATOM     15  C   UNL A   1      32.793  17.257  23.455  1.00  0.00     0.016 A 
ATOM     16  C   UNL A   1      32.750  16.956  24.815  1.00  0.00     0.018 A 
ATOM     17  Br  UNL A   1      32.847  15.154  25.377  1.00  0.00    -0.051 Br
ENDBRANCH   9  11
ENDBRANCH   7   9
ENDBRANCH   5   7
ENDBRANCH   3   5
ENDBRANCH   2   3
ENDBRANCH   1   2
BRANCH   1  18
ATOM     18  C   UNL A   1      39.047  22.401  26.522  1.00  0.00     0.275 C 
BRANCH  18  19
ATOM     19  O   UNL A   1      39.291  23.809  26.368  1.00  0.00    -0.458 OA
BRANCH  19  20
ATOM     20  C   UNL A   1      40.521  24.243  26.710  1.00  0.00     0.338 C 
ATOM     21  O   UNL A   1      41.597  23.789  26.340  1.00  0.00    -0.246 OA
BRANCH  20  22
ATOM     22  C   UNL A   1      40.388  25.391  27.620  1.00  0.00     0.060 A 
ATOM     23  C   UNL A   1      41.317  26.429  27.561  1.00  0.00     0.016 A 
ATOM     24  C   UNL A   1      39.386  25.405  28.589  1.00  0.00     0.016 A 
ATOM     25  C   UNL A   1      41.283  27.456  28.502  1.00  0.00     0.010 A 
ATOM     26  C   UNL A   1      39.309  26.477  29.486  1.00  0.00     0.010 A 
ATOM     27  C   UNL A   1      40.273  27.502  29.469  1.00  0.00    -0.014 A 
BRANCH  27  28
ATOM     28  C   UNL A   1      40.264  28.577  30.498  1.00  0.00     0.031 A 
ATOM     29  C   UNL A   1      41.246  28.522  31.637  1.00  0.00     0.074 A 
ATOM     30  C   UNL A   1      39.407  29.614  30.413  1.00  0.00     0.049 A 
ATOM     31  N   UNL A   1      41.290  29.236  32.732  1.00  0.00    -0.248 NA
ATOM     32  C   UNL A   1      42.323  27.524  31.527  1.00  0.00     0.031 C 
ATOM     33  C   UNL A   1      38.459  29.847  29.322  1.00  0.00     0.029 A 
ATOM     34  N   UNL A   1      39.198  30.674  31.264  1.00  0.00    -0.354 N 
ATOM     35  C   UNL A   1      42.367  28.746  33.461  1.00  0.00     0.074 A 
ATOM     36  C   UNL A   1      42.950  27.673  32.685  1.00  0.00     0.031 C 
ATOM     37  C   UNL A   1      37.780  30.981  29.564  1.00  0.00     0.029 A 
ATOM     38  C   UNL A   1      38.193  31.519  30.856  1.00  0.00     0.049 A 
ATOM     39  H   UNL A   1      39.720  30.814  32.087  1.00  0.00     0.167 HD
ATOM     40  C   UNL A   1      42.824  29.152  34.669  1.00  0.00     0.037 A 
ATOM     41  C   UNL A   1      37.635  32.580  31.472  1.00  0.00     0.037 A 
ATOM     42  C   UNL A   1      42.268  30.245  35.421  1.00  0.00     0.049 A 
ATOM     43  C   UNL A   1      38.124  32.983  32.836  1.00  0.00     0.074 A 
ATOM     44  C   UNL A   1      42.642  30.714  36.669  1.00  0.00     0.029 A 
ATOM     45  N   UNL A   1      41.228  31.054  34.986  1.00  0.00    -0.354 N 
ATOM     46  N   UNL A   1      39.085  32.456  33.555  1.00  0.00    -0.248 NA
ATOM     47  C   UNL A   1      37.439  34.111  33.482  1.00  0.00     0.031 C 
ATOM     48  C   UNL A   1      41.814  31.793  36.998  1.00  0.00     0.029 A 
ATOM     49  C   UNL A   1      40.944  32.015  35.942  1.00  0.00     0.049 A 
ATOM     50  H   UNL A   1      40.760  30.958  34.126  1.00  0.00     0.167 HD
ATOM     51  C   UNL A   1      39.124  33.190  34.735  1.00  0.00     0.074 A 
ATOM     52  C   UNL A   1      38.102  34.211  34.626  1.00  0.00     0.031 C 
ATOM     53  C   UNL A   1      39.928  33.028  35.815  1.00  0.00     0.037 A 
BRANCH  40  54
ATOM     54  C   UNL A   1      43.961  28.376  35.269  1.00  0.00     0.058 A 
ATOM     55  C   UNL A   1      45.301  28.704  35.009  1.00  0.00     0.135 A 
ATOM     56  C   UNL A   1      43.704  27.291  36.122  1.00  0.00     0.135 A 
ATOM     57  F   UNL A   1      45.602  29.719  34.183  1.00  0.00    -0.206 F 
ATOM     58  C   UNL A   1      46.347  27.963  35.551  1.00  0.00     0.059 A 
ATOM     59  C   UNL A   1      44.733  26.549  36.691  1.00  0.00     0.059 A 
ATOM     60  F   UNL A   1      42.439  26.936  36.399  1.00  0.00    -0.206 F 
ATOM     61  C   UNL A   1      46.052  26.883  36.387  1.00  0.00     0.060 A 
BRANCH  61  62
ATOM     62  S   UNL A   1      47.415  25.918  37.072  1.00  0.00     0.124 S 
ATOM     63  O   UNL A   1      47.097  25.937  38.496  1.00  0.00    -0.237 OA
ATOM     64  O   UNL A   1      47.255  24.628  36.406  1.00  0.00    -0.237 OA
ATOM     65  O   UNL A   1      48.599  26.677  36.683  1.00  0.00    -0.744 OA
ENDBRANCH  61  62
ENDBRANCH  40  54
BRANCH  41  66
ATOM     66  C   UNL A   1      36.511  33.308  30.823  1.00  0.00     0.058 A 
ATOM     67  C   UNL A   1      35.193  33.155  31.274  1.00  0.00     0.135 A 
ATOM     68  C   UNL A   1      36.739  34.173  29.742  1.00  0.00     0.135 A 
ATOM     69  F   UNL A   1      34.923  32.327  32.294  1.00  0.00    -0.206 F 
ATOM     70  C   UNL A   1      34.135  33.829  30.669  1.00  0.00     0.059 A 
ATOM     71  C   UNL A   1      35.702  34.877  29.138  1.00  0.00     0.059 A 
ATOM     72  F   UNL A   1      37.984  34.357  29.277  1.00  0.00    -0.206 F 
ATOM     73  C   UNL A   1      34.400  34.690  29.603  1.00  0.00     0.060 A 
BRANCH  73  74
ATOM     74  S   UNL A   1      33.033  35.603  28.854  1.00  0.00     0.124 S 
ATOM     75  O   UNL A   1      32.325  36.089  30.032  1.00  0.00    -0.237 OA
ATOM     76  O   UNL A   1      33.730  36.615  28.066  1.00  0.00    -0.237 OA
ATOM     77  O   UNL A   1      32.339  34.583  28.074  1.00  0.00    -0.744 OA
ENDBRANCH  73  74
ENDBRANCH  41  66
BRANCH  53  78
ATOM     78  C   UNL A   1      39.751  33.988  36.955  1.00  0.00     0.058 A 
ATOM     79  C   UNL A   1      38.984  33.654  38.082  1.00  0.00     0.135 A 
ATOM     80  C   UNL A   1      40.396  35.235  36.944  1.00  0.00     0.135 A 
ATOM     81  F   UNL A   1      38.344  32.476  38.137  1.00  0.00    -0.206 F 
ATOM     82  C   UNL A   1      38.851  34.529  39.154  1.00  0.00     0.059 A 
ATOM     83  C   UNL A   1      40.292  36.119  38.013  1.00  0.00     0.059 A 
ATOM     84  F   UNL A   1      41.147  35.598  35.891  1.00  0.00    -0.206 F 
ATOM     85  C   UNL A   1      39.508  35.761  39.111  1.00  0.00     0.060 A 
BRANCH  85  86
ATOM     86  S   UNL A   1      39.363  36.876  40.524  1.00  0.00     0.124 S 
ATOM     87  O   UNL A   1      38.825  38.077  39.895  1.00  0.00    -0.237 OA
ATOM     88  O   UNL A   1      38.447  36.155  41.403  1.00  0.00    -0.237 OA
ATOM     89  O   UNL A   1      40.735  36.982  41.012  1.00  0.00    -0.744 OA
ENDBRANCH  85  86
ENDBRANCH  53  78
ENDBRANCH  27  28
ENDBRANCH  20  22
ENDBRANCH  19  20
ENDBRANCH  18  19
ENDBRANCH   1  18
TORSDOF 17
ENDMDL
MODEL 3
REMARK VINA RESULT:     -10.4      4.169      8.586
REMARK SMILES C[C@@H](C(=O)OCCOC(=O)c1ccc(-c2c3nc(c(-c4c(F)cc(S(=O)(=O)[O-])cc4F)c4ccc([nH]4)c(-c4c(F)cc(S(=O)(=O)[O-])cc4F)c4nc(c(-c5c(F)cc(S(=O)(=O)[O-])cc5F)c5ccc2[nH]5)C=C4)C=C3)cc1)[C@@H](C)C(=O)c1ccc(Br)cc1
REMARK SMILES IDX 6 1 5 2 3 3 4 4 2 5 1 6 77 7 78 8 79 9 80 10 81 11 82 12
REMARK SMILES IDX 87 13 83 14 86 15 84 16 85 17 7 18 8 19 9 20 10 21 11 22
REMARK SMILES IDX 12 23 76 24 13 25 75 26 14 27 15 28 16 29 69 30 17 31 74 32
REMARK SMILES IDX 68 33 70 34 18 35 73 36 67 37 66 38 19 40 53 41 32 42 52 43
REMARK SMILES IDX 33 44 36 45 51 46 71 47 34 48 35 49 50 51 72 52 37 53 20 54
REMARK SMILES IDX 21 55 30 56 22 57 23 58 29 59 31 60 24 61 25 62 26 63 27 64
REMARK SMILES IDX 28 65 54 66 55 67 64 68 56 69 57 70 63 71 65 72 58 73 59 74
REMARK SMILES IDX 60 75 61 76 62 77 38 78 39 79 48 80 40 81 41 82 47 83 49 84
REMARK SMILES IDX 42 85 43 86 44 87 45 88 46 89
REMARK H PARENT 70 39 36 50
REMARK Flexibility Score: inf
ROOT
ATOM      1  C   UNL A   1      37.959  20.971  25.186  1.00  0.00     0.274 C 
ENDROOT
BRANCH   1   2
ATOM      2  O   UNL A   1      36.610  20.489  25.016  1.00  0.00    -0.462 OA
BRANCH   2   3
ATOM      3  C   UNL A   1      35.607  21.356  25.329  1.00  0.00     0.309 C 
ATOM      4  O   UNL A   1      35.177  21.513  26.461  1.00  0.00    -0.252 OA
BRANCH   3   5
ATOM      5  C   UNL A   1      34.993  22.007  24.084  1.00  0.00     0.106 C 
ATOM      6  C   UNL A   1      35.647  23.367  23.781  1.00  0.00     0.021 C 
BRANCH   5   7
ATOM      7  C   UNL A   1      33.450  22.157  24.159  1.00  0.00     0.072 C 
ATOM      8  C   UNL A   1      32.950  23.544  23.741  1.00  0.00     0.017 C 
BRANCH   7   9
ATOM      9  C   UNL A   1      32.561  21.092  23.501  1.00  0.00     0.166 C 
ATOM     10  O   UNL A   1      31.864  21.396  22.532  1.00  0.00    -0.294 OA
BRANCH   9  11
ATOM     11  C   UNL A   1      32.594  19.653  23.902  1.00  0.00     0.018 A 
ATOM     12  C   UNL A   1      32.563  19.365  25.276  1.00  0.00     0.013 A 
ATOM     13  C   UNL A   1      32.719  18.602  22.990  1.00  0.00     0.013 A 
ATOM     14  C   UNL A   1      32.652  18.046  25.731  1.00  0.00     0.016 A 
ATOM     15  C   UNL A   1      32.822  17.283  23.444  1.00  0.00     0.016 A 
ATOM     16  C   UNL A   1      32.786  17.011  24.810  1.00  0.00     0.018 A 
ATOM     17  Br  UNL A   1      32.944  15.226  25.411  1.00  0.00    -0.051 Br
ENDBRANCH   9  11
ENDBRANCH   7   9
ENDBRANCH   5   7
ENDBRANCH   3   5
ENDBRANCH   2   3
ENDBRANCH   1   2
BRANCH   1  18
ATOM     18  C   UNL A   1      38.900  19.790  25.393  1.00  0.00     0.275 C 
BRANCH  18  19
ATOM     19  O   UNL A   1      39.834  20.129  26.431  1.00  0.00    -0.458 OA
BRANCH  19  20
ATOM     20  C   UNL A   1      41.133  19.875  26.170  1.00  0.00     0.338 C 
ATOM     21  O   UNL A   1      41.616  18.827  25.758  1.00  0.00    -0.246 OA
BRANCH  20  22
ATOM     22  C   UNL A   1      41.923  21.084  26.451  1.00  0.00     0.060 A 
ATOM     23  C   UNL A   1      42.311  21.365  27.761  1.00  0.00     0.016 A 
ATOM     24  C   UNL A   1      42.216  21.983  25.427  1.00  0.00     0.016 A 
ATOM     25  C   UNL A   1      42.942  22.569  28.062  1.00  0.00     0.010 A 
ATOM     26  C   UNL A   1      42.918  23.159  25.722  1.00  0.00     0.010 A 
ATOM     27  C   UNL A   1      43.266  23.477  27.047  1.00  0.00    -0.014 A 
BRANCH  27  28
ATOM     28  C   UNL A   1      43.904  24.781  27.378  1.00  0.00     0.031 A 
ATOM     29  C   UNL A   1      43.057  25.905  27.912  1.00  0.00     0.074 A 
ATOM     30  C   UNL A   1      45.231  24.963  27.231  1.00  0.00     0.049 A 
ATOM     31  N   UNL A   1      43.363  27.165  28.083  1.00  0.00    -0.248 NA
ATOM     32  C   UNL A   1      41.680  25.561  28.304  1.00  0.00     0.031 C 
ATOM     33  C   UNL A   1      46.189  23.941  26.807  1.00  0.00     0.029 A 
ATOM     34  N   UNL A   1      46.006  26.082  27.427  1.00  0.00    -0.354 N 
ATOM     35  C   UNL A   1      42.206  27.774  28.558  1.00  0.00     0.074 A 
ATOM     36  C   UNL A   1      41.193  26.745  28.648  1.00  0.00     0.031 C 
ATOM     37  C   UNL A   1      47.421  24.474  26.786  1.00  0.00     0.029 A 
ATOM     38  C   UNL A   1      47.335  25.891  27.127  1.00  0.00     0.049 A 
ATOM     39  H   UNL A   1      45.645  26.937  27.752  1.00  0.00     0.167 HD
ATOM     40  C   UNL A   1      42.009  29.073  28.885  1.00  0.00     0.037 A 
ATOM     41  C   UNL A   1      48.360  26.765  27.088  1.00  0.00     0.037 A 
ATOM     42  C   UNL A   1      43.028  30.086  28.834  1.00  0.00     0.049 A 
ATOM     43  C   UNL A   1      48.107  28.213  27.405  1.00  0.00     0.074 A 
ATOM     44  C   UNL A   1      42.918  31.437  29.117  1.00  0.00     0.029 A 
ATOM     45  N   UNL A   1      44.353  29.857  28.492  1.00  0.00    -0.354 N 
ATOM     46  N   UNL A   1      46.989  28.794  27.767  1.00  0.00    -0.248 NA
ATOM     47  C   UNL A   1      49.251  29.129  27.288  1.00  0.00     0.031 C 
ATOM     48  C   UNL A   1      44.173  32.028  28.925  1.00  0.00     0.029 A 
ATOM     49  C   UNL A   1      45.070  31.040  28.553  1.00  0.00     0.049 A 
ATOM     50  H   UNL A   1      44.728  28.982  28.243  1.00  0.00     0.167 HD
ATOM     51  C   UNL A   1      47.295  30.141  27.926  1.00  0.00     0.074 A 
ATOM     52  C   UNL A   1      48.707  30.287  27.640  1.00  0.00     0.031 C 
ATOM     53  C   UNL A   1      46.477  31.166  28.271  1.00  0.00     0.037 A 
BRANCH  40  54
ATOM     54  C   UNL A   1      40.619  29.476  29.288  1.00  0.00     0.058 A 
ATOM     55  C   UNL A   1      39.580  29.593  28.352  1.00  0.00     0.135 A 
ATOM     56  C   UNL A   1      40.324  29.744  30.634  1.00  0.00     0.135 A 
ATOM     57  F   UNL A   1      39.815  29.368  27.049  1.00  0.00    -0.206 F 
ATOM     58  C   UNL A   1      38.302  29.990  28.733  1.00  0.00     0.059 A 
ATOM     59  C   UNL A   1      39.049  30.122  31.041  1.00  0.00     0.059 A 
ATOM     60  F   UNL A   1      41.285  29.649  31.568  1.00  0.00    -0.206 F 
ATOM     61  C   UNL A   1      38.048  30.258  30.080  1.00  0.00     0.060 A 
BRANCH  61  62
ATOM     62  S   UNL A   1      36.392  30.789  30.563  1.00  0.00     0.124 S 
ATOM     63  O   UNL A   1      35.677  30.702  29.294  1.00  0.00    -0.237 OA
ATOM     64  O   UNL A   1      36.022  29.795  31.567  1.00  0.00    -0.237 OA
ATOM     65  O   UNL A   1      36.603  32.140  31.074  1.00  0.00    -0.744 OA
ENDBRANCH  61  62
ENDBRANCH  40  54
BRANCH  41  66
ATOM     66  C   UNL A   1      49.714  26.302  26.681  1.00  0.00     0.058 A 
ATOM     67  C   UNL A   1      50.639  25.843  27.629  1.00  0.00     0.135 A 
ATOM     68  C   UNL A   1      50.105  26.305  25.333  1.00  0.00     0.135 A 
ATOM     69  F   UNL A   1      50.317  25.834  28.932  1.00  0.00    -0.206 F 
ATOM     70  C   UNL A   1      51.909  25.412  27.258  1.00  0.00     0.059 A 
ATOM     71  C   UNL A   1      51.359  25.856  24.934  1.00  0.00     0.059 A 
ATOM     72  F   UNL A   1      49.254  26.730  24.386  1.00  0.00    -0.206 F 
ATOM     73  C   UNL A   1      52.259  25.420  25.906  1.00  0.00     0.060 A 
BRANCH  73  74
ATOM     74  S   UNL A   1      53.889  24.811  25.421  1.00  0.00     0.124 S 
ATOM     75  O   UNL A   1      54.222  25.708  24.322  1.00  0.00    -0.237 OA
ATOM     76  O   UNL A   1      54.664  24.988  26.646  1.00  0.00    -0.237 OA
ATOM     77  O   UNL A   1      53.630  23.423  25.050  1.00  0.00    -0.744 OA
ENDBRANCH  73  74
ENDBRANCH  41  66
BRANCH  53  78
ATOM     78  C   UNL A   1      47.092  32.531  28.379  1.00  0.00     0.058 A 
ATOM     79  C   UNL A   1      47.027  33.449  27.320  1.00  0.00     0.135 A 
ATOM     80  C   UNL A   1      47.708  32.943  29.571  1.00  0.00     0.135 A 
ATOM     81  F   UNL A   1      46.454  33.100  26.158  1.00  0.00    -0.206 F 
ATOM     82  C   UNL A   1      47.565  34.727  27.434  1.00  0.00     0.059 A 
ATOM     83  C   UNL A   1      48.237  34.222  29.714  1.00  0.00     0.059 A 
ATOM     84  F   UNL A   1      47.789  32.103  30.615  1.00  0.00    -0.206 F 
ATOM     85  C   UNL A   1      48.169  35.104  28.635  1.00  0.00     0.060 A 
BRANCH  85  86
ATOM     86  S   UNL A   1      48.830  36.778  28.789  1.00  0.00     0.124 S 
ATOM     87  O   UNL A   1      48.223  37.219  30.040  1.00  0.00    -0.237 OA
ATOM     88  O   UNL A   1      50.270  36.548  28.829  1.00  0.00    -0.237 OA
ATOM     89  O   UNL A   1      48.343  37.445  27.584  1.00  0.00    -0.744 OA
ENDBRANCH  85  86
ENDBRANCH  53  78
ENDBRANCH  27  28
ENDBRANCH  20  22
ENDBRANCH  19  20
ENDBRANCH  18  19
ENDBRANCH   1  18
TORSDOF 17
ENDMDL
