MODEL 1
REMARK VINA RESULT:     -12.0      0.000      0.000
REMARK SMILES CN(C)S(=O)(=O)c1ccc(-n2c(CCC(=O)OCCOC(=O)c3ccc(-c4c5nc(c(-c6c(F)cc(S(=O)(=O)[O-])cc6F)c6ccc([nH]6)c(-c6c(F)cc(S(=O)(=O)[O-])cc6F)c6nc(c(-c7c(F)cc(S(=O)(=O)[O-])cc7F)c7ccc4[nH]7)C=C6)C=C5)cc3)ccc2-c2ccc(F)cc2)cc1
REMARK SMILES IDX 18 1 17 2 15 3 16 4 14 5 13 6 12 7 11 8 91 9 89 10 90 11
REMARK SMILES IDX 10 12 7 13 8 14 100 15 9 16 99 17 4 18 5 19 6 20 2 21 1 22
REMARK SMILES IDX 3 23 92 24 93 25 98 26 94 27 97 28 95 29 96 30 19 31 20 32
REMARK SMILES IDX 21 33 22 34 23 35 24 36 88 37 25 38 87 39 26 40 27 41 28 42
REMARK SMILES IDX 81 43 29 44 86 45 80 46 82 47 30 48 85 49 79 50 78 51 31 53
REMARK SMILES IDX 65 54 44 55 64 56 45 57 48 58 63 59 83 60 46 61 47 62 62 64
REMARK SMILES IDX 84 65 49 66 32 67 33 68 42 69 34 70 35 71 41 72 43 73 36 74
REMARK SMILES IDX 37 75 38 76 39 77 40 78 66 79 67 80 76 81 68 82 69 83 75 84
REMARK SMILES IDX 77 85 70 86 71 87 72 88 73 89 74 90 50 91 51 92 60 93 52 94
REMARK SMILES IDX 53 95 59 96 61 97 54 98 55 99 56 100 57 101 58 102
REMARK H PARENT 82 52 48 63
REMARK Flexibility Score: inf
ROOT
ATOM      1  C   UNL A   1      36.780  23.717  25.507  1.00  0.00     0.274 C 
ENDROOT
BRANCH   1   2
ATOM      2  O   UNL A   1      36.203  22.639  24.702  1.00  0.00    -0.462 OA
BRANCH   2   3
ATOM      3  C   UNL A   1      35.693  22.980  23.483  1.00  0.00     0.306 C 
ATOM      4  O   UNL A   1      36.349  22.949  22.447  1.00  0.00    -0.252 OA
BRANCH   3   5
ATOM      5  C   UNL A   1      34.207  23.359  23.486  1.00  0.00     0.129 C 
BRANCH   5   6
ATOM      6  C   UNL A   1      33.719  24.605  24.249  1.00  0.00     0.066 C 
BRANCH   6   7
ATOM      7  C   UNL A   1      32.274  24.869  24.035  1.00  0.00     0.024 A 
ATOM      8  N   UNL A   1      31.618  26.044  24.373  1.00  0.00    -0.314 N 
ATOM      9  C   UNL A   1      30.403  26.043  23.664  1.00  0.00     0.053 A 
ATOM     10  C   UNL A   1      31.348  24.012  23.469  1.00  0.00     0.024 A 
ATOM     11  C   UNL A   1      30.174  24.748  23.235  1.00  0.00     0.029 A 
BRANCH   8  12
ATOM     12  C   UNL A   1      32.113  27.138  25.150  1.00  0.00     0.046 A 
ATOM     13  C   UNL A   1      33.669  29.842  26.985  1.00  0.00     0.082 A 
ATOM     14  C   UNL A   1      34.232  29.438  25.339  1.00  0.00     0.024 A 
ATOM     15  C   UNL A   1      32.326  28.928  27.748  1.00  0.00     0.024 A 
ATOM     16  C   UNL A   1      33.466  28.106  24.408  1.00  0.00     0.028 A 
ATOM     17  C   UNL A   1      31.487  27.620  26.813  1.00  0.00     0.028 A 
BRANCH  13  18
ATOM     18  S   UNL A   1      34.463  31.133  27.905  1.00  0.00     0.242 S 
ATOM     19  O   UNL A   1      35.530  31.641  27.067  1.00  0.00    -0.207 OA
ATOM     20  O   UNL A   1      34.718  30.626  29.232  1.00  0.00    -0.207 OA
BRANCH  18  21
ATOM     21  N   UNL A   1      33.272  32.361  28.020  1.00  0.00    -0.204 NA
ATOM     22  C   UNL A   1      33.853  33.713  28.234  1.00  0.00     0.124 C 
ATOM     23  C   UNL A   1      32.266  32.362  26.940  1.00  0.00     0.124 C 
ENDBRANCH  18  21
ENDBRANCH  13  18
ENDBRANCH   8  12
BRANCH   9  24
ATOM     24  C   UNL A   1      29.642  27.227  23.246  1.00  0.00    -0.001 A 
ATOM     25  C   UNL A   1      30.243  28.267  22.525  1.00  0.00     0.013 A 
ATOM     26  C   UNL A   1      28.289  27.342  23.608  1.00  0.00     0.013 A 
ATOM     27  C   UNL A   1      29.486  29.371  22.121  1.00  0.00     0.040 A 
ATOM     28  C   UNL A   1      27.532  28.439  23.201  1.00  0.00     0.040 A 
ATOM     29  C   UNL A   1      28.137  29.443  22.457  1.00  0.00     0.123 A 
ATOM     30  F   UNL A   1      27.410  30.498  22.065  1.00  0.00    -0.207 F 
ENDBRANCH   9  24
ENDBRANCH   6   7
ENDBRANCH   5   6
ENDBRANCH   3   5
ENDBRANCH   2   3
ENDBRANCH   1   2
BRANCH   1  31
ATOM     31  C   UNL A   1      38.342  23.492  26.159  1.00  0.00     0.275 C 
BRANCH  31  32
ATOM     32  O   UNL A   1      39.279  21.753  26.519  1.00  0.00    -0.458 OA
BRANCH  32  33
ATOM     33  C   UNL A   1      40.246  20.729  26.360  1.00  0.00     0.338 C 
ATOM     34  O   UNL A   1      40.116  19.590  25.920  1.00  0.00    -0.246 OA
BRANCH  33  35
ATOM     35  C   UNL A   1      41.594  21.235  26.540  1.00  0.00     0.060 A 
ATOM     36  C   UNL A   1      42.053  21.303  27.864  1.00  0.00     0.016 A 
ATOM     37  C   UNL A   1      42.044  22.053  25.517  1.00  0.00     0.016 A 
ATOM     38  C   UNL A   1      42.793  22.400  28.218  1.00  0.00     0.010 A 
ATOM     39  C   UNL A   1      42.763  23.153  25.869  1.00  0.00     0.010 A 
ATOM     40  C   UNL A   1      43.036  23.351  27.224  1.00  0.00    -0.014 A 
BRANCH  40  41
ATOM     41  C   UNL A   1      43.555  24.654  27.602  1.00  0.00     0.031 A 
ATOM     42  C   UNL A   1      42.396  25.586  27.962  1.00  0.00     0.074 A 
ATOM     43  C   UNL A   1      44.924  24.709  27.559  1.00  0.00     0.049 A 
ATOM     44  N   UNL A   1      42.303  26.878  27.899  1.00  0.00    -0.248 NA
ATOM     45  C   UNL A   1      41.091  24.972  28.365  1.00  0.00     0.031 C 
ATOM     46  C   UNL A   1      45.840  23.601  27.162  1.00  0.00     0.029 A 
ATOM     47  N   UNL A   1      45.830  25.694  27.838  1.00  0.00    -0.354 N 
ATOM     48  C   UNL A   1      41.049  27.223  28.441  1.00  0.00     0.074 A 
ATOM     49  C   UNL A   1      40.297  26.017  28.584  1.00  0.00     0.031 C 
ATOM     50  C   UNL A   1      47.128  24.013  27.139  1.00  0.00     0.029 A 
ATOM     51  C   UNL A   1      47.186  25.406  27.523  1.00  0.00     0.049 A 
ATOM     52  H   UNL A   1      45.560  26.552  28.236  1.00  0.00     0.167 HD
ATOM     53  C   UNL A   1      40.747  28.467  28.898  1.00  0.00     0.037 A 
ATOM     54  C   UNL A   1      48.241  26.281  27.500  1.00  0.00     0.037 A 
ATOM     55  C   UNL A   1      41.874  29.333  28.791  1.00  0.00     0.049 A 
ATOM     56  C   UNL A   1      47.623  27.556  27.906  1.00  0.00     0.074 A 
ATOM     57  C   UNL A   1      42.337  30.245  27.881  1.00  0.00     0.029 A 
ATOM     58  N   UNL A   1      42.824  29.190  29.770  1.00  0.00    -0.354 N 
ATOM     59  N   UNL A   1      47.226  27.855  29.104  1.00  0.00    -0.248 NA
ATOM     60  C   UNL A   1      47.187  28.446  26.832  1.00  0.00     0.031 C 
ATOM     61  C   UNL A   1      43.680  30.511  28.253  1.00  0.00     0.029 A 
ATOM     62  C   UNL A   1      44.026  29.612  29.259  1.00  0.00     0.049 A 
ATOM     63  H   UNL A   1      42.671  28.845  30.680  1.00  0.00     0.167 HD
ATOM     64  C   UNL A   1      46.265  28.822  28.906  1.00  0.00     0.074 A 
ATOM     65  C   UNL A   1      46.385  29.250  27.522  1.00  0.00     0.031 C 
ATOM     66  C   UNL A   1      45.216  28.965  29.756  1.00  0.00     0.037 A 
BRANCH  53  67
ATOM     67  C   UNL A   1      39.592  28.964  29.724  1.00  0.00     0.058 A 
ATOM     68  C   UNL A   1      38.759  29.945  29.140  1.00  0.00     0.135 A 
ATOM     69  C   UNL A   1      39.503  28.823  31.120  1.00  0.00     0.135 A 
ATOM     70  F   UNL A   1      38.707  30.089  27.806  1.00  0.00    -0.206 F 
ATOM     71  C   UNL A   1      38.025  30.847  29.898  1.00  0.00     0.059 A 
ATOM     72  C   UNL A   1      38.727  29.688  31.900  1.00  0.00     0.059 A 
ATOM     73  F   UNL A   1      40.229  27.901  31.769  1.00  0.00    -0.206 F 
ATOM     74  C   UNL A   1      38.051  30.740  31.283  1.00  0.00     0.060 A 
BRANCH  74  75
ATOM     75  S   UNL A   1      37.227  32.022  32.250  1.00  0.00     0.124 S 
ATOM     76  O   UNL A   1      35.821  31.689  32.048  1.00  0.00    -0.237 OA
ATOM     77  O   UNL A   1      37.745  31.780  33.595  1.00  0.00    -0.237 OA
ATOM     78  O   UNL A   1      37.684  33.259  31.627  1.00  0.00    -0.744 OA
ENDBRANCH  74  75
ENDBRANCH  53  67
BRANCH  54  79
ATOM     79  C   UNL A   1      49.662  26.338  26.980  1.00  0.00     0.058 A 
ATOM     80  C   UNL A   1      50.838  26.338  27.743  1.00  0.00     0.135 A 
ATOM     81  C   UNL A   1      49.884  26.276  25.573  1.00  0.00     0.135 A 
ATOM     82  F   UNL A   1      50.800  26.523  29.069  1.00  0.00    -0.206 F 
ATOM     83  C   UNL A   1      52.112  26.137  27.171  1.00  0.00     0.059 A 
ATOM     84  C   UNL A   1      51.125  26.041  24.986  1.00  0.00     0.059 A 
ATOM     85  F   UNL A   1      48.876  26.400  24.697  1.00  0.00    -0.206 F 
ATOM     86  C   UNL A   1      52.238  25.941  25.796  1.00  0.00     0.060 A 
BRANCH  86  87
ATOM     87  S   UNL A   1      53.812  25.436  25.061  1.00  0.00     0.124 S 
ATOM     88  O   UNL A   1      53.809  23.996  25.293  1.00  0.00    -0.237 OA
ATOM     89  O   UNL A   1      53.663  25.856  23.671  1.00  0.00    -0.237 OA
ATOM     90  O   UNL A   1      54.796  26.196  25.827  1.00  0.00    -0.744 OA
ENDBRANCH  86  87
ENDBRANCH  54  79
BRANCH  66  91
ATOM     91  C   UNL A   1      45.260  28.051  30.976  1.00  0.00     0.058 A 
ATOM     92  C   UNL A   1      44.543  26.853  31.025  1.00  0.00     0.135 A 
ATOM     93  C   UNL A   1      45.954  28.396  32.154  1.00  0.00     0.135 A 
ATOM     94  F   UNL A   1      43.834  26.455  29.958  1.00  0.00    -0.206 F 
ATOM     95  C   UNL A   1      44.546  26.035  32.164  1.00  0.00     0.059 A 
ATOM     96  C   UNL A   1      45.985  27.602  33.298  1.00  0.00     0.059 A 
ATOM     97  F   UNL A   1      46.651  29.530  32.212  1.00  0.00    -0.206 F 
ATOM     98  C   UNL A   1      45.277  26.411  33.294  1.00  0.00     0.060 A 
BRANCH  98  99
ATOM     99  S   UNL A   1      45.309  25.328  34.741  1.00  0.00     0.124 S 
ATOM    100  O   UNL A   1      43.979  25.523  35.308  1.00  0.00    -0.237 OA
ATOM    101  O   UNL A   1      45.554  24.022  34.138  1.00  0.00    -0.237 OA
ATOM    102  O   UNL A   1      46.408  25.854  35.548  1.00  0.00    -0.744 OA
ENDBRANCH  98  99
ENDBRANCH  66  91
ENDBRANCH  40  41
ENDBRANCH  33  35
ENDBRANCH  32  33
ENDBRANCH  31  32
ENDBRANCH   1  31
TORSDOF 20
ENDMDL
MODEL 2
REMARK VINA RESULT:     -11.9      1.810      2.758
REMARK SMILES CN(C)S(=O)(=O)c1ccc(-n2c(CCC(=O)OCCOC(=O)c3ccc(-c4c5nc(c(-c6c(F)cc(S(=O)(=O)[O-])cc6F)c6ccc([nH]6)c(-c6c(F)cc(S(=O)(=O)[O-])cc6F)c6nc(c(-c7c(F)cc(S(=O)(=O)[O-])cc7F)c7ccc4[nH]7)C=C6)C=C5)cc3)ccc2-c2ccc(F)cc2)cc1
REMARK SMILES IDX 18 1 17 2 15 3 16 4 14 5 13 6 12 7 11 8 91 9 89 10 90 11
REMARK SMILES IDX 10 12 7 13 8 14 100 15 9 16 99 17 4 18 5 19 6 20 2 21 1 22
REMARK SMILES IDX 3 23 92 24 93 25 98 26 94 27 97 28 95 29 96 30 19 31 20 32
REMARK SMILES IDX 21 33 22 34 23 35 24 36 88 37 25 38 87 39 26 40 27 41 28 42
REMARK SMILES IDX 81 43 29 44 86 45 80 46 82 47 30 48 85 49 79 50 78 51 31 53
REMARK SMILES IDX 65 54 44 55 64 56 45 57 48 58 63 59 83 60 46 61 47 62 62 64
REMARK SMILES IDX 84 65 49 66 32 67 33 68 42 69 34 70 35 71 41 72 43 73 36 74
REMARK SMILES IDX 37 75 38 76 39 77 40 78 66 79 67 80 76 81 68 82 69 83 75 84
REMARK SMILES IDX 77 85 70 86 71 87 72 88 73 89 74 90 50 91 51 92 60 93 52 94
REMARK SMILES IDX 53 95 59 96 61 97 54 98 55 99 56 100 57 101 58 102
REMARK H PARENT 82 52 48 63
REMARK Flexibility Score: inf
ROOT
ATOM      1  C   UNL A   1      37.035  23.145  25.281  1.00  0.00     0.274 C 
ENDROOT
BRANCH   1   2
ATOM      2  O   UNL A   1      36.406  22.080  24.499  1.00  0.00    -0.462 OA
BRANCH   2   3
ATOM      3  C   UNL A   1      35.860  21.040  25.194  1.00  0.00     0.306 C 
ATOM      4  O   UNL A   1      36.019  19.864  24.880  1.00  0.00    -0.252 OA
BRANCH   3   5
ATOM      5  C   UNL A   1      35.069  21.440  26.445  1.00  0.00     0.129 C 
BRANCH   5   6
ATOM      6  C   UNL A   1      33.548  21.209  26.516  1.00  0.00     0.066 C 
BRANCH   6   7
ATOM      7  C   UNL A   1      32.890  21.360  25.195  1.00  0.00     0.024 A 
ATOM      8  N   UNL A   1      32.533  22.569  24.613  1.00  0.00    -0.314 N 
ATOM      9  C   UNL A   1      32.319  22.308  23.247  1.00  0.00     0.053 A 
ATOM     10  C   UNL A   1      32.529  20.346  24.326  1.00  0.00     0.024 A 
ATOM     11  C   UNL A   1      32.172  20.940  23.104  1.00  0.00     0.029 A 
BRANCH   8  12
ATOM     12  C   UNL A   1      32.533  23.868  25.210  1.00  0.00     0.046 A 
ATOM     13  C   UNL A   1      32.233  27.208  26.573  1.00  0.00     0.082 A 
ATOM     14  C   UNL A   1      30.779  26.189  26.374  1.00  0.00     0.024 A 
ATOM     15  C   UNL A   1      33.856  26.594  26.114  1.00  0.00     0.024 A 
ATOM     16  C   UNL A   1      30.909  24.525  25.708  1.00  0.00     0.028 A 
ATOM     17  C   UNL A   1      34.032  24.897  25.500  1.00  0.00     0.028 A 
BRANCH  13  18
ATOM     18  S   UNL A   1      32.083  28.861  27.194  1.00  0.00     0.242 S 
ATOM     19  O   UNL A   1      33.424  29.308  27.508  1.00  0.00    -0.207 OA
ATOM     20  O   UNL A   1      31.034  28.859  28.184  1.00  0.00    -0.207 OA
BRANCH  18  21
ATOM     21  N   UNL A   1      31.543  29.770  25.843  1.00  0.00    -0.204 NA
ATOM     22  C   UNL A   1      31.558  31.236  26.088  1.00  0.00     0.124 C 
ATOM     23  C   UNL A   1      32.180  29.422  24.558  1.00  0.00     0.124 C 
ENDBRANCH  18  21
ENDBRANCH  13  18
ENDBRANCH   8  12
BRANCH   9  24
ATOM     24  C   UNL A   1      32.466  23.270  22.148  1.00  0.00    -0.001 A 
ATOM     25  C   UNL A   1      32.071  24.607  22.287  1.00  0.00     0.013 A 
ATOM     26  C   UNL A   1      32.979  22.836  20.913  1.00  0.00     0.013 A 
ATOM     27  C   UNL A   1      32.245  25.505  21.230  1.00  0.00     0.040 A 
ATOM     28  C   UNL A   1      33.158  23.732  19.860  1.00  0.00     0.040 A 
ATOM     29  C   UNL A   1      32.793  25.060  20.030  1.00  0.00     0.123 A 
ATOM     30  F   UNL A   1      32.965  25.922  19.018  1.00  0.00    -0.207 F 
ENDBRANCH   9  24
ENDBRANCH   6   7
ENDBRANCH   5   6
ENDBRANCH   3   5
ENDBRANCH   2   3
ENDBRANCH   1   2
BRANCH   1  31
ATOM     31  C   UNL A   1      38.607  22.878  25.893  1.00  0.00     0.275 C 
BRANCH  31  32
ATOM     32  O   UNL A   1      39.511  21.115  26.217  1.00  0.00    -0.458 OA
BRANCH  32  33
ATOM     33  C   UNL A   1      40.559  20.160  26.213  1.00  0.00     0.338 C 
ATOM     34  O   UNL A   1      40.564  19.006  25.797  1.00  0.00    -0.246 OA
BRANCH  33  35
ATOM     35  C   UNL A   1      41.834  20.767  26.544  1.00  0.00     0.060 A 
ATOM     36  C   UNL A   1      42.048  21.044  27.904  1.00  0.00     0.016 A 
ATOM     37  C   UNL A   1      42.431  21.462  25.505  1.00  0.00     0.016 A 
ATOM     38  C   UNL A   1      42.675  22.222  28.214  1.00  0.00     0.010 A 
ATOM     39  C   UNL A   1      43.036  22.640  25.810  1.00  0.00     0.010 A 
ATOM     40  C   UNL A   1      43.057  23.040  27.149  1.00  0.00    -0.014 A 
BRANCH  40  41
ATOM     41  C   UNL A   1      43.455  24.411  27.415  1.00  0.00     0.031 A 
ATOM     42  C   UNL A   1      42.210  25.280  27.609  1.00  0.00     0.074 A 
ATOM     43  C   UNL A   1      44.816  24.569  27.443  1.00  0.00     0.049 A 
ATOM     44  N   UNL A   1      42.028  26.547  27.405  1.00  0.00    -0.248 NA
ATOM     45  C   UNL A   1      40.931  24.609  28.001  1.00  0.00     0.031 C 
ATOM     46  C   UNL A   1      45.834  23.503  27.218  1.00  0.00     0.029 A 
ATOM     47  N   UNL A   1      45.628  25.646  27.667  1.00  0.00    -0.354 N 
ATOM     48  C   UNL A   1      40.720  26.846  27.837  1.00  0.00     0.074 A 
ATOM     49  C   UNL A   1      40.050  25.605  28.064  1.00  0.00     0.031 C 
ATOM     50  C   UNL A   1      47.087  24.011  27.223  1.00  0.00     0.029 A 
ATOM     51  C   UNL A   1      47.019  25.436  27.460  1.00  0.00     0.049 A 
ATOM     52  H   UNL A   1      45.272  26.516  27.956  1.00  0.00     0.167 HD
ATOM     53  C   UNL A   1      40.300  28.101  28.142  1.00  0.00     0.037 A 
ATOM     54  C   UNL A   1      48.007  26.384  27.405  1.00  0.00     0.037 A 
ATOM     55  C   UNL A   1      41.365  29.039  28.007  1.00  0.00     0.049 A 
ATOM     56  C   UNL A   1      47.273  27.641  27.638  1.00  0.00     0.074 A 
ATOM     57  C   UNL A   1      41.817  29.887  27.033  1.00  0.00     0.029 A 
ATOM     58  N   UNL A   1      42.258  29.071  29.047  1.00  0.00    -0.354 N 
ATOM     59  N   UNL A   1      46.780  28.028  28.773  1.00  0.00    -0.248 NA
ATOM     60  C   UNL A   1      46.842  28.381  26.453  1.00  0.00     0.031 C 
ATOM     61  C   UNL A   1      43.111  30.295  27.449  1.00  0.00     0.029 A 
ATOM     62  C   UNL A   1      43.457  29.532  28.562  1.00  0.00     0.049 A 
ATOM     63  H   UNL A   1      42.073  28.809  29.978  1.00  0.00     0.167 HD
ATOM     64  C   UNL A   1      45.765  28.891  28.421  1.00  0.00     0.074 A 
ATOM     65  C   UNL A   1      45.942  29.184  27.008  1.00  0.00     0.031 C 
ATOM     66  C   UNL A   1      44.656  29.035  29.191  1.00  0.00     0.037 A 
BRANCH  53  67
ATOM     67  C   UNL A   1      39.061  28.587  28.845  1.00  0.00     0.058 A 
ATOM     68  C   UNL A   1      38.328  29.619  28.217  1.00  0.00     0.135 A 
ATOM     69  C   UNL A   1      38.795  28.375  30.208  1.00  0.00     0.135 A 
ATOM     70  F   UNL A   1      38.447  29.835  26.897  1.00  0.00    -0.206 F 
ATOM     71  C   UNL A   1      37.525  30.501  28.927  1.00  0.00     0.059 A 
ATOM     72  C   UNL A   1      37.946  29.219  30.933  1.00  0.00     0.059 A 
ATOM     73  F   UNL A   1      39.414  27.400  30.890  1.00  0.00    -0.206 F 
ATOM     74  C   UNL A   1      37.375  30.320  30.296  1.00  0.00     0.060 A 
BRANCH  74  75
ATOM     75  S   UNL A   1      36.463  31.573  31.224  1.00  0.00     0.124 S 
ATOM     76  O   UNL A   1      36.259  30.903  32.504  1.00  0.00    -0.237 OA
ATOM     77  O   UNL A   1      37.401  32.693  31.241  1.00  0.00    -0.237 OA
ATOM     78  O   UNL A   1      35.266  31.784  30.417  1.00  0.00    -0.744 OA
ENDBRANCH  74  75
ENDBRANCH  53  67
BRANCH  54  79
ATOM     79  C   UNL A   1      49.450  26.501  26.961  1.00  0.00     0.058 A 
ATOM     80  C   UNL A   1      50.570  26.686  27.783  1.00  0.00     0.135 A 
ATOM     81  C   UNL A   1      49.767  26.298  25.586  1.00  0.00     0.135 A 
ATOM     82  F   UNL A   1      50.432  27.016  29.074  1.00  0.00    -0.206 F 
ATOM     83  C   UNL A   1      51.891  26.529  27.311  1.00  0.00     0.059 A 
ATOM     84  C   UNL A   1      51.058  26.103  25.101  1.00  0.00     0.059 A 
ATOM     85  F   UNL A   1      48.813  26.238  24.647  1.00  0.00    -0.206 F 
ATOM     86  C   UNL A   1      52.121  26.189  25.978  1.00  0.00     0.060 A 
BRANCH  86  87
ATOM     87  S   UNL A   1      53.773  25.737  25.398  1.00  0.00     0.124 S 
ATOM     88  O   UNL A   1      54.532  26.954  25.658  1.00  0.00    -0.237 OA
ATOM     89  O   UNL A   1      54.103  24.589  26.239  1.00  0.00    -0.237 OA
ATOM     90  O   UNL A   1      53.555  25.418  23.989  1.00  0.00    -0.744 OA
ENDBRANCH  86  87
ENDBRANCH  54  79
BRANCH  66  91
ATOM     91  C   UNL A   1      44.689  28.255  30.501  1.00  0.00     0.058 A 
ATOM     92  C   UNL A   1      45.369  28.731  31.624  1.00  0.00     0.135 A 
ATOM     93  C   UNL A   1      44.114  26.974  30.632  1.00  0.00     0.135 A 
ATOM     94  F   UNL A   1      45.968  29.931  31.584  1.00  0.00    -0.206 F 
ATOM     95  C   UNL A   1      45.441  27.992  32.815  1.00  0.00     0.059 A 
ATOM     96  C   UNL A   1      44.158  26.220  31.802  1.00  0.00     0.059 A 
ATOM     97  F   UNL A   1      43.461  26.426  29.609  1.00  0.00    -0.206 F 
ATOM     98  C   UNL A   1      44.824  26.741  32.900  1.00  0.00     0.060 A 
BRANCH  98  99
ATOM     99  S   UNL A   1      44.885  25.817  34.451  1.00  0.00     0.124 S 
ATOM    100  O   UNL A   1      46.152  25.103  34.342  1.00  0.00    -0.237 OA
ATOM    101  O   UNL A   1      44.845  26.886  35.444  1.00  0.00    -0.237 OA
ATOM    102  O   UNL A   1      43.693  24.972  34.403  1.00  0.00    -0.744 OA
ENDBRANCH  98  99
ENDBRANCH  66  91
ENDBRANCH  40  41
ENDBRANCH  33  35
ENDBRANCH  32  33
ENDBRANCH  31  32
ENDBRANCH   1  31
TORSDOF 20
ENDMDL
MODEL 3
REMARK VINA RESULT:     -11.9      2.791      4.406
REMARK SMILES CN(C)S(=O)(=O)c1ccc(-n2c(CCC(=O)OCCOC(=O)c3ccc(-c4c5nc(c(-c6c(F)cc(S(=O)(=O)[O-])cc6F)c6ccc([nH]6)c(-c6c(F)cc(S(=O)(=O)[O-])cc6F)c6nc(c(-c7c(F)cc(S(=O)(=O)[O-])cc7F)c7ccc4[nH]7)C=C6)C=C5)cc3)ccc2-c2ccc(F)cc2)cc1
REMARK SMILES IDX 18 1 17 2 15 3 16 4 14 5 13 6 12 7 11 8 91 9 89 10 90 11
REMARK SMILES IDX 10 12 7 13 8 14 100 15 9 16 99 17 4 18 5 19 6 20 2 21 1 22
REMARK SMILES IDX 3 23 92 24 93 25 98 26 94 27 97 28 95 29 96 30 19 31 20 32
REMARK SMILES IDX 21 33 22 34 23 35 24 36 88 37 25 38 87 39 26 40 27 41 28 42
REMARK SMILES IDX 81 43 29 44 86 45 80 46 82 47 30 48 85 49 79 50 78 51 31 53
REMARK SMILES IDX 65 54 44 55 64 56 45 57 48 58 63 59 83 60 46 61 47 62 62 64
REMARK SMILES IDX 84 65 49 66 32 67 33 68 42 69 34 70 35 71 41 72 43 73 36 74
REMARK SMILES IDX 37 75 38 76 39 77 40 78 66 79 67 80 76 81 68 82 69 83 75 84
REMARK SMILES IDX 77 85 70 86 71 87 72 88 73 89 74 90 50 91 51 92 60 93 52 94
REMARK SMILES IDX 53 95 59 96 61 97 54 98 55 99 56 100 57 101 58 102
REMARK H PARENT 82 52 48 63
REMARK Flexibility Score: inf
ROOT
ATOM      1  C   UNL A   1      35.255  20.930  24.821  1.00  0.00     0.274 C 
ENDROOT
BRANCH   1   2
ATOM      2  O   UNL A   1      34.534  21.718  23.820  1.00  0.00    -0.462 OA
BRANCH   2   3
ATOM      3  C   UNL A   1      33.180  21.560  23.765  1.00  0.00     0.306 C 
ATOM      4  O   UNL A   1      32.609  20.528  24.104  1.00  0.00    -0.252 OA
BRANCH   3   5
ATOM      5  C   UNL A   1      32.403  22.795  23.295  1.00  0.00     0.129 C 
BRANCH   5   6
ATOM      6  C   UNL A   1      31.862  23.813  24.315  1.00  0.00     0.066 C 
BRANCH   6   7
ATOM      7  C   UNL A   1      32.891  24.796  24.734  1.00  0.00     0.024 A 
ATOM      8  N   UNL A   1      32.735  26.175  24.713  1.00  0.00    -0.314 N 
ATOM      9  C   UNL A   1      33.746  26.705  25.536  1.00  0.00     0.053 A 
ATOM     10  C   UNL A   1      34.159  24.519  25.214  1.00  0.00     0.024 A 
ATOM     11  C   UNL A   1      34.695  25.715  25.717  1.00  0.00     0.029 A 
BRANCH   8  12
ATOM     12  C   UNL A   1      31.675  26.934  24.124  1.00  0.00     0.046 A 
ATOM     13  C   UNL A   1      29.192  29.123  22.660  1.00  0.00     0.082 A 
ATOM     14  C   UNL A   1      30.929  29.402  22.345  1.00  0.00     0.024 A 
ATOM     15  C   UNL A   1      28.653  27.756  23.691  1.00  0.00     0.024 A 
ATOM     16  C   UNL A   1      32.175  28.321  23.055  1.00  0.00     0.028 A 
ATOM     17  C   UNL A   1      29.880  26.606  24.370  1.00  0.00     0.028 A 
BRANCH  13  18
ATOM     18  S   UNL A   1      27.978  30.223  21.985  1.00  0.00     0.242 S 
ATOM     19  O   UNL A   1      26.884  30.262  22.934  1.00  0.00    -0.207 OA
ATOM     20  O   UNL A   1      27.772  29.849  20.607  1.00  0.00    -0.207 OA
BRANCH  18  21
ATOM     21  N   UNL A   1      28.738  31.760  22.017  1.00  0.00    -0.204 NA
ATOM     22  C   UNL A   1      28.186  32.701  21.007  1.00  0.00     0.124 C 
ATOM     23  C   UNL A   1      28.837  32.383  23.351  1.00  0.00     0.124 C 
ENDBRANCH  18  21
ENDBRANCH  13  18
ENDBRANCH   8  12
BRANCH   9  24
ATOM     24  C   UNL A   1      33.692  27.979  26.264  1.00  0.00    -0.001 A 
ATOM     25  C   UNL A   1      32.471  28.590  26.581  1.00  0.00     0.013 A 
ATOM     26  C   UNL A   1      34.889  28.622  26.622  1.00  0.00     0.013 A 
ATOM     27  C   UNL A   1      32.452  29.792  27.296  1.00  0.00     0.040 A 
ATOM     28  C   UNL A   1      34.871  29.817  27.339  1.00  0.00     0.040 A 
ATOM     29  C   UNL A   1      33.651  30.389  27.674  1.00  0.00     0.123 A 
ATOM     30  F   UNL A   1      33.633  31.537  28.364  1.00  0.00    -0.207 F 
ENDBRANCH   9  24
ENDBRANCH   6   7
ENDBRANCH   5   6
ENDBRANCH   3   5
ENDBRANCH   2   3
ENDBRANCH   1   2
BRANCH   1  31
ATOM     31  C   UNL A   1      36.145  21.761  26.018  1.00  0.00     0.275 C 
BRANCH  31  32
ATOM     32  O   UNL A   1      38.046  22.398  25.908  1.00  0.00    -0.458 OA
BRANCH  32  33
ATOM     33  C   UNL A   1      39.289  22.897  26.372  1.00  0.00     0.338 C 
ATOM     34  O   UNL A   1      40.403  22.382  26.337  1.00  0.00    -0.246 OA
BRANCH  33  35
ATOM     35  C   UNL A   1      39.204  24.305  26.713  1.00  0.00     0.060 A 
ATOM     36  C   UNL A   1      39.864  25.189  25.844  1.00  0.00     0.016 A 
ATOM     37  C   UNL A   1      38.971  24.561  28.054  1.00  0.00     0.016 A 
ATOM     38  C   UNL A   1      40.535  26.241  26.408  1.00  0.00     0.010 A 
ATOM     39  C   UNL A   1      39.651  25.595  28.618  1.00  0.00     0.010 A 
ATOM     40  C   UNL A   1      40.494  26.350  27.800  1.00  0.00    -0.014 A 
BRANCH  40  41
ATOM     41  C   UNL A   1      41.411  27.258  28.466  1.00  0.00     0.031 A 
ATOM     42  C   UNL A   1      40.652  28.499  28.940  1.00  0.00     0.074 A 
ATOM     43  C   UNL A   1      42.692  26.773  28.515  1.00  0.00     0.049 A 
ATOM     44  N   UNL A   1      41.063  29.713  29.138  1.00  0.00    -0.248 NA
ATOM     45  C   UNL A   1      39.171  28.395  29.132  1.00  0.00     0.031 C 
ATOM     46  C   UNL A   1      43.166  25.475  27.954  1.00  0.00     0.029 A 
ATOM     47  N   UNL A   1      43.856  27.257  29.042  1.00  0.00    -0.354 N 
ATOM     48  C   UNL A   1      39.971  30.432  29.665  1.00  0.00     0.074 A 
ATOM     49  C   UNL A   1      38.808  29.617  29.514  1.00  0.00     0.031 C 
ATOM     50  C   UNL A   1      44.505  25.341  28.091  1.00  0.00     0.029 A 
ATOM     51  C   UNL A   1      45.033  26.512  28.755  1.00  0.00     0.049 A 
ATOM     52  H   UNL A   1      43.879  28.073  29.591  1.00  0.00     0.167 HD
ATOM     53  C   UNL A   1      40.103  31.599  30.348  1.00  0.00     0.037 A 
ATOM     54  C   UNL A   1      46.332  26.888  28.973  1.00  0.00     0.037 A 
ATOM     55  C   UNL A   1      41.477  31.953  30.487  1.00  0.00     0.049 A 
ATOM     56  C   UNL A   1      46.193  28.218  29.595  1.00  0.00     0.074 A 
ATOM     57  C   UNL A   1      42.367  32.744  29.811  1.00  0.00     0.029 A 
ATOM     58  N   UNL A   1      42.162  31.286  31.470  1.00  0.00    -0.354 N 
ATOM     59  N   UNL A   1      45.782  28.447  30.803  1.00  0.00    -0.248 NA
ATOM     60  C   UNL A   1      46.273  29.372  28.702  1.00  0.00     0.031 C 
ATOM     61  C   UNL A   1      43.648  32.391  30.307  1.00  0.00     0.029 A 
ATOM     62  C   UNL A   1      43.491  31.275  31.127  1.00  0.00     0.049 A 
ATOM     63  H   UNL A   1      41.770  30.885  32.279  1.00  0.00     0.167 HD
ATOM     64  C   UNL A   1      45.292  29.734  30.751  1.00  0.00     0.074 A 
ATOM     65  C   UNL A   1      45.749  30.302  29.493  1.00  0.00     0.031 C 
ATOM     66  C   UNL A   1      44.271  30.138  31.550  1.00  0.00     0.037 A 
BRANCH  53  67
ATOM     67  C   UNL A   1      39.121  32.369  31.189  1.00  0.00     0.058 A 
ATOM     68  C   UNL A   1      38.522  31.683  32.269  1.00  0.00     0.135 A 
ATOM     69  C   UNL A   1      38.485  33.551  30.773  1.00  0.00     0.135 A 
ATOM     70  F   UNL A   1      39.108  30.595  32.796  1.00  0.00    -0.206 F 
ATOM     71  C   UNL A   1      37.281  32.038  32.782  1.00  0.00     0.059 A 
ATOM     72  C   UNL A   1      37.259  33.958  31.313  1.00  0.00     0.059 A 
ATOM     73  F   UNL A   1      38.989  34.294  29.777  1.00  0.00    -0.206 F 
ATOM     74  C   UNL A   1      36.634  33.153  32.266  1.00  0.00     0.060 A 
BRANCH  74  75
ATOM     75  S   UNL A   1      34.954  33.498  32.829  1.00  0.00     0.124 S 
ATOM     76  O   UNL A   1      34.756  34.862  32.353  1.00  0.00    -0.237 OA
ATOM     77  O   UNL A   1      34.177  32.470  32.140  1.00  0.00    -0.237 OA
ATOM     78  O   UNL A   1      35.044  33.335  34.276  1.00  0.00    -0.744 OA
ENDBRANCH  74  75
ENDBRANCH  53  67
BRANCH  54  79
ATOM     79  C   UNL A   1      47.726  26.463  28.560  1.00  0.00     0.058 A 
ATOM     80  C   UNL A   1      48.180  26.224  27.256  1.00  0.00     0.135 A 
ATOM     81  C   UNL A   1      48.747  26.391  29.552  1.00  0.00     0.135 A 
ATOM     82  F   UNL A   1      47.321  26.129  26.232  1.00  0.00    -0.206 F 
ATOM     83  C   UNL A   1      49.549  26.081  26.945  1.00  0.00     0.059 A 
ATOM     84  C   UNL A   1      50.107  26.288  29.269  1.00  0.00     0.059 A 
ATOM     85  F   UNL A   1      48.462  26.463  30.860  1.00  0.00    -0.206 F 
ATOM     86  C   UNL A   1      50.508  26.164  27.954  1.00  0.00     0.060 A 
BRANCH  86  87
ATOM     87  S   UNL A   1      52.273  26.236  27.567  1.00  0.00     0.124 S 
ATOM     88  O   UNL A   1      52.876  26.251  28.894  1.00  0.00    -0.237 OA
ATOM     89  O   UNL A   1      52.478  25.018  26.789  1.00  0.00    -0.237 OA
ATOM     90  O   UNL A   1      52.396  27.476  26.805  1.00  0.00    -0.744 OA
ENDBRANCH  86  87
ENDBRANCH  54  79
BRANCH  66  91
ATOM     91  C   UNL A   1      43.803  29.092  32.557  1.00  0.00     0.058 A 
ATOM     92  C   UNL A   1      44.481  28.873  33.759  1.00  0.00     0.135 A 
ATOM     93  C   UNL A   1      42.719  28.228  32.301  1.00  0.00     0.135 A 
ATOM     94  F   UNL A   1      45.540  29.632  34.076  1.00  0.00    -0.206 F 
ATOM     95  C   UNL A   1      44.080  27.879  34.664  1.00  0.00     0.059 A 
ATOM     96  C   UNL A   1      42.289  27.239  33.182  1.00  0.00     0.059 A 
ATOM     97  F   UNL A   1      42.023  28.346  31.171  1.00  0.00    -0.206 F 
ATOM     98  C   UNL A   1      42.976  27.072  34.373  1.00  0.00     0.060 A 
BRANCH  98  99
ATOM     99  S   UNL A   1      42.442  25.824  35.566  1.00  0.00     0.124 S 
ATOM    100  O   UNL A   1      42.663  24.579  34.838  1.00  0.00    -0.237 OA
ATOM    101  O   UNL A   1      43.344  26.069  36.687  1.00  0.00    -0.237 OA
ATOM    102  O   UNL A   1      41.040  26.154  35.814  1.00  0.00    -0.744 OA
ENDBRANCH  98  99
ENDBRANCH  66  91
ENDBRANCH  40  41
ENDBRANCH  33  35
ENDBRANCH  32  33
ENDBRANCH  31  32
ENDBRANCH   1  31
TORSDOF 20
ENDMDL
