MODEL 1
REMARK VINA RESULT:     -12.6      0.000      0.000
REMARK SMILES O=C(OCCOC(=O)c1ccc(-c2c3nc(c(-c4c(F)cc(S(=O)(=O)[O-])cc4F)c4ccc([nH]4)c(-c4c(F)cc(S(=O)(=O)[O-])cc4F)c4nc(c(-c5c(F)cc(S(=O)(=O)[O-])cc5F)c5ccc2[nH]5)C=C4)C=C3)cc1)c1ccc(/C=C/c2ccc3cccc(O)c3n2)cc1
REMARK SMILES IDX 4 1 3 2 2 3 1 4 75 5 76 6 93 7 77 8 92 9 78 10 79 11 80 12
REMARK SMILES IDX 81 13 82 14 91 15 83 16 90 17 84 18 88 19 85 20 87 21 86 22
REMARK SMILES IDX 89 23 5 25 6 26 7 27 8 28 9 29 10 30 74 31 11 32 73 33 12 34
REMARK SMILES IDX 13 35 14 36 67 37 15 38 72 39 66 40 68 41 16 42 71 43 65 44
REMARK SMILES IDX 64 45 17 47 51 48 30 49 50 50 31 51 34 52 49 53 69 54 32 55
REMARK SMILES IDX 33 56 48 58 70 59 35 60 18 61 19 62 28 63 20 64 21 65 27 66
REMARK SMILES IDX 29 67 22 68 23 69 24 70 25 71 26 72 52 73 53 74 62 75 54 76
REMARK SMILES IDX 55 77 61 78 63 79 56 80 57 81 58 82 59 83 60 84 36 85 37 86
REMARK SMILES IDX 46 87 38 88 39 89 45 90 47 91 40 92 41 93 42 94 43 95 44 96
REMARK H PARENT 89 24 68 46 34 57
REMARK Flexibility Score: inf
ROOT
ATOM      1  C   UNL A   1      40.730  21.453  26.174  1.00  0.00     0.275 C 
ENDROOT
BRANCH   1   2
ATOM      2  O   UNL A   1      39.349  21.839  26.232  1.00  0.00    -0.458 OA
BRANCH   2   3
ATOM      3  C   UNL A   1      38.311  21.492  25.437  1.00  0.00     0.338 C 
ATOM      4  O   UNL A   1      38.288  20.340  25.002  1.00  0.00    -0.246 OA
BRANCH   3   5
ATOM      5  C   UNL A   1      37.242  22.439  24.958  1.00  0.00     0.060 A 
ATOM      6  C   UNL A   1      36.592  22.437  23.719  1.00  0.00     0.016 A 
ATOM      7  C   UNL A   1      36.816  23.396  25.889  1.00  0.00     0.016 A 
ATOM      8  C   UNL A   1      35.472  23.246  23.466  1.00  0.00     0.009 A 
ATOM      9  C   UNL A   1      35.734  24.241  25.616  1.00  0.00     0.009 A 
ATOM     10  C   UNL A   1      35.000  24.126  24.432  1.00  0.00    -0.026 A 
BRANCH  10  11
ATOM     11  C   UNL A   1      33.859  25.029  24.238  1.00  0.00     0.010 C 
ATOM     12  C   UNL A   1      33.757  26.078  23.393  1.00  0.00     0.029 C 
BRANCH  12  13
ATOM     13  C   UNL A   1      33.012  27.238  23.966  1.00  0.00     0.064 A 
ATOM     14  C   UNL A   1      32.336  26.815  25.105  1.00  0.00     0.029 A 
ATOM     15  N   UNL A   1      32.469  28.112  23.087  1.00  0.00    -0.245 NA
ATOM     16  C   UNL A   1      30.954  26.795  25.020  1.00  0.00     0.013 A 
ATOM     17  C   UNL A   1      31.122  28.271  23.139  1.00  0.00     0.113 A 
ATOM     18  C   UNL A   1      30.323  27.476  23.980  1.00  0.00     0.004 A 
ATOM     19  C   UNL A   1      30.459  29.206  22.350  1.00  0.00     0.141 A 
ATOM     20  C   UNL A   1      28.938  27.402  23.795  1.00  0.00     0.010 A 
ATOM     21  C   UNL A   1      29.069  29.257  22.275  1.00  0.00     0.048 A 
ATOM     22  C   UNL A   1      28.311  28.294  22.937  1.00  0.00     0.005 A 
BRANCH  19  23
ATOM     23  O   UNL A   1      31.178  30.129  21.633  1.00  0.00    -0.506 OA
ATOM     24  H   UNL A   1      30.853  30.440  20.811  1.00  0.00     0.293 HD
ENDBRANCH  19  23
ENDBRANCH  12  13
ENDBRANCH  10  11
ENDBRANCH   3   5
ENDBRANCH   2   3
ENDBRANCH   1   2
BRANCH   1  25
ATOM     25  C   UNL A   1      41.689  22.647  26.083  1.00  0.00     0.275 C 
BRANCH  25  26
ATOM     26  O   UNL A   1      41.019  23.918  26.193  1.00  0.00    -0.458 OA
BRANCH  26  27
ATOM     27  C   UNL A   1      41.828  25.009  26.074  1.00  0.00     0.338 C 
ATOM     28  O   UNL A   1      42.481  25.301  25.095  1.00  0.00    -0.246 OA
BRANCH  27  29
ATOM     29  C   UNL A   1      41.709  25.897  27.267  1.00  0.00     0.060 A 
ATOM     30  C   UNL A   1      40.649  25.651  28.145  1.00  0.00     0.016 A 
ATOM     31  C   UNL A   1      42.594  26.946  27.541  1.00  0.00     0.016 A 
ATOM     32  C   UNL A   1      40.449  26.465  29.266  1.00  0.00     0.010 A 
ATOM     33  C   UNL A   1      42.404  27.749  28.683  1.00  0.00     0.010 A 
ATOM     34  C   UNL A   1      41.311  27.536  29.544  1.00  0.00    -0.014 A 
BRANCH  34  35
ATOM     35  C   UNL A   1      40.990  28.464  30.675  1.00  0.00     0.031 A 
ATOM     36  C   UNL A   1      41.795  28.405  31.949  1.00  0.00     0.074 A 
ATOM     37  C   UNL A   1      40.051  29.426  30.553  1.00  0.00     0.049 A 
ATOM     38  N   UNL A   1      41.744  29.191  32.996  1.00  0.00    -0.248 NA
ATOM     39  C   UNL A   1      42.797  27.333  32.056  1.00  0.00     0.031 C 
ATOM     40  C   UNL A   1      39.206  29.632  29.381  1.00  0.00     0.029 A 
ATOM     41  N   UNL A   1      39.656  30.423  31.416  1.00  0.00    -0.354 N 
ATOM     42  C   UNL A   1      42.727  28.736  33.865  1.00  0.00     0.074 A 
ATOM     43  C   UNL A   1      43.310  27.559  33.256  1.00  0.00     0.031 C 
ATOM     44  C   UNL A   1      38.380  30.669  29.599  1.00  0.00     0.029 A 
ATOM     45  C   UNL A   1      38.649  31.224  30.923  1.00  0.00     0.049 A 
ATOM     46  H   UNL A   1      40.057  30.551  32.307  1.00  0.00     0.167 HD
ATOM     47  C   UNL A   1      43.135  29.265  35.045  1.00  0.00     0.037 A 
ATOM     48  C   UNL A   1      38.015  32.283  31.466  1.00  0.00     0.037 A 
ATOM     49  C   UNL A   1      42.557  30.427  35.673  1.00  0.00     0.049 A 
ATOM     50  C   UNL A   1      38.403  32.770  32.835  1.00  0.00     0.074 A 
ATOM     51  C   UNL A   1      42.930  31.035  36.861  1.00  0.00     0.029 A 
ATOM     52  N   UNL A   1      41.483  31.152  35.180  1.00  0.00    -0.354 N 
ATOM     53  N   UNL A   1      39.361  32.346  33.620  1.00  0.00    -0.248 NA
ATOM     54  C   UNL A   1      37.623  33.889  33.384  1.00  0.00     0.031 C 
ATOM     55  C   UNL A   1      42.051  32.093  37.113  1.00  0.00     0.029 A 
ATOM     56  C   UNL A   1      41.166  32.183  36.052  1.00  0.00     0.049 A 
ATOM     57  H   UNL A   1      41.014  30.962  34.335  1.00  0.00     0.167 HD
ATOM     58  C   UNL A   1      39.320  33.168  34.742  1.00  0.00     0.074 A 
ATOM     59  C   UNL A   1      38.253  34.121  34.526  1.00  0.00     0.031 C 
ATOM     60  C   UNL A   1      40.105  33.135  35.846  1.00  0.00     0.037 A 
BRANCH  47  61
ATOM     61  C   UNL A   1      44.291  28.598  35.740  1.00  0.00     0.058 A 
ATOM     62  C   UNL A   1      44.088  27.544  36.647  1.00  0.00     0.135 A 
ATOM     63  C   UNL A   1      45.614  28.961  35.445  1.00  0.00     0.135 A 
ATOM     64  F   UNL A   1      42.842  27.167  36.977  1.00  0.00    -0.206 F 
ATOM     65  C   UNL A   1      45.155  26.885  37.246  1.00  0.00     0.059 A 
ATOM     66  C   UNL A   1      46.698  28.297  36.012  1.00  0.00     0.059 A 
ATOM     67  F   UNL A   1      45.865  29.962  34.585  1.00  0.00    -0.206 F 
ATOM     68  C   UNL A   1      46.457  27.265  36.918  1.00  0.00     0.060 A 
BRANCH  68  69
ATOM     69  S   UNL A   1      47.829  26.378  37.683  1.00  0.00     0.124 S 
ATOM     70  O   UNL A   1      47.473  26.452  39.097  1.00  0.00    -0.237 OA
ATOM     71  O   UNL A   1      47.724  25.057  37.072  1.00  0.00    -0.237 OA
ATOM     72  O   UNL A   1      49.000  27.156  37.291  1.00  0.00    -0.744 OA
ENDBRANCH  68  69
ENDBRANCH  47  61
BRANCH  48  73
ATOM     73  C   UNL A   1      36.870  32.924  30.764  1.00  0.00     0.058 A 
ATOM     74  C   UNL A   1      37.023  33.889  29.761  1.00  0.00     0.135 A 
ATOM     75  C   UNL A   1      35.571  32.627  31.182  1.00  0.00     0.135 A 
ATOM     76  F   UNL A   1      38.251  34.243  29.354  1.00  0.00    -0.206 F 
ATOM     77  C   UNL A   1      35.923  34.539  29.200  1.00  0.00     0.059 A 
ATOM     78  C   UNL A   1      34.458  33.250  30.636  1.00  0.00     0.059 A 
ATOM     79  F   UNL A   1      35.392  31.720  32.149  1.00  0.00    -0.206 F 
ATOM     80  C   UNL A   1      34.641  34.210  29.646  1.00  0.00     0.060 A 
BRANCH  80  81
ATOM     81  S   UNL A   1      33.199  35.000  28.899  1.00  0.00     0.124 S 
ATOM     82  O   UNL A   1      33.801  36.151  28.237  1.00  0.00    -0.237 OA
ATOM     83  O   UNL A   1      32.689  33.951  28.023  1.00  0.00    -0.237 OA
ATOM     84  O   UNL A   1      32.356  35.305  30.052  1.00  0.00    -0.744 OA
ENDBRANCH  80  81
ENDBRANCH  48  73
BRANCH  60  85
ATOM     85  C   UNL A   1      39.875  34.201  36.885  1.00  0.00     0.058 A 
ATOM     86  C   UNL A   1      40.435  35.484  36.774  1.00  0.00     0.135 A 
ATOM     87  C   UNL A   1      39.090  33.928  38.019  1.00  0.00     0.135 A 
ATOM     88  F   UNL A   1      41.200  35.798  35.717  1.00  0.00    -0.206 F 
ATOM     89  C   UNL A   1      40.264  36.442  37.770  1.00  0.00     0.059 A 
ATOM     90  C   UNL A   1      38.878  34.882  39.010  1.00  0.00     0.059 A 
ATOM     91  F   UNL A   1      38.522  32.722  38.174  1.00  0.00    -0.206 F 
ATOM     92  C   UNL A   1      39.489  36.129  38.887  1.00  0.00     0.060 A 
BRANCH  92  93
ATOM     93  S   UNL A   1      39.284  37.376  40.178  1.00  0.00     0.124 S 
ATOM     94  O   UNL A   1      38.622  36.607  41.227  1.00  0.00    -0.237 OA
ATOM     95  O   UNL A   1      40.662  37.770  40.455  1.00  0.00    -0.237 OA
ATOM     96  O   UNL A   1      38.462  38.398  39.536  1.00  0.00    -0.744 OA
ENDBRANCH  92  93
ENDBRANCH  60  85
ENDBRANCH  34  35
ENDBRANCH  27  29
ENDBRANCH  26  27
ENDBRANCH  25  26
ENDBRANCH   1  25
TORSDOF 17
ENDMDL
MODEL 2
REMARK VINA RESULT:     -12.5      0.914      1.489
REMARK SMILES O=C(OCCOC(=O)c1ccc(-c2c3nc(c(-c4c(F)cc(S(=O)(=O)[O-])cc4F)c4ccc([nH]4)c(-c4c(F)cc(S(=O)(=O)[O-])cc4F)c4nc(c(-c5c(F)cc(S(=O)(=O)[O-])cc5F)c5ccc2[nH]5)C=C4)C=C3)cc1)c1ccc(/C=C/c2ccc3cccc(O)c3n2)cc1
REMARK SMILES IDX 4 1 3 2 2 3 1 4 75 5 76 6 93 7 77 8 92 9 78 10 79 11 80 12
REMARK SMILES IDX 81 13 82 14 91 15 83 16 90 17 84 18 88 19 85 20 87 21 86 22
REMARK SMILES IDX 89 23 5 25 6 26 7 27 8 28 9 29 10 30 74 31 11 32 73 33 12 34
REMARK SMILES IDX 13 35 14 36 67 37 15 38 72 39 66 40 68 41 16 42 71 43 65 44
REMARK SMILES IDX 64 45 17 47 51 48 30 49 50 50 31 51 34 52 49 53 69 54 32 55
REMARK SMILES IDX 33 56 48 58 70 59 35 60 18 61 19 62 28 63 20 64 21 65 27 66
REMARK SMILES IDX 29 67 22 68 23 69 24 70 25 71 26 72 52 73 53 74 62 75 54 76
REMARK SMILES IDX 55 77 61 78 63 79 56 80 57 81 58 82 59 83 60 84 36 85 37 86
REMARK SMILES IDX 46 87 38 88 39 89 45 90 47 91 40 92 41 93 42 94 43 95 44 96
REMARK H PARENT 89 24 68 46 34 57
REMARK Flexibility Score: inf
ROOT
ATOM      1  C   UNL A   1      42.944  21.383  26.089  1.00  0.00     0.275 C 
ENDROOT
BRANCH   1   2
ATOM      2  O   UNL A   1      41.552  21.427  25.743  1.00  0.00    -0.458 OA
BRANCH   2   3
ATOM      3  C   UNL A   1      40.460  21.563  26.532  1.00  0.00     0.338 C 
ATOM      4  O   UNL A   1      40.518  21.094  27.669  1.00  0.00    -0.246 OA
BRANCH   3   5
ATOM      5  C   UNL A   1      39.146  22.147  26.085  1.00  0.00     0.060 A 
ATOM      6  C   UNL A   1      38.111  21.499  25.403  1.00  0.00     0.016 A 
ATOM      7  C   UNL A   1      38.918  23.482  26.447  1.00  0.00     0.016 A 
ATOM      8  C   UNL A   1      36.853  22.096  25.220  1.00  0.00     0.009 A 
ATOM      9  C   UNL A   1      37.683  24.096  26.215  1.00  0.00     0.009 A 
ATOM     10  C   UNL A   1      36.609  23.388  25.667  1.00  0.00    -0.026 A 
BRANCH  10  11
ATOM     11  C   UNL A   1      35.336  24.097  25.486  1.00  0.00     0.010 C 
ATOM     12  C   UNL A   1      34.748  24.479  24.331  1.00  0.00     0.029 C 
BRANCH  12  13
ATOM     13  C   UNL A   1      34.073  25.807  24.414  1.00  0.00     0.064 A 
ATOM     14  C   UNL A   1      33.806  26.090  25.749  1.00  0.00     0.029 A 
ATOM     15  N   UNL A   1      33.204  26.117  23.423  1.00  0.00    -0.245 NA
ATOM     16  C   UNL A   1      32.470  26.109  26.111  1.00  0.00     0.013 A 
ATOM     17  C   UNL A   1      31.921  26.358  23.791  1.00  0.00     0.113 A 
ATOM     18  C   UNL A   1      31.493  26.175  25.119  1.00  0.00     0.004 A 
ATOM     19  C   UNL A   1      30.957  26.772  22.877  1.00  0.00     0.141 A 
ATOM     20  C   UNL A   1      30.131  26.096  25.430  1.00  0.00     0.010 A 
ATOM     21  C   UNL A   1      29.608  26.858  23.214  1.00  0.00     0.048 A 
ATOM     22  C   UNL A   1      29.187  26.436  24.472  1.00  0.00     0.005 A 
BRANCH  19  23
ATOM     23  O   UNL A   1      31.330  27.134  21.607  1.00  0.00    -0.506 OA
ATOM     24  H   UNL A   1      32.194  26.939  21.299  1.00  0.00     0.293 HD
ENDBRANCH  19  23
ENDBRANCH  12  13
ENDBRANCH  10  11
ENDBRANCH   3   5
ENDBRANCH   2   3
ENDBRANCH   1   2
BRANCH   1  25
ATOM     25  C   UNL A   1      43.641  22.744  25.968  1.00  0.00     0.275 C 
BRANCH  25  26
ATOM     26  O   UNL A   1      43.154  23.713  26.917  1.00  0.00    -0.458 OA
BRANCH  26  27
ATOM     27  C   UNL A   1      42.686  24.872  26.371  1.00  0.00     0.338 C 
ATOM     28  O   UNL A   1      42.590  25.105  25.185  1.00  0.00    -0.246 OA
BRANCH  27  29
ATOM     29  C   UNL A   1      42.168  25.791  27.425  1.00  0.00     0.060 A 
ATOM     30  C   UNL A   1      42.876  26.977  27.646  1.00  0.00     0.016 A 
ATOM     31  C   UNL A   1      41.026  25.524  28.189  1.00  0.00     0.016 A 
ATOM     32  C   UNL A   1      42.473  27.871  28.644  1.00  0.00     0.010 A 
ATOM     33  C   UNL A   1      40.609  26.438  29.177  1.00  0.00     0.010 A 
ATOM     34  C   UNL A   1      41.346  27.610  29.437  1.00  0.00    -0.014 A 
BRANCH  34  35
ATOM     35  C   UNL A   1      41.022  28.522  30.580  1.00  0.00     0.031 A 
ATOM     36  C   UNL A   1      41.832  28.454  31.850  1.00  0.00     0.074 A 
ATOM     37  C   UNL A   1      40.076  29.479  30.471  1.00  0.00     0.049 A 
ATOM     38  N   UNL A   1      41.778  29.228  32.907  1.00  0.00    -0.248 NA
ATOM     39  C   UNL A   1      42.842  27.389  31.942  1.00  0.00     0.031 C 
ATOM     40  C   UNL A   1      39.226  29.692  29.305  1.00  0.00     0.029 A 
ATOM     41  N   UNL A   1      39.677  30.462  31.348  1.00  0.00    -0.354 N 
ATOM     42  C   UNL A   1      42.767  28.770  33.767  1.00  0.00     0.074 A 
ATOM     43  C   UNL A   1      43.357  27.604  33.143  1.00  0.00     0.031 C 
ATOM     44  C   UNL A   1      38.393  30.721  29.537  1.00  0.00     0.029 A 
ATOM     45  C   UNL A   1      38.663  31.262  30.867  1.00  0.00     0.049 A 
ATOM     46  H   UNL A   1      40.079  30.583  32.238  1.00  0.00     0.167 HD
ATOM     47  C   UNL A   1      43.176  29.288  34.952  1.00  0.00     0.037 A 
ATOM     48  C   UNL A   1      38.022  32.310  31.424  1.00  0.00     0.037 A 
ATOM     49  C   UNL A   1      42.591  30.439  35.595  1.00  0.00     0.049 A 
ATOM     50  C   UNL A   1      38.411  32.784  32.797  1.00  0.00     0.074 A 
ATOM     51  C   UNL A   1      42.964  31.035  36.788  1.00  0.00     0.029 A 
ATOM     52  N   UNL A   1      41.510  31.161  35.114  1.00  0.00    -0.354 N 
ATOM     53  N   UNL A   1      39.375  32.358  33.575  1.00  0.00    -0.248 NA
ATOM     54  C   UNL A   1      37.625  33.891  33.362  1.00  0.00     0.031 C 
ATOM     55  C   UNL A   1      42.077  32.084  37.056  1.00  0.00     0.029 A 
ATOM     56  C   UNL A   1      41.189  32.180  35.999  1.00  0.00     0.049 A 
ATOM     57  H   UNL A   1      41.040  30.978  34.268  1.00  0.00     0.167 HD
ATOM     58  C   UNL A   1      39.332  33.166  34.705  1.00  0.00     0.074 A 
ATOM     59  C   UNL A   1      38.257  34.114  34.504  1.00  0.00     0.031 C 
ATOM     60  C   UNL A   1      40.120  33.127  35.807  1.00  0.00     0.037 A 
BRANCH  47  61
ATOM     61  C   UNL A   1      44.338  28.621  35.635  1.00  0.00     0.058 A 
ATOM     62  C   UNL A   1      44.143  27.586  36.565  1.00  0.00     0.135 A 
ATOM     63  C   UNL A   1      45.659  28.965  35.307  1.00  0.00     0.135 A 
ATOM     64  F   UNL A   1      42.901  27.228  36.926  1.00  0.00    -0.206 F 
ATOM     65  C   UNL A   1      45.215  26.927  37.155  1.00  0.00     0.059 A 
ATOM     66  C   UNL A   1      46.747  28.300  35.864  1.00  0.00     0.059 A 
ATOM     67  F   UNL A   1      45.902  29.948  34.425  1.00  0.00    -0.206 F 
ATOM     68  C   UNL A   1      46.514  27.287  36.793  1.00  0.00     0.060 A 
BRANCH  68  69
ATOM     69  S   UNL A   1      47.893  26.400  37.547  1.00  0.00     0.124 S 
ATOM     70  O   UNL A   1      48.652  27.493  38.145  1.00  0.00    -0.237 OA
ATOM     71  O   UNL A   1      47.214  25.513  38.487  1.00  0.00    -0.237 OA
ATOM     72  O   UNL A   1      48.533  25.738  36.415  1.00  0.00    -0.744 OA
ENDBRANCH  68  69
ENDBRANCH  47  61
BRANCH  48  73
ATOM     73  C   UNL A   1      36.871  32.951  30.733  1.00  0.00     0.058 A 
ATOM     74  C   UNL A   1      37.013  33.931  29.743  1.00  0.00     0.135 A 
ATOM     75  C   UNL A   1      35.575  32.637  31.150  1.00  0.00     0.135 A 
ATOM     76  F   UNL A   1      38.237  34.301  29.339  1.00  0.00    -0.206 F 
ATOM     77  C   UNL A   1      35.906  34.579  29.193  1.00  0.00     0.059 A 
ATOM     78  C   UNL A   1      34.455  33.257  30.613  1.00  0.00     0.059 A 
ATOM     79  F   UNL A   1      35.406  31.715  32.103  1.00  0.00    -0.206 F 
ATOM     80  C   UNL A   1      34.628  34.233  29.637  1.00  0.00     0.060 A 
BRANCH  80  81
ATOM     81  S   UNL A   1      33.178  35.021  28.904  1.00  0.00     0.124 S 
ATOM     82  O   UNL A   1      32.737  34.007  27.954  1.00  0.00    -0.237 OA
ATOM     83  O   UNL A   1      32.318  35.230  30.064  1.00  0.00    -0.237 OA
ATOM     84  O   UNL A   1      33.728  36.241  28.317  1.00  0.00    -0.744 OA
ENDBRANCH  80  81
ENDBRANCH  48  73
BRANCH  60  85
ATOM     85  C   UNL A   1      39.886  34.179  36.859  1.00  0.00     0.058 A 
ATOM     86  C   UNL A   1      40.478  35.450  36.787  1.00  0.00     0.135 A 
ATOM     87  C   UNL A   1      39.064  33.904  37.965  1.00  0.00     0.135 A 
ATOM     88  F   UNL A   1      41.279  35.765  35.758  1.00  0.00    -0.206 F 
ATOM     89  C   UNL A   1      40.302  36.394  37.796  1.00  0.00     0.059 A 
ATOM     90  C   UNL A   1      38.847  34.845  38.968  1.00  0.00     0.059 A 
ATOM     91  F   UNL A   1      38.464  32.709  38.083  1.00  0.00    -0.206 F 
ATOM     92  C   UNL A   1      39.488  36.079  38.885  1.00  0.00     0.060 A 
BRANCH  92  93
ATOM     93  S   UNL A   1      39.276  37.307  40.193  1.00  0.00     0.124 S 
ATOM     94  O   UNL A   1      38.446  38.306  39.528  1.00  0.00    -0.237 OA
ATOM     95  O   UNL A   1      38.620  36.535  41.244  1.00  0.00    -0.237 OA
ATOM     96  O   UNL A   1      40.644  37.725  40.492  1.00  0.00    -0.744 OA
ENDBRANCH  92  93
ENDBRANCH  60  85
ENDBRANCH  34  35
ENDBRANCH  27  29
ENDBRANCH  26  27
ENDBRANCH  25  26
ENDBRANCH   1  25
TORSDOF 17
ENDMDL
MODEL 3
REMARK VINA RESULT:     -12.4      2.414      3.432
REMARK SMILES O=C(OCCOC(=O)c1ccc(-c2c3nc(c(-c4c(F)cc(S(=O)(=O)[O-])cc4F)c4ccc([nH]4)c(-c4c(F)cc(S(=O)(=O)[O-])cc4F)c4nc(c(-c5c(F)cc(S(=O)(=O)[O-])cc5F)c5ccc2[nH]5)C=C4)C=C3)cc1)c1ccc(/C=C/c2ccc3cccc(O)c3n2)cc1
REMARK SMILES IDX 4 1 3 2 2 3 1 4 75 5 76 6 93 7 77 8 92 9 78 10 79 11 80 12
REMARK SMILES IDX 81 13 82 14 91 15 83 16 90 17 84 18 88 19 85 20 87 21 86 22
REMARK SMILES IDX 89 23 5 25 6 26 7 27 8 28 9 29 10 30 74 31 11 32 73 33 12 34
REMARK SMILES IDX 13 35 14 36 67 37 15 38 72 39 66 40 68 41 16 42 71 43 65 44
REMARK SMILES IDX 64 45 17 47 51 48 30 49 50 50 31 51 34 52 49 53 69 54 32 55
REMARK SMILES IDX 33 56 48 58 70 59 35 60 18 61 19 62 28 63 20 64 21 65 27 66
REMARK SMILES IDX 29 67 22 68 23 69 24 70 25 71 26 72 52 73 53 74 62 75 54 76
REMARK SMILES IDX 55 77 61 78 63 79 56 80 57 81 58 82 59 83 60 84 36 85 37 86
REMARK SMILES IDX 46 87 38 88 39 89 45 90 47 91 40 92 41 93 42 94 43 95 44 96
REMARK H PARENT 89 24 68 46 34 57
REMARK Flexibility Score: inf
ROOT
ATOM      1  C   UNL A   1      43.159  21.629  25.775  1.00  0.00     0.275 C 
ENDROOT
BRANCH   1   2
ATOM      2  O   UNL A   1      41.732  21.483  25.736  1.00  0.00    -0.458 OA
BRANCH   2   3
ATOM      3  C   UNL A   1      40.783  21.948  26.581  1.00  0.00     0.338 C 
ATOM      4  O   UNL A   1      41.107  22.128  27.756  1.00  0.00    -0.246 OA
BRANCH   3   5
ATOM      5  C   UNL A   1      39.337  22.157  26.216  1.00  0.00     0.060 A 
ATOM      6  C   UNL A   1      38.601  23.344  26.289  1.00  0.00     0.016 A 
ATOM      7  C   UNL A   1      38.674  21.039  25.690  1.00  0.00     0.016 A 
ATOM      8  C   UNL A   1      37.318  23.459  25.731  1.00  0.00     0.009 A 
ATOM      9  C   UNL A   1      37.374  21.140  25.183  1.00  0.00     0.009 A 
ATOM     10  C   UNL A   1      36.706  22.367  25.128  1.00  0.00    -0.026 A 
BRANCH  10  11
ATOM     11  C   UNL A   1      35.357  22.392  24.551  1.00  0.00     0.010 C 
ATOM     12  C   UNL A   1      34.271  23.066  24.990  1.00  0.00     0.029 C 
BRANCH  12  13
ATOM     13  C   UNL A   1      32.995  22.306  24.847  1.00  0.00     0.064 A 
ATOM     14  C   UNL A   1      32.802  21.541  25.992  1.00  0.00     0.029 A 
ATOM     15  N   UNL A   1      32.690  21.845  23.611  1.00  0.00    -0.245 NA
ATOM     16  C   UNL A   1      32.888  20.168  25.828  1.00  0.00     0.013 A 
ATOM     17  C   UNL A   1      32.553  20.502  23.478  1.00  0.00     0.113 A 
ATOM     18  C   UNL A   1      32.832  19.628  24.544  1.00  0.00     0.004 A 
ATOM     19  C   UNL A   1      32.153  19.916  22.281  1.00  0.00     0.141 A 
ATOM     20  C   UNL A   1      33.016  18.258  24.322  1.00  0.00     0.010 A 
ATOM     21  C   UNL A   1      32.173  18.536  22.090  1.00  0.00     0.048 A 
ATOM     22  C   UNL A   1      32.686  17.714  23.089  1.00  0.00     0.005 A 
BRANCH  19  23
ATOM     23  O   UNL A   1      31.701  20.704  21.252  1.00  0.00    -0.506 OA
ATOM     24  H   UNL A   1      31.407  20.310  20.455  1.00  0.00     0.293 HD
ENDBRANCH  19  23
ENDBRANCH  12  13
ENDBRANCH  10  11
ENDBRANCH   3   5
ENDBRANCH   2   3
ENDBRANCH   1   2
BRANCH   1  25
ATOM     25  C   UNL A   1      43.641  23.000  25.281  1.00  0.00     0.275 C 
BRANCH  25  26
ATOM     26  O   UNL A   1      43.462  24.045  26.257  1.00  0.00    -0.458 OA
BRANCH  26  27
ATOM     27  C   UNL A   1      42.837  25.166  25.794  1.00  0.00     0.338 C 
ATOM     28  O   UNL A   1      42.630  25.429  24.629  1.00  0.00    -0.246 OA
BRANCH  27  29
ATOM     29  C   UNL A   1      42.304  25.985  26.921  1.00  0.00     0.060 A 
ATOM     30  C   UNL A   1      42.895  27.234  27.140  1.00  0.00     0.016 A 
ATOM     31  C   UNL A   1      41.258  25.569  27.752  1.00  0.00     0.016 A 
ATOM     32  C   UNL A   1      42.475  28.044  28.201  1.00  0.00     0.010 A 
ATOM     33  C   UNL A   1      40.821  26.397  28.805  1.00  0.00     0.010 A 
ATOM     34  C   UNL A   1      41.445  27.633  29.060  1.00  0.00    -0.014 A 
BRANCH  34  35
ATOM     35  C   UNL A   1      41.113  28.464  30.261  1.00  0.00     0.031 A 
ATOM     36  C   UNL A   1      41.914  28.310  31.529  1.00  0.00     0.074 A 
ATOM     37  C   UNL A   1      40.166  29.425  30.212  1.00  0.00     0.049 A 
ATOM     38  N   UNL A   1      41.852  29.009  32.636  1.00  0.00    -0.248 NA
ATOM     39  C   UNL A   1      42.924  27.242  31.555  1.00  0.00     0.031 C 
ATOM     40  C   UNL A   1      39.323  29.717  29.057  1.00  0.00     0.029 A 
ATOM     41  N   UNL A   1      39.760  30.346  31.151  1.00  0.00    -0.354 N 
ATOM     42  C   UNL A   1      42.835  28.495  33.470  1.00  0.00     0.074 A 
ATOM     43  C   UNL A   1      43.432  27.375  32.771  1.00  0.00     0.031 C 
ATOM     44  C   UNL A   1      38.488  30.727  29.353  1.00  0.00     0.029 A 
ATOM     45  C   UNL A   1      38.747  31.176  30.719  1.00  0.00     0.049 A 
ATOM     46  H   UNL A   1      40.156  30.406  32.050  1.00  0.00     0.167 HD
ATOM     47  C   UNL A   1      43.235  28.931  34.690  1.00  0.00     0.037 A 
ATOM     48  C   UNL A   1      38.102  32.183  31.343  1.00  0.00     0.037 A 
ATOM     49  C   UNL A   1      42.645  30.034  35.406  1.00  0.00     0.049 A 
ATOM     50  C   UNL A   1      38.481  32.562  32.747  1.00  0.00     0.074 A 
ATOM     51  C   UNL A   1      43.008  30.548  36.640  1.00  0.00     0.029 A 
ATOM     52  N   UNL A   1      41.566  30.787  34.968  1.00  0.00    -0.354 N 
ATOM     53  N   UNL A   1      39.440  32.085  33.500  1.00  0.00    -0.248 NA
ATOM     54  C   UNL A   1      37.689  33.627  33.381  1.00  0.00     0.031 C 
ATOM     55  C   UNL A   1      42.119  31.575  36.973  1.00  0.00     0.029 A 
ATOM     56  C   UNL A   1      41.237  31.742  35.919  1.00  0.00     0.049 A 
ATOM     57  H   UNL A   1      41.102  30.662  34.109  1.00  0.00     0.167 HD
ATOM     58  C   UNL A   1      39.388  32.814  34.684  1.00  0.00     0.074 A 
ATOM     59  C   UNL A   1      38.313  33.772  34.540  1.00  0.00     0.031 C 
ATOM     60  C   UNL A   1      40.169  32.699  35.785  1.00  0.00     0.037 A 
BRANCH  47  61
ATOM     61  C   UNL A   1      44.394  28.220  35.334  1.00  0.00     0.058 A 
ATOM     62  C   UNL A   1      44.196  27.101  36.161  1.00  0.00     0.135 A 
ATOM     63  C   UNL A   1      45.716  28.610  35.067  1.00  0.00     0.135 A 
ATOM     64  F   UNL A   1      42.952  26.695  36.462  1.00  0.00    -0.206 F 
ATOM     65  C   UNL A   1      45.266  26.405  36.711  1.00  0.00     0.059 A 
ATOM     66  C   UNL A   1      46.802  27.911  35.584  1.00  0.00     0.059 A 
ATOM     67  F   UNL A   1      45.961  29.673  34.284  1.00  0.00    -0.206 F 
ATOM     68  C   UNL A   1      46.566  26.815  36.411  1.00  0.00     0.060 A 
BRANCH  68  69
ATOM     69  S   UNL A   1      47.943  25.880  37.110  1.00  0.00     0.124 S 
ATOM     70  O   UNL A   1      49.083  26.488  36.432  1.00  0.00    -0.237 OA
ATOM     71  O   UNL A   1      47.825  26.172  38.535  1.00  0.00    -0.237 OA
ATOM     72  O   UNL A   1      47.650  24.502  36.729  1.00  0.00    -0.744 OA
ENDBRANCH  68  69
ENDBRANCH  47  61
BRANCH  48  73
ATOM     73  C   UNL A   1      36.954  32.868  30.689  1.00  0.00     0.058 A 
ATOM     74  C   UNL A   1      37.103  33.891  29.743  1.00  0.00     0.135 A 
ATOM     75  C   UNL A   1      35.657  32.551  31.099  1.00  0.00     0.135 A 
ATOM     76  F   UNL A   1      38.329  34.264  29.348  1.00  0.00    -0.206 F 
ATOM     77  C   UNL A   1      36.001  34.577  29.231  1.00  0.00     0.059 A 
ATOM     78  C   UNL A   1      34.542  33.209  30.599  1.00  0.00     0.059 A 
ATOM     79  F   UNL A   1      35.482  31.589  32.011  1.00  0.00    -0.206 F 
ATOM     80  C   UNL A   1      34.721  34.226  29.667  1.00  0.00     0.060 A 
BRANCH  80  81
ATOM     81  S   UNL A   1      33.277  35.065  28.981  1.00  0.00     0.124 S 
ATOM     82  O   UNL A   1      32.469  35.290  30.173  1.00  0.00    -0.237 OA
ATOM     83  O   UNL A   1      33.867  36.253  28.373  1.00  0.00    -0.237 OA
ATOM     84  O   UNL A   1      32.747  34.087  28.034  1.00  0.00    -0.744 OA
ENDBRANCH  80  81
ENDBRANCH  48  73
BRANCH  60  85
ATOM     85  C   UNL A   1      39.926  33.676  36.905  1.00  0.00     0.058 A 
ATOM     86  C   UNL A   1      39.069  33.384  37.978  1.00  0.00     0.135 A 
ATOM     87  C   UNL A   1      40.555  34.933  36.898  1.00  0.00     0.135 A 
ATOM     88  F   UNL A   1      38.434  32.202  38.033  1.00  0.00    -0.206 F 
ATOM     89  C   UNL A   1      38.806  34.317  38.977  1.00  0.00     0.059 A 
ATOM     90  C   UNL A   1      40.334  35.869  37.904  1.00  0.00     0.059 A 
ATOM     91  F   UNL A   1      41.393  35.265  35.903  1.00  0.00    -0.206 F 
ATOM     92  C   UNL A   1      39.440  35.560  38.928  1.00  0.00     0.060 A 
BRANCH  92  93
ATOM     93  S   UNL A   1      39.083  36.768  40.222  1.00  0.00     0.124 S 
ATOM     94  O   UNL A   1      40.407  36.985  40.795  1.00  0.00    -0.237 OA
ATOM     95  O   UNL A   1      38.528  37.885  39.464  1.00  0.00    -0.237 OA
ATOM     96  O   UNL A   1      38.133  36.071  41.085  1.00  0.00    -0.744 OA
ENDBRANCH  92  93
ENDBRANCH  60  85
ENDBRANCH  34  35
ENDBRANCH  27  29
ENDBRANCH  26  27
ENDBRANCH  25  26
ENDBRANCH   1  25
TORSDOF 17
ENDMDL
