MODEL 1
REMARK VINA RESULT:     -11.1      0.000      0.000
REMARK SMILES COc1cc(Cl)c2c(c1)C=C(C(=O)OCCOC(=O)c1ccc(-c3c4nc(c(-c5c(F)cc(S(=O)(=O)[O-])cc5F)c5ccc([nH]5)c(-c5c(F)cc(S(=O)(=O)[O-])cc5F)c5nc(c(-c6c(F)cc(S(=O)(=O)[O-])cc6F)c6ccc3[nH]6)C=C5)C=C4)cc1)[C@@H](C(F)(F)F)O2
REMARK SMILES IDX 16 1 15 2 14 3 12 4 13 5 11 6 3 7 4 8 9 9 5 10 8 11 6 12
REMARK SMILES IDX 7 13 10 14 91 15 86 16 2 17 1 18 87 19 88 20 89 21 90 22
REMARK SMILES IDX 17 23 18 24 19 25 20 26 21 27 85 28 22 29 84 30 23 31 24 32
REMARK SMILES IDX 25 33 78 34 26 35 83 36 77 37 79 38 27 39 82 40 76 41 75 42
REMARK SMILES IDX 28 44 62 45 41 46 61 47 42 48 45 49 60 50 80 51 43 52 44 53
REMARK SMILES IDX 59 55 81 56 46 57 29 58 30 59 39 60 31 61 32 62 38 63 40 64
REMARK SMILES IDX 33 65 34 66 35 67 36 68 37 69 63 70 64 71 73 72 65 73 66 74
REMARK SMILES IDX 72 75 74 76 67 77 68 78 69 79 70 80 71 81 47 82 48 83 57 84
REMARK SMILES IDX 49 85 50 86 56 87 58 88 51 89 52 90 53 91 54 92 55 93
REMARK H PARENT 79 43 45 54
REMARK Flexibility Score: inf
ROOT
ATOM      1  C   UNL A   1      33.637  28.794  25.757  1.00  0.00     0.275 C 
ENDROOT
BRANCH   1   2
ATOM      2  C   UNL A   1      32.140  28.652  25.460  1.00  0.00     0.275 C 
BRANCH   2   3
ATOM      3  O   UNL A   1      31.815  27.341  24.950  1.00  0.00    -0.459 OA
BRANCH   3   4
ATOM      4  C   UNL A   1      31.561  26.381  25.879  1.00  0.00     0.338 C 
ATOM      5  O   UNL A   1      30.948  26.527  26.917  1.00  0.00    -0.246 OA
BRANCH   4   6
ATOM      6  C   UNL A   1      32.079  25.072  25.407  1.00  0.00     0.087 C 
ATOM      7  C   UNL A   1      35.677  21.887  25.558  1.00  0.00     0.121 A 
ATOM      8  C   UNL A   1      34.866  20.908  24.992  1.00  0.00     0.070 A 
ATOM      9  C   UNL A   1      35.193  23.182  25.726  1.00  0.00     0.058 A 
ATOM     10  C   UNL A   1      33.558  21.233  24.612  1.00  0.00     0.087 A 
ATOM     11  C   UNL A   1      33.891  23.513  25.334  1.00  0.00     0.022 A 
ATOM     12  Cl  UNL A   1      32.575  19.987  23.926  1.00  0.00    -0.080 Cl
ATOM     13  C   UNL A   1      33.054  22.529  24.806  1.00  0.00     0.146 A 
ATOM     14  C   UNL A   1      33.392  24.860  25.549  1.00  0.00     0.027 C 
ATOM     15  O   UNL A   1      31.746  22.770  24.486  1.00  0.00    -0.474 OA
ATOM     16  C   UNL A   1      31.141  24.047  24.833  1.00  0.00     0.316 C 
BRANCH   7  17
ATOM     17  O   UNL A   1      36.917  21.643  26.077  1.00  0.00    -0.497 OA
ATOM     18  C   UNL A   1      37.990  21.836  25.161  1.00  0.00     0.278 C 
ENDBRANCH   7  17
BRANCH  16  19
ATOM     19  C   UNL A   1      30.460  24.588  23.564  1.00  0.00     0.430 C 
ATOM     20  F   UNL A   1      31.345  25.223  22.758  1.00  0.00    -0.167 F 
ATOM     21  F   UNL A   1      29.902  23.603  22.821  1.00  0.00    -0.167 F 
ATOM     22  F   UNL A   1      29.477  25.472  23.856  1.00  0.00    -0.167 F 
ENDBRANCH  16  19
ENDBRANCH   4   6
ENDBRANCH   3   4
ENDBRANCH   2   3
ENDBRANCH   1   2
BRANCH   1  23
ATOM     23  O   UNL A   1      33.888  28.787  27.175  1.00  0.00    -0.458 OA
BRANCH  23  24
ATOM     24  C   UNL A   1      34.284  29.976  27.686  1.00  0.00     0.338 C 
ATOM     25  O   UNL A   1      33.582  30.945  27.926  1.00  0.00    -0.246 OA
BRANCH  24  26
ATOM     26  C   UNL A   1      35.678  29.864  28.141  1.00  0.00     0.060 A 
ATOM     27  C   UNL A   1      36.658  30.102  27.179  1.00  0.00     0.016 A 
ATOM     28  C   UNL A   1      36.036  29.474  29.430  1.00  0.00     0.016 A 
ATOM     29  C   UNL A   1      38.005  29.988  27.489  1.00  0.00     0.010 A 
ATOM     30  C   UNL A   1      37.394  29.304  29.734  1.00  0.00     0.010 A 
ATOM     31  C   UNL A   1      38.381  29.551  28.760  1.00  0.00    -0.014 A 
BRANCH  31  32
ATOM     32  C   UNL A   1      39.795  29.186  28.992  1.00  0.00     0.031 A 
ATOM     33  C   UNL A   1      40.703  30.200  29.628  1.00  0.00     0.074 A 
ATOM     34  C   UNL A   1      40.240  27.946  28.727  1.00  0.00     0.049 A 
ATOM     35  N   UNL A   1      41.988  30.138  29.853  1.00  0.00    -0.248 NA
ATOM     36  C   UNL A   1      40.067  31.446  30.088  1.00  0.00     0.031 C 
ATOM     37  C   UNL A   1      39.419  26.837  28.247  1.00  0.00     0.029 A 
ATOM     38  N   UNL A   1      41.500  27.413  28.835  1.00  0.00    -0.354 N 
ATOM     39  C   UNL A   1      42.317  31.330  30.484  1.00  0.00     0.074 A 
ATOM     40  C   UNL A   1      41.099  32.105  30.593  1.00  0.00     0.031 C 
ATOM     41  C   UNL A   1      40.199  25.755  28.089  1.00  0.00     0.029 A 
ATOM     42  C   UNL A   1      41.582  26.109  28.408  1.00  0.00     0.049 A 
ATOM     43  H   UNL A   1      42.270  27.916  29.184  1.00  0.00     0.167 HD
ATOM     44  C   UNL A   1      43.527  31.741  30.932  1.00  0.00     0.037 A 
ATOM     45  C   UNL A   1      42.658  25.312  28.261  1.00  0.00     0.037 A 
ATOM     46  C   UNL A   1      44.736  30.975  30.787  1.00  0.00     0.049 A 
ATOM     47  C   UNL A   1      44.021  25.852  28.606  1.00  0.00     0.074 A 
ATOM     48  C   UNL A   1      46.028  31.326  31.137  1.00  0.00     0.029 A 
ATOM     49  N   UNL A   1      44.803  29.702  30.240  1.00  0.00    -0.354 N 
ATOM     50  N   UNL A   1      44.343  27.015  29.123  1.00  0.00    -0.248 NA
ATOM     51  C   UNL A   1      45.170  24.978  28.330  1.00  0.00     0.031 C 
ATOM     52  C   UNL A   1      46.881  30.283  30.760  1.00  0.00     0.029 A 
ATOM     53  C   UNL A   1      46.116  29.259  30.222  1.00  0.00     0.049 A 
ATOM     54  H   UNL A   1      44.030  29.186  29.912  1.00  0.00     0.167 HD
ATOM     55  C   UNL A   1      45.728  27.006  29.253  1.00  0.00     0.074 A 
ATOM     56  C   UNL A   1      46.181  25.716  28.771  1.00  0.00     0.031 C 
ATOM     57  C   UNL A   1      46.550  27.976  29.728  1.00  0.00     0.037 A 
BRANCH  44  58
ATOM     58  C   UNL A   1      43.597  33.101  31.568  1.00  0.00     0.058 A 
ATOM     59  C   UNL A   1      43.783  34.264  30.805  1.00  0.00     0.135 A 
ATOM     60  C   UNL A   1      43.485  33.242  32.960  1.00  0.00     0.135 A 
ATOM     61  F   UNL A   1      43.922  34.183  29.472  1.00  0.00    -0.206 F 
ATOM     62  C   UNL A   1      43.882  35.518  31.402  1.00  0.00     0.059 A 
ATOM     63  C   UNL A   1      43.555  34.487  33.577  1.00  0.00     0.059 A 
ATOM     64  F   UNL A   1      43.316  32.160  33.738  1.00  0.00    -0.206 F 
ATOM     65  C   UNL A   1      43.769  35.617  32.789  1.00  0.00     0.060 A 
BRANCH  65  66
ATOM     66  S   UNL A   1      43.914  37.248  33.550  1.00  0.00     0.124 S 
ATOM     67  O   UNL A   1      45.102  37.078  34.381  1.00  0.00    -0.237 OA
ATOM     68  O   UNL A   1      44.072  38.119  32.390  1.00  0.00    -0.237 OA
ATOM     69  O   UNL A   1      42.658  37.399  34.278  1.00  0.00    -0.744 OA
ENDBRANCH  65  66
ENDBRANCH  44  58
BRANCH  45  70
ATOM     70  C   UNL A   1      42.492  23.930  27.738  1.00  0.00     0.058 A 
ATOM     71  C   UNL A   1      42.405  23.686  26.360  1.00  0.00     0.135 A 
ATOM     72  C   UNL A   1      42.434  22.824  28.602  1.00  0.00     0.135 A 
ATOM     73  F   UNL A   1      42.434  24.711  25.494  1.00  0.00    -0.206 F 
ATOM     74  C   UNL A   1      42.276  22.397  25.855  1.00  0.00     0.059 A 
ATOM     75  C   UNL A   1      42.329  21.523  28.120  1.00  0.00     0.059 A 
ATOM     76  F   UNL A   1      42.510  23.004  29.930  1.00  0.00    -0.206 F 
ATOM     77  C   UNL A   1      42.249  21.319  26.743  1.00  0.00     0.060 A 
BRANCH  77  78
ATOM     78  S   UNL A   1      42.159  19.646  26.070  1.00  0.00     0.124 S 
ATOM     79  O   UNL A   1      40.746  19.543  25.724  1.00  0.00    -0.237 OA
ATOM     80  O   UNL A   1      43.087  19.721  24.947  1.00  0.00    -0.237 OA
ATOM     81  O   UNL A   1      42.598  18.810  27.183  1.00  0.00    -0.744 OA
ENDBRANCH  77  78
ENDBRANCH  45  70
BRANCH  57  82
ATOM     82  C   UNL A   1      48.024  27.674  29.766  1.00  0.00     0.058 A 
ATOM     83  C   UNL A   1      48.623  27.063  30.879  1.00  0.00     0.135 A 
ATOM     84  C   UNL A   1      48.839  27.959  28.658  1.00  0.00     0.135 A 
ATOM     85  F   UNL A   1      47.891  26.772  31.966  1.00  0.00    -0.206 F 
ATOM     86  C   UNL A   1      49.983  26.770  30.903  1.00  0.00     0.059 A 
ATOM     87  C   UNL A   1      50.195  27.649  28.649  1.00  0.00     0.059 A 
ATOM     88  F   UNL A   1      48.314  28.531  27.562  1.00  0.00    -0.206 F 
ATOM     89  C   UNL A   1      50.761  27.068  29.782  1.00  0.00     0.060 A 
BRANCH  89  90
ATOM     90  S   UNL A   1      52.521  26.668  29.822  1.00  0.00     0.124 S 
ATOM     91  O   UNL A   1      52.732  26.136  28.479  1.00  0.00    -0.237 OA
ATOM     92  O   UNL A   1      53.130  27.966  30.092  1.00  0.00    -0.237 OA
ATOM     93  O   UNL A   1      52.626  25.695  30.905  1.00  0.00    -0.744 OA
ENDBRANCH  89  90
ENDBRANCH  57  82
ENDBRANCH  31  32
ENDBRANCH  24  26
ENDBRANCH  23  24
ENDBRANCH   1  23
TORSDOF 16
ENDMDL
MODEL 2
REMARK VINA RESULT:     -11.1      4.621     10.836
REMARK SMILES COc1cc(Cl)c2c(c1)C=C(C(=O)OCCOC(=O)c1ccc(-c3c4nc(c(-c5c(F)cc(S(=O)(=O)[O-])cc5F)c5ccc([nH]5)c(-c5c(F)cc(S(=O)(=O)[O-])cc5F)c5nc(c(-c6c(F)cc(S(=O)(=O)[O-])cc6F)c6ccc3[nH]6)C=C5)C=C4)cc1)[C@@H](C(F)(F)F)O2
REMARK SMILES IDX 16 1 15 2 14 3 12 4 13 5 11 6 3 7 4 8 9 9 5 10 8 11 6 12
REMARK SMILES IDX 7 13 10 14 91 15 86 16 2 17 1 18 87 19 88 20 89 21 90 22
REMARK SMILES IDX 17 23 18 24 19 25 20 26 21 27 85 28 22 29 84 30 23 31 24 32
REMARK SMILES IDX 25 33 78 34 26 35 83 36 77 37 79 38 27 39 82 40 76 41 75 42
REMARK SMILES IDX 28 44 62 45 41 46 61 47 42 48 45 49 60 50 80 51 43 52 44 53
REMARK SMILES IDX 59 55 81 56 46 57 29 58 30 59 39 60 31 61 32 62 38 63 40 64
REMARK SMILES IDX 33 65 34 66 35 67 36 68 37 69 63 70 64 71 73 72 65 73 66 74
REMARK SMILES IDX 72 75 74 76 67 77 68 78 69 79 70 80 71 81 47 82 48 83 57 84
REMARK SMILES IDX 49 85 50 86 56 87 58 88 51 89 52 90 53 91 54 92 55 93
REMARK H PARENT 79 43 45 54
REMARK Flexibility Score: inf
ROOT
ATOM      1  C   UNL A   1      39.972  20.681  26.265  1.00  0.00     0.275 C 
ENDROOT
BRANCH   1   2
ATOM      2  C   UNL A   1      40.999  19.814  27.003  1.00  0.00     0.275 C 
BRANCH   2   3
ATOM      3  O   UNL A   1      42.322  20.392  26.960  1.00  0.00    -0.459 OA
BRANCH   3   4
ATOM      4  C   UNL A   1      42.999  20.255  25.789  1.00  0.00     0.338 C 
ATOM      5  O   UNL A   1      42.879  19.348  24.990  1.00  0.00    -0.246 OA
BRANCH   4   6
ATOM      6  C   UNL A   1      43.871  21.435  25.569  1.00  0.00     0.087 C 
ATOM      7  C   UNL A   1      44.150  26.228  25.300  1.00  0.00     0.121 A 
ATOM      8  C   UNL A   1      45.537  26.176  25.397  1.00  0.00     0.070 A 
ATOM      9  C   UNL A   1      43.411  25.048  25.245  1.00  0.00     0.058 A 
ATOM     10  C   UNL A   1      46.177  24.933  25.456  1.00  0.00     0.087 A 
ATOM     11  C   UNL A   1      44.049  23.804  25.289  1.00  0.00     0.022 A 
ATOM     12  Cl  UNL A   1      47.901  24.908  25.590  1.00  0.00    -0.080 Cl
ATOM     13  C   UNL A   1      45.436  23.740  25.431  1.00  0.00     0.146 A 
ATOM     14  C   UNL A   1      43.259  22.585  25.265  1.00  0.00     0.027 C 
ATOM     15  O   UNL A   1      46.108  22.557  25.567  1.00  0.00    -0.474 OA
ATOM     16  C   UNL A   1      45.363  21.316  25.720  1.00  0.00     0.316 C 
BRANCH   7  17
ATOM     17  O   UNL A   1      43.423  27.383  25.365  1.00  0.00    -0.497 OA
ATOM     18  C   UNL A   1      44.019  28.412  26.148  1.00  0.00     0.278 C 
ENDBRANCH   7  17
BRANCH  16  19
ATOM     19  C   UNL A   1      45.930  20.315  24.698  1.00  0.00     0.430 C 
ATOM     20  F   UNL A   1      45.172  20.266  23.577  1.00  0.00    -0.167 F 
ATOM     21  F   UNL A   1      47.183  20.642  24.301  1.00  0.00    -0.167 F 
ATOM     22  F   UNL A   1      45.987  19.059  25.200  1.00  0.00    -0.167 F 
ENDBRANCH  16  19
ENDBRANCH   4   6
ENDBRANCH   3   4
ENDBRANCH   2   3
ENDBRANCH   1   2
BRANCH   1  23
ATOM     23  O   UNL A   1      40.217  22.081  26.490  1.00  0.00    -0.458 OA
BRANCH  23  24
ATOM     24  C   UNL A   1      39.183  22.896  26.176  1.00  0.00     0.338 C 
ATOM     25  O   UNL A   1      38.176  22.601  25.551  1.00  0.00    -0.246 OA
BRANCH  24  26
ATOM     26  C   UNL A   1      39.331  24.165  26.902  1.00  0.00     0.060 A 
ATOM     27  C   UNL A   1      40.074  25.155  26.262  1.00  0.00     0.016 A 
ATOM     28  C   UNL A   1      38.835  24.377  28.188  1.00  0.00     0.016 A 
ATOM     29  C   UNL A   1      40.308  26.379  26.871  1.00  0.00     0.010 A 
ATOM     30  C   UNL A   1      39.115  25.591  28.830  1.00  0.00     0.010 A 
ATOM     31  C   UNL A   1      39.861  26.591  28.176  1.00  0.00    -0.014 A 
BRANCH  31  32
ATOM     32  C   UNL A   1      40.340  27.788  28.901  1.00  0.00     0.031 A 
ATOM     33  C   UNL A   1      41.755  27.801  29.407  1.00  0.00     0.074 A 
ATOM     34  C   UNL A   1      39.563  28.876  29.027  1.00  0.00     0.049 A 
ATOM     35  N   UNL A   1      42.367  28.696  30.134  1.00  0.00    -0.248 NA
ATOM     36  C   UNL A   1      42.595  26.655  29.022  1.00  0.00     0.031 C 
ATOM     37  C   UNL A   1      38.229  29.033  28.451  1.00  0.00     0.029 A 
ATOM     38  N   UNL A   1      39.793  30.062  29.677  1.00  0.00    -0.354 N 
ATOM     39  C   UNL A   1      43.665  28.228  30.292  1.00  0.00     0.074 A 
ATOM     40  C   UNL A   1      43.748  26.961  29.598  1.00  0.00     0.031 C 
ATOM     41  C   UNL A   1      37.752  30.245  28.785  1.00  0.00     0.029 A 
ATOM     42  C   UNL A   1      38.725  30.925  29.638  1.00  0.00     0.049 A 
ATOM     43  H   UNL A   1      40.641  30.273  30.128  1.00  0.00     0.167 HD
ATOM     44  C   UNL A   1      44.694  28.804  30.957  1.00  0.00     0.037 A 
ATOM     45  C   UNL A   1      38.547  32.111  30.252  1.00  0.00     0.037 A 
ATOM     46  C   UNL A   1      44.589  30.049  31.672  1.00  0.00     0.049 A 
ATOM     47  C   UNL A   1      39.645  32.653  31.129  1.00  0.00     0.074 A 
ATOM     48  C   UNL A   1      45.545  30.686  32.441  1.00  0.00     0.029 A 
ATOM     49  N   UNL A   1      43.451  30.843  31.710  1.00  0.00    -0.354 N 
ATOM     50  N   UNL A   1      40.844  32.166  31.349  1.00  0.00    -0.248 NA
ATOM     51  C   UNL A   1      39.360  33.898  31.856  1.00  0.00     0.031 C 
ATOM     52  C   UNL A   1      44.971  31.843  32.980  1.00  0.00     0.029 A 
ATOM     53  C   UNL A   1      43.673  31.955  32.506  1.00  0.00     0.049 A 
ATOM     54  H   UNL A   1      42.609  30.646  31.240  1.00  0.00     0.167 HD
ATOM     55  C   UNL A   1      41.464  33.052  32.224  1.00  0.00     0.074 A 
ATOM     56  C   UNL A   1      40.510  34.113  32.483  1.00  0.00     0.031 C 
ATOM     57  C   UNL A   1      42.708  32.996  32.762  1.00  0.00     0.037 A 
BRANCH  44  58
ATOM     58  C   UNL A   1      45.999  28.059  30.981  1.00  0.00     0.058 A 
ATOM     59  C   UNL A   1      46.921  28.149  29.926  1.00  0.00     0.135 A 
ATOM     60  C   UNL A   1      46.329  27.237  32.070  1.00  0.00     0.135 A 
ATOM     61  F   UNL A   1      46.643  28.900  28.849  1.00  0.00    -0.206 F 
ATOM     62  C   UNL A   1      48.112  27.429  29.938  1.00  0.00     0.059 A 
ATOM     63  C   UNL A   1      47.525  26.529  32.116  1.00  0.00     0.059 A 
ATOM     64  F   UNL A   1      45.478  27.108  33.102  1.00  0.00    -0.206 F 
ATOM     65  C   UNL A   1      48.403  26.620  31.037  1.00  0.00     0.060 A 
BRANCH  65  66
ATOM     66  S   UNL A   1      49.945  25.682  31.031  1.00  0.00     0.124 S 
ATOM     67  O   UNL A   1      49.693  24.696  32.077  1.00  0.00    -0.237 OA
ATOM     68  O   UNL A   1      49.987  25.161  29.668  1.00  0.00    -0.237 OA
ATOM     69  O   UNL A   1      50.957  26.685  31.347  1.00  0.00    -0.744 OA
ENDBRANCH  65  66
ENDBRANCH  44  58
BRANCH  45  70
ATOM     70  C   UNL A   1      37.268  32.851  30.081  1.00  0.00     0.058 A 
ATOM     71  C   UNL A   1      37.135  33.843  29.099  1.00  0.00     0.135 A 
ATOM     72  C   UNL A   1      36.150  32.570  30.882  1.00  0.00     0.135 A 
ATOM     73  F   UNL A   1      38.181  34.163  28.322  1.00  0.00    -0.206 F 
ATOM     74  C   UNL A   1      35.938  34.525  28.910  1.00  0.00     0.059 A 
ATOM     75  C   UNL A   1      34.934  33.221  30.696  1.00  0.00     0.059 A 
ATOM     76  F   UNL A   1      36.225  31.631  31.838  1.00  0.00    -0.206 F 
ATOM     77  C   UNL A   1      34.838  34.199  29.707  1.00  0.00     0.060 A 
BRANCH  77  78
ATOM     78  S   UNL A   1      33.269  35.037  29.399  1.00  0.00     0.124 S 
ATOM     79  O   UNL A   1      32.663  35.028  30.725  1.00  0.00    -0.237 OA
ATOM     80  O   UNL A   1      33.711  36.338  28.908  1.00  0.00    -0.237 OA
ATOM     81  O   UNL A   1      32.621  34.187  28.404  1.00  0.00    -0.744 OA
ENDBRANCH  77  78
ENDBRANCH  45  70
BRANCH  57  82
ATOM     82  C   UNL A   1      43.118  34.120  33.675  1.00  0.00     0.058 A 
ATOM     83  C   UNL A   1      43.710  35.292  33.179  1.00  0.00     0.135 A 
ATOM     84  C   UNL A   1      42.874  34.043  35.056  1.00  0.00     0.135 A 
ATOM     85  F   UNL A   1      43.969  35.417  31.868  1.00  0.00    -0.206 F 
ATOM     86  C   UNL A   1      44.072  36.337  34.025  1.00  0.00     0.059 A 
ATOM     87  C   UNL A   1      43.201  35.086  35.916  1.00  0.00     0.059 A 
ATOM     88  F   UNL A   1      42.297  32.949  35.580  1.00  0.00    -0.206 F 
ATOM     89  C   UNL A   1      43.813  36.223  35.392  1.00  0.00     0.060 A 
BRANCH  89  90
ATOM     90  S   UNL A   1      44.273  37.593  36.474  1.00  0.00     0.124 S 
ATOM     91  O   UNL A   1      43.251  37.505  37.511  1.00  0.00    -0.237 OA
ATOM     92  O   UNL A   1      45.625  37.227  36.884  1.00  0.00    -0.237 OA
ATOM     93  O   UNL A   1      44.184  38.761  35.603  1.00  0.00    -0.744 OA
ENDBRANCH  89  90
ENDBRANCH  57  82
ENDBRANCH  31  32
ENDBRANCH  24  26
ENDBRANCH  23  24
ENDBRANCH   1  23
TORSDOF 16
ENDMDL
MODEL 3
REMARK VINA RESULT:     -10.9      4.045      6.382
REMARK SMILES COc1cc(Cl)c2c(c1)C=C(C(=O)OCCOC(=O)c1ccc(-c3c4nc(c(-c5c(F)cc(S(=O)(=O)[O-])cc5F)c5ccc([nH]5)c(-c5c(F)cc(S(=O)(=O)[O-])cc5F)c5nc(c(-c6c(F)cc(S(=O)(=O)[O-])cc6F)c6ccc3[nH]6)C=C5)C=C4)cc1)[C@@H](C(F)(F)F)O2
REMARK SMILES IDX 16 1 15 2 14 3 12 4 13 5 11 6 3 7 4 8 9 9 5 10 8 11 6 12
REMARK SMILES IDX 7 13 10 14 91 15 86 16 2 17 1 18 87 19 88 20 89 21 90 22
REMARK SMILES IDX 17 23 18 24 19 25 20 26 21 27 85 28 22 29 84 30 23 31 24 32
REMARK SMILES IDX 25 33 78 34 26 35 83 36 77 37 79 38 27 39 82 40 76 41 75 42
REMARK SMILES IDX 28 44 62 45 41 46 61 47 42 48 45 49 60 50 80 51 43 52 44 53
REMARK SMILES IDX 59 55 81 56 46 57 29 58 30 59 39 60 31 61 32 62 38 63 40 64
REMARK SMILES IDX 33 65 34 66 35 67 36 68 37 69 63 70 64 71 73 72 65 73 66 74
REMARK SMILES IDX 72 75 74 76 67 77 68 78 69 79 70 80 71 81 47 82 48 83 57 84
REMARK SMILES IDX 49 85 50 86 56 87 58 88 51 89 52 90 53 91 54 92 55 93
REMARK H PARENT 79 43 45 54
REMARK Flexibility Score: inf
ROOT
ATOM      1  C   UNL A   1      34.639  32.060  27.647  1.00  0.00     0.275 C 
ENDROOT
BRANCH   1   2
ATOM      2  C   UNL A   1      33.652  32.844  28.521  1.00  0.00     0.275 C 
BRANCH   2   3
ATOM      3  O   UNL A   1      34.061  32.868  29.906  1.00  0.00    -0.459 OA
BRANCH   3   4
ATOM      4  C   UNL A   1      34.801  33.941  30.294  1.00  0.00     0.338 C 
ATOM      5  O   UNL A   1      34.862  35.015  29.732  1.00  0.00    -0.246 OA
BRANCH   4   6
ATOM      6  C   UNL A   1      35.483  33.645  31.578  1.00  0.00     0.087 C 
ATOM      7  C   UNL A   1      38.162  30.531  34.078  1.00  0.00     0.121 A 
ATOM      8  C   UNL A   1      38.455  31.508  35.026  1.00  0.00     0.070 A 
ATOM      9  C   UNL A   1      37.288  30.816  33.032  1.00  0.00     0.058 A 
ATOM     10  C   UNL A   1      37.878  32.778  34.906  1.00  0.00     0.087 A 
ATOM     11  C   UNL A   1      36.699  32.080  32.918  1.00  0.00     0.022 A 
ATOM     12  Cl  UNL A   1      38.277  33.970  36.095  1.00  0.00    -0.080 Cl
ATOM     13  C   UNL A   1      37.020  33.080  33.837  1.00  0.00     0.146 A 
ATOM     14  C   UNL A   1      35.817  32.369  31.801  1.00  0.00     0.027 C 
ATOM     15  O   UNL A   1      36.546  34.359  33.728  1.00  0.00    -0.474 OA
ATOM     16  C   UNL A   1      35.797  34.754  32.545  1.00  0.00     0.316 C 
BRANCH   7  17
ATOM     17  O   UNL A   1      38.768  29.308  34.032  1.00  0.00    -0.497 OA
ATOM     18  C   UNL A   1      39.704  29.152  32.970  1.00  0.00     0.278 C 
ENDBRANCH   7  17
BRANCH  16  19
ATOM     19  C   UNL A   1      34.503  35.431  33.028  1.00  0.00     0.430 C 
ATOM     20  F   UNL A   1      33.441  34.596  32.935  1.00  0.00    -0.167 F 
ATOM     21  F   UNL A   1      34.578  35.813  34.325  1.00  0.00    -0.167 F 
ATOM     22  F   UNL A   1      34.210  36.537  32.304  1.00  0.00    -0.167 F 
ENDBRANCH  16  19
ENDBRANCH   4   6
ENDBRANCH   3   4
ENDBRANCH   2   3
ENDBRANCH   1   2
BRANCH   1  23
ATOM     23  O   UNL A   1      34.002  30.923  27.036  1.00  0.00    -0.458 OA
BRANCH  23  24
ATOM     24  C   UNL A   1      34.213  29.746  27.671  1.00  0.00     0.338 C 
ATOM     25  O   UNL A   1      33.450  28.797  27.736  1.00  0.00    -0.246 OA
BRANCH  24  26
ATOM     26  C   UNL A   1      35.620  29.674  28.094  1.00  0.00     0.060 A 
ATOM     27  C   UNL A   1      36.571  29.784  27.082  1.00  0.00     0.016 A 
ATOM     28  C   UNL A   1      36.015  29.435  29.409  1.00  0.00     0.016 A 
ATOM     29  C   UNL A   1      37.926  29.693  27.362  1.00  0.00     0.010 A 
ATOM     30  C   UNL A   1      37.380  29.287  29.690  1.00  0.00     0.010 A 
ATOM     31  C   UNL A   1      38.338  29.405  28.665  1.00  0.00    -0.014 A 
BRANCH  31  32
ATOM     32  C   UNL A   1      39.756  29.054  28.896  1.00  0.00     0.031 A 
ATOM     33  C   UNL A   1      40.655  30.079  29.527  1.00  0.00     0.074 A 
ATOM     34  C   UNL A   1      40.212  27.818  28.635  1.00  0.00     0.049 A 
ATOM     35  N   UNL A   1      41.941  30.029  29.750  1.00  0.00    -0.248 NA
ATOM     36  C   UNL A   1      40.009  31.320  29.983  1.00  0.00     0.031 C 
ATOM     37  C   UNL A   1      39.400  26.699  28.161  1.00  0.00     0.029 A 
ATOM     38  N   UNL A   1      41.476  27.296  28.743  1.00  0.00    -0.354 N 
ATOM     39  C   UNL A   1      42.260  31.227  30.377  1.00  0.00     0.074 A 
ATOM     40  C   UNL A   1      41.035  31.991  30.484  1.00  0.00     0.031 C 
ATOM     41  C   UNL A   1      40.190  25.623  28.006  1.00  0.00     0.029 A 
ATOM     42  C   UNL A   1      41.570  25.992  28.322  1.00  0.00     0.049 A 
ATOM     43  H   UNL A   1      42.242  27.807  29.090  1.00  0.00     0.167 HD
ATOM     44  C   UNL A   1      43.466  31.651  30.822  1.00  0.00     0.037 A 
ATOM     45  C   UNL A   1      42.653  25.204  28.177  1.00  0.00     0.037 A 
ATOM     46  C   UNL A   1      44.683  30.896  30.678  1.00  0.00     0.049 A 
ATOM     47  C   UNL A   1      44.012  25.758  28.517  1.00  0.00     0.074 A 
ATOM     48  C   UNL A   1      45.971  31.260  31.024  1.00  0.00     0.029 A 
ATOM     49  N   UNL A   1      44.760  29.621  30.136  1.00  0.00    -0.354 N 
ATOM     50  N   UNL A   1      44.324  26.926  29.030  1.00  0.00    -0.248 NA
ATOM     51  C   UNL A   1      45.168  24.894  28.244  1.00  0.00     0.031 C 
ATOM     52  C   UNL A   1      46.833  30.223  30.650  1.00  0.00     0.029 A 
ATOM     53  C   UNL A   1      46.077  29.191  30.118  1.00  0.00     0.049 A 
ATOM     54  H   UNL A   1      43.992  29.097  29.811  1.00  0.00     0.167 HD
ATOM     55  C   UNL A   1      45.709  26.930  29.157  1.00  0.00     0.074 A 
ATOM     56  C   UNL A   1      46.173  25.643  28.680  1.00  0.00     0.031 C 
ATOM     57  C   UNL A   1      46.523  27.909  29.628  1.00  0.00     0.037 A 
BRANCH  44  58
ATOM     58  C   UNL A   1      43.525  33.014  31.452  1.00  0.00     0.058 A 
ATOM     59  C   UNL A   1      43.682  34.177  30.683  1.00  0.00     0.135 A 
ATOM     60  C   UNL A   1      43.431  33.158  32.845  1.00  0.00     0.135 A 
ATOM     61  F   UNL A   1      43.802  34.094  29.348  1.00  0.00    -0.206 F 
ATOM     62  C   UNL A   1      43.770  35.434  31.274  1.00  0.00     0.059 A 
ATOM     63  C   UNL A   1      43.491  34.406  33.457  1.00  0.00     0.059 A 
ATOM     64  F   UNL A   1      43.290  32.076  33.629  1.00  0.00    -0.206 F 
ATOM     65  C   UNL A   1      43.676  35.537  32.663  1.00  0.00     0.060 A 
BRANCH  65  66
ATOM     66  S   UNL A   1      43.807  37.172  33.416  1.00  0.00     0.124 S 
ATOM     67  O   UNL A   1      45.064  37.057  34.149  1.00  0.00    -0.237 OA
ATOM     68  O   UNL A   1      43.832  38.050  32.251  1.00  0.00    -0.237 OA
ATOM     69  O   UNL A   1      42.607  37.265  34.242  1.00  0.00    -0.744 OA
ENDBRANCH  65  66
ENDBRANCH  44  58
BRANCH  45  70
ATOM     70  C   UNL A   1      42.499  23.818  27.659  1.00  0.00     0.058 A 
ATOM     71  C   UNL A   1      42.478  23.561  26.281  1.00  0.00     0.135 A 
ATOM     72  C   UNL A   1      42.389  22.722  28.530  1.00  0.00     0.135 A 
ATOM     73  F   UNL A   1      42.559  24.577  25.408  1.00  0.00    -0.206 F 
ATOM     74  C   UNL A   1      42.360  22.269  25.782  1.00  0.00     0.059 A 
ATOM     75  C   UNL A   1      42.294  21.417  28.056  1.00  0.00     0.059 A 
ATOM     76  F   UNL A   1      42.402  22.914  29.858  1.00  0.00    -0.206 F 
ATOM     77  C   UNL A   1      42.280  21.200  26.679  1.00  0.00     0.060 A 
BRANCH  77  78
ATOM     78  S   UNL A   1      42.206  19.522  26.018  1.00  0.00     0.124 S 
ATOM     79  O   UNL A   1      40.789  19.392  25.698  1.00  0.00    -0.237 OA
ATOM     80  O   UNL A   1      43.113  19.605  24.878  1.00  0.00    -0.237 OA
ATOM     81  O   UNL A   1      42.679  18.700  27.128  1.00  0.00    -0.744 OA
ENDBRANCH  77  78
ENDBRANCH  45  70
BRANCH  57  82
ATOM     82  C   UNL A   1      48.000  27.621  29.665  1.00  0.00     0.058 A 
ATOM     83  C   UNL A   1      48.837  27.928  28.582  1.00  0.00     0.135 A 
ATOM     84  C   UNL A   1      48.591  27.074  30.816  1.00  0.00     0.135 A 
ATOM     85  F   UNL A   1      48.324  28.449  27.456  1.00  0.00    -0.206 F 
ATOM     86  C   UNL A   1      50.205  27.676  28.627  1.00  0.00     0.059 A 
ATOM     87  C   UNL A   1      49.960  26.840  30.894  1.00  0.00     0.059 A 
ATOM     88  F   UNL A   1      47.836  26.775  31.887  1.00  0.00    -0.206 F 
ATOM     89  C   UNL A   1      50.757  27.130  29.788  1.00  0.00     0.060 A 
BRANCH  89  90
ATOM     90  S   UNL A   1      52.535  26.824  29.838  1.00  0.00     0.124 S 
ATOM     91  O   UNL A   1      52.637  25.855  30.924  1.00  0.00    -0.237 OA
ATOM     92  O   UNL A   1      52.800  26.307  28.499  1.00  0.00    -0.237 OA
ATOM     93  O   UNL A   1      53.101  28.141  30.117  1.00  0.00    -0.744 OA
ENDBRANCH  89  90
ENDBRANCH  57  82
ENDBRANCH  31  32
ENDBRANCH  24  26
ENDBRANCH  23  24
ENDBRANCH   1  23
TORSDOF 16
ENDMDL
