MODEL 1
REMARK VINA RESULT:     -11.9      0.000      0.000
REMARK SMILES CCOC(=O)c1c(-c2cccc3ccccc23)csc1NC(=O)[C@H]1CC=CC[C@H]1C(=O)OCCOC(=O)c1ccc(-c2c3nc(c(-c4c(F)cc(S(=O)(=O)[O-])cc4F)c4ccc([nH]4)c(-c4c(F)cc(S(=O)(=O)[O-])cc4F)c4nc(c(-c5c(F)cc(S(=O)(=O)[O-])cc5F)c5ccc2[nH]5)C=C4)C=C3)cc1
REMARK SMILES IDX 33 1 32 2 30 3 31 4 29 5 24 6 25 7 26 8 28 9 27 10 22 11
REMARK SMILES IDX 21 12 23 14 20 15 6 16 7 17 18 18 19 19 4 20 5 21 3 22 2 23
REMARK SMILES IDX 1 24 8 25 9 26 17 27 10 28 12 29 16 30 11 31 13 32 15 33
REMARK SMILES IDX 14 34 34 35 35 36 36 37 37 38 38 39 39 40 103 41 40 42
REMARK SMILES IDX 102 43 41 44 42 45 43 46 96 47 44 48 101 49 95 50 97 51
REMARK SMILES IDX 45 52 100 53 94 54 93 55 46 57 80 58 59 59 79 60 60 61 63 62
REMARK SMILES IDX 78 63 98 64 61 65 62 66 77 68 99 69 64 70 47 71 48 72 57 73
REMARK SMILES IDX 49 74 50 75 56 76 58 77 51 78 52 79 53 80 54 81 55 82 81 83
REMARK SMILES IDX 82 84 91 85 83 86 84 87 90 88 92 89 85 90 86 91 87 92 88 93
REMARK SMILES IDX 89 94 65 95 66 96 75 97 67 98 68 99 74 100 76 101 69 102
REMARK SMILES IDX 70 103 71 104 72 105 73 106
REMARK H PARENT 21 13 97 56 63 67
REMARK Flexibility Score: inf
ROOT
ATOM      1  C   UNL A   1      38.245  22.129  25.505  1.00  0.00     0.274 C 
ENDROOT
BRANCH   1   2
ATOM      2  O   UNL A   1      36.929  21.911  26.058  1.00  0.00    -0.462 OA
BRANCH   2   3
ATOM      3  C   UNL A   1      35.920  22.591  25.458  1.00  0.00     0.310 C 
ATOM      4  O   UNL A   1      36.052  23.695  24.936  1.00  0.00    -0.252 OA
BRANCH   3   5
ATOM      5  C   UNL A   1      34.593  21.860  25.436  1.00  0.00     0.116 C 
ATOM      6  C   UNL A   1      33.304  22.700  25.375  1.00  0.00     0.097 C 
ATOM      7  C   UNL A   1      32.089  21.772  25.616  1.00  0.00     0.041 C 
ATOM      8  C   UNL A   1      32.198  20.425  24.943  1.00  0.00    -0.030 C 
ATOM      9  C   UNL A   1      34.632  20.705  24.430  1.00  0.00     0.043 C 
ATOM     10  C   UNL A   1      33.328  19.960  24.390  1.00  0.00    -0.030 C 
BRANCH   6  11
ATOM     11  C   UNL A   1      33.087  23.417  24.048  1.00  0.00     0.229 C 
ATOM     12  N   UNL A   1      32.419  24.586  23.872  1.00  0.00    -0.317 N 
ATOM     13  H   UNL A   1      32.240  24.771  22.922  1.00  0.00     0.170 HD
ATOM     14  O   UNL A   1      33.521  22.927  22.995  1.00  0.00    -0.274 OA
BRANCH  12  15
ATOM     15  C   UNL A   1      31.929  25.578  24.696  1.00  0.00     0.110 A 
ATOM     16  C   UNL A   1      32.204  26.933  24.563  1.00  0.00     0.102 A 
ATOM     17  C   UNL A   1      31.809  27.659  25.748  1.00  0.00     0.010 A 
ATOM     18  C   UNL A   1      31.073  26.861  26.601  1.00  0.00     0.076 A 
ATOM     19  S   UNL A   1      30.817  25.315  25.932  1.00  0.00    -0.125 S 
BRANCH  16  20
ATOM     20  C   UNL A   1      32.798  27.465  23.347  1.00  0.00     0.341 C 
ATOM     21  O   UNL A   1      33.775  26.935  22.829  1.00  0.00    -0.246 OA
BRANCH  20  22
ATOM     22  O   UNL A   1      32.195  28.588  22.872  1.00  0.00    -0.462 OA
BRANCH  22  23
ATOM     23  C   UNL A   1      30.884  28.380  22.327  1.00  0.00     0.230 C 
ATOM     24  C   UNL A   1      30.209  29.676  21.899  1.00  0.00     0.049 C 
ENDBRANCH  22  23
ENDBRANCH  20  22
ENDBRANCH  16  20
BRANCH  17  25
ATOM     25  C   UNL A   1      31.940  29.087  26.021  1.00  0.00    -0.009 A 
ATOM     26  C   UNL A   1      30.926  29.949  25.576  1.00  0.00     0.009 A 
ATOM     27  C   UNL A   1      33.062  29.591  26.730  1.00  0.00    -0.010 A 
ATOM     28  C   UNL A   1      31.003  31.314  25.841  1.00  0.00     0.001 A 
ATOM     29  C   UNL A   1      33.113  30.978  27.012  1.00  0.00    -0.018 A 
ATOM     30  C   UNL A   1      34.144  28.787  27.163  1.00  0.00     0.009 A 
ATOM     31  C   UNL A   1      32.084  31.821  26.561  1.00  0.00     0.009 A 
ATOM     32  C   UNL A   1      34.198  31.499  27.737  1.00  0.00     0.009 A 
ATOM     33  C   UNL A   1      35.212  29.319  27.882  1.00  0.00     0.001 A 
ATOM     34  C   UNL A   1      35.236  30.674  28.175  1.00  0.00     0.001 A 
ENDBRANCH  17  25
ENDBRANCH  12  15
ENDBRANCH   6  11
ENDBRANCH   3   5
ENDBRANCH   2   3
ENDBRANCH   1   2
BRANCH   1  35
ATOM     35  C   UNL A   1      39.232  22.682  26.540  1.00  0.00     0.275 C 
BRANCH  35  36
ATOM     36  O   UNL A   1      39.150  24.114  26.686  1.00  0.00    -0.458 OA
BRANCH  36  37
ATOM     37  C   UNL A   1      40.356  24.712  26.774  1.00  0.00     0.338 C 
ATOM     38  O   UNL A   1      41.264  24.635  25.965  1.00  0.00    -0.246 OA
BRANCH  37  39
ATOM     39  C   UNL A   1      40.512  25.574  27.938  1.00  0.00     0.060 A 
ATOM     40  C   UNL A   1      39.400  25.721  28.768  1.00  0.00     0.016 A 
ATOM     41  C   UNL A   1      41.612  26.423  28.050  1.00  0.00     0.016 A 
ATOM     42  C   UNL A   1      39.366  26.741  29.705  1.00  0.00     0.010 A 
ATOM     43  C   UNL A   1      41.594  27.425  29.022  1.00  0.00     0.010 A 
ATOM     44  C   UNL A   1      40.466  27.595  29.844  1.00  0.00    -0.014 A 
BRANCH  44  45
ATOM     45  C   UNL A   1      40.439  28.643  30.886  1.00  0.00     0.031 A 
ATOM     46  C   UNL A   1      41.360  28.576  32.066  1.00  0.00     0.074 A 
ATOM     47  C   UNL A   1      39.570  29.660  30.742  1.00  0.00     0.049 A 
ATOM     48  N   UNL A   1      41.404  29.347  33.120  1.00  0.00    -0.248 NA
ATOM     49  C   UNL A   1      42.361  27.496  32.067  1.00  0.00     0.031 C 
ATOM     50  C   UNL A   1      38.659  29.831  29.607  1.00  0.00     0.029 A 
ATOM     51  N   UNL A   1      39.305  30.734  31.548  1.00  0.00    -0.354 N 
ATOM     52  C   UNL A   1      42.416  28.837  33.924  1.00  0.00     0.074 A 
ATOM     53  C   UNL A   1      42.954  27.680  33.239  1.00  0.00     0.031 C 
ATOM     54  C   UNL A   1      37.937  30.946  29.788  1.00  0.00     0.029 A 
ATOM     55  C   UNL A   1      38.292  31.531  31.075  1.00  0.00     0.049 A 
ATOM     56  H   UNL A   1      39.793  30.916  32.383  1.00  0.00     0.167 HD
ATOM     57  C   UNL A   1      42.847  29.297  35.124  1.00  0.00     0.037 A 
ATOM     58  C   UNL A   1      37.688  32.593  31.637  1.00  0.00     0.037 A 
ATOM     59  C   UNL A   1      42.298  30.458  35.780  1.00  0.00     0.049 A 
ATOM     60  C   UNL A   1      38.155  33.060  32.983  1.00  0.00     0.074 A 
ATOM     61  C   UNL A   1      42.665  31.020  36.991  1.00  0.00     0.029 A 
ATOM     62  N   UNL A   1      41.261  31.235  35.279  1.00  0.00    -0.354 N 
ATOM     63  N   UNL A   1      39.104  32.562  33.740  1.00  0.00    -0.248 NA
ATOM     64  C   UNL A   1      37.469  34.223  33.557  1.00  0.00     0.031 C 
ATOM     65  C   UNL A   1      41.823  32.111  37.240  1.00  0.00     0.029 A 
ATOM     66  C   UNL A   1      40.962  32.258  36.164  1.00  0.00     0.049 A 
ATOM     67  H   UNL A   1      40.804  31.080  34.421  1.00  0.00     0.167 HD
ATOM     68  C   UNL A   1      39.142  33.362  34.875  1.00  0.00     0.074 A 
ATOM     69  C   UNL A   1      38.127  34.383  34.697  1.00  0.00     0.031 C 
ATOM     70  C   UNL A   1      39.943  33.260  35.965  1.00  0.00     0.037 A 
BRANCH  57  71
ATOM     71  C   UNL A   1      43.935  28.523  35.817  1.00  0.00     0.058 A 
ATOM     72  C   UNL A   1      45.294  28.799  35.606  1.00  0.00     0.135 A 
ATOM     73  C   UNL A   1      43.610  27.495  36.718  1.00  0.00     0.135 A 
ATOM     74  F   UNL A   1      45.663  29.762  34.746  1.00  0.00    -0.206 F 
ATOM     75  C   UNL A   1      46.294  28.063  36.237  1.00  0.00     0.059 A 
ATOM     76  C   UNL A   1      44.592  26.761  37.377  1.00  0.00     0.059 A 
ATOM     77  F   UNL A   1      42.325  27.188  36.958  1.00  0.00    -0.206 F 
ATOM     78  C   UNL A   1      45.932  27.039  37.115  1.00  0.00     0.060 A 
BRANCH  78  79
ATOM     79  S   UNL A   1      47.238  26.075  37.908  1.00  0.00     0.124 S 
ATOM     80  O   UNL A   1      48.373  26.988  37.809  1.00  0.00    -0.237 OA
ATOM     81  O   UNL A   1      46.707  25.868  39.251  1.00  0.00    -0.237 OA
ATOM     82  O   UNL A   1      47.325  24.876  37.079  1.00  0.00    -0.744 OA
ENDBRANCH  78  79
ENDBRANCH  57  71
BRANCH  58  83
ATOM     83  C   UNL A   1      36.570  33.258  30.920  1.00  0.00     0.058 A 
ATOM     84  C   UNL A   1      35.244  33.101  31.346  1.00  0.00     0.135 A 
ATOM     85  C   UNL A   1      36.815  34.117  29.836  1.00  0.00     0.135 A 
ATOM     86  F   UNL A   1      34.962  32.289  32.375  1.00  0.00    -0.206 F 
ATOM     87  C   UNL A   1      34.197  33.771  30.722  1.00  0.00     0.059 A 
ATOM     88  C   UNL A   1      35.788  34.817  29.213  1.00  0.00     0.059 A 
ATOM     89  F   UNL A   1      38.070  34.316  29.405  1.00  0.00    -0.206 F 
ATOM     90  C   UNL A   1      34.481  34.634  29.659  1.00  0.00     0.060 A 
BRANCH  90  91
ATOM     91  S   UNL A   1      33.124  35.556  28.904  1.00  0.00     0.124 S 
ATOM     92  O   UNL A   1      32.449  34.512  28.142  1.00  0.00    -0.237 OA
ATOM     93  O   UNL A   1      32.407  36.060  30.071  1.00  0.00    -0.237 OA
ATOM     94  O   UNL A   1      33.811  36.572  28.113  1.00  0.00    -0.744 OA
ENDBRANCH  90  91
ENDBRANCH  58  83
BRANCH  70  95
ATOM     95  C   UNL A   1      39.766  34.298  37.037  1.00  0.00     0.058 A 
ATOM     96  C   UNL A   1      38.993  34.048  38.181  1.00  0.00     0.135 A 
ATOM     97  C   UNL A   1      40.409  35.541  36.933  1.00  0.00     0.135 A 
ATOM     98  F   UNL A   1      38.350  32.879  38.320  1.00  0.00    -0.206 F 
ATOM     99  C   UNL A   1      38.847  35.006  39.179  1.00  0.00     0.059 A 
ATOM    100  C   UNL A   1      40.297  36.504  37.931  1.00  0.00     0.059 A 
ATOM    101  F   UNL A   1      41.165  35.826  35.860  1.00  0.00    -0.206 F 
ATOM    102  C   UNL A   1      39.504  36.231  39.044  1.00  0.00     0.060 A 
BRANCH 102 103
ATOM    103  S   UNL A   1      39.335  37.453  40.362  1.00  0.00     0.124 S 
ATOM    104  O   UNL A   1      38.865  36.627  41.469  1.00  0.00    -0.237 OA
ATOM    105  O   UNL A   1      40.694  37.969  40.489  1.00  0.00    -0.237 OA
ATOM    106  O   UNL A   1      38.361  38.399  39.824  1.00  0.00    -0.744 OA
ENDBRANCH 102 103
ENDBRANCH  70  95
ENDBRANCH  44  45
ENDBRANCH  37  39
ENDBRANCH  36  37
ENDBRANCH  35  36
ENDBRANCH   1  35
TORSDOF 20
ENDMDL
MODEL 2
REMARK VINA RESULT:     -11.7      1.272      2.558
REMARK SMILES CCOC(=O)c1c(-c2cccc3ccccc23)csc1NC(=O)[C@H]1CC=CC[C@H]1C(=O)OCCOC(=O)c1ccc(-c2c3nc(c(-c4c(F)cc(S(=O)(=O)[O-])cc4F)c4ccc([nH]4)c(-c4c(F)cc(S(=O)(=O)[O-])cc4F)c4nc(c(-c5c(F)cc(S(=O)(=O)[O-])cc5F)c5ccc2[nH]5)C=C4)C=C3)cc1
REMARK SMILES IDX 33 1 32 2 30 3 31 4 29 5 24 6 25 7 26 8 28 9 27 10 22 11
REMARK SMILES IDX 21 12 23 14 20 15 6 16 7 17 18 18 19 19 4 20 5 21 3 22 2 23
REMARK SMILES IDX 1 24 8 25 9 26 17 27 10 28 12 29 16 30 11 31 13 32 15 33
REMARK SMILES IDX 14 34 34 35 35 36 36 37 37 38 38 39 39 40 103 41 40 42
REMARK SMILES IDX 102 43 41 44 42 45 43 46 96 47 44 48 101 49 95 50 97 51
REMARK SMILES IDX 45 52 100 53 94 54 93 55 46 57 80 58 59 59 79 60 60 61 63 62
REMARK SMILES IDX 78 63 98 64 61 65 62 66 77 68 99 69 64 70 47 71 48 72 57 73
REMARK SMILES IDX 49 74 50 75 56 76 58 77 51 78 52 79 53 80 54 81 55 82 81 83
REMARK SMILES IDX 82 84 91 85 83 86 84 87 90 88 92 89 85 90 86 91 87 92 88 93
REMARK SMILES IDX 89 94 65 95 66 96 75 97 67 98 68 99 74 100 76 101 69 102
REMARK SMILES IDX 70 103 71 104 72 105 73 106
REMARK H PARENT 21 13 97 56 63 67
REMARK Flexibility Score: inf
ROOT
ATOM      1  C   UNL A   1      38.521  22.073  25.376  1.00  0.00     0.274 C 
ENDROOT
BRANCH   1   2
ATOM      2  O   UNL A   1      37.109  21.776  25.331  1.00  0.00    -0.462 OA
BRANCH   2   3
ATOM      3  C   UNL A   1      36.289  22.845  25.179  1.00  0.00     0.310 C 
ATOM      4  O   UNL A   1      36.454  23.722  24.335  1.00  0.00    -0.252 OA
BRANCH   3   5
ATOM      5  C   UNL A   1      35.100  22.865  26.117  1.00  0.00     0.116 C 
ATOM      6  C   UNL A   1      34.004  23.920  25.877  1.00  0.00     0.097 C 
ATOM      7  C   UNL A   1      33.035  23.921  27.083  1.00  0.00     0.041 C 
ATOM      8  C   UNL A   1      32.716  22.547  27.620  1.00  0.00    -0.030 C 
ATOM      9  C   UNL A   1      34.562  21.448  26.335  1.00  0.00     0.043 C 
ATOM     10  C   UNL A   1      33.382  21.438  27.266  1.00  0.00    -0.030 C 
BRANCH   6  11
ATOM     11  C   UNL A   1      33.180  23.688  24.615  1.00  0.00     0.229 C 
ATOM     12  N   UNL A   1      32.590  24.649  23.859  1.00  0.00    -0.317 N 
ATOM     13  H   UNL A   1      31.960  24.272  23.205  1.00  0.00     0.170 HD
ATOM     14  O   UNL A   1      32.978  22.536  24.204  1.00  0.00    -0.274 OA
BRANCH  12  15
ATOM     15  C   UNL A   1      32.657  26.025  23.781  1.00  0.00     0.110 A 
ATOM     16  C   UNL A   1      31.815  26.903  24.451  1.00  0.00     0.102 A 
ATOM     17  C   UNL A   1      31.934  28.241  23.920  1.00  0.00     0.010 A 
ATOM     18  C   UNL A   1      32.998  28.338  23.045  1.00  0.00     0.076 A 
ATOM     19  S   UNL A   1      33.852  26.867  22.947  1.00  0.00    -0.125 S 
BRANCH  16  20
ATOM     20  C   UNL A   1      30.970  26.450  25.544  1.00  0.00     0.341 C 
ATOM     21  O   UNL A   1      31.172  26.809  26.700  1.00  0.00    -0.246 OA
BRANCH  20  22
ATOM     22  O   UNL A   1      29.980  25.595  25.172  1.00  0.00    -0.462 OA
BRANCH  22  23
ATOM     23  C   UNL A   1      29.294  25.960  23.965  1.00  0.00     0.230 C 
ATOM     24  C   UNL A   1      27.947  26.618  24.226  1.00  0.00     0.049 C 
ENDBRANCH  22  23
ENDBRANCH  20  22
ENDBRANCH  16  20
BRANCH  17  25
ATOM     25  C   UNL A   1      31.217  29.445  24.327  1.00  0.00    -0.009 A 
ATOM     26  C   UNL A   1      31.658  30.133  25.469  1.00  0.00     0.009 A 
ATOM     27  C   UNL A   1      30.105  29.917  23.580  1.00  0.00    -0.010 A 
ATOM     28  C   UNL A   1      31.015  31.300  25.873  1.00  0.00     0.001 A 
ATOM     29  C   UNL A   1      29.478  31.119  23.992  1.00  0.00    -0.018 A 
ATOM     30  C   UNL A   1      29.576  29.247  22.451  1.00  0.00     0.009 A 
ATOM     31  C   UNL A   1      29.941  31.792  25.134  1.00  0.00     0.009 A 
ATOM     32  C   UNL A   1      28.394  31.623  23.253  1.00  0.00     0.009 A 
ATOM     33  C   UNL A   1      28.502  29.761  21.729  1.00  0.00     0.001 A 
ATOM     34  C   UNL A   1      27.914  30.953  22.127  1.00  0.00     0.001 A 
ENDBRANCH  17  25
ENDBRANCH  12  15
ENDBRANCH   6  11
ENDBRANCH   3   5
ENDBRANCH   2   3
ENDBRANCH   1   2
BRANCH   1  35
ATOM     35  C   UNL A   1      38.933  22.771  26.678  1.00  0.00     0.275 C 
BRANCH  35  36
ATOM     36  O   UNL A   1      39.024  24.205  26.542  1.00  0.00    -0.458 OA
BRANCH  36  37
ATOM     37  C   UNL A   1      40.279  24.676  26.691  1.00  0.00     0.338 C 
ATOM     38  O   UNL A   1      41.218  24.491  25.938  1.00  0.00    -0.246 OA
BRANCH  37  39
ATOM     39  C   UNL A   1      40.458  25.539  27.852  1.00  0.00     0.060 A 
ATOM     40  C   UNL A   1      39.357  25.700  28.694  1.00  0.00     0.016 A 
ATOM     41  C   UNL A   1      41.567  26.378  27.947  1.00  0.00     0.016 A 
ATOM     42  C   UNL A   1      39.345  26.722  29.629  1.00  0.00     0.010 A 
ATOM     43  C   UNL A   1      41.571  27.383  28.917  1.00  0.00     0.010 A 
ATOM     44  C   UNL A   1      40.455  27.566  29.752  1.00  0.00    -0.014 A 
BRANCH  44  45
ATOM     45  C   UNL A   1      40.452  28.617  30.792  1.00  0.00     0.031 A 
ATOM     46  C   UNL A   1      41.402  28.555  31.949  1.00  0.00     0.074 A 
ATOM     47  C   UNL A   1      39.576  29.631  30.666  1.00  0.00     0.049 A 
ATOM     48  N   UNL A   1      41.470  29.330  32.999  1.00  0.00    -0.248 NA
ATOM     49  C   UNL A   1      42.405  27.478  31.927  1.00  0.00     0.031 C 
ATOM     50  C   UNL A   1      38.636  29.796  29.554  1.00  0.00     0.029 A 
ATOM     51  N   UNL A   1      39.329  30.706  31.476  1.00  0.00    -0.354 N 
ATOM     52  C   UNL A   1      42.503  28.825  33.778  1.00  0.00     0.074 A 
ATOM     53  C   UNL A   1      43.027  27.668  33.084  1.00  0.00     0.031 C 
ATOM     54  C   UNL A   1      37.916  30.910  29.750  1.00  0.00     0.029 A 
ATOM     55  C   UNL A   1      38.302  31.500  31.026  1.00  0.00     0.049 A 
ATOM     56  H   UNL A   1      39.837  30.893  32.298  1.00  0.00     0.167 HD
ATOM     57  C   UNL A   1      42.963  29.290  34.965  1.00  0.00     0.037 A 
ATOM     58  C   UNL A   1      37.709  32.562  31.600  1.00  0.00     0.037 A 
ATOM     59  C   UNL A   1      42.427  30.451  35.632  1.00  0.00     0.049 A 
ATOM     60  C   UNL A   1      38.208  33.034  32.933  1.00  0.00     0.074 A 
ATOM     61  C   UNL A   1      42.823  31.017  36.832  1.00  0.00     0.029 A 
ATOM     62  N   UNL A   1      41.376  31.223  35.155  1.00  0.00    -0.354 N 
ATOM     63  N   UNL A   1      39.178  32.541  33.667  1.00  0.00    -0.248 NA
ATOM     64  C   UNL A   1      37.534  34.197  33.520  1.00  0.00     0.031 C 
ATOM     65  C   UNL A   1      41.985  32.107  37.099  1.00  0.00     0.029 A 
ATOM     66  C   UNL A   1      41.096  32.249  36.045  1.00  0.00     0.049 A 
ATOM     67  H   UNL A   1      40.898  31.065  34.309  1.00  0.00     0.167 HD
ATOM     68  C   UNL A   1      39.242  33.344  34.799  1.00  0.00     0.074 A 
ATOM     69  C   UNL A   1      38.220  34.361  34.643  1.00  0.00     0.031 C 
ATOM     70  C   UNL A   1      40.070  33.247  35.868  1.00  0.00     0.037 A 
BRANCH  57  71
ATOM     71  C   UNL A   1      44.070  28.521  35.634  1.00  0.00     0.058 A 
ATOM     72  C   UNL A   1      43.810  27.483  36.542  1.00  0.00     0.135 A 
ATOM     73  C   UNL A   1      45.413  28.819  35.352  1.00  0.00     0.135 A 
ATOM     74  F   UNL A   1      42.545  27.162  36.859  1.00  0.00    -0.206 F 
ATOM     75  C   UNL A   1      44.841  26.791  37.172  1.00  0.00     0.059 A 
ATOM     76  C   UNL A   1      46.460  28.126  35.952  1.00  0.00     0.059 A 
ATOM     77  F   UNL A   1      45.720  29.803  34.491  1.00  0.00    -0.206 F 
ATOM     78  C   UNL A   1      46.164  27.126  36.876  1.00  0.00     0.060 A 
BRANCH  78  79
ATOM     79  S   UNL A   1      47.492  26.238  37.718  1.00  0.00     0.124 S 
ATOM     80  O   UNL A   1      46.827  24.987  38.072  1.00  0.00    -0.237 OA
ATOM     81  O   UNL A   1      48.514  26.140  36.681  1.00  0.00    -0.237 OA
ATOM     82  O   UNL A   1      47.825  27.109  38.841  1.00  0.00    -0.744 OA
ENDBRANCH  78  79
ENDBRANCH  57  71
BRANCH  58  83
ATOM     83  C   UNL A   1      36.571  33.222  30.910  1.00  0.00     0.058 A 
ATOM     84  C   UNL A   1      35.272  33.149  31.427  1.00  0.00     0.135 A 
ATOM     85  C   UNL A   1      36.776  33.994  29.754  1.00  0.00     0.135 A 
ATOM     86  F   UNL A   1      35.028  32.420  32.527  1.00  0.00    -0.206 F 
ATOM     87  C   UNL A   1      34.212  33.817  30.825  1.00  0.00     0.059 A 
ATOM     88  C   UNL A   1      35.737  34.692  29.149  1.00  0.00     0.059 A 
ATOM     89  F   UNL A   1      38.007  34.111  29.233  1.00  0.00    -0.206 F 
ATOM     90  C   UNL A   1      34.457  34.593  29.688  1.00  0.00     0.060 A 
BRANCH  90  91
ATOM     91  S   UNL A   1      33.088  35.516  28.956  1.00  0.00     0.124 S 
ATOM     92  O   UNL A   1      33.787  36.641  28.345  1.00  0.00    -0.237 OA
ATOM     93  O   UNL A   1      32.517  34.541  28.032  1.00  0.00    -0.237 OA
ATOM     94  O   UNL A   1      32.251  35.842  30.107  1.00  0.00    -0.744 OA
ENDBRANCH  90  91
ENDBRANCH  58  83
BRANCH  70  95
ATOM     95  C   UNL A   1      39.918  34.288  36.941  1.00  0.00     0.058 A 
ATOM     96  C   UNL A   1      40.524  35.549  36.833  1.00  0.00     0.135 A 
ATOM     97  C   UNL A   1      39.125  34.032  38.070  1.00  0.00     0.135 A 
ATOM     98  F   UNL A   1      41.300  35.838  35.777  1.00  0.00    -0.206 F 
ATOM     99  C   UNL A   1      40.365  36.515  37.821  1.00  0.00     0.059 A 
ATOM    100  C   UNL A   1      38.932  34.992  39.058  1.00  0.00     0.059 A 
ATOM    101  F   UNL A   1      38.519  32.842  38.216  1.00  0.00    -0.206 F 
ATOM    102  C   UNL A   1      39.566  36.226  38.930  1.00  0.00     0.060 A 
BRANCH 102 103
ATOM    103  S   UNL A   1      39.339  37.500  40.188  1.00  0.00     0.124 S 
ATOM    104  O   UNL A   1      38.729  36.737  41.271  1.00  0.00    -0.237 OA
ATOM    105  O   UNL A   1      40.705  37.955  40.426  1.00  0.00    -0.237 OA
ATOM    106  O   UNL A   1      38.467  38.472  39.534  1.00  0.00    -0.744 OA
ENDBRANCH 102 103
ENDBRANCH  70  95
ENDBRANCH  44  45
ENDBRANCH  37  39
ENDBRANCH  36  37
ENDBRANCH  35  36
ENDBRANCH   1  35
TORSDOF 20
ENDMDL
MODEL 3
REMARK VINA RESULT:     -11.6      2.738      8.465
REMARK SMILES CCOC(=O)c1c(-c2cccc3ccccc23)csc1NC(=O)[C@H]1CC=CC[C@H]1C(=O)OCCOC(=O)c1ccc(-c2c3nc(c(-c4c(F)cc(S(=O)(=O)[O-])cc4F)c4ccc([nH]4)c(-c4c(F)cc(S(=O)(=O)[O-])cc4F)c4nc(c(-c5c(F)cc(S(=O)(=O)[O-])cc5F)c5ccc2[nH]5)C=C4)C=C3)cc1
REMARK SMILES IDX 33 1 32 2 30 3 31 4 29 5 24 6 25 7 26 8 28 9 27 10 22 11
REMARK SMILES IDX 21 12 23 14 20 15 6 16 7 17 18 18 19 19 4 20 5 21 3 22 2 23
REMARK SMILES IDX 1 24 8 25 9 26 17 27 10 28 12 29 16 30 11 31 13 32 15 33
REMARK SMILES IDX 14 34 34 35 35 36 36 37 37 38 38 39 39 40 103 41 40 42
REMARK SMILES IDX 102 43 41 44 42 45 43 46 96 47 44 48 101 49 95 50 97 51
REMARK SMILES IDX 45 52 100 53 94 54 93 55 46 57 80 58 59 59 79 60 60 61 63 62
REMARK SMILES IDX 78 63 98 64 61 65 62 66 77 68 99 69 64 70 47 71 48 72 57 73
REMARK SMILES IDX 49 74 50 75 56 76 58 77 51 78 52 79 53 80 54 81 55 82 81 83
REMARK SMILES IDX 82 84 91 85 83 86 84 87 90 88 92 89 85 90 86 91 87 92 88 93
REMARK SMILES IDX 89 94 65 95 66 96 75 97 67 98 68 99 74 100 76 101 69 102
REMARK SMILES IDX 70 103 71 104 72 105 73 106
REMARK H PARENT 21 13 97 56 63 67
REMARK Flexibility Score: inf
ROOT
ATOM      1  C   UNL A   1      36.082  22.365  25.030  1.00  0.00     0.274 C 
ENDROOT
BRANCH   1   2
ATOM      2  O   UNL A   1      34.678  22.034  25.096  1.00  0.00    -0.462 OA
BRANCH   2   3
ATOM      3  C   UNL A   1      34.324  21.173  26.083  1.00  0.00     0.310 C 
ATOM      4  O   UNL A   1      34.250  21.482  27.269  1.00  0.00    -0.252 OA
BRANCH   3   5
ATOM      5  C   UNL A   1      33.974  19.778  25.606  1.00  0.00     0.116 C 
ATOM      6  C   UNL A   1      32.562  19.538  25.041  1.00  0.00     0.097 C 
ATOM      7  C   UNL A   1      32.347  18.016  24.858  1.00  0.00     0.041 C 
ATOM      8  C   UNL A   1      33.555  17.281  24.330  1.00  0.00    -0.030 C 
ATOM      9  C   UNL A   1      35.099  19.209  24.736  1.00  0.00     0.043 C 
ATOM     10  C   UNL A   1      34.780  17.823  24.251  1.00  0.00    -0.030 C 
BRANCH   6  11
ATOM     11  C   UNL A   1      32.305  20.211  23.697  1.00  0.00     0.229 C 
ATOM     12  N   UNL A   1      31.830  21.469  23.512  1.00  0.00    -0.317 N 
ATOM     13  H   UNL A   1      31.566  21.632  22.578  1.00  0.00     0.170 HD
ATOM     14  O   UNL A   1      32.511  19.595  22.641  1.00  0.00    -0.274 OA
BRANCH  12  15
ATOM     15  C   UNL A   1      31.625  22.576  24.310  1.00  0.00     0.110 A 
ATOM     16  C   UNL A   1      32.100  23.853  24.039  1.00  0.00     0.102 A 
ATOM     17  C   UNL A   1      31.994  24.701  25.203  1.00  0.00     0.010 A 
ATOM     18  C   UNL A   1      31.258  24.093  26.200  1.00  0.00     0.076 A 
ATOM     19  S   UNL A   1      30.663  22.579  25.690  1.00  0.00    -0.125 S 
BRANCH  16  20
ATOM     20  C   UNL A   1      32.604  24.205  22.722  1.00  0.00     0.341 C 
ATOM     21  O   UNL A   1      33.621  23.690  22.268  1.00  0.00    -0.246 OA
BRANCH  20  22
ATOM     22  O   UNL A   1      31.872  25.151  22.074  1.00  0.00    -0.462 OA
BRANCH  22  23
ATOM     23  C   UNL A   1      32.624  25.978  21.174  1.00  0.00     0.230 C 
ATOM     24  C   UNL A   1      33.409  27.069  21.890  1.00  0.00     0.049 C 
ENDBRANCH  22  23
ENDBRANCH  20  22
ENDBRANCH  16  20
BRANCH  17  25
ATOM     25  C   UNL A   1      32.394  26.098  25.346  1.00  0.00    -0.009 A 
ATOM     26  C   UNL A   1      33.600  26.385  26.004  1.00  0.00     0.009 A 
ATOM     27  C   UNL A   1      31.588  27.142  24.820  1.00  0.00    -0.010 A 
ATOM     28  C   UNL A   1      34.027  27.703  26.136  1.00  0.00     0.001 A 
ATOM     29  C   UNL A   1      32.050  28.476  24.942  1.00  0.00    -0.018 A 
ATOM     30  C   UNL A   1      30.338  26.929  24.191  1.00  0.00     0.009 A 
ATOM     31  C   UNL A   1      33.262  28.738  25.601  1.00  0.00     0.009 A 
ATOM     32  C   UNL A   1      31.285  29.525  24.405  1.00  0.00     0.009 A 
ATOM     33  C   UNL A   1      29.593  27.981  23.662  1.00  0.00     0.001 A 
ATOM     34  C   UNL A   1      30.070  29.279  23.764  1.00  0.00     0.001 A 
ENDBRANCH  17  25
ENDBRANCH  12  15
ENDBRANCH   6  11
ENDBRANCH   3   5
ENDBRANCH   2   3
ENDBRANCH   1   2
BRANCH   1  35
ATOM     35  C   UNL A   1      36.440  23.578  25.897  1.00  0.00     0.275 C 
BRANCH  35  36
ATOM     36  O   UNL A   1      37.671  24.214  25.493  1.00  0.00    -0.458 OA
BRANCH  36  37
ATOM     37  C   UNL A   1      38.755  23.733  26.134  1.00  0.00     0.338 C 
ATOM     38  O   UNL A   1      39.244  22.625  26.003  1.00  0.00    -0.246 OA
BRANCH  37  39
ATOM     39  C   UNL A   1      39.406  24.698  27.012  1.00  0.00     0.060 A 
ATOM     40  C   UNL A   1      38.958  24.751  28.332  1.00  0.00     0.016 A 
ATOM     41  C   UNL A   1      40.218  25.700  26.485  1.00  0.00     0.016 A 
ATOM     42  C   UNL A   1      39.300  25.826  29.136  1.00  0.00     0.010 A 
ATOM     43  C   UNL A   1      40.596  26.763  27.308  1.00  0.00     0.010 A 
ATOM     44  C   UNL A   1      40.128  26.836  28.632  1.00  0.00    -0.014 A 
BRANCH  44  45
ATOM     45  C   UNL A   1      40.531  27.949  29.518  1.00  0.00     0.031 A 
ATOM     46  C   UNL A   1      39.643  29.142  29.703  1.00  0.00     0.074 A 
ATOM     47  C   UNL A   1      41.713  27.858  30.154  1.00  0.00     0.049 A 
ATOM     48  N   UNL A   1      39.880  30.249  30.356  1.00  0.00    -0.248 NA
ATOM     49  C   UNL A   1      38.317  29.088  29.067  1.00  0.00     0.031 C 
ATOM     50  C   UNL A   1      42.629  26.718  30.064  1.00  0.00     0.029 A 
ATOM     51  N   UNL A   1      42.349  28.733  30.993  1.00  0.00    -0.354 N 
ATOM     52  C   UNL A   1      38.747  31.037  30.192  1.00  0.00     0.074 A 
ATOM     53  C   UNL A   1      37.826  30.284  29.367  1.00  0.00     0.031 C 
ATOM     54  C   UNL A   1      43.708  26.962  30.821  1.00  0.00     0.029 A 
ATOM     55  C   UNL A   1      43.586  28.296  31.398  1.00  0.00     0.049 A 
ATOM     56  H   UNL A   1      41.957  29.590  31.278  1.00  0.00     0.167 HD
ATOM     57  C   UNL A   1      38.508  32.276  30.687  1.00  0.00     0.037 A 
ATOM     58  C   UNL A   1      44.534  28.918  32.120  1.00  0.00     0.037 A 
ATOM     59  C   UNL A   1      39.441  33.001  31.514  1.00  0.00     0.049 A 
ATOM     60  C   UNL A   1      44.263  30.305  32.623  1.00  0.00     0.074 A 
ATOM     61  C   UNL A   1      39.298  34.257  32.079  1.00  0.00     0.029 A 
ATOM     62  N   UNL A   1      40.693  32.534  31.893  1.00  0.00    -0.354 N 
ATOM     63  N   UNL A   1      43.194  31.045  32.452  1.00  0.00    -0.248 NA
ATOM     64  C   UNL A   1      45.325  30.944  33.409  1.00  0.00     0.031 C 
ATOM     65  C   UNL A   1      40.480  34.564  32.765  1.00  0.00     0.029 A 
ATOM     66  C   UNL A   1      41.342  33.483  32.667  1.00  0.00     0.049 A 
ATOM     67  H   UNL A   1      41.066  31.656  31.647  1.00  0.00     0.167 HD
ATOM     68  C   UNL A   1      43.446  32.235  33.122  1.00  0.00     0.074 A 
ATOM     69  C   UNL A   1      44.764  32.107  33.712  1.00  0.00     0.031 C 
ATOM     70  C   UNL A   1      42.657  33.332  33.239  1.00  0.00     0.037 A 
BRANCH  57  71
ATOM     71  C   UNL A   1      37.209  32.937  30.315  1.00  0.00     0.058 A 
ATOM     72  C   UNL A   1      36.072  32.855  31.133  1.00  0.00     0.135 A 
ATOM     73  C   UNL A   1      37.104  33.675  29.124  1.00  0.00     0.135 A 
ATOM     74  F   UNL A   1      36.110  32.152  32.275  1.00  0.00    -0.206 F 
ATOM     75  C   UNL A   1      34.868  33.452  30.768  1.00  0.00     0.059 A 
ATOM     76  C   UNL A   1      35.918  34.300  28.751  1.00  0.00     0.059 A 
ATOM     77  F   UNL A   1      38.161  33.787  28.303  1.00  0.00    -0.206 F 
ATOM     78  C   UNL A   1      34.799  34.166  29.570  1.00  0.00     0.060 A 
BRANCH  78  79
ATOM     79  S   UNL A   1      33.225  34.916  29.097  1.00  0.00     0.124 S 
ATOM     80  O   UNL A   1      32.526  34.957  30.378  1.00  0.00    -0.237 OA
ATOM     81  O   UNL A   1      33.639  36.208  28.561  1.00  0.00    -0.237 OA
ATOM     82  O   UNL A   1      32.683  33.978  28.118  1.00  0.00    -0.744 OA
ENDBRANCH  78  79
ENDBRANCH  57  71
BRANCH  58  83
ATOM     83  C   UNL A   1      45.822  28.225  32.382  1.00  0.00     0.058 A 
ATOM     84  C   UNL A   1      45.984  27.401  33.503  1.00  0.00     0.135 A 
ATOM     85  C   UNL A   1      46.892  28.322  31.476  1.00  0.00     0.135 A 
ATOM     86  F   UNL A   1      44.990  27.280  34.396  1.00  0.00    -0.206 F 
ATOM     87  C   UNL A   1      47.163  26.697  33.721  1.00  0.00     0.059 A 
ATOM     88  C   UNL A   1      48.070  27.608  31.660  1.00  0.00     0.059 A 
ATOM     89  F   UNL A   1      46.776  29.083  30.377  1.00  0.00    -0.206 F 
ATOM     90  C   UNL A   1      48.199  26.802  32.789  1.00  0.00     0.060 A 
BRANCH  90  91
ATOM     91  S   UNL A   1      49.697  25.825  33.043  1.00  0.00     0.124 S 
ATOM     92  O   UNL A   1      49.326  25.015  34.197  1.00  0.00    -0.237 OA
ATOM     93  O   UNL A   1      49.819  25.113  31.775  1.00  0.00    -0.237 OA
ATOM     94  O   UNL A   1      50.719  26.839  33.284  1.00  0.00    -0.744 OA
ENDBRANCH  90  91
ENDBRANCH  58  83
BRANCH  70  95
ATOM     95  C   UNL A   1      43.197  34.472  34.058  1.00  0.00     0.058 A 
ATOM     96  C   UNL A   1      44.027  35.453  33.494  1.00  0.00     0.135 A 
ATOM     97  C   UNL A   1      42.847  34.601  35.410  1.00  0.00     0.135 A 
ATOM     98  F   UNL A   1      44.397  35.366  32.207  1.00  0.00    -0.206 F 
ATOM     99  C   UNL A   1      44.508  36.515  34.251  1.00  0.00     0.059 A 
ATOM    100  C   UNL A   1      43.297  35.669  36.180  1.00  0.00     0.059 A 
ATOM    101  F   UNL A   1      42.050  33.691  35.994  1.00  0.00    -0.206 F 
ATOM    102  C   UNL A   1      44.137  36.614  35.594  1.00  0.00     0.060 A 
BRANCH 102 103
ATOM    103  S   UNL A   1      44.741  38.016  36.558  1.00  0.00     0.124 S 
ATOM    104  O   UNL A   1      44.155  39.141  35.837  1.00  0.00    -0.237 OA
ATOM    105  O   UNL A   1      44.184  37.751  37.880  1.00  0.00    -0.237 OA
ATOM    106  O   UNL A   1      46.193  37.894  36.460  1.00  0.00    -0.744 OA
ENDBRANCH 102 103
ENDBRANCH  70  95
ENDBRANCH  44  45
ENDBRANCH  37  39
ENDBRANCH  36  37
ENDBRANCH  35  36
ENDBRANCH   1  35
TORSDOF 20
ENDMDL
