MODEL 1
REMARK VINA RESULT:     -10.8      0.000      0.000
REMARK SMILES CC[C@@](C)([NH2+]Cc1ccc(C(N)=O)cc1F)C(=O)OCCOC(=O)c1ccc(-c2c3nc(c(-c4c(F)cc(S(=O)(=O)[O-])cc4F)c4ccc([nH]4)c(-c4c(F)cc(S(=O)(=O)[O-])cc4F)c4nc(c(-c5c(F)cc(S(=O)(=O)[O-])cc5F)c5ccc2[nH]5)C=C4)C=C3)cc1
REMARK SMILES IDX 20 1 19 2 17 3 18 4 3 5 4 6 2 7 1 8 5 9 6 12 7 13 8 14 15 15
REMARK SMILES IDX 9 16 14 17 16 18 10 19 11 20 12 21 13 22 21 25 22 26 23 27
REMARK SMILES IDX 24 28 25 29 26 30 90 31 27 32 89 33 28 34 29 35 30 36 83 37
REMARK SMILES IDX 31 38 88 39 82 40 84 41 32 42 87 43 81 44 80 45 33 47 67 48
REMARK SMILES IDX 46 49 66 50 47 51 50 52 65 53 85 54 48 55 49 56 64 58 86 59
REMARK SMILES IDX 51 60 34 61 35 62 44 63 36 64 37 65 43 66 45 67 38 68 39 69
REMARK SMILES IDX 40 70 41 71 42 72 68 73 69 74 78 75 70 76 71 77 77 78 79 79
REMARK SMILES IDX 72 80 73 81 74 82 75 83 76 84 52 85 53 86 62 87 54 88 55 89
REMARK SMILES IDX 61 90 63 91 56 92 57 93 58 94 59 95 60 96
REMARK H PARENT 5 10 5 11 12 23 12 24 84 46 50 57
REMARK Flexibility Score: inf
ROOT
ATOM      1  C   UNL A   1      33.114  28.963  25.367  1.00  0.00     0.274 C 
ENDROOT
BRANCH   1   2
ATOM      2  O   UNL A   1      33.357  27.539  25.347  1.00  0.00    -0.457 OA
BRANCH   2   3
ATOM      3  C   UNL A   1      32.829  26.860  24.286  1.00  0.00     0.367 C 
ATOM      4  O   UNL A   1      33.313  26.895  23.159  1.00  0.00    -0.245 OA
BRANCH   3   5
ATOM      5  C   UNL A   1      31.563  26.024  24.663  1.00  0.00     0.191 C 
ATOM      6  C   UNL A   1      31.324  24.881  23.647  1.00  0.00     0.092 C 
BRANCH   5   7
ATOM      7  C   UNL A   1      31.807  25.344  26.045  1.00  0.00     0.077 C 
ATOM      8  C   UNL A   1      30.973  24.087  26.304  1.00  0.00     0.011 C 
ENDBRANCH   5   7
BRANCH   5   9
ATOM      9  N   UNL A   1      30.327  26.853  24.853  1.00  0.00    -0.329 N 
ATOM     10  H   UNL A   1      30.625  27.828  24.865  1.00  0.00     0.347 HD
ATOM     11  H   UNL A   1      29.920  26.477  25.709  1.00  0.00     0.347 HD
BRANCH   9  12
ATOM     12  C   UNL A   1      29.226  26.758  23.884  1.00  0.00     0.301 C 
BRANCH  12  13
ATOM     13  C   UNL A   1      28.980  28.012  23.092  1.00  0.00     0.042 A 
ATOM     14  C   UNL A   1      30.026  28.623  22.388  1.00  0.00     0.013 A 
ATOM     15  C   UNL A   1      27.746  28.669  23.174  1.00  0.00     0.132 A 
ATOM     16  C   UNL A   1      29.864  29.912  21.874  1.00  0.00     0.014 A 
ATOM     17  C   UNL A   1      27.589  29.967  22.709  1.00  0.00     0.053 A 
ATOM     18  F   UNL A   1      26.714  28.083  23.792  1.00  0.00    -0.206 F 
ATOM     19  C   UNL A   1      28.659  30.599  22.078  1.00  0.00     0.042 A 
BRANCH  19  20
ATOM     20  C   UNL A   1      28.514  32.030  21.727  1.00  0.00     0.248 C 
ATOM     21  N   UNL A   1      27.827  32.325  20.586  1.00  0.00    -0.366 N 
ATOM     22  O   UNL A   1      28.981  32.912  22.434  1.00  0.00    -0.270 OA
ATOM     23  H   UNL A   1      27.460  31.600  20.031  1.00  0.00     0.159 HD
ATOM     24  H   UNL A   1      27.699  33.264  20.318  1.00  0.00     0.159 HD
ENDBRANCH  19  20
ENDBRANCH  12  13
ENDBRANCH   9  12
ENDBRANCH   5   9
ENDBRANCH   3   5
ENDBRANCH   2   3
ENDBRANCH   1   2
BRANCH   1  25
ATOM     25  C   UNL A   1      32.799  29.399  26.796  1.00  0.00     0.275 C 
BRANCH  25  26
ATOM     26  O   UNL A   1      33.986  29.177  27.572  1.00  0.00    -0.458 OA
BRANCH  26  27
ATOM     27  C   UNL A   1      34.565  30.270  28.110  1.00  0.00     0.338 C 
ATOM     28  O   UNL A   1      34.037  31.331  28.417  1.00  0.00    -0.246 OA
BRANCH  27  29
ATOM     29  C   UNL A   1      35.964  29.921  28.384  1.00  0.00     0.060 A 
ATOM     30  C   UNL A   1      36.858  29.928  27.314  1.00  0.00     0.016 A 
ATOM     31  C   UNL A   1      36.393  29.564  29.657  1.00  0.00     0.016 A 
ATOM     32  C   UNL A   1      38.176  29.532  27.498  1.00  0.00     0.010 A 
ATOM     33  C   UNL A   1      37.744  29.256  29.857  1.00  0.00     0.010 A 
ATOM     34  C   UNL A   1      38.649  29.233  28.778  1.00  0.00    -0.014 A 
BRANCH  34  35
ATOM     35  C   UNL A   1      40.086  28.907  28.988  1.00  0.00     0.031 A 
ATOM     36  C   UNL A   1      41.035  29.982  29.434  1.00  0.00     0.074 A 
ATOM     37  C   UNL A   1      40.543  27.656  28.772  1.00  0.00     0.049 A 
ATOM     38  N   UNL A   1      42.341  29.992  29.402  1.00  0.00    -0.248 NA
ATOM     39  C   UNL A   1      40.437  31.211  29.985  1.00  0.00     0.031 C 
ATOM     40  C   UNL A   1      39.720  26.493  28.425  1.00  0.00     0.029 A 
ATOM     41  N   UNL A   1      41.823  27.151  28.800  1.00  0.00    -0.354 N 
ATOM     42  C   UNL A   1      42.721  31.243  29.868  1.00  0.00     0.074 A 
ATOM     43  C   UNL A   1      41.510  31.962  30.200  1.00  0.00     0.031 C 
ATOM     44  C   UNL A   1      40.507  25.418  28.281  1.00  0.00     0.029 A 
ATOM     45  C   UNL A   1      41.899  25.832  28.412  1.00  0.00     0.049 A 
ATOM     46  H   UNL A   1      42.606  27.681  29.070  1.00  0.00     0.167 HD
ATOM     47  C   UNL A   1      43.972  31.742  29.993  1.00  0.00     0.037 A 
ATOM     48  C   UNL A   1      42.963  25.059  28.114  1.00  0.00     0.037 A 
ATOM     49  C   UNL A   1      45.167  30.992  29.710  1.00  0.00     0.049 A 
ATOM     50  C   UNL A   1      44.339  25.660  28.179  1.00  0.00     0.074 A 
ATOM     51  C   UNL A   1      46.484  31.406  29.815  1.00  0.00     0.029 A 
ATOM     52  N   UNL A   1      45.194  29.675  29.278  1.00  0.00    -0.354 N 
ATOM     53  N   UNL A   1      44.690  26.868  28.550  1.00  0.00    -0.248 NA
ATOM     54  C   UNL A   1      45.461  24.811  27.752  1.00  0.00     0.031 C 
ATOM     55  C   UNL A   1      47.306  30.351  29.409  1.00  0.00     0.029 A 
ATOM     56  C   UNL A   1      46.503  29.268  29.089  1.00  0.00     0.049 A 
ATOM     57  H   UNL A   1      44.400  29.112  29.130  1.00  0.00     0.167 HD
ATOM     58  C   UNL A   1      46.070  26.925  28.400  1.00  0.00     0.074 A 
ATOM     59  C   UNL A   1      46.494  25.625  27.925  1.00  0.00     0.031 C 
ATOM     60  C   UNL A   1      46.906  27.965  28.625  1.00  0.00     0.037 A 
BRANCH  47  61
ATOM     61  C   UNL A   1      44.137  33.171  30.419  1.00  0.00     0.058 A 
ATOM     62  C   UNL A   1      44.243  34.180  29.449  1.00  0.00     0.135 A 
ATOM     63  C   UNL A   1      44.314  33.529  31.763  1.00  0.00     0.135 A 
ATOM     64  F   UNL A   1      44.071  33.890  28.150  1.00  0.00    -0.206 F 
ATOM     65  C   UNL A   1      44.557  35.490  29.794  1.00  0.00     0.059 A 
ATOM     66  C   UNL A   1      44.611  34.838  32.133  1.00  0.00     0.059 A 
ATOM     67  F   UNL A   1      44.198  32.603  32.729  1.00  0.00    -0.206 F 
ATOM     68  C   UNL A   1      44.753  35.806  31.138  1.00  0.00     0.060 A 
BRANCH  68  69
ATOM     69  S   UNL A   1      45.187  37.506  31.564  1.00  0.00     0.124 S 
ATOM     70  O   UNL A   1      46.029  37.893  30.439  1.00  0.00    -0.237 OA
ATOM     71  O   UNL A   1      43.878  38.149  31.631  1.00  0.00    -0.237 OA
ATOM     72  O   UNL A   1      45.873  37.369  32.846  1.00  0.00    -0.744 OA
ENDBRANCH  68  69
ENDBRANCH  47  61
BRANCH  48  73
ATOM     73  C   UNL A   1      42.755  23.669  27.624  1.00  0.00     0.058 A 
ATOM     74  C   UNL A   1      42.560  23.405  26.257  1.00  0.00     0.135 A 
ATOM     75  C   UNL A   1      42.735  22.580  28.507  1.00  0.00     0.135 A 
ATOM     76  F   UNL A   1      42.570  24.411  25.369  1.00  0.00    -0.206 F 
ATOM     77  C   UNL A   1      42.322  22.120  25.788  1.00  0.00     0.059 A 
ATOM     78  C   UNL A   1      42.528  21.278  28.056  1.00  0.00     0.059 A 
ATOM     79  F   UNL A   1      42.938  22.777  29.818  1.00  0.00    -0.206 F 
ATOM     80  C   UNL A   1      42.305  21.062  26.695  1.00  0.00     0.060 A 
BRANCH  80  81
ATOM     81  S   UNL A   1      42.015  19.395  26.063  1.00  0.00     0.124 S 
ATOM     82  O   UNL A   1      42.864  19.381  24.877  1.00  0.00    -0.237 OA
ATOM     83  O   UNL A   1      42.463  18.561  27.174  1.00  0.00    -0.237 OA
ATOM     84  O   UNL A   1      40.578  19.378  25.811  1.00  0.00    -0.744 OA
ENDBRANCH  80  81
ENDBRANCH  48  73
BRANCH  60  85
ATOM     85  C   UNL A   1      48.371  27.754  28.378  1.00  0.00     0.058 A 
ATOM     86  C   UNL A   1      48.931  28.048  27.125  1.00  0.00     0.135 A 
ATOM     87  C   UNL A   1      49.189  27.146  29.342  1.00  0.00     0.135 A 
ATOM     88  F   UNL A   1      48.186  28.629  26.171  1.00  0.00    -0.206 F 
ATOM     89  C   UNL A   1      50.243  27.710  26.823  1.00  0.00     0.059 A 
ATOM     90  C   UNL A   1      50.512  26.818  29.068  1.00  0.00     0.059 A 
ATOM     91  F   UNL A   1      48.699  26.861  30.559  1.00  0.00    -0.206 F 
ATOM     92  C   UNL A   1      51.022  27.082  27.796  1.00  0.00     0.060 A 
BRANCH  92  93
ATOM     93  S   UNL A   1      52.712  26.612  27.371  1.00  0.00     0.124 S 
ATOM     94  O   UNL A   1      53.115  27.703  26.491  1.00  0.00    -0.237 OA
ATOM     95  O   UNL A   1      53.361  26.579  28.678  1.00  0.00    -0.237 OA
ATOM     96  O   UNL A   1      52.551  25.311  26.728  1.00  0.00    -0.744 OA
ENDBRANCH  92  93
ENDBRANCH  60  85
ENDBRANCH  34  35
ENDBRANCH  27  29
ENDBRANCH  26  27
ENDBRANCH  25  26
ENDBRANCH   1  25
TORSDOF 19
ENDMDL
MODEL 2
REMARK VINA RESULT:     -10.8      6.541     11.585
REMARK SMILES CC[C@@](C)([NH2+]Cc1ccc(C(N)=O)cc1F)C(=O)OCCOC(=O)c1ccc(-c2c3nc(c(-c4c(F)cc(S(=O)(=O)[O-])cc4F)c4ccc([nH]4)c(-c4c(F)cc(S(=O)(=O)[O-])cc4F)c4nc(c(-c5c(F)cc(S(=O)(=O)[O-])cc5F)c5ccc2[nH]5)C=C4)C=C3)cc1
REMARK SMILES IDX 20 1 19 2 17 3 18 4 3 5 4 6 2 7 1 8 5 9 6 12 7 13 8 14 15 15
REMARK SMILES IDX 9 16 14 17 16 18 10 19 11 20 12 21 13 22 21 25 22 26 23 27
REMARK SMILES IDX 24 28 25 29 26 30 90 31 27 32 89 33 28 34 29 35 30 36 83 37
REMARK SMILES IDX 31 38 88 39 82 40 84 41 32 42 87 43 81 44 80 45 33 47 67 48
REMARK SMILES IDX 46 49 66 50 47 51 50 52 65 53 85 54 48 55 49 56 64 58 86 59
REMARK SMILES IDX 51 60 34 61 35 62 44 63 36 64 37 65 43 66 45 67 38 68 39 69
REMARK SMILES IDX 40 70 41 71 42 72 68 73 69 74 78 75 70 76 71 77 77 78 79 79
REMARK SMILES IDX 72 80 73 81 74 82 75 83 76 84 52 85 53 86 62 87 54 88 55 89
REMARK SMILES IDX 61 90 63 91 56 92 57 93 58 94 59 95 60 96
REMARK H PARENT 5 10 5 11 12 23 12 24 84 46 50 57
REMARK Flexibility Score: inf
ROOT
ATOM      1  C   UNL A   1      43.533  23.127  24.686  1.00  0.00     0.274 C 
ENDROOT
BRANCH   1   2
ATOM      2  O   UNL A   1      42.311  22.617  25.264  1.00  0.00    -0.457 OA
BRANCH   2   3
ATOM      3  C   UNL A   1      42.371  21.344  25.753  1.00  0.00     0.367 C 
ATOM      4  O   UNL A   1      43.165  20.503  25.342  1.00  0.00    -0.245 OA
BRANCH   3   5
ATOM      5  C   UNL A   1      41.341  21.079  26.899  1.00  0.00     0.191 C 
ATOM      6  C   UNL A   1      41.778  19.883  27.779  1.00  0.00     0.092 C 
BRANCH   5   7
ATOM      7  C   UNL A   1      41.303  22.325  27.835  1.00  0.00     0.077 C 
ATOM      8  C   UNL A   1      42.574  22.558  28.656  1.00  0.00     0.011 C 
ENDBRANCH   5   7
BRANCH   5   9
ATOM      9  N   UNL A   1      39.930  20.915  26.415  1.00  0.00    -0.329 N 
ATOM     10  H   UNL A   1      39.367  20.662  27.227  1.00  0.00     0.347 HD
ATOM     11  H   UNL A   1      40.016  20.224  25.670  1.00  0.00     0.347 HD
BRANCH   9  12
ATOM     12  C   UNL A   1      39.247  22.038  25.759  1.00  0.00     0.301 C 
BRANCH  12  13
ATOM     13  C   UNL A   1      37.796  21.793  25.451  1.00  0.00     0.042 A 
ATOM     14  C   UNL A   1      36.828  22.749  25.786  1.00  0.00     0.013 A 
ATOM     15  C   UNL A   1      37.376  20.546  24.970  1.00  0.00     0.132 A 
ATOM     16  C   UNL A   1      35.472  22.417  25.741  1.00  0.00     0.014 A 
ATOM     17  C   UNL A   1      36.035  20.190  24.966  1.00  0.00     0.053 A 
ATOM     18  F   UNL A   1      38.280  19.635  24.590  1.00  0.00    -0.206 F 
ATOM     19  C   UNL A   1      35.081  21.121  25.375  1.00  0.00     0.042 A 
BRANCH  19  20
ATOM     20  C   UNL A   1      33.678  20.669  25.505  1.00  0.00     0.248 C 
ATOM     21  N   UNL A   1      33.239  20.350  26.757  1.00  0.00    -0.366 N 
ATOM     22  O   UNL A   1      32.937  20.594  24.534  1.00  0.00    -0.270 OA
ATOM     23  H   UNL A   1      33.851  20.416  27.525  1.00  0.00     0.159 HD
ATOM     24  H   UNL A   1      32.310  20.053  26.891  1.00  0.00     0.159 HD
ENDBRANCH  19  20
ENDBRANCH  12  13
ENDBRANCH   9  12
ENDBRANCH   5   9
ENDBRANCH   3   5
ENDBRANCH   2   3
ENDBRANCH   1   2
BRANCH   1  25
ATOM     25  C   UNL A   1      43.896  24.448  25.362  1.00  0.00     0.275 C 
BRANCH  25  26
ATOM     26  O   UNL A   1      42.696  24.954  25.964  1.00  0.00    -0.458 OA
BRANCH  26  27
ATOM     27  C   UNL A   1      42.394  26.244  25.710  1.00  0.00     0.338 C 
ATOM     28  O   UNL A   1      42.346  26.809  24.625  1.00  0.00    -0.246 OA
BRANCH  27  29
ATOM     29  C   UNL A   1      42.007  26.852  26.988  1.00  0.00     0.060 A 
ATOM     30  C   UNL A   1      42.477  28.134  27.269  1.00  0.00     0.016 A 
ATOM     31  C   UNL A   1      41.222  26.172  27.913  1.00  0.00     0.016 A 
ATOM     32  C   UNL A   1      42.208  28.729  28.494  1.00  0.00     0.010 A 
ATOM     33  C   UNL A   1      40.874  26.812  29.108  1.00  0.00     0.010 A 
ATOM     34  C   UNL A   1      41.367  28.097  29.413  1.00  0.00    -0.014 A 
BRANCH  34  35
ATOM     35  C   UNL A   1      40.997  28.779  30.682  1.00  0.00     0.031 A 
ATOM     36  C   UNL A   1      39.836  29.732  30.705  1.00  0.00     0.074 A 
ATOM     37  C   UNL A   1      41.702  28.555  31.812  1.00  0.00     0.049 A 
ATOM     38  N   UNL A   1      39.526  30.630  31.601  1.00  0.00    -0.248 NA
ATOM     39  C   UNL A   1      38.904  29.672  29.565  1.00  0.00     0.031 C 
ATOM     40  C   UNL A   1      42.794  27.589  31.959  1.00  0.00     0.029 A 
ATOM     41  N   UNL A   1      41.614  29.137  33.055  1.00  0.00    -0.354 N 
ATOM     42  C   UNL A   1      38.402  31.281  31.110  1.00  0.00     0.074 A 
ATOM     43  C   UNL A   1      38.069  30.664  29.845  1.00  0.00     0.031 C 
ATOM     44  C   UNL A   1      43.266  27.638  33.213  1.00  0.00     0.029 A 
ATOM     45  C   UNL A   1      42.592  28.714  33.928  1.00  0.00     0.049 A 
ATOM     46  H   UNL A   1      40.921  29.791  33.297  1.00  0.00     0.167 HD
ATOM     47  C   UNL A   1      37.725  32.311  31.668  1.00  0.00     0.037 A 
ATOM     48  C   UNL A   1      42.963  29.187  35.134  1.00  0.00     0.037 A 
ATOM     49  C   UNL A   1      38.039  32.876  32.954  1.00  0.00     0.049 A 
ATOM     50  C   UNL A   1      42.251  30.385  35.696  1.00  0.00     0.074 A 
ATOM     51  C   UNL A   1      37.405  33.916  33.611  1.00  0.00     0.029 A 
ATOM     52  N   UNL A   1      39.064  32.444  33.781  1.00  0.00    -0.354 N 
ATOM     53  N   UNL A   1      41.235  31.046  35.194  1.00  0.00    -0.248 NA
ATOM     54  C   UNL A   1      42.752  30.927  36.968  1.00  0.00     0.031 C 
ATOM     55  C   UNL A   1      38.072  34.139  34.819  1.00  0.00     0.029 A 
ATOM     56  C   UNL A   1      39.096  33.212  34.931  1.00  0.00     0.049 A 
ATOM     57  H   UNL A   1      39.678  31.701  33.580  1.00  0.00     0.167 HD
ATOM     58  C   UNL A   1      40.977  32.080  36.085  1.00  0.00     0.074 A 
ATOM     59  C   UNL A   1      41.928  31.947  37.169  1.00  0.00     0.031 C 
ATOM     60  C   UNL A   1      40.044  33.057  36.005  1.00  0.00     0.037 A 
BRANCH  47  61
ATOM     61  C   UNL A   1      36.598  32.932  30.897  1.00  0.00     0.058 A 
ATOM     62  C   UNL A   1      36.879  33.816  29.843  1.00  0.00     0.135 A 
ATOM     63  C   UNL A   1      35.258  32.756  31.270  1.00  0.00     0.135 A 
ATOM     64  F   UNL A   1      38.144  34.009  29.441  1.00  0.00    -0.206 F 
ATOM     65  C   UNL A   1      35.871  34.535  29.210  1.00  0.00     0.059 A 
ATOM     66  C   UNL A   1      34.231  33.452  30.638  1.00  0.00     0.059 A 
ATOM     67  F   UNL A   1      34.938  31.903  32.256  1.00  0.00    -0.206 F 
ATOM     68  C   UNL A   1      34.551  34.356  29.624  1.00  0.00     0.060 A 
BRANCH  68  69
ATOM     69  S   UNL A   1      33.258  35.319  28.809  1.00  0.00     0.124 S 
ATOM     70  O   UNL A   1      32.542  35.883  29.946  1.00  0.00    -0.237 OA
ATOM     71  O   UNL A   1      34.036  36.263  28.012  1.00  0.00    -0.237 OA
ATOM     72  O   UNL A   1      32.526  34.317  28.038  1.00  0.00    -0.744 OA
ENDBRANCH  68  69
ENDBRANCH  47  61
BRANCH  48  73
ATOM     73  C   UNL A   1      44.134  28.592  35.835  1.00  0.00     0.058 A 
ATOM     74  C   UNL A   1      43.969  27.541  36.753  1.00  0.00     0.135 A 
ATOM     75  C   UNL A   1      45.435  29.065  35.613  1.00  0.00     0.135 A 
ATOM     76  F   UNL A   1      42.745  27.050  37.003  1.00  0.00    -0.206 F 
ATOM     77  C   UNL A   1      45.044  27.003  37.449  1.00  0.00     0.059 A 
ATOM     78  C   UNL A   1      46.533  28.521  36.277  1.00  0.00     0.059 A 
ATOM     79  F   UNL A   1      45.647  30.052  34.731  1.00  0.00    -0.206 F 
ATOM     80  C   UNL A   1      46.323  27.500  37.205  1.00  0.00     0.060 A 
BRANCH  80  81
ATOM     81  S   UNL A   1      47.712  26.773  38.103  1.00  0.00     0.124 S 
ATOM     82  O   UNL A   1      47.607  25.371  37.716  1.00  0.00    -0.237 OA
ATOM     83  O   UNL A   1      48.851  27.501  37.553  1.00  0.00    -0.237 OA
ATOM     84  O   UNL A   1      47.399  27.068  39.498  1.00  0.00    -0.744 OA
ENDBRANCH  80  81
ENDBRANCH  48  73
BRANCH  60  85
ATOM     85  C   UNL A   1      39.982  34.062  37.118  1.00  0.00     0.058 A 
ATOM     86  C   UNL A   1      39.244  33.792  38.280  1.00  0.00     0.135 A 
ATOM     87  C   UNL A   1      40.549  35.337  36.976  1.00  0.00     0.135 A 
ATOM     88  F   UNL A   1      38.681  32.587  38.459  1.00  0.00    -0.206 F 
ATOM     89  C   UNL A   1      39.038  34.766  39.248  1.00  0.00     0.059 A 
ATOM     90  C   UNL A   1      40.373  36.321  37.943  1.00  0.00     0.059 A 
ATOM     91  F   UNL A   1      41.276  35.635  35.886  1.00  0.00    -0.206 F 
ATOM     92  C   UNL A   1      39.595  36.033  39.064  1.00  0.00     0.060 A 
BRANCH  92  93
ATOM     93  S   UNL A   1      39.281  37.298  40.312  1.00  0.00     0.124 S 
ATOM     94  O   UNL A   1      38.571  38.311  39.539  1.00  0.00    -0.237 OA
ATOM     95  O   UNL A   1      38.481  36.572  41.293  1.00  0.00    -0.237 OA
ATOM     96  O   UNL A   1      40.620  37.673  40.760  1.00  0.00    -0.744 OA
ENDBRANCH  92  93
ENDBRANCH  60  85
ENDBRANCH  34  35
ENDBRANCH  27  29
ENDBRANCH  26  27
ENDBRANCH  25  26
ENDBRANCH   1  25
TORSDOF 19
ENDMDL
MODEL 3
REMARK VINA RESULT:     -10.7      4.316      9.793
REMARK SMILES CC[C@@](C)([NH2+]Cc1ccc(C(N)=O)cc1F)C(=O)OCCOC(=O)c1ccc(-c2c3nc(c(-c4c(F)cc(S(=O)(=O)[O-])cc4F)c4ccc([nH]4)c(-c4c(F)cc(S(=O)(=O)[O-])cc4F)c4nc(c(-c5c(F)cc(S(=O)(=O)[O-])cc5F)c5ccc2[nH]5)C=C4)C=C3)cc1
REMARK SMILES IDX 20 1 19 2 17 3 18 4 3 5 4 6 2 7 1 8 5 9 6 12 7 13 8 14 15 15
REMARK SMILES IDX 9 16 14 17 16 18 10 19 11 20 12 21 13 22 21 25 22 26 23 27
REMARK SMILES IDX 24 28 25 29 26 30 90 31 27 32 89 33 28 34 29 35 30 36 83 37
REMARK SMILES IDX 31 38 88 39 82 40 84 41 32 42 87 43 81 44 80 45 33 47 67 48
REMARK SMILES IDX 46 49 66 50 47 51 50 52 65 53 85 54 48 55 49 56 64 58 86 59
REMARK SMILES IDX 51 60 34 61 35 62 44 63 36 64 37 65 43 66 45 67 38 68 39 69
REMARK SMILES IDX 40 70 41 71 42 72 68 73 69 74 78 75 70 76 71 77 77 78 79 79
REMARK SMILES IDX 72 80 73 81 74 82 75 83 76 84 52 85 53 86 62 87 54 88 55 89
REMARK SMILES IDX 61 90 63 91 56 92 57 93 58 94 59 95 60 96
REMARK H PARENT 5 10 5 11 12 23 12 24 84 46 50 57
REMARK Flexibility Score: inf
ROOT
ATOM      1  C   UNL A   1      35.933  22.128  26.012  1.00  0.00     0.274 C 
ENDROOT
BRANCH   1   2
ATOM      2  O   UNL A   1      34.957  23.177  25.831  1.00  0.00    -0.457 OA
BRANCH   2   3
ATOM      3  C   UNL A   1      33.711  22.770  25.445  1.00  0.00     0.367 C 
ATOM      4  O   UNL A   1      33.292  21.631  25.625  1.00  0.00    -0.245 OA
BRANCH   3   5
ATOM      5  C   UNL A   1      32.876  23.907  24.774  1.00  0.00     0.191 C 
ATOM      6  C   UNL A   1      33.764  25.129  24.436  1.00  0.00     0.092 C 
BRANCH   5   7
ATOM      7  C   UNL A   1      32.314  23.381  23.418  1.00  0.00     0.077 C 
ATOM      8  C   UNL A   1      33.359  23.175  22.319  1.00  0.00     0.011 C 
ENDBRANCH   5   7
BRANCH   5   9
ATOM      9  N   UNL A   1      31.666  24.313  25.563  1.00  0.00    -0.329 N 
ATOM     10  H   UNL A   1      31.579  23.650  26.332  1.00  0.00     0.347 HD
ATOM     11  H   UNL A   1      30.922  24.322  24.866  1.00  0.00     0.347 HD
BRANCH   9  12
ATOM     12  C   UNL A   1      31.594  25.657  26.152  1.00  0.00     0.301 C 
BRANCH  12  13
ATOM     13  C   UNL A   1      30.913  26.682  25.289  1.00  0.00     0.042 A 
ATOM     14  C   UNL A   1      29.902  26.301  24.397  1.00  0.00     0.013 A 
ATOM     15  C   UNL A   1      31.384  28.001  25.252  1.00  0.00     0.132 A 
ATOM     16  C   UNL A   1      29.457  27.194  23.420  1.00  0.00     0.014 A 
ATOM     17  C   UNL A   1      30.983  28.882  24.258  1.00  0.00     0.053 A 
ATOM     18  F   UNL A   1      32.309  28.408  26.130  1.00  0.00    -0.206 F 
ATOM     19  C   UNL A   1      30.033  28.469  23.324  1.00  0.00     0.042 A 
BRANCH  19  20
ATOM     20  C   UNL A   1      29.735  29.370  22.188  1.00  0.00     0.248 C 
ATOM     21  N   UNL A   1      30.781  30.061  21.650  1.00  0.00    -0.366 N 
ATOM     22  O   UNL A   1      28.602  29.484  21.743  1.00  0.00    -0.270 OA
ATOM     23  H   UNL A   1      31.685  29.956  22.025  1.00  0.00     0.159 HD
ATOM     24  H   UNL A   1      30.631  30.666  20.888  1.00  0.00     0.159 HD
ENDBRANCH  19  20
ENDBRANCH  12  13
ENDBRANCH   9  12
ENDBRANCH   5   9
ENDBRANCH   3   5
ENDBRANCH   2   3
ENDBRANCH   1   2
BRANCH   1  25
ATOM     25  C   UNL A   1      37.097  22.352  25.048  1.00  0.00     0.275 C 
BRANCH  25  26
ATOM     26  O   UNL A   1      37.847  23.468  25.549  1.00  0.00    -0.458 OA
BRANCH  26  27
ATOM     27  C   UNL A   1      39.034  23.187  26.122  1.00  0.00     0.338 C 
ATOM     28  O   UNL A   1      39.719  22.181  25.986  1.00  0.00    -0.246 OA
BRANCH  27  29
ATOM     29  C   UNL A   1      39.439  24.379  26.876  1.00  0.00     0.060 A 
ATOM     30  C   UNL A   1      38.948  24.528  28.173  1.00  0.00     0.016 A 
ATOM     31  C   UNL A   1      40.260  25.352  26.318  1.00  0.00     0.016 A 
ATOM     32  C   UNL A   1      39.233  25.672  28.905  1.00  0.00     0.010 A 
ATOM     33  C   UNL A   1      40.623  26.460  27.094  1.00  0.00     0.010 A 
ATOM     34  C   UNL A   1      40.109  26.633  28.394  1.00  0.00    -0.014 A 
BRANCH  34  35
ATOM     35  C   UNL A   1      40.495  27.809  29.221  1.00  0.00     0.031 A 
ATOM     36  C   UNL A   1      41.760  27.768  30.031  1.00  0.00     0.074 A 
ATOM     37  C   UNL A   1      39.713  28.909  29.255  1.00  0.00     0.049 A 
ATOM     38  N   UNL A   1      42.131  28.540  31.016  1.00  0.00    -0.248 NA
ATOM     39  C   UNL A   1      42.733  26.716  29.690  1.00  0.00     0.031 C 
ATOM     40  C   UNL A   1      38.506  29.124  28.451  1.00  0.00     0.029 A 
ATOM     41  N   UNL A   1      39.808  30.055  30.010  1.00  0.00    -0.354 N 
ATOM     42  C   UNL A   1      43.347  28.035  31.455  1.00  0.00     0.074 A 
ATOM     43  C   UNL A   1      43.667  26.902  30.614  1.00  0.00     0.031 C 
ATOM     44  C   UNL A   1      37.981  30.321  28.746  1.00  0.00     0.029 A 
ATOM     45  C   UNL A   1      38.744  30.912  29.839  1.00  0.00     0.049 A 
ATOM     46  H   UNL A   1      40.562  30.243  30.613  1.00  0.00     0.167 HD
ATOM     47  C   UNL A   1      44.115  28.478  32.476  1.00  0.00     0.037 A 
ATOM     48  C   UNL A   1      38.372  32.007  30.533  1.00  0.00     0.037 A 
ATOM     49  C   UNL A   1      43.807  29.642  33.266  1.00  0.00     0.049 A 
ATOM     50  C   UNL A   1      39.195  32.432  31.717  1.00  0.00     0.074 A 
ATOM     51  C   UNL A   1      44.528  30.178  34.318  1.00  0.00     0.029 A 
ATOM     52  N   UNL A   1      42.697  30.452  33.085  1.00  0.00    -0.354 N 
ATOM     53  N   UNL A   1      40.306  31.907  32.174  1.00  0.00    -0.248 NA
ATOM     54  C   UNL A   1      38.699  33.572  32.502  1.00  0.00     0.031 C 
ATOM     55  C   UNL A   1      43.833  31.291  34.799  1.00  0.00     0.029 A 
ATOM     56  C   UNL A   1      42.701  31.471  34.021  1.00  0.00     0.049 A 
ATOM     57  H   UNL A   1      42.009  30.323  32.393  1.00  0.00     0.167 HD
ATOM     58  C   UNL A   1      40.642  32.650  33.299  1.00  0.00     0.074 A 
ATOM     59  C   UNL A   1      39.629  33.674  33.443  1.00  0.00     0.031 C 
ATOM     60  C   UNL A   1      41.688  32.489  34.142  1.00  0.00     0.037 A 
BRANCH  47  61
ATOM     61  C   UNL A   1      45.345  27.701  32.841  1.00  0.00     0.058 A 
ATOM     62  C   UNL A   1      46.590  28.079  32.313  1.00  0.00     0.135 A 
ATOM     63  C   UNL A   1      45.282  26.526  33.602  1.00  0.00     0.135 A 
ATOM     64  F   UNL A   1      46.705  29.202  31.588  1.00  0.00    -0.206 F 
ATOM     65  C   UNL A   1      47.724  27.295  32.494  1.00  0.00     0.059 A 
ATOM     66  C   UNL A   1      46.409  25.735  33.812  1.00  0.00     0.059 A 
ATOM     67  F   UNL A   1      44.119  26.137  34.148  1.00  0.00    -0.206 F 
ATOM     68  C   UNL A   1      47.621  26.117  33.234  1.00  0.00     0.060 A 
BRANCH  68  69
ATOM     69  S   UNL A   1      49.098  25.099  33.436  1.00  0.00     0.124 S 
ATOM     70  O   UNL A   1      49.533  24.922  32.056  1.00  0.00    -0.237 OA
ATOM     71  O   UNL A   1      49.945  25.949  34.267  1.00  0.00    -0.237 OA
ATOM     72  O   UNL A   1      48.593  23.898  34.096  1.00  0.00    -0.744 OA
ENDBRANCH  68  69
ENDBRANCH  47  61
BRANCH  48  73
ATOM     73  C   UNL A   1      37.105  32.708  30.188  1.00  0.00     0.058 A 
ATOM     74  C   UNL A   1      37.064  33.662  29.156  1.00  0.00     0.135 A 
ATOM     75  C   UNL A   1      35.916  32.450  30.884  1.00  0.00     0.135 A 
ATOM     76  F   UNL A   1      38.174  33.947  28.458  1.00  0.00    -0.206 F 
ATOM     77  C   UNL A   1      35.901  34.357  28.850  1.00  0.00     0.059 A 
ATOM     78  C   UNL A   1      34.730  33.113  30.575  1.00  0.00     0.059 A 
ATOM     79  F   UNL A   1      35.898  31.533  31.862  1.00  0.00    -0.206 F 
ATOM     80  C   UNL A   1      34.738  34.077  29.566  1.00  0.00     0.060 A 
BRANCH  80  81
ATOM     81  S   UNL A   1      33.231  34.975  29.139  1.00  0.00     0.124 S 
ATOM     82  O   UNL A   1      33.772  36.246  28.670  1.00  0.00    -0.237 OA
ATOM     83  O   UNL A   1      32.641  34.120  28.114  1.00  0.00    -0.237 OA
ATOM     84  O   UNL A   1      32.502  35.027  30.402  1.00  0.00    -0.744 OA
ENDBRANCH  80  81
ENDBRANCH  48  73
BRANCH  60  85
ATOM     85  C   UNL A   1      41.815  33.441  35.295  1.00  0.00     0.058 A 
ATOM     86  C   UNL A   1      41.057  33.252  36.461  1.00  0.00     0.135 A 
ATOM     87  C   UNL A   1      42.591  34.604  35.192  1.00  0.00     0.135 A 
ATOM     88  F   UNL A   1      40.298  32.154  36.603  1.00  0.00    -0.206 F 
ATOM     89  C   UNL A   1      41.035  34.205  37.471  1.00  0.00     0.059 A 
ATOM     90  C   UNL A   1      42.601  35.562  36.201  1.00  0.00     0.059 A 
ATOM     91  F   UNL A   1      43.344  34.819  34.100  1.00  0.00    -0.206 F 
ATOM     92  C   UNL A   1      41.799  35.364  37.325  1.00  0.00     0.060 A 
BRANCH  92  93
ATOM     93  S   UNL A   1      41.725  36.610  38.628  1.00  0.00     0.124 S 
ATOM     94  O   UNL A   1      40.312  36.972  38.617  1.00  0.00    -0.237 OA
ATOM     95  O   UNL A   1      42.179  35.863  39.797  1.00  0.00    -0.237 OA
ATOM     96  O   UNL A   1      42.643  37.645  38.161  1.00  0.00    -0.744 OA
ENDBRANCH  92  93
ENDBRANCH  60  85
ENDBRANCH  34  35
ENDBRANCH  27  29
ENDBRANCH  26  27
ENDBRANCH  25  26
ENDBRANCH   1  25
TORSDOF 19
ENDMDL
