MODEL 1
REMARK VINA RESULT:     -11.2      0.000      0.000
REMARK SMILES O=C(CN1C(=O)S/C(=C\c2cccc(F)c2)C1=O)NCC(=O)OCCOC(=O)c1ccc(-c2c3nc(c(-c4c(F)cc(S(=O)(=O)[O-])cc4F)c4ccc([nH]4)c(-c4c(F)cc(S(=O)(=O)[O-])cc4F)c4nc(c(-c5c(F)cc(S(=O)(=O)[O-])cc5F)c5ccc2[nH]5)C=C4)C=C3)cc1
REMARK SMILES IDX 24 1 23 2 21 3 22 4 20 5 19 6 1 7 2 8 3 10 4 11 5 12 17 13
REMARK SMILES IDX 6 14 7 15 8 16 18 17 9 18 10 19 11 20 16 21 12 22 14 23
REMARK SMILES IDX 13 24 15 25 25 26 26 27 27 28 28 29 29 30 30 31 94 32 31 33
REMARK SMILES IDX 93 34 32 35 33 36 34 37 87 38 35 39 92 40 86 41 88 42 36 43
REMARK SMILES IDX 91 44 85 45 84 46 37 48 71 49 50 50 70 51 51 52 54 53 69 54
REMARK SMILES IDX 89 55 52 56 53 57 68 59 90 60 55 61 38 62 39 63 48 64 40 65
REMARK SMILES IDX 41 66 47 67 49 68 42 69 43 70 44 71 45 72 46 73 72 74 73 75
REMARK SMILES IDX 82 76 74 77 75 78 81 79 83 80 76 81 77 82 78 83 79 84 80 85
REMARK SMILES IDX 56 86 57 87 66 88 58 89 59 90 65 91 67 92 60 93 61 94 62 95
REMARK SMILES IDX 63 96 64 97
REMARK H PARENT 19 9 88 47 54 58
REMARK Flexibility Score: inf
ROOT
ATOM      1  C   UNL A   1      32.132  29.029  25.823  1.00  0.00     0.274 C 
ENDROOT
BRANCH   1   2
ATOM      2  O   UNL A   1      31.391  29.698  24.790  1.00  0.00    -0.461 OA
BRANCH   2   3
ATOM      3  C   UNL A   1      31.293  29.063  23.586  1.00  0.00     0.325 C 
ATOM      4  O   UNL A   1      32.105  29.166  22.675  1.00  0.00    -0.250 OA
BRANCH   3   5
ATOM      5  C   UNL A   1      30.019  28.230  23.489  1.00  0.00     0.238 C 
BRANCH   5   6
ATOM      6  N   UNL A   1      30.274  26.838  23.163  1.00  0.00    -0.344 N 
ATOM      7  O   UNL A   1      30.158  26.035  25.312  1.00  0.00    -0.273 OA
ATOM      8  C   UNL A   1      30.260  25.837  24.106  1.00  0.00     0.240 C 
ATOM      9  H   UNL A   1      30.465  26.601  22.227  1.00  0.00     0.164 HD
BRANCH   8  10
ATOM     10  C   UNL A   1      30.267  24.438  23.499  1.00  0.00     0.229 C 
BRANCH  10  11
ATOM     11  N   UNL A   1      31.579  23.816  23.455  1.00  0.00    -0.259 N 
ATOM     12  C   UNL A   1      32.557  24.232  22.591  1.00  0.00     0.294 C 
ATOM     13  C   UNL A   1      32.003  23.067  24.530  1.00  0.00     0.268 C 
ATOM     14  O   UNL A   1      32.481  25.093  21.726  1.00  0.00    -0.261 OA
ATOM     15  S   UNL A   1      34.058  23.401  22.932  1.00  0.00    -0.022 SA
ATOM     16  C   UNL A   1      33.457  22.777  24.415  1.00  0.00     0.083 C 
ATOM     17  O   UNL A   1      31.323  22.754  25.500  1.00  0.00    -0.268 OA
ATOM     18  C   UNL A   1      34.150  22.174  25.391  1.00  0.00     0.029 C 
BRANCH  18  19
ATOM     19  C   UNL A   1      35.595  21.921  25.368  1.00  0.00    -0.021 A 
ATOM     20  C   UNL A   1      36.112  20.675  24.980  1.00  0.00     0.008 A 
ATOM     21  C   UNL A   1      36.476  22.939  25.740  1.00  0.00     0.047 A 
ATOM     22  C   UNL A   1      37.489  20.440  25.000  1.00  0.00     0.004 A 
ATOM     23  C   UNL A   1      37.846  22.695  25.752  1.00  0.00     0.123 A 
ATOM     24  C   UNL A   1      38.360  21.454  25.393  1.00  0.00     0.039 A 
ATOM     25  F   UNL A   1      38.681  23.674  26.122  1.00  0.00    -0.207 F 
ENDBRANCH  18  19
ENDBRANCH  10  11
ENDBRANCH   8  10
ENDBRANCH   5   6
ENDBRANCH   3   5
ENDBRANCH   2   3
ENDBRANCH   1   2
BRANCH   1  26
ATOM     26  C   UNL A   1      32.585  30.041  26.877  1.00  0.00     0.275 C 
BRANCH  26  27
ATOM     27  O   UNL A   1      33.779  29.611  27.556  1.00  0.00    -0.458 OA
BRANCH  27  28
ATOM     28  C   UNL A   1      34.523  30.589  28.127  1.00  0.00     0.338 C 
ATOM     29  O   UNL A   1      34.139  31.682  28.512  1.00  0.00    -0.246 OA
BRANCH  28  30
ATOM     30  C   UNL A   1      35.894  30.087  28.317  1.00  0.00     0.060 A 
ATOM     31  C   UNL A   1      36.296  29.684  29.594  1.00  0.00     0.016 A 
ATOM     32  C   UNL A   1      36.792  30.064  27.249  1.00  0.00     0.016 A 
ATOM     33  C   UNL A   1      37.611  29.271  29.811  1.00  0.00     0.010 A 
ATOM     34  C   UNL A   1      38.106  29.643  27.467  1.00  0.00     0.010 A 
ATOM     35  C   UNL A   1      38.529  29.258  28.752  1.00  0.00    -0.014 A 
BRANCH  35  36
ATOM     36  C   UNL A   1      39.953  28.903  28.973  1.00  0.00     0.031 A 
ATOM     37  C   UNL A   1      40.903  29.954  29.475  1.00  0.00     0.074 A 
ATOM     38  C   UNL A   1      40.397  27.663  28.693  1.00  0.00     0.049 A 
ATOM     39  N   UNL A   1      42.206  29.922  29.556  1.00  0.00    -0.248 NA
ATOM     40  C   UNL A   1      40.302  31.215  29.941  1.00  0.00     0.031 C 
ATOM     41  C   UNL A   1      39.559  26.545  28.259  1.00  0.00     0.029 A 
ATOM     42  N   UNL A   1      41.666  27.141  28.717  1.00  0.00    -0.354 N 
ATOM     43  C   UNL A   1      42.585  31.158  30.065  1.00  0.00     0.074 A 
ATOM     44  C   UNL A   1      41.376  31.930  30.249  1.00  0.00     0.031 C 
ATOM     45  C   UNL A   1      40.338  25.470  28.052  1.00  0.00     0.029 A 
ATOM     46  C   UNL A   1      41.733  25.838  28.280  1.00  0.00     0.049 A 
ATOM     47  H   UNL A   1      42.453  27.651  29.017  1.00  0.00     0.167 HD
ATOM     48  C   UNL A   1      43.830  31.600  30.361  1.00  0.00     0.037 A 
ATOM     49  C   UNL A   1      42.801  25.046  28.055  1.00  0.00     0.037 A 
ATOM     50  C   UNL A   1      45.023  30.813  30.184  1.00  0.00     0.049 A 
ATOM     51  C   UNL A   1      44.184  25.591  28.300  1.00  0.00     0.074 A 
ATOM     52  C   UNL A   1      46.334  31.172  30.442  1.00  0.00     0.029 A 
ATOM     53  N   UNL A   1      45.051  29.507  29.714  1.00  0.00    -0.354 N 
ATOM     54  N   UNL A   1      44.534  26.773  28.748  1.00  0.00    -0.248 NA
ATOM     55  C   UNL A   1      45.317  24.704  28.002  1.00  0.00     0.031 C 
ATOM     56  C   UNL A   1      47.158  30.101  30.085  1.00  0.00     0.029 A 
ATOM     57  C   UNL A   1      46.357  29.053  29.662  1.00  0.00     0.049 A 
ATOM     58  H   UNL A   1      44.258  28.983  29.457  1.00  0.00     0.167 HD
ATOM     59  C   UNL A   1      45.923  26.758  28.824  1.00  0.00     0.074 A 
ATOM     60  C   UNL A   1      46.351  25.451  28.369  1.00  0.00     0.031 C 
ATOM     61  C   UNL A   1      46.764  27.735  29.238  1.00  0.00     0.037 A 
BRANCH  48  62
ATOM     62  C   UNL A   1      43.979  32.996  30.899  1.00  0.00     0.058 A 
ATOM     63  C   UNL A   1      43.930  33.237  32.282  1.00  0.00     0.135 A 
ATOM     64  C   UNL A   1      44.092  34.105  30.046  1.00  0.00     0.135 A 
ATOM     65  F   UNL A   1      43.829  32.213  33.144  1.00  0.00    -0.206 F 
ATOM     66  C   UNL A   1      43.968  34.527  32.799  1.00  0.00     0.059 A 
ATOM     67  C   UNL A   1      44.159  35.404  30.542  1.00  0.00     0.059 A 
ATOM     68  F   UNL A   1      44.165  33.930  28.717  1.00  0.00    -0.206 F 
ATOM     69  C   UNL A   1      44.080  35.606  31.920  1.00  0.00     0.060 A 
BRANCH  69  70
ATOM     70  S   UNL A   1      44.157  37.273  32.608  1.00  0.00     0.124 S 
ATOM     71  O   UNL A   1      43.885  38.097  31.434  1.00  0.00    -0.237 OA
ATOM     72  O   UNL A   1      43.104  37.234  33.618  1.00  0.00    -0.237 OA
ATOM     73  O   UNL A   1      45.515  37.358  33.137  1.00  0.00    -0.744 OA
ENDBRANCH  69  70
ENDBRANCH  48  62
BRANCH  49  74
ATOM     74  C   UNL A   1      42.602  23.653  27.566  1.00  0.00     0.058 A 
ATOM     75  C   UNL A   1      42.474  22.575  28.456  1.00  0.00     0.135 A 
ATOM     76  C   UNL A   1      42.557  23.374  26.192  1.00  0.00     0.135 A 
ATOM     77  F   UNL A   1      42.514  22.784  29.781  1.00  0.00    -0.206 F 
ATOM     78  C   UNL A   1      42.334  21.268  28.001  1.00  0.00     0.059 A 
ATOM     79  C   UNL A   1      42.389  22.078  25.713  1.00  0.00     0.059 A 
ATOM     80  F   UNL A   1      42.659  24.373  25.303  1.00  0.00    -0.206 F 
ATOM     81  C   UNL A   1      42.295  21.029  26.627  1.00  0.00     0.060 A 
BRANCH  81  82
ATOM     82  S   UNL A   1      42.109  19.325  26.059  1.00  0.00     0.124 S 
ATOM     83  O   UNL A   1      42.997  19.304  24.901  1.00  0.00    -0.237 OA
ATOM     84  O   UNL A   1      42.561  18.566  27.220  1.00  0.00    -0.237 OA
ATOM     85  O   UNL A   1      40.685  19.221  25.760  1.00  0.00    -0.744 OA
ENDBRANCH  81  82
ENDBRANCH  49  74
BRANCH  61  86
ATOM     86  C   UNL A   1      48.237  27.437  29.284  1.00  0.00     0.058 A 
ATOM     87  C   UNL A   1      48.818  26.951  30.467  1.00  0.00     0.135 A 
ATOM     88  C   UNL A   1      49.091  27.762  28.220  1.00  0.00     0.135 A 
ATOM     89  F   UNL A   1      48.045  26.628  31.517  1.00  0.00    -0.206 F 
ATOM     90  C   UNL A   1      50.196  26.839  30.609  1.00  0.00     0.059 A 
ATOM     91  C   UNL A   1      50.473  27.632  28.329  1.00  0.00     0.059 A 
ATOM     92  F   UNL A   1      48.584  28.219  27.063  1.00  0.00    -0.206 F 
ATOM     93  C   UNL A   1      51.016  27.195  29.538  1.00  0.00     0.060 A 
BRANCH  93  94
ATOM     94  S   UNL A   1      52.805  27.092  29.758  1.00  0.00     0.124 S 
ATOM     95  O   UNL A   1      52.910  26.339  31.003  1.00  0.00    -0.237 OA
ATOM     96  O   UNL A   1      53.222  26.383  28.551  1.00  0.00    -0.237 OA
ATOM     97  O   UNL A   1      53.220  28.489  29.832  1.00  0.00    -0.744 OA
ENDBRANCH  93  94
ENDBRANCH  61  86
ENDBRANCH  35  36
ENDBRANCH  28  30
ENDBRANCH  27  28
ENDBRANCH  26  27
ENDBRANCH   1  26
TORSDOF 18
ENDMDL
MODEL 2
REMARK VINA RESULT:     -11.0      3.697      6.264
REMARK SMILES O=C(CN1C(=O)S/C(=C\c2cccc(F)c2)C1=O)NCC(=O)OCCOC(=O)c1ccc(-c2c3nc(c(-c4c(F)cc(S(=O)(=O)[O-])cc4F)c4ccc([nH]4)c(-c4c(F)cc(S(=O)(=O)[O-])cc4F)c4nc(c(-c5c(F)cc(S(=O)(=O)[O-])cc5F)c5ccc2[nH]5)C=C4)C=C3)cc1
REMARK SMILES IDX 24 1 23 2 21 3 22 4 20 5 19 6 1 7 2 8 3 10 4 11 5 12 17 13
REMARK SMILES IDX 6 14 7 15 8 16 18 17 9 18 10 19 11 20 16 21 12 22 14 23
REMARK SMILES IDX 13 24 15 25 25 26 26 27 27 28 28 29 29 30 30 31 94 32 31 33
REMARK SMILES IDX 93 34 32 35 33 36 34 37 87 38 35 39 92 40 86 41 88 42 36 43
REMARK SMILES IDX 91 44 85 45 84 46 37 48 71 49 50 50 70 51 51 52 54 53 69 54
REMARK SMILES IDX 89 55 52 56 53 57 68 59 90 60 55 61 38 62 39 63 48 64 40 65
REMARK SMILES IDX 41 66 47 67 49 68 42 69 43 70 44 71 45 72 46 73 72 74 73 75
REMARK SMILES IDX 82 76 74 77 75 78 81 79 83 80 76 81 77 82 78 83 79 84 80 85
REMARK SMILES IDX 56 86 57 87 66 88 58 89 59 90 65 91 67 92 60 93 61 94 62 95
REMARK SMILES IDX 63 96 64 97
REMARK H PARENT 19 9 88 47 54 58
REMARK Flexibility Score: inf
ROOT
ATOM      1  C   UNL A   1      34.219  33.614  28.134  1.00  0.00     0.274 C 
ENDROOT
BRANCH   1   2
ATOM      2  O   UNL A   1      33.108  34.470  28.443  1.00  0.00    -0.461 OA
BRANCH   2   3
ATOM      3  C   UNL A   1      33.397  35.699  28.961  1.00  0.00     0.325 C 
ATOM      4  O   UNL A   1      34.033  36.569  28.381  1.00  0.00    -0.250 OA
BRANCH   3   5
ATOM      5  C   UNL A   1      32.861  35.852  30.382  1.00  0.00     0.238 C 
BRANCH   5   6
ATOM      6  N   UNL A   1      33.907  35.822  31.389  1.00  0.00    -0.344 N 
ATOM      7  O   UNL A   1      32.908  34.280  32.767  1.00  0.00    -0.273 OA
ATOM      8  C   UNL A   1      33.870  34.983  32.478  1.00  0.00     0.240 C 
ATOM      9  H   UNL A   1      34.676  36.430  31.287  1.00  0.00     0.164 HD
BRANCH   8  10
ATOM     10  C   UNL A   1      35.193  34.920  33.234  1.00  0.00     0.229 C 
BRANCH  10  11
ATOM     11  N   UNL A   1      35.976  33.726  32.962  1.00  0.00    -0.259 N 
ATOM     12  C   UNL A   1      36.524  33.476  31.733  1.00  0.00     0.294 C 
ATOM     13  C   UNL A   1      36.512  33.021  34.018  1.00  0.00     0.268 C 
ATOM     14  O   UNL A   1      36.406  34.131  30.708  1.00  0.00    -0.261 OA
ATOM     15  S   UNL A   1      37.552  32.062  31.806  1.00  0.00    -0.022 SA
ATOM     16  C   UNL A   1      37.506  32.031  33.523  1.00  0.00     0.083 C 
ATOM     17  O   UNL A   1      36.291  33.226  35.205  1.00  0.00    -0.268 OA
ATOM     18  C   UNL A   1      38.269  31.303  34.351  1.00  0.00     0.029 C 
BRANCH  18  19
ATOM     19  C   UNL A   1      39.312  30.362  33.928  1.00  0.00    -0.021 A 
ATOM     20  C   UNL A   1      39.018  29.275  33.089  1.00  0.00     0.008 A 
ATOM     21  C   UNL A   1      40.624  30.550  34.368  1.00  0.00     0.047 A 
ATOM     22  C   UNL A   1      40.017  28.368  32.727  1.00  0.00     0.004 A 
ATOM     23  C   UNL A   1      41.612  29.641  33.997  1.00  0.00     0.123 A 
ATOM     24  C   UNL A   1      41.320  28.549  33.188  1.00  0.00     0.039 A 
ATOM     25  F   UNL A   1      42.865  29.823  34.435  1.00  0.00    -0.207 F 
ENDBRANCH  18  19
ENDBRANCH  10  11
ENDBRANCH   8  10
ENDBRANCH   5   6
ENDBRANCH   3   5
ENDBRANCH   2   3
ENDBRANCH   1   2
BRANCH   1  26
ATOM     26  C   UNL A   1      33.718  32.201  27.825  1.00  0.00     0.275 C 
BRANCH  26  27
ATOM     27  O   UNL A   1      34.340  31.215  28.668  1.00  0.00    -0.458 OA
BRANCH  27  28
ATOM     28  C   UNL A   1      34.715  30.064  28.059  1.00  0.00     0.338 C 
ATOM     29  O   UNL A   1      34.040  29.362  27.322  1.00  0.00    -0.246 OA
BRANCH  28  30
ATOM     30  C   UNL A   1      36.139  29.824  28.343  1.00  0.00     0.060 A 
ATOM     31  C   UNL A   1      37.077  30.035  27.328  1.00  0.00     0.016 A 
ATOM     32  C   UNL A   1      36.539  29.342  29.591  1.00  0.00     0.016 A 
ATOM     33  C   UNL A   1      38.423  29.747  27.554  1.00  0.00     0.010 A 
ATOM     34  C   UNL A   1      37.889  29.061  29.816  1.00  0.00     0.010 A 
ATOM     35  C   UNL A   1      38.838  29.248  28.795  1.00  0.00    -0.014 A 
BRANCH  35  36
ATOM     36  C   UNL A   1      40.249  28.855  29.034  1.00  0.00     0.031 A 
ATOM     37  C   UNL A   1      41.212  29.871  29.581  1.00  0.00     0.074 A 
ATOM     38  C   UNL A   1      40.671  27.614  28.729  1.00  0.00     0.049 A 
ATOM     39  N   UNL A   1      42.513  29.807  29.686  1.00  0.00    -0.248 NA
ATOM     40  C   UNL A   1      40.630  31.133  30.069  1.00  0.00     0.031 C 
ATOM     41  C   UNL A   1      39.818  26.526  28.250  1.00  0.00     0.029 A 
ATOM     42  N   UNL A   1      41.928  27.062  28.763  1.00  0.00    -0.354 N 
ATOM     43  C   UNL A   1      42.909  31.021  30.235  1.00  0.00     0.074 A 
ATOM     44  C   UNL A   1      41.714  31.815  30.416  1.00  0.00     0.031 C 
ATOM     45  C   UNL A   1      40.577  25.440  28.029  1.00  0.00     0.029 A 
ATOM     46  C   UNL A   1      41.975  25.770  28.293  1.00  0.00     0.049 A 
ATOM     47  H   UNL A   1      42.720  27.546  29.091  1.00  0.00     0.167 HD
ATOM     48  C   UNL A   1      44.158  31.427  30.565  1.00  0.00     0.037 A 
ATOM     49  C   UNL A   1      43.029  24.960  28.067  1.00  0.00     0.037 A 
ATOM     50  C   UNL A   1      45.336  30.618  30.391  1.00  0.00     0.049 A 
ATOM     51  C   UNL A   1      44.418  25.467  28.353  1.00  0.00     0.074 A 
ATOM     52  C   UNL A   1      46.649  30.941  30.682  1.00  0.00     0.029 A 
ATOM     53  N   UNL A   1      45.344  29.325  29.886  1.00  0.00    -0.354 N 
ATOM     54  N   UNL A   1      44.786  26.629  28.839  1.00  0.00    -0.248 NA
ATOM     55  C   UNL A   1      45.538  24.564  28.052  1.00  0.00     0.031 C 
ATOM     56  C   UNL A   1      47.456  29.861  30.312  1.00  0.00     0.029 A 
ATOM     57  C   UNL A   1      46.640  28.842  29.847  1.00  0.00     0.049 A 
ATOM     58  H   UNL A   1      44.545  28.825  29.600  1.00  0.00     0.167 HD
ATOM     59  C   UNL A   1      46.172  26.580  28.940  1.00  0.00     0.074 A 
ATOM     60  C   UNL A   1      46.581  25.277  28.458  1.00  0.00     0.031 C 
ATOM     61  C   UNL A   1      47.027  27.528  29.396  1.00  0.00     0.037 A 
BRANCH  48  62
ATOM     62  C   UNL A   1      44.327  32.804  31.143  1.00  0.00     0.058 A 
ATOM     63  C   UNL A   1      44.589  33.903  30.306  1.00  0.00     0.135 A 
ATOM     64  C   UNL A   1      44.308  33.029  32.528  1.00  0.00     0.135 A 
ATOM     65  F   UNL A   1      44.612  33.747  28.973  1.00  0.00    -0.206 F 
ATOM     66  C   UNL A   1      44.845  35.168  30.823  1.00  0.00     0.059 A 
ATOM     67  C   UNL A   1      44.535  34.292  33.067  1.00  0.00     0.059 A 
ATOM     68  F   UNL A   1      44.041  32.019  33.373  1.00  0.00    -0.206 F 
ATOM     69  C   UNL A   1      44.818  35.353  32.206  1.00  0.00     0.060 A 
BRANCH  69  70
ATOM     70  S   UNL A   1      45.124  37.007  32.861  1.00  0.00     0.124 S 
ATOM     71  O   UNL A   1      44.709  36.863  34.252  1.00  0.00    -0.237 OA
ATOM     72  O   UNL A   1      46.558  37.162  32.635  1.00  0.00    -0.237 OA
ATOM     73  O   UNL A   1      44.275  37.860  32.035  1.00  0.00    -0.744 OA
ENDBRANCH  69  70
ENDBRANCH  48  62
BRANCH  49  74
ATOM     74  C   UNL A   1      42.809  23.586  27.538  1.00  0.00     0.058 A 
ATOM     75  C   UNL A   1      42.449  22.523  28.382  1.00  0.00     0.135 A 
ATOM     76  C   UNL A   1      42.977  23.306  26.173  1.00  0.00     0.135 A 
ATOM     77  F   UNL A   1      42.281  22.733  29.697  1.00  0.00    -0.206 F 
ATOM     78  C   UNL A   1      42.288  21.230  27.898  1.00  0.00     0.059 A 
ATOM     79  C   UNL A   1      42.793  22.026  25.660  1.00  0.00     0.059 A 
ATOM     80  F   UNL A   1      43.304  24.292  25.324  1.00  0.00    -0.206 F 
ATOM     81  C   UNL A   1      42.464  20.990  26.534  1.00  0.00     0.060 A 
BRANCH  81  82
ATOM     82  S   UNL A   1      42.247  19.304  25.926  1.00  0.00     0.124 S 
ATOM     83  O   UNL A   1      43.131  19.296  24.765  1.00  0.00    -0.237 OA
ATOM     84  O   UNL A   1      42.688  18.509  27.067  1.00  0.00    -0.237 OA
ATOM     85  O   UNL A   1      40.820  19.233  25.629  1.00  0.00    -0.744 OA
ENDBRANCH  81  82
ENDBRANCH  49  74
BRANCH  61  86
ATOM     86  C   UNL A   1      48.492  27.195  29.462  1.00  0.00     0.058 A 
ATOM     87  C   UNL A   1      49.007  26.512  30.576  1.00  0.00     0.135 A 
ATOM     88  C   UNL A   1      49.401  27.670  28.505  1.00  0.00     0.135 A 
ATOM     89  F   UNL A   1      48.178  26.040  31.522  1.00  0.00    -0.206 F 
ATOM     90  C   UNL A   1      50.375  26.350  30.762  1.00  0.00     0.059 A 
ATOM     91  C   UNL A   1      50.774  27.496  28.657  1.00  0.00     0.059 A 
ATOM     92  F   UNL A   1      48.959  28.319  27.416  1.00  0.00    -0.206 F 
ATOM     93  C   UNL A   1      51.252  26.857  29.803  1.00  0.00     0.060 A 
BRANCH  93  94
ATOM     94  S   UNL A   1      53.025  26.683  30.087  1.00  0.00     0.124 S 
ATOM     95  O   UNL A   1      53.056  25.898  31.316  1.00  0.00    -0.237 OA
ATOM     96  O   UNL A   1      53.462  25.987  28.879  1.00  0.00    -0.237 OA
ATOM     97  O   UNL A   1      53.488  28.062  30.210  1.00  0.00    -0.744 OA
ENDBRANCH  93  94
ENDBRANCH  61  86
ENDBRANCH  35  36
ENDBRANCH  28  30
ENDBRANCH  27  28
ENDBRANCH  26  27
ENDBRANCH   1  26
TORSDOF 18
ENDMDL
MODEL 3
REMARK VINA RESULT:     -10.9      2.040      2.637
REMARK SMILES O=C(CN1C(=O)S/C(=C\c2cccc(F)c2)C1=O)NCC(=O)OCCOC(=O)c1ccc(-c2c3nc(c(-c4c(F)cc(S(=O)(=O)[O-])cc4F)c4ccc([nH]4)c(-c4c(F)cc(S(=O)(=O)[O-])cc4F)c4nc(c(-c5c(F)cc(S(=O)(=O)[O-])cc5F)c5ccc2[nH]5)C=C4)C=C3)cc1
REMARK SMILES IDX 24 1 23 2 21 3 22 4 20 5 19 6 1 7 2 8 3 10 4 11 5 12 17 13
REMARK SMILES IDX 6 14 7 15 8 16 18 17 9 18 10 19 11 20 16 21 12 22 14 23
REMARK SMILES IDX 13 24 15 25 25 26 26 27 27 28 28 29 29 30 30 31 94 32 31 33
REMARK SMILES IDX 93 34 32 35 33 36 34 37 87 38 35 39 92 40 86 41 88 42 36 43
REMARK SMILES IDX 91 44 85 45 84 46 37 48 71 49 50 50 70 51 51 52 54 53 69 54
REMARK SMILES IDX 89 55 52 56 53 57 68 59 90 60 55 61 38 62 39 63 48 64 40 65
REMARK SMILES IDX 41 66 47 67 49 68 42 69 43 70 44 71 45 72 46 73 72 74 73 75
REMARK SMILES IDX 82 76 74 77 75 78 81 79 83 80 76 81 77 82 78 83 79 84 80 85
REMARK SMILES IDX 56 86 57 87 66 88 58 89 59 90 65 91 67 92 60 93 61 94 62 95
REMARK SMILES IDX 63 96 64 97
REMARK H PARENT 19 9 88 47 54 58
REMARK Flexibility Score: inf
ROOT
ATOM      1  C   UNL A   1      33.159  30.095  27.125  1.00  0.00     0.274 C 
ENDROOT
BRANCH   1   2
ATOM      2  O   UNL A   1      33.535  28.821  26.577  1.00  0.00    -0.461 OA
BRANCH   2   3
ATOM      3  C   UNL A   1      32.993  28.478  25.373  1.00  0.00     0.325 C 
ATOM      4  O   UNL A   1      33.623  28.380  24.327  1.00  0.00    -0.250 OA
BRANCH   3   5
ATOM      5  C   UNL A   1      31.486  28.266  25.472  1.00  0.00     0.238 C 
BRANCH   5   6
ATOM      6  N   UNL A   1      31.069  26.945  25.036  1.00  0.00    -0.344 N 
ATOM      7  O   UNL A   1      29.667  27.649  23.357  1.00  0.00    -0.273 OA
ATOM      8  C   UNL A   1      30.233  26.744  23.962  1.00  0.00     0.240 C 
ATOM      9  H   UNL A   1      31.399  26.160  25.530  1.00  0.00     0.164 HD
BRANCH   8  10
ATOM     10  C   UNL A   1      30.165  25.287  23.517  1.00  0.00     0.229 C 
BRANCH  10  11
ATOM     11  N   UNL A   1      31.449  24.606  23.514  1.00  0.00    -0.259 N 
ATOM     12  C   UNL A   1      32.411  24.862  22.574  1.00  0.00     0.294 C 
ATOM     13  C   UNL A   1      31.881  23.986  24.666  1.00  0.00     0.268 C 
ATOM     14  O   UNL A   1      32.339  25.606  21.606  1.00  0.00    -0.261 OA
ATOM     15  S   UNL A   1      33.889  24.016  22.975  1.00  0.00    -0.022 SA
ATOM     16  C   UNL A   1      33.317  23.619  24.545  1.00  0.00     0.083 C 
ATOM     17  O   UNL A   1      31.225  23.833  25.689  1.00  0.00    -0.268 OA
ATOM     18  C   UNL A   1      34.020  23.117  25.571  1.00  0.00     0.029 C 
BRANCH  18  19
ATOM     19  C   UNL A   1      35.452  22.799  25.537  1.00  0.00    -0.021 A 
ATOM     20  C   UNL A   1      35.907  21.520  25.181  1.00  0.00     0.008 A 
ATOM     21  C   UNL A   1      36.382  23.788  25.865  1.00  0.00     0.047 A 
ATOM     22  C   UNL A   1      37.273  21.224  25.191  1.00  0.00     0.004 A 
ATOM     23  C   UNL A   1      37.740  23.483  25.867  1.00  0.00     0.123 A 
ATOM     24  C   UNL A   1      38.194  22.210  25.540  1.00  0.00     0.039 A 
ATOM     25  F   UNL A   1      38.624  24.434  26.197  1.00  0.00    -0.207 F 
ENDBRANCH  18  19
ENDBRANCH  10  11
ENDBRANCH   8  10
ENDBRANCH   5   6
ENDBRANCH   3   5
ENDBRANCH   2   3
ENDBRANCH   1   2
BRANCH   1  26
ATOM     26  C   UNL A   1      34.401  30.828  27.636  1.00  0.00     0.275 C 
BRANCH  26  27
ATOM     27  O   UNL A   1      35.262  29.961  28.396  1.00  0.00    -0.458 OA
BRANCH  27  28
ATOM     28  C   UNL A   1      36.106  30.571  29.263  1.00  0.00     0.338 C 
ATOM     29  O   UNL A   1      35.819  31.386  30.125  1.00  0.00    -0.246 OA
BRANCH  28  30
ATOM     30  C   UNL A   1      37.455  30.013  29.076  1.00  0.00     0.060 A 
ATOM     31  C   UNL A   1      38.224  29.709  30.203  1.00  0.00     0.016 A 
ATOM     32  C   UNL A   1      37.978  29.842  27.792  1.00  0.00     0.016 A 
ATOM     33  C   UNL A   1      39.531  29.246  30.050  1.00  0.00     0.010 A 
ATOM     34  C   UNL A   1      39.285  29.371  27.642  1.00  0.00     0.010 A 
ATOM     35  C   UNL A   1      40.075  29.084  28.769  1.00  0.00    -0.014 A 
BRANCH  35  36
ATOM     36  C   UNL A   1      41.488  28.673  28.580  1.00  0.00     0.031 A 
ATOM     37  C   UNL A   1      42.574  29.709  28.672  1.00  0.00     0.074 A 
ATOM     38  C   UNL A   1      41.793  27.393  28.292  1.00  0.00     0.049 A 
ATOM     39  N   UNL A   1      43.838  29.614  28.357  1.00  0.00    -0.248 NA
ATOM     40  C   UNL A   1      42.178  31.033  29.182  1.00  0.00     0.031 C 
ATOM     41  C   UNL A   1      40.833  26.289  28.236  1.00  0.00     0.029 A 
ATOM     42  N   UNL A   1      42.994  26.808  27.978  1.00  0.00    -0.354 N 
ATOM     43  C   UNL A   1      44.387  30.864  28.613  1.00  0.00     0.074 A 
ATOM     44  C   UNL A   1      43.313  31.711  29.083  1.00  0.00     0.031 C 
ATOM     45  C   UNL A   1      41.483  25.162  27.902  1.00  0.00     0.029 A 
ATOM     46  C   UNL A   1      42.890  25.473  27.663  1.00  0.00     0.049 A 
ATOM     47  H   UNL A   1      43.848  27.297  27.978  1.00  0.00     0.167 HD
ATOM     48  C   UNL A   1      45.674  31.262  28.476  1.00  0.00     0.037 A 
ATOM     49  C   UNL A   1      43.816  24.610  27.198  1.00  0.00     0.037 A 
ATOM     50  C   UNL A   1      46.735  30.401  28.019  1.00  0.00     0.049 A 
ATOM     51  C   UNL A   1      45.222  25.099  26.962  1.00  0.00     0.074 A 
ATOM     52  C   UNL A   1      48.070  30.710  27.834  1.00  0.00     0.029 A 
ATOM     53  N   UNL A   1      46.582  29.063  27.684  1.00  0.00    -0.354 N 
ATOM     54  N   UNL A   1      45.723  26.293  27.173  1.00  0.00    -0.248 NA
ATOM     55  C   UNL A   1      46.186  24.133  26.416  1.00  0.00     0.031 C 
ATOM     56  C   UNL A   1      48.717  29.572  27.343  1.00  0.00     0.029 A 
ATOM     57  C   UNL A   1      47.797  28.538  27.281  1.00  0.00     0.049 A 
ATOM     58  H   UNL A   1      45.736  28.563  27.728  1.00  0.00     0.167 HD
ATOM     59  C   UNL A   1      47.067  26.210  26.826  1.00  0.00     0.074 A 
ATOM     60  C   UNL A   1      47.301  24.850  26.384  1.00  0.00     0.031 C 
ATOM     61  C   UNL A   1      48.021  27.171  26.875  1.00  0.00     0.037 A 
BRANCH  48  62
ATOM     62  C   UNL A   1      46.017  32.686  28.814  1.00  0.00     0.058 A 
ATOM     63  C   UNL A   1      46.350  33.047  30.131  1.00  0.00     0.135 A 
ATOM     64  C   UNL A   1      45.942  33.709  27.856  1.00  0.00     0.135 A 
ATOM     65  F   UNL A   1      46.443  32.109  31.087  1.00  0.00    -0.206 F 
ATOM     66  C   UNL A   1      46.576  34.372  30.488  1.00  0.00     0.059 A 
ATOM     67  C   UNL A   1      46.190  35.038  28.185  1.00  0.00     0.059 A 
ATOM     68  F   UNL A   1      45.649  33.417  26.579  1.00  0.00    -0.206 F 
ATOM     69  C   UNL A   1      46.492  35.362  29.508  1.00  0.00     0.060 A 
BRANCH  69  70
ATOM     70  S   UNL A   1      46.817  37.073  29.981  1.00  0.00     0.124 S 
ATOM     71  O   UNL A   1      45.681  37.771  29.389  1.00  0.00    -0.237 OA
ATOM     72  O   UNL A   1      46.825  36.989  31.439  1.00  0.00    -0.237 OA
ATOM     73  O   UNL A   1      48.115  37.351  29.374  1.00  0.00    -0.744 OA
ENDBRANCH  69  70
ENDBRANCH  48  62
BRANCH  49  74
ATOM     74  C   UNL A   1      43.441  23.196  26.922  1.00  0.00     0.058 A 
ATOM     75  C   UNL A   1      43.204  22.283  27.961  1.00  0.00     0.135 A 
ATOM     76  C   UNL A   1      43.332  22.726  25.604  1.00  0.00     0.135 A 
ATOM     77  F   UNL A   1      43.299  22.678  29.241  1.00  0.00    -0.206 F 
ATOM     78  C   UNL A   1      42.899  20.951  27.706  1.00  0.00     0.059 A 
ATOM     79  C   UNL A   1      43.000  21.404  25.322  1.00  0.00     0.059 A 
ATOM     80  F   UNL A   1      43.533  23.565  24.576  1.00  0.00    -0.206 F 
ATOM     81  C   UNL A   1      42.800  20.520  26.382  1.00  0.00     0.060 A 
BRANCH  81  82
ATOM     82  S   UNL A   1      42.399  18.786  26.073  1.00  0.00     0.124 S 
ATOM     83  O   UNL A   1      43.349  18.450  25.018  1.00  0.00    -0.237 OA
ATOM     84  O   UNL A   1      42.653  18.178  27.375  1.00  0.00    -0.237 OA
ATOM     85  O   UNL A   1      40.998  18.831  25.667  1.00  0.00    -0.744 OA
ENDBRANCH  81  82
ENDBRANCH  49  74
BRANCH  61  86
ATOM     86  C   UNL A   1      49.429  26.800  26.500  1.00  0.00     0.058 A 
ATOM     87  C   UNL A   1      49.886  27.013  25.190  1.00  0.00     0.135 A 
ATOM     88  C   UNL A   1      50.271  26.109  27.385  1.00  0.00     0.135 A 
ATOM     89  F   UNL A   1      49.117  27.666  24.303  1.00  0.00    -0.206 F 
ATOM     90  C   UNL A   1      51.110  26.517  24.756  1.00  0.00     0.059 A 
ATOM     91  C   UNL A   1      51.512  25.627  26.981  1.00  0.00     0.059 A 
ATOM     92  F   UNL A   1      49.885  25.890  28.653  1.00  0.00    -0.206 F 
ATOM     93  C   UNL A   1      51.911  25.813  25.655  1.00  0.00     0.060 A 
BRANCH  93  94
ATOM     94  S   UNL A   1      53.473  25.133  25.060  1.00  0.00     0.124 S 
ATOM     95  O   UNL A   1      53.498  25.603  23.680  1.00  0.00    -0.237 OA
ATOM     96  O   UNL A   1      54.441  25.754  25.960  1.00  0.00    -0.237 OA
ATOM     97  O   UNL A   1      53.303  23.693  25.230  1.00  0.00    -0.744 OA
ENDBRANCH  93  94
ENDBRANCH  61  86
ENDBRANCH  35  36
ENDBRANCH  28  30
ENDBRANCH  27  28
ENDBRANCH  26  27
ENDBRANCH   1  26
TORSDOF 18
ENDMDL
