MODEL 1
REMARK VINA RESULT:     -13.6      0.000      0.000
REMARK SMILES Cc1cccc(NC(=O)COc2ccc(N3C[C@@H](C(=O)OCCOC(=O)c4ccc(-c5c6nc(c(-c7c(F)cc(S(=O)(=O)[O-])cc7F)c7ccc([nH]7)c(-c7c(F)cc(S(=O)(=O)[O-])cc7F)c7nc(c(-c8c(F)cc(S(=O)(=O)[O-])cc8F)c8ccc5[nH]8)C=C7)C=C6)cc4)CC3=O)cc2)c1
REMARK SMILES IDX 22 1 21 2 19 3 20 4 18 5 16 6 17 7 94 8 93 9 95 10 15 11
REMARK SMILES IDX 12 12 13 13 97 14 14 15 96 16 11 17 10 18 8 19 7 20 9 22
REMARK SMILES IDX 6 23 1 24 2 25 3 26 98 27 4 28 5 29 23 30 24 31 25 32 26 33
REMARK SMILES IDX 27 34 28 35 92 36 29 37 91 38 30 39 31 40 32 41 85 42 33 43
REMARK SMILES IDX 90 44 84 45 86 46 34 47 89 48 83 49 82 50 35 52 69 53 48 54
REMARK SMILES IDX 68 55 49 56 52 57 67 58 87 59 50 60 51 61 66 63 88 64 53 65
REMARK SMILES IDX 36 66 37 67 46 68 38 69 39 70 45 71 47 72 40 73 41 74 42 75
REMARK SMILES IDX 43 76 44 77 70 78 71 79 80 80 72 81 73 82 79 83 81 84 74 85
REMARK SMILES IDX 75 86 76 87 77 88 78 89 54 90 55 91 64 92 56 93 57 94 63 95
REMARK SMILES IDX 65 96 58 97 59 98 60 99 61 100 62 101
REMARK H PARENT 7 21 86 51 52 62
REMARK Flexibility Score: inf
ROOT
ATOM      1  C   UNL A   1      33.163  30.336  26.848  1.00  0.00     0.274 C 
ENDROOT
BRANCH   1   2
ATOM      2  O   UNL A   1      33.055  29.548  25.664  1.00  0.00    -0.462 OA
BRANCH   2   3
ATOM      3  C   UNL A   1      31.808  29.058  25.420  1.00  0.00     0.311 C 
ATOM      4  O   UNL A   1      30.950  29.639  24.798  1.00  0.00    -0.252 OA
BRANCH   3   5
ATOM      5  C   UNL A   1      31.715  27.667  25.990  1.00  0.00     0.128 C 
ATOM      6  N   UNL A   1      32.657  25.555  25.812  1.00  0.00    -0.312 N 
ATOM      7  C   UNL A   1      33.035  26.935  25.970  1.00  0.00     0.141 C 
ATOM      8  C   UNL A   1      31.378  25.429  25.272  1.00  0.00     0.227 C 
ATOM      9  C   UNL A   1      30.752  26.796  25.212  1.00  0.00     0.117 C 
ATOM     10  O   UNL A   1      30.832  24.416  24.857  1.00  0.00    -0.274 OA
BRANCH   6  11
ATOM     11  C   UNL A   1      33.672  24.598  25.673  1.00  0.00     0.044 A 
ATOM     12  C   UNL A   1      35.942  22.979  25.538  1.00  0.00     0.120 A 
ATOM     13  C   UNL A   1      35.026  22.814  26.578  1.00  0.00     0.048 A 
ATOM     14  C   UNL A   1      35.687  23.918  24.541  1.00  0.00     0.048 A 
ATOM     15  C   UNL A   1      33.907  23.648  26.668  1.00  0.00     0.030 A 
ATOM     16  C   UNL A   1      34.545  24.706  24.594  1.00  0.00     0.030 A 
BRANCH  12  17
ATOM     17  O   UNL A   1      37.016  22.138  25.544  1.00  0.00    -0.484 OA
BRANCH  17  18
ATOM     18  C   UNL A   1      37.016  21.102  24.575  1.00  0.00     0.329 C 
BRANCH  18  19
ATOM     19  C   UNL A   1      37.341  19.656  24.967  1.00  0.00     0.262 C 
ATOM     20  N   UNL A   1      36.459  18.625  24.843  1.00  0.00    -0.323 N 
ATOM     21  H   UNL A   1      36.874  17.746  24.997  1.00  0.00     0.170 HD
ATOM     22  O   UNL A   1      38.470  19.365  25.382  1.00  0.00    -0.271 OA
BRANCH  20  23
ATOM     23  C   UNL A   1      35.092  18.536  24.542  1.00  0.00     0.041 A 
ATOM     24  C   UNL A   1      32.129  20.929  24.872  1.00  0.00     0.044 C 
ATOM     25  C   UNL A   1      32.943  19.709  24.563  1.00  0.00    -0.049 A 
ATOM     26  C   UNL A   1      32.342  18.601  23.964  1.00  0.00     0.003 A 
ATOM     27  C   UNL A   1      34.315  19.665  24.850  1.00  0.00     0.029 A 
ATOM     28  C   UNL A   1      33.105  17.479  23.648  1.00  0.00     0.002 A 
ATOM     29  C   UNL A   1      34.475  17.454  23.923  1.00  0.00     0.026 A 
ENDBRANCH  20  23
ENDBRANCH  18  19
ENDBRANCH  17  18
ENDBRANCH  12  17
ENDBRANCH   6  11
ENDBRANCH   3   5
ENDBRANCH   2   3
ENDBRANCH   1   2
BRANCH   1  30
ATOM     30  C   UNL A   1      34.515  30.057  27.528  1.00  0.00     0.275 C 
BRANCH  30  31
ATOM     31  O   UNL A   1      35.488  31.126  27.726  1.00  0.00    -0.458 OA
BRANCH  31  32
ATOM     32  C   UNL A   1      36.413  31.081  28.727  1.00  0.00     0.338 C 
ATOM     33  O   UNL A   1      36.350  31.771  29.732  1.00  0.00    -0.246 OA
BRANCH  32  34
ATOM     34  C   UNL A   1      37.357  29.947  28.531  1.00  0.00     0.060 A 
ATOM     35  C   UNL A   1      38.222  29.914  27.424  1.00  0.00     0.016 A 
ATOM     36  C   UNL A   1      37.584  29.119  29.620  1.00  0.00     0.016 A 
ATOM     37  C   UNL A   1      39.425  29.209  27.498  1.00  0.00     0.010 A 
ATOM     38  C   UNL A   1      38.832  28.586  29.770  1.00  0.00     0.010 A 
ATOM     39  C   UNL A   1      39.750  28.608  28.709  1.00  0.00    -0.014 A 
BRANCH  39  40
ATOM     40  C   UNL A   1      40.910  27.767  28.960  1.00  0.00     0.031 A 
ATOM     41  C   UNL A   1      41.006  26.354  28.556  1.00  0.00     0.074 A 
ATOM     42  C   UNL A   1      41.963  28.497  29.387  1.00  0.00     0.049 A 
ATOM     43  N   UNL A   1      41.885  25.536  29.017  1.00  0.00    -0.248 NA
ATOM     44  C   UNL A   1      40.111  25.715  27.602  1.00  0.00     0.031 C 
ATOM     45  C   UNL A   1      43.381  28.216  29.391  1.00  0.00     0.029 A 
ATOM     46  N   UNL A   1      41.867  29.732  30.029  1.00  0.00    -0.354 N 
ATOM     47  C   UNL A   1      41.893  24.413  28.207  1.00  0.00     0.074 A 
ATOM     48  C   UNL A   1      40.684  24.514  27.431  1.00  0.00     0.031 C 
ATOM     49  C   UNL A   1      43.983  29.081  30.235  1.00  0.00     0.029 A 
ATOM     50  C   UNL A   1      42.931  29.839  30.907  1.00  0.00     0.049 A 
ATOM     51  H   UNL A   1      41.165  30.407  29.882  1.00  0.00     0.167 HD
ATOM     52  C   UNL A   1      43.022  23.643  28.175  1.00  0.00     0.037 A 
ATOM     53  C   UNL A   1      42.628  29.786  32.238  1.00  0.00     0.037 A 
ATOM     54  C   UNL A   1      44.004  24.211  29.098  1.00  0.00     0.049 A 
ATOM     55  C   UNL A   1      43.199  28.529  32.841  1.00  0.00     0.074 A 
ATOM     56  C   UNL A   1      45.058  25.084  28.885  1.00  0.00     0.029 A 
ATOM     57  N   UNL A   1      43.747  24.215  30.462  1.00  0.00    -0.354 N 
ATOM     58  N   UNL A   1      43.295  27.379  32.226  1.00  0.00    -0.248 NA
ATOM     59  C   UNL A   1      43.858  28.541  34.139  1.00  0.00     0.031 C 
ATOM     60  C   UNL A   1      45.397  25.663  30.133  1.00  0.00     0.029 A 
ATOM     61  C   UNL A   1      44.551  25.140  31.098  1.00  0.00     0.049 A 
ATOM     62  H   UNL A   1      43.087  23.640  30.912  1.00  0.00     0.167 HD
ATOM     63  C   UNL A   1      44.089  26.542  32.971  1.00  0.00     0.074 A 
ATOM     64  C   UNL A   1      44.401  27.313  34.162  1.00  0.00     0.031 C 
ATOM     65  C   UNL A   1      44.502  25.309  32.541  1.00  0.00     0.037 A 
BRANCH  52  66
ATOM     66  C   UNL A   1      43.406  22.595  27.137  1.00  0.00     0.058 A 
ATOM     67  C   UNL A   1      42.697  21.368  27.077  1.00  0.00     0.135 A 
ATOM     68  C   UNL A   1      44.451  22.700  26.197  1.00  0.00     0.135 A 
ATOM     69  F   UNL A   1      41.625  21.133  27.847  1.00  0.00    -0.206 F 
ATOM     70  C   UNL A   1      43.044  20.311  26.233  1.00  0.00     0.059 A 
ATOM     71  C   UNL A   1      44.830  21.644  25.349  1.00  0.00     0.059 A 
ATOM     72  F   UNL A   1      45.124  23.844  26.028  1.00  0.00    -0.206 F 
ATOM     73  C   UNL A   1      44.128  20.446  25.384  1.00  0.00     0.060 A 
BRANCH  73  74
ATOM     74  S   UNL A   1      44.567  19.048  24.332  1.00  0.00     0.124 S 
ATOM     75  O   UNL A   1      44.397  19.608  22.995  1.00  0.00    -0.237 OA
ATOM     76  O   UNL A   1      45.944  18.779  24.734  1.00  0.00    -0.237 OA
ATOM     77  O   UNL A   1      43.596  18.023  24.704  1.00  0.00    -0.744 OA
ENDBRANCH  73  74
ENDBRANCH  52  66
BRANCH  53  78
ATOM     78  C   UNL A   1      41.306  30.429  32.566  1.00  0.00     0.058 A 
ATOM     79  C   UNL A   1      40.269  29.585  33.031  1.00  0.00     0.135 A 
ATOM     80  C   UNL A   1      41.155  31.802  32.820  1.00  0.00     0.135 A 
ATOM     81  F   UNL A   1      40.348  28.258  32.828  1.00  0.00    -0.206 F 
ATOM     82  C   UNL A   1      39.220  30.052  33.821  1.00  0.00     0.059 A 
ATOM     83  C   UNL A   1      40.093  32.296  33.597  1.00  0.00     0.059 A 
ATOM     84  F   UNL A   1      42.090  32.673  32.416  1.00  0.00    -0.206 F 
ATOM     85  C   UNL A   1      39.163  31.405  34.135  1.00  0.00     0.060 A 
BRANCH  85  86
ATOM     86  S   UNL A   1      37.953  31.933  35.379  1.00  0.00     0.124 S 
ATOM     87  O   UNL A   1      38.618  33.084  35.979  1.00  0.00    -0.237 OA
ATOM     88  O   UNL A   1      36.788  32.237  34.552  1.00  0.00    -0.237 OA
ATOM     89  O   UNL A   1      37.820  30.760  36.238  1.00  0.00    -0.744 OA
ENDBRANCH  85  86
ENDBRANCH  53  78
BRANCH  65  90
ATOM     90  C   UNL A   1      45.054  24.195  33.410  1.00  0.00     0.058 A 
ATOM     91  C   UNL A   1      44.341  23.032  33.746  1.00  0.00     0.135 A 
ATOM     92  C   UNL A   1      46.414  24.198  33.824  1.00  0.00     0.135 A 
ATOM     93  F   UNL A   1      43.102  22.803  33.292  1.00  0.00    -0.206 F 
ATOM     94  C   UNL A   1      44.889  22.013  34.522  1.00  0.00     0.059 A 
ATOM     95  C   UNL A   1      47.003  23.155  34.530  1.00  0.00     0.059 A 
ATOM     96  F   UNL A   1      47.247  25.210  33.537  1.00  0.00    -0.206 F 
ATOM     97  C   UNL A   1      46.220  22.082  34.912  1.00  0.00     0.060 A 
BRANCH  97  98
ATOM     98  S   UNL A   1      46.924  20.736  35.868  1.00  0.00     0.124 S 
ATOM     99  O   UNL A   1      45.765  20.293  36.635  1.00  0.00    -0.237 OA
ATOM    100  O   UNL A   1      47.383  19.818  34.829  1.00  0.00    -0.237 OA
ATOM    101  O   UNL A   1      47.983  21.382  36.637  1.00  0.00    -0.744 OA
ENDBRANCH  97  98
ENDBRANCH  65  90
ENDBRANCH  39  40
ENDBRANCH  32  34
ENDBRANCH  31  32
ENDBRANCH  30  31
ENDBRANCH   1  30
TORSDOF 19
ENDMDL
MODEL 2
REMARK VINA RESULT:     -13.6      1.133      2.279
REMARK SMILES Cc1cccc(NC(=O)COc2ccc(N3C[C@@H](C(=O)OCCOC(=O)c4ccc(-c5c6nc(c(-c7c(F)cc(S(=O)(=O)[O-])cc7F)c7ccc([nH]7)c(-c7c(F)cc(S(=O)(=O)[O-])cc7F)c7nc(c(-c8c(F)cc(S(=O)(=O)[O-])cc8F)c8ccc5[nH]8)C=C7)C=C6)cc4)CC3=O)cc2)c1
REMARK SMILES IDX 22 1 21 2 19 3 20 4 18 5 16 6 17 7 94 8 93 9 95 10 15 11
REMARK SMILES IDX 12 12 13 13 97 14 14 15 96 16 11 17 10 18 8 19 7 20 9 22
REMARK SMILES IDX 6 23 1 24 2 25 3 26 98 27 4 28 5 29 23 30 24 31 25 32 26 33
REMARK SMILES IDX 27 34 28 35 92 36 29 37 91 38 30 39 31 40 32 41 85 42 33 43
REMARK SMILES IDX 90 44 84 45 86 46 34 47 89 48 83 49 82 50 35 52 69 53 48 54
REMARK SMILES IDX 68 55 49 56 52 57 67 58 87 59 50 60 51 61 66 63 88 64 53 65
REMARK SMILES IDX 36 66 37 67 46 68 38 69 39 70 45 71 47 72 40 73 41 74 42 75
REMARK SMILES IDX 43 76 44 77 70 78 71 79 80 80 72 81 73 82 79 83 81 84 74 85
REMARK SMILES IDX 75 86 76 87 77 88 78 89 54 90 55 91 64 92 56 93 57 94 63 95
REMARK SMILES IDX 65 96 58 97 59 98 60 99 61 100 62 101
REMARK H PARENT 7 21 86 51 52 62
REMARK Flexibility Score: inf
ROOT
ATOM      1  C   UNL A   1      33.120  30.112  26.544  1.00  0.00     0.274 C 
ENDROOT
BRANCH   1   2
ATOM      2  O   UNL A   1      32.970  29.126  25.524  1.00  0.00    -0.462 OA
BRANCH   2   3
ATOM      3  C   UNL A   1      31.816  29.221  24.808  1.00  0.00     0.311 C 
ATOM      4  O   UNL A   1      31.001  30.105  24.931  1.00  0.00    -0.252 OA
BRANCH   3   5
ATOM      5  C   UNL A   1      31.771  28.095  23.809  1.00  0.00     0.128 C 
ATOM      6  N   UNL A   1      31.987  25.791  23.645  1.00  0.00    -0.312 N 
ATOM      7  C   UNL A   1      31.295  26.795  24.411  1.00  0.00     0.141 C 
ATOM      8  C   UNL A   1      33.125  26.307  23.026  1.00  0.00     0.227 C 
ATOM      9  C   UNL A   1      33.135  27.799  23.223  1.00  0.00     0.117 C 
ATOM     10  O   UNL A   1      34.014  25.694  22.454  1.00  0.00    -0.274 OA
BRANCH   6  11
ATOM     11  C   UNL A   1      31.826  24.447  24.010  1.00  0.00     0.044 A 
ATOM     12  C   UNL A   1      31.912  21.758  24.753  1.00  0.00     0.120 A 
ATOM     13  C   UNL A   1      31.591  22.735  25.697  1.00  0.00     0.048 A 
ATOM     14  C   UNL A   1      32.134  22.130  23.429  1.00  0.00     0.048 A 
ATOM     15  C   UNL A   1      31.583  24.085  25.336  1.00  0.00     0.030 A 
ATOM     16  C   UNL A   1      32.067  23.465  23.054  1.00  0.00     0.030 A 
BRANCH  12  17
ATOM     17  O   UNL A   1      31.920  20.469  25.201  1.00  0.00    -0.484 OA
BRANCH  17  18
ATOM     18  C   UNL A   1      33.144  19.990  25.735  1.00  0.00     0.329 C 
BRANCH  18  19
ATOM     19  C   UNL A   1      34.153  19.248  24.851  1.00  0.00     0.262 C 
ATOM     20  N   UNL A   1      35.441  19.654  24.671  1.00  0.00    -0.323 N 
ATOM     21  H   UNL A   1      35.989  18.986  24.199  1.00  0.00     0.170 HD
ATOM     22  O   UNL A   1      33.826  18.193  24.290  1.00  0.00    -0.271 OA
BRANCH  20  23
ATOM     23  C   UNL A   1      36.160  20.809  25.010  1.00  0.00     0.041 A 
ATOM     24  C   UNL A   1      35.223  24.481  25.514  1.00  0.00     0.044 C 
ATOM     25  C   UNL A   1      36.024  23.217  25.431  1.00  0.00    -0.049 A 
ATOM     26  C   UNL A   1      37.386  23.232  25.735  1.00  0.00     0.003 A 
ATOM     27  C   UNL A   1      35.422  22.003  25.068  1.00  0.00     0.029 A 
ATOM     28  C   UNL A   1      38.125  22.052  25.688  1.00  0.00     0.002 A 
ATOM     29  C   UNL A   1      37.511  20.845  25.342  1.00  0.00     0.026 A 
ENDBRANCH  20  23
ENDBRANCH  18  19
ENDBRANCH  17  18
ENDBRANCH  12  17
ENDBRANCH   6  11
ENDBRANCH   3   5
ENDBRANCH   2   3
ENDBRANCH   1   2
BRANCH   1  30
ATOM     30  C   UNL A   1      34.432  29.864  27.307  1.00  0.00     0.275 C 
BRANCH  30  31
ATOM     31  O   UNL A   1      35.343  30.964  27.606  1.00  0.00    -0.458 OA
BRANCH  31  32
ATOM     32  C   UNL A   1      36.240  30.897  28.632  1.00  0.00     0.338 C 
ATOM     33  O   UNL A   1      36.129  31.539  29.664  1.00  0.00    -0.246 OA
BRANCH  32  34
ATOM     34  C   UNL A   1      37.221  29.800  28.412  1.00  0.00     0.060 A 
ATOM     35  C   UNL A   1      38.107  29.834  27.322  1.00  0.00     0.016 A 
ATOM     36  C   UNL A   1      37.452  28.939  29.475  1.00  0.00     0.016 A 
ATOM     37  C   UNL A   1      39.329  29.161  27.394  1.00  0.00     0.010 A 
ATOM     38  C   UNL A   1      38.713  28.437  29.629  1.00  0.00     0.010 A 
ATOM     39  C   UNL A   1      39.650  28.525  28.587  1.00  0.00    -0.014 A 
BRANCH  39  40
ATOM     40  C   UNL A   1      40.829  27.709  28.831  1.00  0.00     0.031 A 
ATOM     41  C   UNL A   1      40.950  26.296  28.433  1.00  0.00     0.074 A 
ATOM     42  C   UNL A   1      41.871  28.463  29.241  1.00  0.00     0.049 A 
ATOM     43  N   UNL A   1      41.850  25.500  28.890  1.00  0.00    -0.248 NA
ATOM     44  C   UNL A   1      40.057  25.633  27.494  1.00  0.00     0.031 C 
ATOM     45  C   UNL A   1      43.295  28.211  29.231  1.00  0.00     0.029 A 
ATOM     46  N   UNL A   1      41.757  29.699  29.877  1.00  0.00    -0.354 N 
ATOM     47  C   UNL A   1      41.872  24.372  28.085  1.00  0.00     0.074 A 
ATOM     48  C   UNL A   1      40.652  24.444  27.323  1.00  0.00     0.031 C 
ATOM     49  C   UNL A   1      43.889  29.093  30.062  1.00  0.00     0.029 A 
ATOM     50  C   UNL A   1      42.829  29.834  30.742  1.00  0.00     0.049 A 
ATOM     51  H   UNL A   1      41.041  30.360  29.734  1.00  0.00     0.167 HD
ATOM     52  C   UNL A   1      43.016  23.624  28.046  1.00  0.00     0.037 A 
ATOM     53  C   UNL A   1      42.542  29.783  32.077  1.00  0.00     0.037 A 
ATOM     54  C   UNL A   1      43.996  24.218  28.954  1.00  0.00     0.049 A 
ATOM     55  C   UNL A   1      43.146  28.541  32.681  1.00  0.00     0.074 A 
ATOM     56  C   UNL A   1      45.030  25.111  28.724  1.00  0.00     0.029 A 
ATOM     57  N   UNL A   1      43.755  24.225  30.321  1.00  0.00    -0.354 N 
ATOM     58  N   UNL A   1      43.258  27.390  32.071  1.00  0.00    -0.248 NA
ATOM     59  C   UNL A   1      43.819  28.574  33.971  1.00  0.00     0.031 C 
ATOM     60  C   UNL A   1      45.371  25.704  29.964  1.00  0.00     0.029 A 
ATOM     61  C   UNL A   1      44.547  25.170  30.942  1.00  0.00     0.049 A 
ATOM     62  H   UNL A   1      43.112  23.639  30.782  1.00  0.00     0.167 HD
ATOM     63  C   UNL A   1      44.077  26.573  32.812  1.00  0.00     0.074 A 
ATOM     64  C   UNL A   1      44.387  27.358  33.995  1.00  0.00     0.031 C 
ATOM     65  C   UNL A   1      44.510  25.347  32.385  1.00  0.00     0.037 A 
BRANCH  52  66
ATOM     66  C   UNL A   1      43.409  22.579  27.009  1.00  0.00     0.058 A 
ATOM     67  C   UNL A   1      42.712  21.344  26.952  1.00  0.00     0.135 A 
ATOM     68  C   UNL A   1      44.452  22.692  26.068  1.00  0.00     0.135 A 
ATOM     69  F   UNL A   1      41.644  21.100  27.723  1.00  0.00    -0.206 F 
ATOM     70  C   UNL A   1      43.069  20.290  26.110  1.00  0.00     0.059 A 
ATOM     71  C   UNL A   1      44.842  21.638  25.222  1.00  0.00     0.059 A 
ATOM     72  F   UNL A   1      45.114  23.842  25.896  1.00  0.00    -0.206 F 
ATOM     73  C   UNL A   1      44.152  20.434  25.260  1.00  0.00     0.060 A 
BRANCH  73  74
ATOM     74  S   UNL A   1      44.603  19.038  24.211  1.00  0.00     0.124 S 
ATOM     75  O   UNL A   1      45.975  18.771  24.633  1.00  0.00    -0.237 OA
ATOM     76  O   UNL A   1      43.617  18.032  24.593  1.00  0.00    -0.237 OA
ATOM     77  O   UNL A   1      44.463  19.567  22.858  1.00  0.00    -0.744 OA
ENDBRANCH  73  74
ENDBRANCH  52  66
BRANCH  53  78
ATOM     78  C   UNL A   1      41.211  30.401  32.416  1.00  0.00     0.058 A 
ATOM     79  C   UNL A   1      40.223  29.553  32.972  1.00  0.00     0.135 A 
ATOM     80  C   UNL A   1      41.021  31.781  32.592  1.00  0.00     0.135 A 
ATOM     81  F   UNL A   1      40.341  28.220  32.847  1.00  0.00    -0.206 F 
ATOM     82  C   UNL A   1      39.187  30.033  33.772  1.00  0.00     0.059 A 
ATOM     83  C   UNL A   1      39.971  32.287  33.377  1.00  0.00     0.059 A 
ATOM     84  F   UNL A   1      41.909  32.655  32.099  1.00  0.00    -0.206 F 
ATOM     85  C   UNL A   1      39.094  31.401  34.005  1.00  0.00     0.060 A 
BRANCH  85  86
ATOM     86  S   UNL A   1      37.913  31.965  35.261  1.00  0.00     0.124 S 
ATOM     87  O   UNL A   1      37.839  30.810  36.147  1.00  0.00    -0.237 OA
ATOM     88  O   UNL A   1      38.595  33.137  35.807  1.00  0.00    -0.237 OA
ATOM     89  O   UNL A   1      36.708  32.248  34.487  1.00  0.00    -0.744 OA
ENDBRANCH  85  86
ENDBRANCH  53  78
BRANCH  65  90
ATOM     90  C   UNL A   1      45.094  24.249  33.253  1.00  0.00     0.058 A 
ATOM     91  C   UNL A   1      46.372  24.301  33.835  1.00  0.00     0.135 A 
ATOM     92  C   UNL A   1      44.303  23.139  33.657  1.00  0.00     0.135 A 
ATOM     93  F   UNL A   1      47.177  25.361  33.684  1.00  0.00    -0.206 F 
ATOM     94  C   UNL A   1      46.867  23.288  34.653  1.00  0.00     0.059 A 
ATOM     95  C   UNL A   1      44.749  22.158  34.536  1.00  0.00     0.059 A 
ATOM     96  F   UNL A   1      43.041  22.968  33.235  1.00  0.00    -0.206 F 
ATOM     97  C   UNL A   1      46.050  22.219  34.998  1.00  0.00     0.060 A 
BRANCH  97  98
ATOM     98  S   UNL A   1      46.687  20.948  36.094  1.00  0.00     0.124 S 
ATOM     99  O   UNL A   1      46.412  19.740  35.323  1.00  0.00    -0.237 OA
ATOM    100  O   UNL A   1      48.096  21.314  36.214  1.00  0.00    -0.237 OA
ATOM    101  O   UNL A   1      45.897  21.118  37.309  1.00  0.00    -0.744 OA
ENDBRANCH  97  98
ENDBRANCH  65  90
ENDBRANCH  39  40
ENDBRANCH  32  34
ENDBRANCH  31  32
ENDBRANCH  30  31
ENDBRANCH   1  30
TORSDOF 19
ENDMDL
MODEL 3
REMARK VINA RESULT:     -13.5      4.641     11.482
REMARK SMILES Cc1cccc(NC(=O)COc2ccc(N3C[C@@H](C(=O)OCCOC(=O)c4ccc(-c5c6nc(c(-c7c(F)cc(S(=O)(=O)[O-])cc7F)c7ccc([nH]7)c(-c7c(F)cc(S(=O)(=O)[O-])cc7F)c7nc(c(-c8c(F)cc(S(=O)(=O)[O-])cc8F)c8ccc5[nH]8)C=C7)C=C6)cc4)CC3=O)cc2)c1
REMARK SMILES IDX 22 1 21 2 19 3 20 4 18 5 16 6 17 7 94 8 93 9 95 10 15 11
REMARK SMILES IDX 12 12 13 13 97 14 14 15 96 16 11 17 10 18 8 19 7 20 9 22
REMARK SMILES IDX 6 23 1 24 2 25 3 26 98 27 4 28 5 29 23 30 24 31 25 32 26 33
REMARK SMILES IDX 27 34 28 35 92 36 29 37 91 38 30 39 31 40 32 41 85 42 33 43
REMARK SMILES IDX 90 44 84 45 86 46 34 47 89 48 83 49 82 50 35 52 69 53 48 54
REMARK SMILES IDX 68 55 49 56 52 57 67 58 87 59 50 60 51 61 66 63 88 64 53 65
REMARK SMILES IDX 36 66 37 67 46 68 38 69 39 70 45 71 47 72 40 73 41 74 42 75
REMARK SMILES IDX 43 76 44 77 70 78 71 79 80 80 72 81 73 82 79 83 81 84 74 85
REMARK SMILES IDX 75 86 76 87 77 88 78 89 54 90 55 91 64 92 56 93 57 94 63 95
REMARK SMILES IDX 65 96 58 97 59 98 60 99 61 100 62 101
REMARK H PARENT 7 21 86 51 52 62
REMARK Flexibility Score: inf
ROOT
ATOM      1  C   UNL A   1      37.320  23.017  25.293  1.00  0.00     0.274 C 
ENDROOT
BRANCH   1   2
ATOM      2  O   UNL A   1      36.264  22.454  26.068  1.00  0.00    -0.462 OA
BRANCH   2   3
ATOM      3  C   UNL A   1      35.681  21.354  25.517  1.00  0.00     0.311 C 
ATOM      4  O   UNL A   1      36.283  20.406  25.071  1.00  0.00    -0.252 OA
BRANCH   3   5
ATOM      5  C   UNL A   1      34.185  21.494  25.626  1.00  0.00     0.128 C 
ATOM      6  N   UNL A   1      32.494  23.081  25.614  1.00  0.00    -0.312 N 
ATOM      7  C   UNL A   1      33.648  22.675  24.855  1.00  0.00     0.141 C 
ATOM      8  C   UNL A   1      32.557  22.628  26.931  1.00  0.00     0.227 C 
ATOM      9  C   UNL A   1      33.734  21.700  27.056  1.00  0.00     0.117 C 
ATOM     10  O   UNL A   1      31.836  22.937  27.869  1.00  0.00    -0.274 OA
BRANCH   6  11
ATOM     11  C   UNL A   1      31.798  24.228  25.205  1.00  0.00     0.044 A 
ATOM     12  C   UNL A   1      30.078  26.278  24.411  1.00  0.00     0.120 A 
ATOM     13  C   UNL A   1      30.562  26.238  25.720  1.00  0.00     0.048 A 
ATOM     14  C   UNL A   1      30.505  25.321  23.493  1.00  0.00     0.048 A 
ATOM     15  C   UNL A   1      31.393  25.192  26.130  1.00  0.00     0.030 A 
ATOM     16  C   UNL A   1      31.379  24.315  23.881  1.00  0.00     0.030 A 
BRANCH  12  17
ATOM     17  O   UNL A   1      29.254  27.321  24.107  1.00  0.00    -0.484 OA
BRANCH  17  18
ATOM     18  C   UNL A   1      29.261  27.763  22.758  1.00  0.00     0.329 C 
BRANCH  18  19
ATOM     19  C   UNL A   1      29.895  29.104  22.372  1.00  0.00     0.262 C 
ATOM     20  N   UNL A   1      31.146  29.485  22.755  1.00  0.00    -0.323 N 
ATOM     21  H   UNL A   1      31.453  30.302  22.300  1.00  0.00     0.170 HD
ATOM     22  O   UNL A   1      29.284  29.889  21.635  1.00  0.00    -0.271 OA
BRANCH  20  23
ATOM     23  C   UNL A   1      32.094  28.972  23.653  1.00  0.00     0.041 A 
ATOM     24  C   UNL A   1      32.832  29.541  27.361  1.00  0.00     0.044 C 
ATOM     25  C   UNL A   1      32.914  29.015  25.960  1.00  0.00    -0.049 A 
ATOM     26  C   UNL A   1      33.855  28.038  25.633  1.00  0.00     0.003 A 
ATOM     27  C   UNL A   1      32.041  29.477  24.963  1.00  0.00     0.029 A 
ATOM     28  C   UNL A   1      33.911  27.526  24.339  1.00  0.00     0.002 A 
ATOM     29  C   UNL A   1      33.025  27.982  23.359  1.00  0.00     0.026 A 
ENDBRANCH  20  23
ENDBRANCH  18  19
ENDBRANCH  17  18
ENDBRANCH  12  17
ENDBRANCH   6  11
ENDBRANCH   3   5
ENDBRANCH   2   3
ENDBRANCH   1   2
BRANCH   1  30
ATOM     30  C   UNL A   1      38.258  23.820  26.212  1.00  0.00     0.275 C 
BRANCH  30  31
ATOM     31  O   UNL A   1      39.694  23.560  26.227  1.00  0.00    -0.458 OA
BRANCH  31  32
ATOM     32  C   UNL A   1      40.522  24.151  27.136  1.00  0.00     0.338 C 
ATOM     33  O   UNL A   1      41.641  23.737  27.394  1.00  0.00    -0.246 OA
BRANCH  32  34
ATOM     34  C   UNL A   1      39.971  25.457  27.590  1.00  0.00     0.060 A 
ATOM     35  C   UNL A   1      39.334  25.575  28.837  1.00  0.00     0.016 A 
ATOM     36  C   UNL A   1      40.393  26.590  26.910  1.00  0.00     0.016 A 
ATOM     37  C   UNL A   1      39.309  26.807  29.495  1.00  0.00     0.010 A 
ATOM     38  C   UNL A   1      40.539  27.747  27.622  1.00  0.00     0.010 A 
ATOM     39  C   UNL A   1      39.982  27.871  28.904  1.00  0.00    -0.014 A 
BRANCH  39  40
ATOM     40  C   UNL A   1      40.004  29.242  29.389  1.00  0.00     0.031 A 
ATOM     41  C   UNL A   1      38.896  30.196  29.211  1.00  0.00     0.074 A 
ATOM     42  C   UNL A   1      41.048  29.453  30.219  1.00  0.00     0.049 A 
ATOM     43  N   UNL A   1      39.013  31.466  29.373  1.00  0.00    -0.248 NA
ATOM     44  C   UNL A   1      37.547  29.817  28.817  1.00  0.00     0.031 C 
ATOM     45  C   UNL A   1      41.281  30.468  31.222  1.00  0.00     0.029 A 
ATOM     46  N   UNL A   1      42.232  28.717  30.210  1.00  0.00    -0.354 N 
ATOM     47  C   UNL A   1      37.740  32.009  29.441  1.00  0.00     0.074 A 
ATOM     48  C   UNL A   1      36.873  30.968  28.954  1.00  0.00     0.031 C 
ATOM     49  C   UNL A   1      42.596  30.474  31.523  1.00  0.00     0.029 A 
ATOM     50  C   UNL A   1      43.260  29.558  30.599  1.00  0.00     0.049 A 
ATOM     51  H   UNL A   1      42.321  27.766  29.969  1.00  0.00     0.167 HD
ATOM     52  C   UNL A   1      37.579  33.209  30.077  1.00  0.00     0.037 A 
ATOM     53  C   UNL A   1      44.160  29.907  29.631  1.00  0.00     0.037 A 
ATOM     54  C   UNL A   1      38.888  33.678  30.531  1.00  0.00     0.049 A 
ATOM     55  C   UNL A   1      44.043  31.379  29.332  1.00  0.00     0.074 A 
ATOM     56  C   UNL A   1      39.528  33.554  31.753  1.00  0.00     0.029 A 
ATOM     57  N   UNL A   1      39.858  34.023  29.600  1.00  0.00    -0.354 N 
ATOM     58  N   UNL A   1      42.928  32.062  29.355  1.00  0.00    -0.248 NA
ATOM     59  C   UNL A   1      45.222  32.213  29.149  1.00  0.00     0.031 C 
ATOM     60  C   UNL A   1      40.912  33.769  31.538  1.00  0.00     0.029 A 
ATOM     61  C   UNL A   1      41.107  34.024  30.190  1.00  0.00     0.049 A 
ATOM     62  H   UNL A   1      39.682  34.236  28.656  1.00  0.00     0.167 HD
ATOM     63  C   UNL A   1      43.226  33.401  29.291  1.00  0.00     0.074 A 
ATOM     64  C   UNL A   1      44.672  33.438  29.150  1.00  0.00     0.031 C 
ATOM     65  C   UNL A   1      42.292  34.392  29.433  1.00  0.00     0.037 A 
BRANCH  52  66
ATOM     66  C   UNL A   1      36.282  33.827  30.584  1.00  0.00     0.058 A 
ATOM     67  C   UNL A   1      35.323  34.313  29.658  1.00  0.00     0.135 A 
ATOM     68  C   UNL A   1      35.915  34.000  31.934  1.00  0.00     0.135 A 
ATOM     69  F   UNL A   1      35.476  34.159  28.336  1.00  0.00    -0.206 F 
ATOM     70  C   UNL A   1      34.158  34.987  30.030  1.00  0.00     0.059 A 
ATOM     71  C   UNL A   1      34.756  34.691  32.333  1.00  0.00     0.059 A 
ATOM     72  F   UNL A   1      36.641  33.472  32.926  1.00  0.00    -0.206 F 
ATOM     73  C   UNL A   1      33.890  35.194  31.372  1.00  0.00     0.060 A 
BRANCH  73  74
ATOM     74  S   UNL A   1      32.392  36.098  31.812  1.00  0.00     0.124 S 
ATOM     75  O   UNL A   1      31.860  36.461  30.502  1.00  0.00    -0.237 OA
ATOM     76  O   UNL A   1      31.630  35.093  32.547  1.00  0.00    -0.237 OA
ATOM     77  O   UNL A   1      32.889  37.213  32.612  1.00  0.00    -0.744 OA
ENDBRANCH  73  74
ENDBRANCH  52  66
BRANCH  53  78
ATOM     78  C   UNL A   1      44.419  28.799  28.644  1.00  0.00     0.058 A 
ATOM     79  C   UNL A   1      43.943  28.980  27.323  1.00  0.00     0.135 A 
ATOM     80  C   UNL A   1      45.409  27.819  28.823  1.00  0.00     0.135 A 
ATOM     81  F   UNL A   1      42.999  29.904  27.075  1.00  0.00    -0.206 F 
ATOM     82  C   UNL A   1      44.510  28.333  26.226  1.00  0.00     0.059 A 
ATOM     83  C   UNL A   1      45.980  27.139  27.733  1.00  0.00     0.059 A 
ATOM     84  F   UNL A   1      45.916  27.583  30.040  1.00  0.00    -0.206 F 
ATOM     85  C   UNL A   1      45.559  27.444  26.437  1.00  0.00     0.060 A 
BRANCH  85  86
ATOM     86  S   UNL A   1      46.452  26.832  24.981  1.00  0.00     0.124 S 
ATOM     87  O   UNL A   1      46.162  27.863  23.992  1.00  0.00    -0.237 OA
ATOM     88  O   UNL A   1      47.829  26.796  25.470  1.00  0.00    -0.237 OA
ATOM     89  O   UNL A   1      45.842  25.529  24.735  1.00  0.00    -0.744 OA
ENDBRANCH  85  86
ENDBRANCH  53  78
BRANCH  65  90
ATOM     90  C   UNL A   1      42.455  35.844  29.024  1.00  0.00     0.058 A 
ATOM     91  C   UNL A   1      43.236  36.776  29.726  1.00  0.00     0.135 A 
ATOM     92  C   UNL A   1      41.929  36.318  27.791  1.00  0.00     0.135 A 
ATOM     93  F   UNL A   1      43.932  36.439  30.819  1.00  0.00    -0.206 F 
ATOM     94  C   UNL A   1      43.389  38.096  29.306  1.00  0.00     0.059 A 
ATOM     95  C   UNL A   1      42.137  37.608  27.314  1.00  0.00     0.059 A 
ATOM     96  F   UNL A   1      41.206  35.538  26.973  1.00  0.00    -0.206 F 
ATOM     97  C   UNL A   1      42.835  38.504  28.099  1.00  0.00     0.060 A 
BRANCH  97  98
ATOM     98  S   UNL A   1      43.085  40.195  27.549  1.00  0.00     0.124 S 
ATOM     99  O   UNL A   1      43.616  40.815  28.758  1.00  0.00    -0.237 OA
ATOM    100  O   UNL A   1      44.036  40.031  26.452  1.00  0.00    -0.237 OA
ATOM    101  O   UNL A   1      41.748  40.624  27.151  1.00  0.00    -0.744 OA
ENDBRANCH  97  98
ENDBRANCH  65  90
ENDBRANCH  39  40
ENDBRANCH  32  34
ENDBRANCH  31  32
ENDBRANCH  30  31
ENDBRANCH   1  30
TORSDOF 19
ENDMDL
