MODEL 1
REMARK VINA RESULT:     -12.2      0.000      0.000
REMARK SMILES COc1ccc([C@H]2[C@H](C(=O)OCCOC(=O)c3ccc(-c4c5nc(c(-c6c(F)cc(S(=O)(=O)[O-])cc6F)c6ccc([nH]6)c(-c6c(F)cc(S(=O)(=O)[O-])cc6F)c6nc(c(-c7c(F)cc(S(=O)(=O)[O-])cc7F)c7ccc4[nH]7)C=C6)C=C5)cc3)CCN2c2ccc(F)cc2)cc1
REMARK SMILES IDX 13 1 12 2 11 3 9 4 10 5 8 6 7 7 85 8 83 9 84 10 6 11 3 12
REMARK SMILES IDX 4 13 94 14 5 15 93 16 2 17 1 18 86 19 87 20 92 21 88 22
REMARK SMILES IDX 91 23 89 24 90 25 14 26 15 27 16 28 17 29 18 30 82 31 19 32
REMARK SMILES IDX 81 33 20 34 21 35 22 36 75 37 23 38 80 39 74 40 76 41 24 42
REMARK SMILES IDX 79 43 73 44 72 45 25 47 59 48 38 49 58 50 39 51 42 52 57 53
REMARK SMILES IDX 77 54 40 55 41 56 56 58 78 59 43 60 26 61 27 62 36 63 28 64
REMARK SMILES IDX 29 65 35 66 37 67 30 68 31 69 32 70 33 71 34 72 60 73 61 74
REMARK SMILES IDX 70 75 62 76 63 77 69 78 71 79 64 80 65 81 66 82 67 83 68 84
REMARK SMILES IDX 44 85 45 86 54 87 46 88 47 89 53 90 55 91 48 92 49 93 50 94
REMARK SMILES IDX 51 95 52 96
REMARK H PARENT 76 46 42 57
REMARK Flexibility Score: inf
ROOT
ATOM      1  C   UNL A   1      39.944  22.217  26.449  1.00  0.00     0.275 C 
ENDROOT
BRANCH   1   2
ATOM      2  C   UNL A   1      38.461  22.112  26.086  1.00  0.00     0.274 C 
BRANCH   2   3
ATOM      3  O   UNL A   1      37.966  23.349  25.534  1.00  0.00    -0.462 OA
BRANCH   3   4
ATOM      4  C   UNL A   1      36.624  23.479  25.412  1.00  0.00     0.311 C 
ATOM      5  O   UNL A   1      35.970  24.378  25.933  1.00  0.00    -0.252 OA
BRANCH   4   6
ATOM      6  C   UNL A   1      35.956  22.384  24.603  1.00  0.00     0.128 C 
ATOM      7  C   UNL A   1      34.531  22.013  25.050  1.00  0.00     0.127 C 
ATOM      8  N   UNL A   1      33.696  22.947  24.272  1.00  0.00    -0.364 N 
ATOM      9  C   UNL A   1      35.780  22.825  23.154  1.00  0.00     0.039 C 
ATOM     10  C   UNL A   1      34.428  23.531  23.148  1.00  0.00     0.118 C 
BRANCH   7  11
ATOM     11  C   UNL A   1      34.207  20.552  24.694  1.00  0.00    -0.024 A 
ATOM     12  C   UNL A   1      33.502  17.858  24.187  1.00  0.00     0.118 A 
ATOM     13  C   UNL A   1      32.564  18.875  24.021  1.00  0.00     0.047 A 
ATOM     14  C   UNL A   1      34.808  18.187  24.537  1.00  0.00     0.047 A 
ATOM     15  C   UNL A   1      32.913  20.207  24.268  1.00  0.00     0.010 A 
ATOM     16  C   UNL A   1      35.154  19.519  24.789  1.00  0.00     0.010 A 
BRANCH  12  17
ATOM     17  O   UNL A   1      33.058  16.588  23.943  1.00  0.00    -0.497 OA
ATOM     18  C   UNL A   1      33.053  15.730  25.079  1.00  0.00     0.278 C 
ENDBRANCH  12  17
ENDBRANCH   7  11
BRANCH   8  19
ATOM     19  C   UNL A   1      32.561  23.570  24.743  1.00  0.00     0.037 A 
ATOM     20  C   UNL A   1      31.820  24.411  23.895  1.00  0.00     0.029 A 
ATOM     21  C   UNL A   1      32.105  23.421  26.061  1.00  0.00     0.029 A 
ATOM     22  C   UNL A   1      30.675  25.075  24.339  1.00  0.00     0.041 A 
ATOM     23  C   UNL A   1      30.973  24.102  26.522  1.00  0.00     0.041 A 
ATOM     24  C   UNL A   1      30.267  24.921  25.655  1.00  0.00     0.123 A 
ATOM     25  F   UNL A   1      29.182  25.575  26.093  1.00  0.00    -0.207 F 
ENDBRANCH   8  19
ENDBRANCH   4   6
ENDBRANCH   3   4
ENDBRANCH   2   3
ENDBRANCH   1   2
BRANCH   1  26
ATOM     26  O   UNL A   1      40.169  23.222  27.455  1.00  0.00    -0.458 OA
BRANCH  26  27
ATOM     27  C   UNL A   1      40.947  24.253  27.057  1.00  0.00     0.338 C 
ATOM     28  O   UNL A   1      41.655  24.307  26.067  1.00  0.00    -0.246 OA
BRANCH  27  29
ATOM     29  C   UNL A   1      40.711  25.414  27.925  1.00  0.00     0.060 A 
ATOM     30  C   UNL A   1      41.766  26.311  28.104  1.00  0.00     0.016 A 
ATOM     31  C   UNL A   1      39.521  25.562  28.634  1.00  0.00     0.016 A 
ATOM     32  C   UNL A   1      41.655  27.343  29.029  1.00  0.00     0.010 A 
ATOM     33  C   UNL A   1      39.400  26.615  29.546  1.00  0.00     0.010 A 
ATOM     34  C   UNL A   1      40.474  27.496  29.765  1.00  0.00    -0.014 A 
BRANCH  34  35
ATOM     35  C   UNL A   1      40.393  28.551  30.801  1.00  0.00     0.031 A 
ATOM     36  C   UNL A   1      41.326  28.515  31.977  1.00  0.00     0.074 A 
ATOM     37  C   UNL A   1      39.508  29.555  30.665  1.00  0.00     0.049 A 
ATOM     38  N   UNL A   1      41.363  29.292  33.028  1.00  0.00    -0.248 NA
ATOM     39  C   UNL A   1      42.355  27.463  31.969  1.00  0.00     0.031 C 
ATOM     40  C   UNL A   1      38.589  29.723  29.538  1.00  0.00     0.029 A 
ATOM     41  N   UNL A   1      39.237  30.625  31.479  1.00  0.00    -0.354 N 
ATOM     42  C   UNL A   1      42.400  28.812  33.819  1.00  0.00     0.074 A 
ATOM     43  C   UNL A   1      42.960  27.667  33.131  1.00  0.00     0.031 C 
ATOM     44  C   UNL A   1      37.862  30.837  29.729  1.00  0.00     0.029 A 
ATOM     45  C   UNL A   1      38.229  31.432  31.010  1.00  0.00     0.049 A 
ATOM     46  H   UNL A   1      39.721  30.799  32.320  1.00  0.00     0.167 HD
ATOM     47  C   UNL A   1      42.843  29.285  35.008  1.00  0.00     0.037 A 
ATOM     48  C   UNL A   1      37.648  32.512  31.566  1.00  0.00     0.037 A 
ATOM     49  C   UNL A   1      42.289  30.433  35.676  1.00  0.00     0.049 A 
ATOM     50  C   UNL A   1      38.124  32.989  32.910  1.00  0.00     0.074 A 
ATOM     51  C   UNL A   1      42.660  30.990  36.888  1.00  0.00     0.029 A 
ATOM     52  N   UNL A   1      41.247  31.206  35.184  1.00  0.00    -0.354 N 
ATOM     53  N   UNL A   1      39.083  32.505  33.662  1.00  0.00    -0.248 NA
ATOM     54  C   UNL A   1      37.434  34.153  33.484  1.00  0.00     0.031 C 
ATOM     55  C   UNL A   1      41.823  32.083  37.141  1.00  0.00     0.029 A 
ATOM     56  C   UNL A   1      40.954  32.228  36.072  1.00  0.00     0.049 A 
ATOM     57  H   UNL A   1      40.784  31.052  34.330  1.00  0.00     0.167 HD
ATOM     58  C   UNL A   1      39.122  33.313  34.793  1.00  0.00     0.074 A 
ATOM     59  C   UNL A   1      38.098  34.324  34.619  1.00  0.00     0.031 C 
ATOM     60  C   UNL A   1      39.932  33.226  35.877  1.00  0.00     0.037 A 
BRANCH  47  61
ATOM     61  C   UNL A   1      43.959  28.532  35.676  1.00  0.00     0.058 A 
ATOM     62  C   UNL A   1      45.306  28.851  35.447  1.00  0.00     0.135 A 
ATOM     63  C   UNL A   1      43.676  27.476  36.557  1.00  0.00     0.135 A 
ATOM     64  F   UNL A   1      45.632  29.839  34.598  1.00  0.00    -0.206 F 
ATOM     65  C   UNL A   1      46.336  28.129  36.045  1.00  0.00     0.059 A 
ATOM     66  C   UNL A   1      44.689  26.756  37.184  1.00  0.00     0.059 A 
ATOM     67  F   UNL A   1      42.405  27.129  36.809  1.00  0.00    -0.206 F 
ATOM     68  C   UNL A   1      46.016  27.078  36.906  1.00  0.00     0.060 A 
BRANCH  68  69
ATOM     69  S   UNL A   1      47.358  26.134  37.662  1.00  0.00     0.124 S 
ATOM     70  O   UNL A   1      47.934  27.125  38.566  1.00  0.00    -0.237 OA
ATOM     71  O   UNL A   1      46.649  25.030  38.299  1.00  0.00    -0.237 OA
ATOM     72  O   UNL A   1      48.194  25.765  36.524  1.00  0.00    -0.744 OA
ENDBRANCH  68  69
ENDBRANCH  47  61
BRANCH  48  73
ATOM     73  C   UNL A   1      36.542  33.203  30.853  1.00  0.00     0.058 A 
ATOM     74  C   UNL A   1      35.215  33.081  31.286  1.00  0.00     0.135 A 
ATOM     75  C   UNL A   1      36.797  34.021  29.740  1.00  0.00     0.135 A 
ATOM     76  F   UNL A   1      34.924  32.301  32.339  1.00  0.00    -0.206 F 
ATOM     77  C   UNL A   1      34.175  33.742  30.641  1.00  0.00     0.059 A 
ATOM     78  C   UNL A   1      35.776  34.710  29.093  1.00  0.00     0.059 A 
ATOM     79  F   UNL A   1      38.052  34.178  29.293  1.00  0.00    -0.206 F 
ATOM     80  C   UNL A   1      34.467  34.559  29.547  1.00  0.00     0.060 A 
BRANCH  80  81
ATOM     81  S   UNL A   1      33.121  35.468  28.757  1.00  0.00     0.124 S 
ATOM     82  O   UNL A   1      32.458  34.411  28.002  1.00  0.00    -0.237 OA
ATOM     83  O   UNL A   1      32.386  35.993  29.904  1.00  0.00    -0.237 OA
ATOM     84  O   UNL A   1      33.820  36.471  27.960  1.00  0.00    -0.744 OA
ENDBRANCH  80  81
ENDBRANCH  48  73
BRANCH  60  85
ATOM     85  C   UNL A   1      39.760  34.267  36.945  1.00  0.00     0.058 A 
ATOM     86  C   UNL A   1      39.031  34.004  38.115  1.00  0.00     0.135 A 
ATOM     87  C   UNL A   1      40.368  35.525  36.816  1.00  0.00     0.135 A 
ATOM     88  F   UNL A   1      38.425  32.817  38.281  1.00  0.00    -0.206 F 
ATOM     89  C   UNL A   1      38.895  34.960  39.115  1.00  0.00     0.059 A 
ATOM     90  C   UNL A   1      40.261  36.490  37.813  1.00  0.00     0.059 A 
ATOM     91  F   UNL A   1      41.083  35.821  35.720  1.00  0.00    -0.206 F 
ATOM     92  C   UNL A   1      39.514  36.202  38.954  1.00  0.00     0.060 A 
BRANCH  92  93
ATOM     93  S   UNL A   1      39.360  37.428  40.271  1.00  0.00     0.124 S 
ATOM     94  O   UNL A   1      38.474  38.410  39.655  1.00  0.00    -0.237 OA
ATOM     95  O   UNL A   1      38.781  36.649  41.361  1.00  0.00    -0.237 OA
ATOM     96  O   UNL A   1      40.735  37.868  40.485  1.00  0.00    -0.744 OA
ENDBRANCH  92  93
ENDBRANCH  60  85
ENDBRANCH  34  35
ENDBRANCH  27  29
ENDBRANCH  26  27
ENDBRANCH   1  26
TORSDOF 17
ENDMDL
MODEL 2
REMARK VINA RESULT:     -12.1      1.461      3.080
REMARK SMILES COc1ccc([C@H]2[C@H](C(=O)OCCOC(=O)c3ccc(-c4c5nc(c(-c6c(F)cc(S(=O)(=O)[O-])cc6F)c6ccc([nH]6)c(-c6c(F)cc(S(=O)(=O)[O-])cc6F)c6nc(c(-c7c(F)cc(S(=O)(=O)[O-])cc7F)c7ccc4[nH]7)C=C6)C=C5)cc3)CCN2c2ccc(F)cc2)cc1
REMARK SMILES IDX 13 1 12 2 11 3 9 4 10 5 8 6 7 7 85 8 83 9 84 10 6 11 3 12
REMARK SMILES IDX 4 13 94 14 5 15 93 16 2 17 1 18 86 19 87 20 92 21 88 22
REMARK SMILES IDX 91 23 89 24 90 25 14 26 15 27 16 28 17 29 18 30 82 31 19 32
REMARK SMILES IDX 81 33 20 34 21 35 22 36 75 37 23 38 80 39 74 40 76 41 24 42
REMARK SMILES IDX 79 43 73 44 72 45 25 47 59 48 38 49 58 50 39 51 42 52 57 53
REMARK SMILES IDX 77 54 40 55 41 56 56 58 78 59 43 60 26 61 27 62 36 63 28 64
REMARK SMILES IDX 29 65 35 66 37 67 30 68 31 69 32 70 33 71 34 72 60 73 61 74
REMARK SMILES IDX 70 75 62 76 63 77 69 78 71 79 64 80 65 81 66 82 67 83 68 84
REMARK SMILES IDX 44 85 45 86 54 87 46 88 47 89 53 90 55 91 48 92 49 93 50 94
REMARK SMILES IDX 51 95 52 96
REMARK H PARENT 76 46 42 57
REMARK Flexibility Score: inf
ROOT
ATOM      1  C   UNL A   1      40.046  22.234  26.413  1.00  0.00     0.275 C 
ENDROOT
BRANCH   1   2
ATOM      2  C   UNL A   1      38.672  21.770  25.922  1.00  0.00     0.274 C 
BRANCH   2   3
ATOM      3  O   UNL A   1      37.796  22.889  25.677  1.00  0.00    -0.462 OA
BRANCH   3   4
ATOM      4  C   UNL A   1      36.924  22.779  24.647  1.00  0.00     0.311 C 
ATOM      5  O   UNL A   1      37.231  22.382  23.526  1.00  0.00    -0.252 OA
BRANCH   4   6
ATOM      6  C   UNL A   1      35.514  23.236  24.964  1.00  0.00     0.128 C 
ATOM      7  C   UNL A   1      34.395  22.471  24.234  1.00  0.00     0.127 C 
ATOM      8  N   UNL A   1      34.122  21.348  25.149  1.00  0.00    -0.364 N 
ATOM      9  C   UNL A   1      35.203  23.013  26.440  1.00  0.00     0.039 C 
ATOM     10  C   UNL A   1      34.657  21.589  26.489  1.00  0.00     0.118 C 
BRANCH   7  11
ATOM     11  C   UNL A   1      33.151  23.357  24.056  1.00  0.00    -0.024 A 
ATOM     12  C   UNL A   1      30.769  24.838  23.676  1.00  0.00     0.118 A 
ATOM     13  C   UNL A   1      30.867  23.917  24.716  1.00  0.00     0.047 A 
ATOM     14  C   UNL A   1      31.877  25.073  22.867  1.00  0.00     0.047 A 
ATOM     15  C   UNL A   1      32.045  23.188  24.907  1.00  0.00     0.010 A 
ATOM     16  C   UNL A   1      33.053  24.338  23.056  1.00  0.00     0.010 A 
BRANCH  12  17
ATOM     17  O   UNL A   1      29.570  25.484  23.558  1.00  0.00    -0.497 OA
ATOM     18  C   UNL A   1      29.621  26.886  23.799  1.00  0.00     0.278 C 
ENDBRANCH  12  17
ENDBRANCH   7  11
BRANCH   8  19
ATOM     19  C   UNL A   1      33.833  20.061  24.754  1.00  0.00     0.037 A 
ATOM     20  C   UNL A   1      34.853  19.095  24.705  1.00  0.00     0.029 A 
ATOM     21  C   UNL A   1      32.546  19.657  24.368  1.00  0.00     0.029 A 
ATOM     22  C   UNL A   1      34.604  17.785  24.291  1.00  0.00     0.041 A 
ATOM     23  C   UNL A   1      32.292  18.353  23.929  1.00  0.00     0.041 A 
ATOM     24  C   UNL A   1      33.324  17.428  23.898  1.00  0.00     0.123 A 
ATOM     25  F   UNL A   1      33.085  16.179  23.478  1.00  0.00    -0.207 F 
ENDBRANCH   8  19
ENDBRANCH   4   6
ENDBRANCH   3   4
ENDBRANCH   2   3
ENDBRANCH   1   2
BRANCH   1  26
ATOM     26  O   UNL A   1      39.940  23.404  27.244  1.00  0.00    -0.458 OA
BRANCH  26  27
ATOM     27  C   UNL A   1      40.873  24.352  27.005  1.00  0.00     0.338 C 
ATOM     28  O   UNL A   1      41.716  24.355  26.125  1.00  0.00    -0.246 OA
BRANCH  27  29
ATOM     29  C   UNL A   1      40.644  25.505  27.885  1.00  0.00     0.060 A 
ATOM     30  C   UNL A   1      41.667  26.449  27.993  1.00  0.00     0.016 A 
ATOM     31  C   UNL A   1      39.497  25.603  28.671  1.00  0.00     0.016 A 
ATOM     32  C   UNL A   1      41.571  27.479  28.921  1.00  0.00     0.010 A 
ATOM     33  C   UNL A   1      39.390  26.654  29.588  1.00  0.00     0.010 A 
ATOM     34  C   UNL A   1      40.435  27.583  29.734  1.00  0.00    -0.014 A 
BRANCH  34  35
ATOM     35  C   UNL A   1      40.376  28.638  30.772  1.00  0.00     0.031 A 
ATOM     36  C   UNL A   1      41.334  28.601  31.928  1.00  0.00     0.074 A 
ATOM     37  C   UNL A   1      39.488  29.642  30.654  1.00  0.00     0.049 A 
ATOM     38  N   UNL A   1      41.392  29.378  32.978  1.00  0.00    -0.248 NA
ATOM     39  C   UNL A   1      42.361  27.549  31.898  1.00  0.00     0.031 C 
ATOM     40  C   UNL A   1      38.547  29.810  29.546  1.00  0.00     0.029 A 
ATOM     41  N   UNL A   1      39.235  30.712  31.473  1.00  0.00    -0.354 N 
ATOM     42  C   UNL A   1      42.445  28.897  33.747  1.00  0.00     0.074 A 
ATOM     43  C   UNL A   1      42.990  27.752  33.048  1.00  0.00     0.031 C 
ATOM     44  C   UNL A   1      37.825  30.924  29.751  1.00  0.00     0.029 A 
ATOM     45  C   UNL A   1      38.218  31.519  31.025  1.00  0.00     0.049 A 
ATOM     46  H   UNL A   1      39.736  30.885  32.304  1.00  0.00     0.167 HD
ATOM     47  C   UNL A   1      42.912  29.370  34.927  1.00  0.00     0.037 A 
ATOM     48  C   UNL A   1      37.648  32.599  31.592  1.00  0.00     0.037 A 
ATOM     49  C   UNL A   1      42.372  30.519  35.607  1.00  0.00     0.049 A 
ATOM     50  C   UNL A   1      38.152  33.076  32.927  1.00  0.00     0.074 A 
ATOM     51  C   UNL A   1      42.768  31.075  36.810  1.00  0.00     0.029 A 
ATOM     52  N   UNL A   1      41.321  31.292  35.137  1.00  0.00    -0.354 N 
ATOM     53  N   UNL A   1      39.126  32.592  33.659  1.00  0.00    -0.248 NA
ATOM     54  C   UNL A   1      37.475  34.240  33.515  1.00  0.00     0.031 C 
ATOM     55  C   UNL A   1      41.937  32.168  37.081  1.00  0.00     0.029 A 
ATOM     56  C   UNL A   1      41.046  32.314  36.030  1.00  0.00     0.049 A 
ATOM     57  H   UNL A   1      40.840  31.137  34.292  1.00  0.00     0.167 HD
ATOM     58  C   UNL A   1      39.189  33.399  34.789  1.00  0.00     0.074 A 
ATOM     59  C   UNL A   1      38.161  34.411  34.636  1.00  0.00     0.031 C 
ATOM     60  C   UNL A   1      40.021  33.312  35.856  1.00  0.00     0.037 A 
BRANCH  47  61
ATOM     61  C   UNL A   1      44.041  28.617  35.572  1.00  0.00     0.058 A 
ATOM     62  C   UNL A   1      45.384  28.909  35.284  1.00  0.00     0.135 A 
ATOM     63  C   UNL A   1      43.776  27.589  36.491  1.00  0.00     0.135 A 
ATOM     64  F   UNL A   1      45.692  29.870  34.399  1.00  0.00    -0.206 F 
ATOM     65  C   UNL A   1      46.425  28.186  35.862  1.00  0.00     0.059 A 
ATOM     66  C   UNL A   1      44.801  26.868  37.097  1.00  0.00     0.059 A 
ATOM     67  F   UNL A   1      42.510  27.268  36.799  1.00  0.00    -0.206 F 
ATOM     68  C   UNL A   1      46.122  27.162  36.761  1.00  0.00     0.060 A 
BRANCH  68  69
ATOM     69  S   UNL A   1      47.477  26.217  37.490  1.00  0.00     0.124 S 
ATOM     70  O   UNL A   1      46.994  24.848  37.330  1.00  0.00    -0.237 OA
ATOM     71  O   UNL A   1      48.611  26.591  36.651  1.00  0.00    -0.237 OA
ATOM     72  O   UNL A   1      47.530  26.706  38.864  1.00  0.00    -0.744 OA
ENDBRANCH  68  69
ENDBRANCH  47  61
BRANCH  48  73
ATOM     73  C   UNL A   1      36.529  33.290  30.902  1.00  0.00     0.058 A 
ATOM     74  C   UNL A   1      35.208  33.150  31.350  1.00  0.00     0.135 A 
ATOM     75  C   UNL A   1      36.763  34.127  29.799  1.00  0.00     0.135 A 
ATOM     76  F   UNL A   1      34.935  32.353  32.394  1.00  0.00    -0.206 F 
ATOM     77  C   UNL A   1      34.155  33.811  30.726  1.00  0.00     0.059 A 
ATOM     78  C   UNL A   1      35.729  34.816  29.174  1.00  0.00     0.059 A 
ATOM     79  F   UNL A   1      38.012  34.302  29.340  1.00  0.00    -0.206 F 
ATOM     80  C   UNL A   1      34.426  34.647  29.641  1.00  0.00     0.060 A 
BRANCH  80  81
ATOM     81  S   UNL A   1      33.064  35.555  28.879  1.00  0.00     0.124 S 
ATOM     82  O   UNL A   1      32.322  36.006  30.050  1.00  0.00    -0.237 OA
ATOM     83  O   UNL A   1      33.765  36.592  28.127  1.00  0.00    -0.237 OA
ATOM     84  O   UNL A   1      32.402  34.542  28.063  1.00  0.00    -0.744 OA
ENDBRANCH  80  81
ENDBRANCH  48  73
BRANCH  60  85
ATOM     85  C   UNL A   1      39.871  34.353  36.928  1.00  0.00     0.058 A 
ATOM     86  C   UNL A   1      39.077  34.128  38.063  1.00  0.00     0.135 A 
ATOM     87  C   UNL A   1      40.564  35.570  36.839  1.00  0.00     0.135 A 
ATOM     88  F   UNL A   1      38.389  32.981  38.190  1.00  0.00    -0.206 F 
ATOM     89  C   UNL A   1      38.961  35.083  39.067  1.00  0.00     0.059 A 
ATOM     90  C   UNL A   1      40.478  36.531  37.841  1.00  0.00     0.059 A 
ATOM     91  F   UNL A   1      41.342  35.828  35.776  1.00  0.00    -0.206 F 
ATOM     92  C   UNL A   1      39.665  36.283  38.946  1.00  0.00     0.060 A 
BRANCH  92  93
ATOM     93  S   UNL A   1      39.534  37.505  40.269  1.00  0.00     0.124 S 
ATOM     94  O   UNL A   1      39.653  36.665  41.457  1.00  0.00    -0.237 OA
ATOM     95  O   UNL A   1      40.667  38.385  39.999  1.00  0.00    -0.237 OA
ATOM     96  O   UNL A   1      38.221  38.101  40.049  1.00  0.00    -0.744 OA
ENDBRANCH  92  93
ENDBRANCH  60  85
ENDBRANCH  34  35
ENDBRANCH  27  29
ENDBRANCH  26  27
ENDBRANCH   1  26
TORSDOF 17
ENDMDL
MODEL 3
REMARK VINA RESULT:     -12.0      1.695      8.650
REMARK SMILES COc1ccc([C@H]2[C@H](C(=O)OCCOC(=O)c3ccc(-c4c5nc(c(-c6c(F)cc(S(=O)(=O)[O-])cc6F)c6ccc([nH]6)c(-c6c(F)cc(S(=O)(=O)[O-])cc6F)c6nc(c(-c7c(F)cc(S(=O)(=O)[O-])cc7F)c7ccc4[nH]7)C=C6)C=C5)cc3)CCN2c2ccc(F)cc2)cc1
REMARK SMILES IDX 13 1 12 2 11 3 9 4 10 5 8 6 7 7 85 8 83 9 84 10 6 11 3 12
REMARK SMILES IDX 4 13 94 14 5 15 93 16 2 17 1 18 86 19 87 20 92 21 88 22
REMARK SMILES IDX 91 23 89 24 90 25 14 26 15 27 16 28 17 29 18 30 82 31 19 32
REMARK SMILES IDX 81 33 20 34 21 35 22 36 75 37 23 38 80 39 74 40 76 41 24 42
REMARK SMILES IDX 79 43 73 44 72 45 25 47 59 48 38 49 58 50 39 51 42 52 57 53
REMARK SMILES IDX 77 54 40 55 41 56 56 58 78 59 43 60 26 61 27 62 36 63 28 64
REMARK SMILES IDX 29 65 35 66 37 67 30 68 31 69 32 70 33 71 34 72 60 73 61 74
REMARK SMILES IDX 70 75 62 76 63 77 69 78 71 79 64 80 65 81 66 82 67 83 68 84
REMARK SMILES IDX 44 85 45 86 54 87 46 88 47 89 53 90 55 91 48 92 49 93 50 94
REMARK SMILES IDX 51 95 52 96
REMARK H PARENT 76 46 42 57
REMARK Flexibility Score: inf
ROOT
ATOM      1  C   UNL A   1      40.777  23.406  26.570  1.00  0.00     0.275 C 
ENDROOT
BRANCH   1   2
ATOM      2  C   UNL A   1      39.821  22.216  26.439  1.00  0.00     0.274 C 
BRANCH   2   3
ATOM      3  O   UNL A   1      38.447  22.650  26.384  1.00  0.00    -0.462 OA
BRANCH   3   4
ATOM      4  C   UNL A   1      37.646  22.054  25.469  1.00  0.00     0.311 C 
ATOM      5  O   UNL A   1      37.945  21.036  24.853  1.00  0.00    -0.252 OA
BRANCH   4   6
ATOM      6  C   UNL A   1      36.337  22.776  25.214  1.00  0.00     0.128 C 
ATOM      7  C   UNL A   1      35.369  22.063  24.253  1.00  0.00     0.127 C 
ATOM      8  N   UNL A   1      34.592  21.199  25.162  1.00  0.00    -0.364 N 
ATOM      9  C   UNL A   1      35.539  22.902  26.507  1.00  0.00     0.039 C 
ATOM     10  C   UNL A   1      34.718  21.618  26.558  1.00  0.00     0.118 C 
BRANCH   7  11
ATOM     11  C   UNL A   1      34.460  23.075  23.538  1.00  0.00    -0.024 A 
ATOM     12  C   UNL A   1      32.715  24.982  22.383  1.00  0.00     0.118 A 
ATOM     13  C   UNL A   1      33.772  25.393  23.192  1.00  0.00     0.047 A 
ATOM     14  C   UNL A   1      32.566  23.629  22.093  1.00  0.00     0.047 A 
ATOM     15  C   UNL A   1      34.636  24.452  23.759  1.00  0.00     0.010 A 
ATOM     16  C   UNL A   1      33.429  22.688  22.666  1.00  0.00     0.010 A 
BRANCH  12  17
ATOM     17  O   UNL A   1      31.912  25.975  21.895  1.00  0.00    -0.497 OA
ATOM     18  C   UNL A   1      31.299  26.790  22.889  1.00  0.00     0.278 C 
ENDBRANCH  12  17
ENDBRANCH   7  11
BRANCH   8  19
ATOM     19  C   UNL A   1      34.176  19.919  24.870  1.00  0.00     0.037 A 
ATOM     20  C   UNL A   1      35.125  18.909  24.638  1.00  0.00     0.029 A 
ATOM     21  C   UNL A   1      32.822  19.565  24.771  1.00  0.00     0.029 A 
ATOM     22  C   UNL A   1      34.744  17.604  24.320  1.00  0.00     0.041 A 
ATOM     23  C   UNL A   1      32.431  18.266  24.429  1.00  0.00     0.041 A 
ATOM     24  C   UNL A   1      33.397  17.296  24.210  1.00  0.00     0.123 A 
ATOM     25  F   UNL A   1      33.027  16.051  23.883  1.00  0.00    -0.207 F 
ENDBRANCH   8  19
ENDBRANCH   4   6
ENDBRANCH   3   4
ENDBRANCH   2   3
ENDBRANCH   1   2
BRANCH   1  26
ATOM     26  O   UNL A   1      40.084  24.657  26.408  1.00  0.00    -0.458 OA
BRANCH  26  27
ATOM     27  C   UNL A   1      40.890  25.733  26.268  1.00  0.00     0.338 C 
ATOM     28  O   UNL A   1      41.419  26.133  25.246  1.00  0.00    -0.246 OA
BRANCH  27  29
ATOM     29  C   UNL A   1      40.935  26.485  27.529  1.00  0.00     0.060 A 
ATOM     30  C   UNL A   1      39.932  26.232  28.467  1.00  0.00     0.016 A 
ATOM     31  C   UNL A   1      41.873  27.493  27.742  1.00  0.00     0.016 A 
ATOM     32  C   UNL A   1      39.833  27.015  29.611  1.00  0.00     0.010 A 
ATOM     33  C   UNL A   1      41.788  28.265  28.905  1.00  0.00     0.010 A 
ATOM     34  C   UNL A   1      40.755  28.046  29.833  1.00  0.00    -0.014 A 
BRANCH  34  35
ATOM     35  C   UNL A   1      40.596  28.923  31.016  1.00  0.00     0.031 A 
ATOM     36  C   UNL A   1      39.538  29.989  31.017  1.00  0.00     0.074 A 
ATOM     37  C   UNL A   1      41.376  28.737  32.096  1.00  0.00     0.049 A 
ATOM     38  N   UNL A   1      39.292  30.909  31.913  1.00  0.00    -0.248 NA
ATOM     39  C   UNL A   1      38.639  30.025  29.853  1.00  0.00     0.031 C 
ATOM     40  C   UNL A   1      42.399  27.698  32.229  1.00  0.00     0.029 A 
ATOM     41  N   UNL A   1      41.429  29.412  33.288  1.00  0.00    -0.354 N 
ATOM     42  C   UNL A   1      38.227  31.649  31.414  1.00  0.00     0.074 A 
ATOM     43  C   UNL A   1      37.882  31.078  30.129  1.00  0.00     0.031 C 
ATOM     44  C   UNL A   1      42.971  27.801  33.440  1.00  0.00     0.029 A 
ATOM     45  C   UNL A   1      42.392  28.939  34.146  1.00  0.00     0.049 A 
ATOM     46  H   UNL A   1      40.833  30.165  33.508  1.00  0.00     0.167 HD
ATOM     47  C   UNL A   1      37.596  32.706  31.979  1.00  0.00     0.037 A 
ATOM     48  C   UNL A   1      42.781  29.391  35.354  1.00  0.00     0.037 A 
ATOM     49  C   UNL A   1      37.938  33.256  33.265  1.00  0.00     0.049 A 
ATOM     50  C   UNL A   1      42.099  30.597  35.938  1.00  0.00     0.074 A 
ATOM     51  C   UNL A   1      37.366  34.331  33.923  1.00  0.00     0.029 A 
ATOM     52  N   UNL A   1      38.940  32.769  34.091  1.00  0.00    -0.354 N 
ATOM     53  N   UNL A   1      41.116  31.308  35.441  1.00  0.00    -0.248 NA
ATOM     54  C   UNL A   1      42.584  31.066  37.243  1.00  0.00     0.031 C 
ATOM     55  C   UNL A   1      38.043  34.510  35.136  1.00  0.00     0.029 A 
ATOM     56  C   UNL A   1      39.012  33.527  35.248  1.00  0.00     0.049 A 
ATOM     57  H   UNL A   1      39.516  31.998  33.885  1.00  0.00     0.167 HD
ATOM     58  C   UNL A   1      40.854  32.302  36.377  1.00  0.00     0.074 A 
ATOM     59  C   UNL A   1      41.775  32.091  37.477  1.00  0.00     0.031 C 
ATOM     60  C   UNL A   1      39.935  33.297  36.332  1.00  0.00     0.037 A 
BRANCH  47  61
ATOM     61  C   UNL A   1      36.498  33.356  31.186  1.00  0.00     0.058 A 
ATOM     62  C   UNL A   1      36.762  34.085  30.016  1.00  0.00     0.135 A 
ATOM     63  C   UNL A   1      35.161  33.246  31.602  1.00  0.00     0.135 A 
ATOM     64  F   UNL A   1      38.024  34.237  29.585  1.00  0.00    -0.206 F 
ATOM     65  C   UNL A   1      35.742  34.710  29.303  1.00  0.00     0.059 A 
ATOM     66  C   UNL A   1      34.123  33.844  30.893  1.00  0.00     0.059 A 
ATOM     67  F   UNL A   1      34.854  32.562  32.714  1.00  0.00    -0.206 F 
ATOM     68  C   UNL A   1      34.427  34.590  29.755  1.00  0.00     0.060 A 
BRANCH  68  69
ATOM     69  S   UNL A   1      33.113  35.421  28.836  1.00  0.00     0.124 S 
ATOM     70  O   UNL A   1      32.313  35.984  29.920  1.00  0.00    -0.237 OA
ATOM     71  O   UNL A   1      33.852  36.385  28.028  1.00  0.00    -0.237 OA
ATOM     72  O   UNL A   1      32.483  34.336  28.091  1.00  0.00    -0.744 OA
ENDBRANCH  68  69
ENDBRANCH  47  61
BRANCH  48  73
ATOM     73  C   UNL A   1      43.881  28.704  36.078  1.00  0.00     0.058 A 
ATOM     74  C   UNL A   1      43.633  27.570  36.861  1.00  0.00     0.135 A 
ATOM     75  C   UNL A   1      45.208  29.154  35.976  1.00  0.00     0.135 A 
ATOM     76  F   UNL A   1      42.379  27.110  36.996  1.00  0.00    -0.206 F 
ATOM     77  C   UNL A   1      44.659  26.904  37.525  1.00  0.00     0.059 A 
ATOM     78  C   UNL A   1      46.253  28.492  36.611  1.00  0.00     0.059 A 
ATOM     79  F   UNL A   1      45.498  30.230  35.229  1.00  0.00    -0.206 F 
ATOM     80  C   UNL A   1      45.968  27.371  37.389  1.00  0.00     0.060 A 
BRANCH  80  81
ATOM     81  S   UNL A   1      47.303  26.463  38.197  1.00  0.00     0.124 S 
ATOM     82  O   UNL A   1      48.316  26.437  37.148  1.00  0.00    -0.237 OA
ATOM     83  O   UNL A   1      47.599  27.308  39.350  1.00  0.00    -0.237 OA
ATOM     84  O   UNL A   1      46.689  25.178  38.515  1.00  0.00    -0.744 OA
ENDBRANCH  80  81
ENDBRANCH  48  73
BRANCH  60  85
ATOM     85  C   UNL A   1      39.863  34.218  37.515  1.00  0.00     0.058 A 
ATOM     86  C   UNL A   1      39.028  33.943  38.609  1.00  0.00     0.135 A 
ATOM     87  C   UNL A   1      40.671  35.364  37.575  1.00  0.00     0.135 A 
ATOM     88  F   UNL A   1      38.231  32.862  38.596  1.00  0.00    -0.206 F 
ATOM     89  C   UNL A   1      38.983  34.783  39.716  1.00  0.00     0.059 A 
ATOM     90  C   UNL A   1      40.656  36.207  38.681  1.00  0.00     0.059 A 
ATOM     91  F   UNL A   1      41.493  35.665  36.557  1.00  0.00    -0.206 F 
ATOM     92  C   UNL A   1      39.801  35.915  39.742  1.00  0.00     0.060 A 
BRANCH  92  93
ATOM     93  S   UNL A   1      39.760  36.984  41.197  1.00  0.00     0.124 S 
ATOM     94  O   UNL A   1      39.016  38.134  40.695  1.00  0.00    -0.237 OA
ATOM     95  O   UNL A   1      39.063  36.157  42.177  1.00  0.00    -0.237 OA
ATOM     96  O   UNL A   1      41.172  37.222  41.480  1.00  0.00    -0.744 OA
ENDBRANCH  92  93
ENDBRANCH  60  85
ENDBRANCH  34  35
ENDBRANCH  27  29
ENDBRANCH  26  27
ENDBRANCH   1  26
TORSDOF 17
ENDMDL
