MODEL 1
REMARK VINA RESULT:     -11.7      0.000      0.000
REMARK SMILES Cc1cc(Cl)c2c(c1)C=C(C(=O)OCCOC(=O)c1ccc(-c3c4nc(c(-c5c(F)cc(S(=O)(=O)[O-])cc5F)c5ccc([nH]5)c(-c5c(F)cc(S(=O)(=O)[O-])cc5F)c5nc(c(-c6c(F)cc(S(=O)(=O)[O-])cc6F)c6ccc3[nH]6)C=C5)C=C4)cc1)[C@@H](C(F)(F)F)O2
REMARK SMILES IDX 15 1 14 2 13 3 11 4 12 5 10 6 1 7 2 8 3 9 8 10 4 11 7 12
REMARK SMILES IDX 5 13 6 14 9 15 90 16 85 17 86 18 87 19 88 20 89 21 16 22
REMARK SMILES IDX 17 23 18 24 19 25 20 26 84 27 21 28 83 29 22 30 23 31 24 32
REMARK SMILES IDX 77 33 25 34 82 35 76 36 78 37 26 38 81 39 75 40 74 41 27 43
REMARK SMILES IDX 61 44 40 45 60 46 41 47 44 48 59 49 79 50 42 51 43 52 58 54
REMARK SMILES IDX 80 55 45 56 28 57 29 58 38 59 30 60 31 61 37 62 39 63 32 64
REMARK SMILES IDX 33 65 34 66 35 67 36 68 62 69 63 70 72 71 64 72 65 73 71 74
REMARK SMILES IDX 73 75 66 76 67 77 68 78 69 79 70 80 46 81 47 82 56 83 48 84
REMARK SMILES IDX 49 85 55 86 57 87 50 88 51 89 52 90 53 91 54 92
REMARK H PARENT 78 42 44 53
REMARK Flexibility Score: inf
ROOT
ATOM      1  C   UNL A   1      33.629  28.535  26.112  1.00  0.00     0.275 C 
ENDROOT
BRANCH   1   2
ATOM      2  C   UNL A   1      33.823  27.141  25.516  1.00  0.00     0.275 C 
BRANCH   2   3
ATOM      3  O   UNL A   1      33.541  27.130  24.100  1.00  0.00    -0.459 OA
BRANCH   3   4
ATOM      4  C   UNL A   1      32.698  26.155  23.687  1.00  0.00     0.338 C 
ATOM      5  O   UNL A   1      32.972  24.976  23.528  1.00  0.00    -0.246 OA
BRANCH   4   6
ATOM      6  C   UNL A   1      31.350  26.698  23.443  1.00  0.00     0.087 C 
ATOM      7  C   UNL A   1      28.549  31.843  21.531  1.00  0.00     0.044 C 
ATOM      8  C   UNL A   1      28.640  30.453  22.093  1.00  0.00    -0.049 A 
ATOM      9  C   UNL A   1      27.511  29.826  22.631  1.00  0.00     0.028 A 
ATOM     10  C   UNL A   1      29.863  29.779  22.129  1.00  0.00     0.015 A 
ATOM     11  C   UNL A   1      27.605  28.543  23.185  1.00  0.00     0.084 A 
ATOM     12  C   UNL A   1      29.960  28.502  22.701  1.00  0.00     0.019 A 
ATOM     13  Cl  UNL A   1      26.174  27.827  23.838  1.00  0.00    -0.080 Cl
ATOM     14  C   UNL A   1      28.833  27.873  23.231  1.00  0.00     0.146 A 
ATOM     15  C   UNL A   1      31.254  27.856  22.783  1.00  0.00     0.027 C 
ATOM     16  O   UNL A   1      28.881  26.618  23.780  1.00  0.00    -0.474 OA
ATOM     17  C   UNL A   1      30.173  26.022  24.081  1.00  0.00     0.316 C 
BRANCH  17  18
ATOM     18  C   UNL A   1      30.343  25.925  25.606  1.00  0.00     0.430 C 
ATOM     19  F   UNL A   1      29.184  25.572  26.211  1.00  0.00    -0.167 F 
ATOM     20  F   UNL A   1      31.253  24.979  25.944  1.00  0.00    -0.167 F 
ATOM     21  F   UNL A   1      30.748  27.093  26.154  1.00  0.00    -0.167 F 
ENDBRANCH  17  18
ENDBRANCH   4   6
ENDBRANCH   3   4
ENDBRANCH   2   3
ENDBRANCH   1   2
BRANCH   1  22
ATOM     22  O   UNL A   1      34.221  28.608  27.422  1.00  0.00    -0.458 OA
BRANCH  22  23
ATOM     23  C   UNL A   1      34.572  29.849  27.827  1.00  0.00     0.338 C 
ATOM     24  O   UNL A   1      33.847  30.821  27.942  1.00  0.00    -0.246 OA
BRANCH  23  25
ATOM     25  C   UNL A   1      35.990  29.870  28.214  1.00  0.00     0.060 A 
ATOM     26  C   UNL A   1      36.935  30.181  27.246  1.00  0.00     0.016 A 
ATOM     27  C   UNL A   1      36.398  29.391  29.456  1.00  0.00     0.016 A 
ATOM     28  C   UNL A   1      38.269  29.848  27.442  1.00  0.00     0.010 A 
ATOM     29  C   UNL A   1      37.765  29.209  29.709  1.00  0.00     0.010 A 
ATOM     30  C   UNL A   1      38.715  29.374  28.684  1.00  0.00    -0.014 A 
BRANCH  30  31
ATOM     31  C   UNL A   1      40.155  29.016  28.873  1.00  0.00     0.031 A 
ATOM     32  C   UNL A   1      41.111  30.000  29.510  1.00  0.00     0.074 A 
ATOM     33  C   UNL A   1      40.602  27.789  28.529  1.00  0.00     0.049 A 
ATOM     34  N   UNL A   1      42.410  29.914  29.651  1.00  0.00    -0.248 NA
ATOM     35  C   UNL A   1      40.538  31.247  30.045  1.00  0.00     0.031 C 
ATOM     36  C   UNL A   1      39.782  26.722  27.942  1.00  0.00     0.029 A 
ATOM     37  N   UNL A   1      41.844  27.212  28.643  1.00  0.00    -0.354 N 
ATOM     38  C   UNL A   1      42.811  31.109  30.240  1.00  0.00     0.074 A 
ATOM     39  C   UNL A   1      41.624  31.915  30.410  1.00  0.00     0.031 C 
ATOM     40  C   UNL A   1      40.517  25.608  27.826  1.00  0.00     0.029 A 
ATOM     41  C   UNL A   1      41.890  25.903  28.218  1.00  0.00     0.049 A 
ATOM     42  H   UNL A   1      42.628  27.691  28.997  1.00  0.00     0.167 HD
ATOM     43  C   UNL A   1      44.054  31.494  30.619  1.00  0.00     0.037 A 
ATOM     44  C   UNL A   1      42.921  25.041  28.113  1.00  0.00     0.037 A 
ATOM     45  C   UNL A   1      45.223  30.660  30.509  1.00  0.00     0.049 A 
ATOM     46  C   UNL A   1      44.300  25.512  28.482  1.00  0.00     0.074 A 
ATOM     47  C   UNL A   1      46.523  30.951  30.884  1.00  0.00     0.029 A 
ATOM     48  N   UNL A   1      45.231  29.368  30.005  1.00  0.00    -0.354 N 
ATOM     49  N   UNL A   1      44.663  26.662  28.997  1.00  0.00    -0.248 NA
ATOM     50  C   UNL A   1      45.412  24.589  28.223  1.00  0.00     0.031 C 
ATOM     51  C   UNL A   1      47.325  29.851  30.568  1.00  0.00     0.029 A 
ATOM     52  C   UNL A   1      46.518  28.858  30.036  1.00  0.00     0.049 A 
ATOM     53  H   UNL A   1      44.439  28.885  29.675  1.00  0.00     0.167 HD
ATOM     54  C   UNL A   1      46.045  26.599  29.125  1.00  0.00     0.074 A 
ATOM     55  C   UNL A   1      46.450  25.290  28.658  1.00  0.00     0.031 C 
ATOM     56  C   UNL A   1      46.902  27.548  29.574  1.00  0.00     0.037 A 
BRANCH  43  57
ATOM     57  C   UNL A   1      44.228  32.878  31.185  1.00  0.00     0.058 A 
ATOM     58  C   UNL A   1      44.463  33.990  30.363  1.00  0.00     0.135 A 
ATOM     59  C   UNL A   1      44.092  33.104  32.566  1.00  0.00     0.135 A 
ATOM     60  F   UNL A   1      44.618  33.831  29.039  1.00  0.00    -0.206 F 
ATOM     61  C   UNL A   1      44.578  35.273  30.890  1.00  0.00     0.059 A 
ATOM     62  C   UNL A   1      44.176  34.381  33.112  1.00  0.00     0.059 A 
ATOM     63  F   UNL A   1      43.864  32.076  33.399  1.00  0.00    -0.206 F 
ATOM     64  C   UNL A   1      44.429  35.459  32.266  1.00  0.00     0.060 A 
BRANCH  64  65
ATOM     65  S   UNL A   1      44.565  37.134  32.926  1.00  0.00     0.124 S 
ATOM     66  O   UNL A   1      44.046  37.929  31.817  1.00  0.00    -0.237 OA
ATOM     67  O   UNL A   1      43.716  37.071  34.111  1.00  0.00    -0.237 OA
ATOM     68  O   UNL A   1      45.994  37.284  33.187  1.00  0.00    -0.744 OA
ENDBRANCH  64  65
ENDBRANCH  43  57
BRANCH  44  69
ATOM     69  C   UNL A   1      42.693  23.662  27.600  1.00  0.00     0.058 A 
ATOM     70  C   UNL A   1      42.750  23.387  26.226  1.00  0.00     0.135 A 
ATOM     71  C   UNL A   1      42.440  22.589  28.470  1.00  0.00     0.135 A 
ATOM     72  F   UNL A   1      42.975  24.379  25.352  1.00  0.00    -0.206 F 
ATOM     73  C   UNL A   1      42.561  22.099  25.732  1.00  0.00     0.059 A 
ATOM     74  C   UNL A   1      42.280  21.288  28.003  1.00  0.00     0.059 A 
ATOM     75  F   UNL A   1      42.384  22.794  29.795  1.00  0.00    -0.206 F 
ATOM     76  C   UNL A   1      42.334  21.055  26.630  1.00  0.00     0.060 A 
BRANCH  76  77
ATOM     77  S   UNL A   1      42.143  19.380  25.981  1.00  0.00     0.124 S 
ATOM     78  O   UNL A   1      42.976  19.432  24.785  1.00  0.00    -0.237 OA
ATOM     79  O   UNL A   1      42.654  18.567  27.080  1.00  0.00    -0.237 OA
ATOM     80  O   UNL A   1      40.706  19.271  25.746  1.00  0.00    -0.744 OA
ENDBRANCH  76  77
ENDBRANCH  44  69
BRANCH  56  81
ATOM     81  C   UNL A   1      48.366  27.220  29.585  1.00  0.00     0.058 A 
ATOM     82  C   UNL A   1      49.204  27.611  28.530  1.00  0.00     0.135 A 
ATOM     83  C   UNL A   1      48.957  26.619  30.709  1.00  0.00     0.135 A 
ATOM     84  F   UNL A   1      48.685  28.177  27.429  1.00  0.00    -0.206 F 
ATOM     85  C   UNL A   1      50.580  27.428  28.593  1.00  0.00     0.059 A 
ATOM     86  C   UNL A   1      50.335  26.449  30.803  1.00  0.00     0.059 A 
ATOM     87  F   UNL A   1      48.197  26.232  31.746  1.00  0.00    -0.206 F 
ATOM     88  C   UNL A   1      51.138  26.862  29.740  1.00  0.00     0.060 A 
BRANCH  88  89
ATOM     89  S   UNL A   1      52.935  26.722  29.843  1.00  0.00     0.124 S 
ATOM     90  O   UNL A   1      53.328  28.113  30.045  1.00  0.00    -0.237 OA
ATOM     91  O   UNL A   1      53.110  25.840  30.992  1.00  0.00    -0.237 OA
ATOM     92  O   UNL A   1      53.307  26.147  28.554  1.00  0.00    -0.744 OA
ENDBRANCH  88  89
ENDBRANCH  56  81
ENDBRANCH  30  31
ENDBRANCH  23  25
ENDBRANCH  22  23
ENDBRANCH   1  22
TORSDOF 15
ENDMDL
MODEL 2
REMARK VINA RESULT:     -11.6      5.448      8.003
REMARK SMILES Cc1cc(Cl)c2c(c1)C=C(C(=O)OCCOC(=O)c1ccc(-c3c4nc(c(-c5c(F)cc(S(=O)(=O)[O-])cc5F)c5ccc([nH]5)c(-c5c(F)cc(S(=O)(=O)[O-])cc5F)c5nc(c(-c6c(F)cc(S(=O)(=O)[O-])cc6F)c6ccc3[nH]6)C=C5)C=C4)cc1)[C@@H](C(F)(F)F)O2
REMARK SMILES IDX 15 1 14 2 13 3 11 4 12 5 10 6 1 7 2 8 3 9 8 10 4 11 7 12
REMARK SMILES IDX 5 13 6 14 9 15 90 16 85 17 86 18 87 19 88 20 89 21 16 22
REMARK SMILES IDX 17 23 18 24 19 25 20 26 84 27 21 28 83 29 22 30 23 31 24 32
REMARK SMILES IDX 77 33 25 34 82 35 76 36 78 37 26 38 81 39 75 40 74 41 27 43
REMARK SMILES IDX 61 44 40 45 60 46 41 47 44 48 59 49 79 50 42 51 43 52 58 54
REMARK SMILES IDX 80 55 45 56 28 57 29 58 38 59 30 60 31 61 37 62 39 63 32 64
REMARK SMILES IDX 33 65 34 66 35 67 36 68 62 69 63 70 72 71 64 72 65 73 71 74
REMARK SMILES IDX 73 75 66 76 67 77 68 78 69 79 70 80 46 81 47 82 56 83 48 84
REMARK SMILES IDX 49 85 55 86 57 87 50 88 51 89 52 90 53 91 54 92
REMARK H PARENT 78 42 44 53
REMARK Flexibility Score: inf
ROOT
ATOM      1  C   UNL A   1      33.559  33.731  28.236  1.00  0.00     0.275 C 
ENDROOT
BRANCH   1   2
ATOM      2  C   UNL A   1      34.130  34.845  29.113  1.00  0.00     0.275 C 
BRANCH   2   3
ATOM      3  O   UNL A   1      33.928  34.567  30.516  1.00  0.00    -0.459 OA
BRANCH   3   4
ATOM      4  C   UNL A   1      34.653  33.538  31.011  1.00  0.00     0.338 C 
ATOM      5  O   UNL A   1      34.357  32.354  30.969  1.00  0.00    -0.246 OA
BRANCH   4   6
ATOM      6  C   UNL A   1      35.898  34.024  31.631  1.00  0.00     0.087 C 
ATOM      7  C   UNL A   1      42.015  33.660  30.974  1.00  0.00     0.044 C 
ATOM      8  C   UNL A   1      40.722  34.043  31.637  1.00  0.00    -0.049 A 
ATOM      9  C   UNL A   1      40.714  34.577  32.930  1.00  0.00     0.028 A 
ATOM     10  C   UNL A   1      39.501  33.829  30.991  1.00  0.00     0.015 A 
ATOM     11  C   UNL A   1      39.505  34.902  33.559  1.00  0.00     0.084 A 
ATOM     12  C   UNL A   1      38.291  34.137  31.629  1.00  0.00     0.019 A 
ATOM     13  Cl  UNL A   1      39.564  35.554  35.158  1.00  0.00    -0.080 Cl
ATOM     14  C   UNL A   1      38.282  34.677  32.916  1.00  0.00     0.146 A 
ATOM     15  C   UNL A   1      37.040  33.843  30.960  1.00  0.00     0.027 C 
ATOM     16  O   UNL A   1      37.122  35.011  33.565  1.00  0.00    -0.474 OA
ATOM     17  C   UNL A   1      35.850  34.543  33.037  1.00  0.00     0.316 C 
BRANCH  17  18
ATOM     18  C   UNL A   1      35.256  33.500  33.997  1.00  0.00     0.430 C 
ATOM     19  F   UNL A   1      33.907  33.442  33.889  1.00  0.00    -0.167 F 
ATOM     20  F   UNL A   1      35.714  32.255  33.722  1.00  0.00    -0.167 F 
ATOM     21  F   UNL A   1      35.549  33.764  35.290  1.00  0.00    -0.167 F 
ENDBRANCH  17  18
ENDBRANCH   4   6
ENDBRANCH   3   4
ENDBRANCH   2   3
ENDBRANCH   1   2
BRANCH   1  22
ATOM     22  O   UNL A   1      34.623  33.006  27.591  1.00  0.00    -0.458 OA
BRANCH  22  23
ATOM     23  C   UNL A   1      34.511  31.660  27.635  1.00  0.00     0.338 C 
ATOM     24  O   UNL A   1      33.542  30.988  27.328  1.00  0.00    -0.246 OA
BRANCH  23  25
ATOM     25  C   UNL A   1      35.792  31.061  28.038  1.00  0.00     0.060 A 
ATOM     26  C   UNL A   1      35.780  29.791  28.600  1.00  0.00     0.016 A 
ATOM     27  C   UNL A   1      36.960  31.818  28.053  1.00  0.00     0.016 A 
ATOM     28  C   UNL A   1      36.871  29.345  29.336  1.00  0.00     0.010 A 
ATOM     29  C   UNL A   1      38.113  31.294  28.656  1.00  0.00     0.010 A 
ATOM     30  C   UNL A   1      38.066  30.078  29.362  1.00  0.00    -0.014 A 
BRANCH  30  31
ATOM     31  C   UNL A   1      39.228  29.582  30.163  1.00  0.00     0.031 A 
ATOM     32  C   UNL A   1      39.411  30.020  31.599  1.00  0.00     0.074 A 
ATOM     33  C   UNL A   1      40.093  28.693  29.628  1.00  0.00     0.049 A 
ATOM     34  N   UNL A   1      40.412  29.790  32.411  1.00  0.00    -0.248 NA
ATOM     35  C   UNL A   1      38.339  30.833  32.198  1.00  0.00     0.031 C 
ATOM     36  C   UNL A   1      40.016  28.150  28.267  1.00  0.00     0.029 A 
ATOM     37  N   UNL A   1      41.191  28.064  30.163  1.00  0.00    -0.354 N 
ATOM     38  C   UNL A   1      40.115  30.467  33.589  1.00  0.00     0.074 A 
ATOM     39  C   UNL A   1      38.852  31.138  33.381  1.00  0.00     0.031 C 
ATOM     40  C   UNL A   1      40.966  27.219  28.105  1.00  0.00     0.029 A 
ATOM     41  C   UNL A   1      41.795  27.173  29.302  1.00  0.00     0.049 A 
ATOM     42  H   UNL A   1      41.516  28.233  31.077  1.00  0.00     0.167 HD
ATOM     43  C   UNL A   1      40.823  30.515  34.744  1.00  0.00     0.037 A 
ATOM     44  C   UNL A   1      42.912  26.431  29.436  1.00  0.00     0.037 A 
ATOM     45  C   UNL A   1      42.047  29.789  34.967  1.00  0.00     0.049 A 
ATOM     46  C   UNL A   1      43.713  26.548  30.703  1.00  0.00     0.074 A 
ATOM     47  C   UNL A   1      42.828  29.755  36.109  1.00  0.00     0.029 A 
ATOM     48  N   UNL A   1      42.657  28.958  34.040  1.00  0.00    -0.354 N 
ATOM     49  N   UNL A   1      43.435  27.228  31.789  1.00  0.00    -0.248 NA
ATOM     50  C   UNL A   1      44.992  25.829  30.752  1.00  0.00     0.031 C 
ATOM     51  C   UNL A   1      43.932  28.936  35.858  1.00  0.00     0.029 A 
ATOM     52  C   UNL A   1      43.817  28.425  34.575  1.00  0.00     0.049 A 
ATOM     53  H   UNL A   1      42.315  28.773  33.135  1.00  0.00     0.167 HD
ATOM     54  C   UNL A   1      44.505  27.019  32.650  1.00  0.00     0.074 A 
ATOM     55  C   UNL A   1      45.422  26.128  31.971  1.00  0.00     0.031 C 
ATOM     56  C   UNL A   1      44.715  27.533  33.887  1.00  0.00     0.037 A 
BRANCH  43  57
ATOM     57  C   UNL A   1      40.304  31.379  35.861  1.00  0.00     0.058 A 
ATOM     58  C   UNL A   1      39.124  31.066  36.553  1.00  0.00     0.135 A 
ATOM     59  C   UNL A   1      41.033  32.502  36.289  1.00  0.00     0.135 A 
ATOM     60  F   UNL A   1      38.379  30.015  36.177  1.00  0.00    -0.206 F 
ATOM     61  C   UNL A   1      38.674  31.846  37.614  1.00  0.00     0.059 A 
ATOM     62  C   UNL A   1      40.617  33.281  37.365  1.00  0.00     0.059 A 
ATOM     63  F   UNL A   1      42.171  32.846  35.664  1.00  0.00    -0.206 F 
ATOM     64  C   UNL A   1      39.430  32.950  38.016  1.00  0.00     0.060 A 
BRANCH  64  65
ATOM     65  S   UNL A   1      38.837  33.938  39.405  1.00  0.00     0.124 S 
ATOM     66  O   UNL A   1      38.928  35.289  38.863  1.00  0.00    -0.237 OA
ATOM     67  O   UNL A   1      37.485  33.422  39.597  1.00  0.00    -0.237 OA
ATOM     68  O   UNL A   1      39.782  33.627  40.474  1.00  0.00    -0.744 OA
ENDBRANCH  64  65
ENDBRANCH  43  57
BRANCH  44  69
ATOM     69  C   UNL A   1      43.359  25.546  28.325  1.00  0.00     0.058 A 
ATOM     70  C   UNL A   1      43.011  24.188  28.302  1.00  0.00     0.135 A 
ATOM     71  C   UNL A   1      44.118  26.043  27.254  1.00  0.00     0.135 A 
ATOM     72  F   UNL A   1      42.298  23.661  29.309  1.00  0.00    -0.206 F 
ATOM     73  C   UNL A   1      43.402  23.353  27.260  1.00  0.00     0.059 A 
ATOM     74  C   UNL A   1      44.494  25.235  26.185  1.00  0.00     0.059 A 
ATOM     75  F   UNL A   1      44.472  27.337  27.221  1.00  0.00    -0.206 F 
ATOM     76  C   UNL A   1      44.138  23.889  26.202  1.00  0.00     0.060 A 
BRANCH  76  77
ATOM     77  S   UNL A   1      44.595  22.807  24.828  1.00  0.00     0.124 S 
ATOM     78  O   UNL A   1      45.153  21.658  25.533  1.00  0.00    -0.237 OA
ATOM     79  O   UNL A   1      43.310  22.590  24.171  1.00  0.00    -0.237 OA
ATOM     80  O   UNL A   1      45.551  23.609  24.071  1.00  0.00    -0.744 OA
ENDBRANCH  76  77
ENDBRANCH  44  69
BRANCH  56  81
ATOM     81  C   UNL A   1      45.982  27.154  34.596  1.00  0.00     0.058 A 
ATOM     82  C   UNL A   1      46.055  25.990  35.376  1.00  0.00     0.135 A 
ATOM     83  C   UNL A   1      47.161  27.890  34.397  1.00  0.00     0.135 A 
ATOM     84  F   UNL A   1      44.953  25.261  35.606  1.00  0.00    -0.206 F 
ATOM     85  C   UNL A   1      47.257  25.563  35.927  1.00  0.00     0.059 A 
ATOM     86  C   UNL A   1      48.380  27.467  34.918  1.00  0.00     0.059 A 
ATOM     87  F   UNL A   1      47.143  29.008  33.654  1.00  0.00    -0.206 F 
ATOM     88  C   UNL A   1      48.417  26.299  35.679  1.00  0.00     0.060 A 
BRANCH  88  89
ATOM     89  S   UNL A   1      49.984  25.674  36.321  1.00  0.00     0.124 S 
ATOM     90  O   UNL A   1      49.546  24.931  37.498  1.00  0.00    -0.237 OA
ATOM     91  O   UNL A   1      50.473  24.867  35.208  1.00  0.00    -0.237 OA
ATOM     92  O   UNL A   1      50.749  26.887  36.595  1.00  0.00    -0.744 OA
ENDBRANCH  88  89
ENDBRANCH  56  81
ENDBRANCH  30  31
ENDBRANCH  23  25
ENDBRANCH  22  23
ENDBRANCH   1  22
TORSDOF 15
ENDMDL
MODEL 3
REMARK VINA RESULT:     -11.4      5.526     10.147
REMARK SMILES Cc1cc(Cl)c2c(c1)C=C(C(=O)OCCOC(=O)c1ccc(-c3c4nc(c(-c5c(F)cc(S(=O)(=O)[O-])cc5F)c5ccc([nH]5)c(-c5c(F)cc(S(=O)(=O)[O-])cc5F)c5nc(c(-c6c(F)cc(S(=O)(=O)[O-])cc6F)c6ccc3[nH]6)C=C5)C=C4)cc1)[C@@H](C(F)(F)F)O2
REMARK SMILES IDX 15 1 14 2 13 3 11 4 12 5 10 6 1 7 2 8 3 9 8 10 4 11 7 12
REMARK SMILES IDX 5 13 6 14 9 15 90 16 85 17 86 18 87 19 88 20 89 21 16 22
REMARK SMILES IDX 17 23 18 24 19 25 20 26 84 27 21 28 83 29 22 30 23 31 24 32
REMARK SMILES IDX 77 33 25 34 82 35 76 36 78 37 26 38 81 39 75 40 74 41 27 43
REMARK SMILES IDX 61 44 40 45 60 46 41 47 44 48 59 49 79 50 42 51 43 52 58 54
REMARK SMILES IDX 80 55 45 56 28 57 29 58 38 59 30 60 31 61 37 62 39 63 32 64
REMARK SMILES IDX 33 65 34 66 35 67 36 68 62 69 63 70 72 71 64 72 65 73 71 74
REMARK SMILES IDX 73 75 66 76 67 77 68 78 69 79 70 80 46 81 47 82 56 83 48 84
REMARK SMILES IDX 49 85 55 86 57 87 50 88 51 89 52 90 53 91 54 92
REMARK H PARENT 78 42 44 53
REMARK Flexibility Score: inf
ROOT
ATOM      1  C   UNL A   1      39.336  23.235  26.499  1.00  0.00     0.275 C 
ENDROOT
BRANCH   1   2
ATOM      2  C   UNL A   1      38.228  22.486  25.758  1.00  0.00     0.275 C 
BRANCH   2   3
ATOM      3  O   UNL A   1      36.925  23.015  26.086  1.00  0.00    -0.459 OA
BRANCH   3   4
ATOM      4  C   UNL A   1      35.879  22.351  25.543  1.00  0.00     0.338 C 
ATOM      5  O   UNL A   1      35.871  21.189  25.167  1.00  0.00    -0.246 OA
BRANCH   4   6
ATOM      6  C   UNL A   1      34.694  23.221  25.456  1.00  0.00     0.087 C 
ATOM      7  C   UNL A   1      33.171  29.163  24.855  1.00  0.00     0.044 C 
ATOM      8  C   UNL A   1      32.931  27.695  25.073  1.00  0.00    -0.049 A 
ATOM      9  C   UNL A   1      31.672  27.229  25.466  1.00  0.00     0.028 A 
ATOM     10  C   UNL A   1      33.973  26.776  24.929  1.00  0.00     0.015 A 
ATOM     11  C   UNL A   1      31.460  25.864  25.702  1.00  0.00     0.084 A 
ATOM     12  C   UNL A   1      33.765  25.412  25.182  1.00  0.00     0.019 A 
ATOM     13  Cl  UNL A   1      29.883  25.354  26.191  1.00  0.00    -0.080 Cl
ATOM     14  C   UNL A   1      32.508  24.945  25.568  1.00  0.00     0.146 A 
ATOM     15  C   UNL A   1      34.880  24.493  25.089  1.00  0.00     0.027 C 
ATOM     16  O   UNL A   1      32.258  23.618  25.806  1.00  0.00    -0.474 OA
ATOM     17  C   UNL A   1      33.374  22.696  25.937  1.00  0.00     0.316 C 
BRANCH  17  18
ATOM     18  C   UNL A   1      33.462  22.211  27.393  1.00  0.00     0.430 C 
ATOM     19  F   UNL A   1      33.753  20.890  27.457  1.00  0.00    -0.167 F 
ATOM     20  F   UNL A   1      34.448  22.851  28.069  1.00  0.00    -0.167 F 
ATOM     21  F   UNL A   1      32.310  22.408  28.072  1.00  0.00    -0.167 F 
ENDBRANCH  17  18
ENDBRANCH   4   6
ENDBRANCH   3   4
ENDBRANCH   2   3
ENDBRANCH   1   2
BRANCH   1  22
ATOM     22  O   UNL A   1      39.136  24.656  26.397  1.00  0.00    -0.458 OA
BRANCH  22  23
ATOM     23  C   UNL A   1      40.267  25.393  26.324  1.00  0.00     0.338 C 
ATOM     24  O   UNL A   1      40.988  25.546  25.354  1.00  0.00    -0.246 OA
BRANCH  23  25
ATOM     25  C   UNL A   1      40.495  26.094  27.596  1.00  0.00     0.060 A 
ATOM     26  C   UNL A   1      39.628  25.847  28.652  1.00  0.00     0.016 A 
ATOM     27  C   UNL A   1      41.421  27.130  27.684  1.00  0.00     0.016 A 
ATOM     28  C   UNL A   1      39.555  26.737  29.716  1.00  0.00     0.010 A 
ATOM     29  C   UNL A   1      41.454  27.929  28.836  1.00  0.00     0.010 A 
ATOM     30  C   UNL A   1      40.479  27.784  29.840  1.00  0.00    -0.014 A 
BRANCH  30  31
ATOM     31  C   UNL A   1      40.381  28.734  30.991  1.00  0.00     0.031 A 
ATOM     32  C   UNL A   1      39.330  29.822  30.999  1.00  0.00     0.074 A 
ATOM     33  C   UNL A   1      41.195  28.594  32.060  1.00  0.00     0.049 A 
ATOM     34  N   UNL A   1      39.166  30.804  31.849  1.00  0.00    -0.248 NA
ATOM     35  C   UNL A   1      38.343  29.814  29.906  1.00  0.00     0.031 C 
ATOM     36  C   UNL A   1      42.229  27.563  32.208  1.00  0.00     0.029 A 
ATOM     37  N   UNL A   1      41.269  29.295  33.240  1.00  0.00    -0.354 N 
ATOM     38  C   UNL A   1      38.098  31.555  31.367  1.00  0.00     0.074 A 
ATOM     39  C   UNL A   1      37.666  30.930  30.137  1.00  0.00     0.031 C 
ATOM     40  C   UNL A   1      42.772  27.649  33.430  1.00  0.00     0.029 A 
ATOM     41  C   UNL A   1      42.214  28.808  34.116  1.00  0.00     0.049 A 
ATOM     42  H   UNL A   1      40.701  30.073  33.439  1.00  0.00     0.167 HD
ATOM     43  C   UNL A   1      37.521  32.656  31.907  1.00  0.00     0.037 A 
ATOM     44  C   UNL A   1      42.621  29.258  35.320  1.00  0.00     0.037 A 
ATOM     45  C   UNL A   1      37.913  33.233  33.166  1.00  0.00     0.049 A 
ATOM     46  C   UNL A   1      42.008  30.516  35.868  1.00  0.00     0.074 A 
ATOM     47  C   UNL A   1      37.377  34.336  33.808  1.00  0.00     0.029 A 
ATOM     48  N   UNL A   1      38.923  32.747  33.982  1.00  0.00    -0.354 N 
ATOM     49  N   UNL A   1      41.028  31.234  35.375  1.00  0.00    -0.248 NA
ATOM     50  C   UNL A   1      42.576  31.046  37.115  1.00  0.00     0.031 C 
ATOM     51  C   UNL A   1      38.090  34.541  34.992  1.00  0.00     0.029 A 
ATOM     52  C   UNL A   1      39.042  33.541  35.110  1.00  0.00     0.049 A 
ATOM     53  H   UNL A   1      39.473  31.954  33.789  1.00  0.00     0.167 HD
ATOM     54  C   UNL A   1      40.862  32.300  36.250  1.00  0.00     0.074 A 
ATOM     55  C   UNL A   1      41.824  32.119  37.318  1.00  0.00     0.031 C 
ATOM     56  C   UNL A   1      40.000  33.342  36.167  1.00  0.00     0.037 A 
BRANCH  43  57
ATOM     57  C   UNL A   1      36.405  33.319  31.145  1.00  0.00     0.058 A 
ATOM     58  C   UNL A   1      35.082  33.311  31.612  1.00  0.00     0.135 A 
ATOM     59  C   UNL A   1      36.675  34.030  29.963  1.00  0.00     0.135 A 
ATOM     60  F   UNL A   1      34.763  32.635  32.727  1.00  0.00    -0.206 F 
ATOM     61  C   UNL A   1      34.064  33.965  30.925  1.00  0.00     0.059 A 
ATOM     62  C   UNL A   1      35.678  34.715  29.274  1.00  0.00     0.059 A 
ATOM     63  F   UNL A   1      37.924  34.073  29.472  1.00  0.00    -0.206 F 
ATOM     64  C   UNL A   1      34.373  34.668  29.758  1.00  0.00     0.060 A 
BRANCH  64  65
ATOM     65  S   UNL A   1      33.039  35.523  28.892  1.00  0.00     0.124 S 
ATOM     66  O   UNL A   1      32.248  36.035  30.006  1.00  0.00    -0.237 OA
ATOM     67  O   UNL A   1      33.765  36.524  28.117  1.00  0.00    -0.237 OA
ATOM     68  O   UNL A   1      32.406  34.465  28.110  1.00  0.00    -0.744 OA
ENDBRANCH  64  65
ENDBRANCH  43  57
BRANCH  44  69
ATOM     69  C   UNL A   1      43.690  28.537  36.065  1.00  0.00     0.058 A 
ATOM     70  C   UNL A   1      43.383  27.445  36.889  1.00  0.00     0.135 A 
ATOM     71  C   UNL A   1      45.040  28.907  35.949  1.00  0.00     0.135 A 
ATOM     72  F   UNL A   1      42.108  27.060  37.044  1.00  0.00    -0.206 F 
ATOM     73  C   UNL A   1      44.374  26.748  37.574  1.00  0.00     0.059 A 
ATOM     74  C   UNL A   1      46.051  28.206  36.598  1.00  0.00     0.059 A 
ATOM     75  F   UNL A   1      45.391  29.940  35.166  1.00  0.00    -0.206 F 
ATOM     76  C   UNL A   1      45.706  27.133  37.416  1.00  0.00     0.060 A 
BRANCH  76  77
ATOM     77  S   UNL A   1      46.988  26.187  38.269  1.00  0.00     0.124 S 
ATOM     78  O   UNL A   1      46.217  25.079  38.820  1.00  0.00    -0.237 OA
ATOM     79  O   UNL A   1      47.897  25.852  37.177  1.00  0.00    -0.237 OA
ATOM     80  O   UNL A   1      47.515  27.137  39.244  1.00  0.00    -0.744 OA
ENDBRANCH  76  77
ENDBRANCH  44  69
BRANCH  56  81
ATOM     81  C   UNL A   1      40.049  34.378  37.252  1.00  0.00     0.058 A 
ATOM     82  C   UNL A   1      40.816  35.544  37.107  1.00  0.00     0.135 A 
ATOM     83  C   UNL A   1      39.232  34.263  38.389  1.00  0.00     0.135 A 
ATOM     84  F   UNL A   1      41.622  35.693  36.045  1.00  0.00    -0.206 F 
ATOM     85  C   UNL A   1      40.763  36.566  38.046  1.00  0.00     0.059 A 
ATOM     86  C   UNL A   1      39.145  35.286  39.329  1.00  0.00     0.059 A 
ATOM     87  F   UNL A   1      38.476  33.169  38.570  1.00  0.00    -0.206 F 
ATOM     88  C   UNL A   1      39.912  36.436  39.145  1.00  0.00     0.060 A 
BRANCH  88  89
ATOM     89  S   UNL A   1      39.785  37.816  40.301  1.00  0.00     0.124 S 
ATOM     90  O   UNL A   1      41.154  38.320  40.312  1.00  0.00    -0.237 OA
ATOM     91  O   UNL A   1      38.798  38.672  39.650  1.00  0.00    -0.237 OA
ATOM     92  O   UNL A   1      39.340  37.183  41.539  1.00  0.00    -0.744 OA
ENDBRANCH  88  89
ENDBRANCH  56  81
ENDBRANCH  30  31
ENDBRANCH  23  25
ENDBRANCH  22  23
ENDBRANCH   1  22
TORSDOF 15
ENDMDL
