MODEL 1
REMARK VINA RESULT:     -10.3      0.000      0.000
REMARK SMILES Cc1ccc(C(=O)CCCC(=O)OCCOC(=O)c2ccc(-c3c4nc(c(-c5c(F)cc(S(=O)(=O)[O-])cc5F)c5ccc([nH]5)c(-c5c(F)cc(S(=O)(=O)[O-])cc5F)c5nc(c(-c6c(F)cc(S(=O)(=O)[O-])cc6F)c6ccc3[nH]6)C=C5)C=C4)cc2)s1
REMARK SMILES IDX 14 1 13 2 11 3 12 4 10 5 9 6 8 7 6 8 7 9 5 10 1 11 2 12 3 13
REMARK SMILES IDX 85 14 4 15 15 16 16 17 17 18 18 19 19 20 20 21 84 22 21 23
REMARK SMILES IDX 83 24 22 25 23 26 24 27 77 28 25 29 82 30 76 31 78 32 26 33
REMARK SMILES IDX 81 34 75 35 74 36 27 38 61 39 40 40 60 41 41 42 44 43 59 44
REMARK SMILES IDX 79 45 42 46 43 47 58 49 80 50 45 51 28 52 29 53 38 54 30 55
REMARK SMILES IDX 31 56 37 57 39 58 32 59 33 60 34 61 35 62 36 63 62 64 63 65
REMARK SMILES IDX 72 66 64 67 65 68 71 69 73 70 66 71 67 72 68 73 69 74 70 75
REMARK SMILES IDX 46 76 47 77 56 78 48 79 49 80 55 81 57 82 50 83 51 84 52 85
REMARK SMILES IDX 53 86 54 87
REMARK H PARENT 78 37 44 48
REMARK Flexibility Score: inf
ROOT
ATOM      1  C   UNL A   1      36.860  23.425  25.708  1.00  0.00     0.274 C 
ENDROOT
BRANCH   1   2
ATOM      2  O   UNL A   1      36.573  22.482  24.656  1.00  0.00    -0.462 OA
BRANCH   2   3
ATOM      3  C   UNL A   1      35.906  22.950  23.570  1.00  0.00     0.305 C 
ATOM      4  O   UNL A   1      36.335  22.912  22.424  1.00  0.00    -0.252 OA
BRANCH   3   5
ATOM      5  C   UNL A   1      34.555  23.554  23.907  1.00  0.00     0.123 C 
BRANCH   5   6
ATOM      6  C   UNL A   1      33.430  22.601  24.312  1.00  0.00     0.020 C 
BRANCH   6   7
ATOM      7  C   UNL A   1      33.595  21.136  23.901  1.00  0.00     0.082 C 
BRANCH   7   8
ATOM      8  C   UNL A   1      33.810  20.196  25.081  1.00  0.00     0.172 C 
ATOM      9  O   UNL A   1      34.072  20.677  26.186  1.00  0.00    -0.293 OA
BRANCH   8  10
ATOM     10  C   UNL A   1      33.742  18.762  24.815  1.00  0.00     0.070 A 
ATOM     11  C   UNL A   1      32.683  15.039  25.482  1.00  0.00     0.056 C 
ATOM     12  C   UNL A   1      33.238  16.351  25.047  1.00  0.00     0.002 A 
ATOM     13  C   UNL A   1      34.264  16.584  24.158  1.00  0.00     0.016 A 
ATOM     14  S   UNL A   1      32.588  17.811  25.653  1.00  0.00    -0.138 S 
ATOM     15  C   UNL A   1      34.519  17.975  23.986  1.00  0.00     0.024 A 
ENDBRANCH   8  10
ENDBRANCH   7   8
ENDBRANCH   6   7
ENDBRANCH   5   6
ENDBRANCH   3   5
ENDBRANCH   2   3
ENDBRANCH   1   2
BRANCH   1  16
ATOM     16  C   UNL A   1      38.321  23.339  26.152  1.00  0.00     0.275 C 
BRANCH  16  17
ATOM     17  O   UNL A   1      38.882  24.646  26.347  1.00  0.00    -0.458 OA
BRANCH  17  18
ATOM     18  C   UNL A   1      40.175  24.652  26.745  1.00  0.00     0.338 C 
ATOM     19  O   UNL A   1      41.114  24.076  26.221  1.00  0.00    -0.246 OA
BRANCH  18  20
ATOM     20  C   UNL A   1      40.336  25.622  27.832  1.00  0.00     0.060 A 
ATOM     21  C   UNL A   1      39.324  25.689  28.790  1.00  0.00     0.016 A 
ATOM     22  C   UNL A   1      41.416  26.502  27.874  1.00  0.00     0.016 A 
ATOM     23  C   UNL A   1      39.362  26.651  29.786  1.00  0.00     0.010 A 
ATOM     24  C   UNL A   1      41.462  27.465  28.884  1.00  0.00     0.010 A 
ATOM     25  C   UNL A   1      40.427  27.553  29.832  1.00  0.00    -0.014 A 
BRANCH  25  26
ATOM     26  C   UNL A   1      40.403  28.642  30.831  1.00  0.00     0.031 A 
ATOM     27  C   UNL A   1      41.375  28.604  31.972  1.00  0.00     0.074 A 
ATOM     28  C   UNL A   1      39.545  29.667  30.683  1.00  0.00     0.049 A 
ATOM     29  N   UNL A   1      41.440  29.370  33.028  1.00  0.00    -0.248 NA
ATOM     30  C   UNL A   1      42.411  27.559  31.920  1.00  0.00     0.031 C 
ATOM     31  C   UNL A   1      38.615  29.836  29.564  1.00  0.00     0.029 A 
ATOM     32  N   UNL A   1      39.315  30.759  31.477  1.00  0.00    -0.354 N 
ATOM     33  C   UNL A   1      42.496  28.879  33.784  1.00  0.00     0.074 A 
ATOM     34  C   UNL A   1      43.043  27.746  33.068  1.00  0.00     0.031 C 
ATOM     35  C   UNL A   1      37.912  30.966  29.747  1.00  0.00     0.029 A 
ATOM     36  C   UNL A   1      38.299  31.563  31.021  1.00  0.00     0.049 A 
ATOM     37  H   UNL A   1      39.828  30.949  32.297  1.00  0.00     0.167 HD
ATOM     38  C   UNL A   1      42.961  29.336  34.970  1.00  0.00     0.037 A 
ATOM     39  C   UNL A   1      37.720  32.637  31.590  1.00  0.00     0.037 A 
ATOM     40  C   UNL A   1      42.414  30.481  35.651  1.00  0.00     0.049 A 
ATOM     41  C   UNL A   1      38.217  33.094  32.935  1.00  0.00     0.074 A 
ATOM     42  C   UNL A   1      42.796  31.031  36.861  1.00  0.00     0.029 A 
ATOM     43  N   UNL A   1      41.367  31.257  35.171  1.00  0.00    -0.354 N 
ATOM     44  N   UNL A   1      39.184  32.594  33.668  1.00  0.00    -0.248 NA
ATOM     45  C   UNL A   1      37.537  34.249  33.536  1.00  0.00     0.031 C 
ATOM     46  C   UNL A   1      41.958  32.119  37.129  1.00  0.00     0.029 A 
ATOM     47  C   UNL A   1      41.081  32.273  36.066  1.00  0.00     0.049 A 
ATOM     48  H   UNL A   1      40.897  31.106  34.319  1.00  0.00     0.167 HD
ATOM     49  C   UNL A   1      39.239  33.381  34.812  1.00  0.00     0.074 A 
ATOM     50  C   UNL A   1      38.217  34.398  34.666  1.00  0.00     0.031 C 
ATOM     51  C   UNL A   1      40.057  33.272  35.888  1.00  0.00     0.037 A 
BRANCH  38  52
ATOM     52  C   UNL A   1      44.077  28.570  35.621  1.00  0.00     0.058 A 
ATOM     53  C   UNL A   1      45.426  28.857  35.362  1.00  0.00     0.135 A 
ATOM     54  C   UNL A   1      43.790  27.532  36.524  1.00  0.00     0.135 A 
ATOM     55  F   UNL A   1      45.756  29.823  34.489  1.00  0.00    -0.206 F 
ATOM     56  C   UNL A   1      46.452  28.127  35.956  1.00  0.00     0.059 A 
ATOM     57  C   UNL A   1      44.799  26.806  37.147  1.00  0.00     0.059 A 
ATOM     58  F   UNL A   1      42.516  27.211  36.801  1.00  0.00    -0.206 F 
ATOM     59  C   UNL A   1      46.128  27.100  36.845  1.00  0.00     0.060 A 
BRANCH  59  60
ATOM     60  S   UNL A   1      47.467  26.155  37.604  1.00  0.00     0.124 S 
ATOM     61  O   UNL A   1      47.746  26.952  38.794  1.00  0.00    -0.237 OA
ATOM     62  O   UNL A   1      46.840  24.859  37.842  1.00  0.00    -0.237 OA
ATOM     63  O   UNL A   1      48.510  26.165  36.583  1.00  0.00    -0.744 OA
ENDBRANCH  59  60
ENDBRANCH  38  52
BRANCH  39  64
ATOM     64  C   UNL A   1      36.587  33.317  30.912  1.00  0.00     0.058 A 
ATOM     65  C   UNL A   1      35.272  33.178  31.378  1.00  0.00     0.135 A 
ATOM     66  C   UNL A   1      36.799  34.142  29.794  1.00  0.00     0.135 A 
ATOM     67  F   UNL A   1      35.016  32.394  32.436  1.00  0.00    -0.206 F 
ATOM     68  C   UNL A   1      34.206  33.825  30.759  1.00  0.00     0.059 A 
ATOM     69  C   UNL A   1      35.755  34.819  29.174  1.00  0.00     0.059 A 
ATOM     70  F   UNL A   1      38.041  34.318  29.316  1.00  0.00    -0.206 F 
ATOM     71  C   UNL A   1      34.459  34.647  29.658  1.00  0.00     0.060 A 
BRANCH  71  72
ATOM     72  S   UNL A   1      33.079  35.528  28.895  1.00  0.00     0.124 S 
ATOM     73  O   UNL A   1      33.776  36.548  28.121  1.00  0.00    -0.237 OA
ATOM     74  O   UNL A   1      32.428  34.475  28.123  1.00  0.00    -0.237 OA
ATOM     75  O   UNL A   1      32.319  36.015  30.042  1.00  0.00    -0.744 OA
ENDBRANCH  71  72
ENDBRANCH  39  64
BRANCH  51  76
ATOM     76  C   UNL A   1      39.894  34.296  36.975  1.00  0.00     0.058 A 
ATOM     77  C   UNL A   1      40.461  35.575  36.868  1.00  0.00     0.135 A 
ATOM     78  C   UNL A   1      39.120  34.008  38.110  1.00  0.00     0.135 A 
ATOM     79  F   UNL A   1      41.214  35.894  35.804  1.00  0.00    -0.206 F 
ATOM     80  C   UNL A   1      40.283  36.530  37.863  1.00  0.00     0.059 A 
ATOM     81  C   UNL A   1      38.910  34.955  39.106  1.00  0.00     0.059 A 
ATOM     82  F   UNL A   1      38.549  32.802  38.251  1.00  0.00    -0.206 F 
ATOM     83  C   UNL A   1      39.506  36.210  38.979  1.00  0.00     0.060 A 
BRANCH  83  84
ATOM     84  S   UNL A   1      39.253  37.468  40.248  1.00  0.00     0.124 S 
ATOM     85  O   UNL A   1      40.610  37.972  40.435  1.00  0.00    -0.237 OA
ATOM     86  O   UNL A   1      38.320  38.386  39.601  1.00  0.00    -0.237 OA
ATOM     87  O   UNL A   1      38.702  36.712  41.369  1.00  0.00    -0.744 OA
ENDBRANCH  83  84
ENDBRANCH  51  76
ENDBRANCH  25  26
ENDBRANCH  18  20
ENDBRANCH  17  18
ENDBRANCH  16  17
ENDBRANCH   1  16
TORSDOF 18
ENDMDL
MODEL 2
REMARK VINA RESULT:     -10.1      7.364     12.873
REMARK SMILES Cc1ccc(C(=O)CCCC(=O)OCCOC(=O)c2ccc(-c3c4nc(c(-c5c(F)cc(S(=O)(=O)[O-])cc5F)c5ccc([nH]5)c(-c5c(F)cc(S(=O)(=O)[O-])cc5F)c5nc(c(-c6c(F)cc(S(=O)(=O)[O-])cc6F)c6ccc3[nH]6)C=C5)C=C4)cc2)s1
REMARK SMILES IDX 14 1 13 2 11 3 12 4 10 5 9 6 8 7 6 8 7 9 5 10 1 11 2 12 3 13
REMARK SMILES IDX 85 14 4 15 15 16 16 17 17 18 18 19 19 20 20 21 84 22 21 23
REMARK SMILES IDX 83 24 22 25 23 26 24 27 77 28 25 29 82 30 76 31 78 32 26 33
REMARK SMILES IDX 81 34 75 35 74 36 27 38 61 39 40 40 60 41 41 42 44 43 59 44
REMARK SMILES IDX 79 45 42 46 43 47 58 49 80 50 45 51 28 52 29 53 38 54 30 55
REMARK SMILES IDX 31 56 37 57 39 58 32 59 33 60 34 61 35 62 36 63 62 64 63 65
REMARK SMILES IDX 72 66 64 67 65 68 71 69 73 70 66 71 67 72 68 73 69 74 70 75
REMARK SMILES IDX 46 76 47 77 56 78 48 79 49 80 55 81 57 82 50 83 51 84 52 85
REMARK SMILES IDX 53 86 54 87
REMARK H PARENT 78 37 44 48
REMARK Flexibility Score: inf
ROOT
ATOM      1  C   UNL A   1      33.520  31.452  27.624  1.00  0.00     0.274 C 
ENDROOT
BRANCH   1   2
ATOM      2  O   UNL A   1      33.286  30.036  27.486  1.00  0.00    -0.462 OA
BRANCH   2   3
ATOM      3  C   UNL A   1      32.076  29.654  27.003  1.00  0.00     0.305 C 
ATOM      4  O   UNL A   1      31.420  30.297  26.192  1.00  0.00    -0.252 OA
BRANCH   3   5
ATOM      5  C   UNL A   1      31.587  28.336  27.575  1.00  0.00     0.123 C 
BRANCH   5   6
ATOM      6  C   UNL A   1      31.170  27.243  26.593  1.00  0.00     0.020 C 
BRANCH   6   7
ATOM      7  C   UNL A   1      32.124  26.970  25.428  1.00  0.00     0.082 C 
BRANCH   7   8
ATOM      8  C   UNL A   1      31.430  26.409  24.193  1.00  0.00     0.172 C 
ATOM      9  O   UNL A   1      31.940  25.453  23.604  1.00  0.00    -0.293 OA
BRANCH   8  10
ATOM     10  C   UNL A   1      30.211  27.079  23.749  1.00  0.00     0.070 A 
ATOM     11  C   UNL A   1      28.040  30.095  22.474  1.00  0.00     0.056 C 
ATOM     12  C   UNL A   1      28.637  28.829  22.986  1.00  0.00     0.002 A 
ATOM     13  C   UNL A   1      27.984  27.728  23.493  1.00  0.00     0.016 A 
ATOM     14  S   UNL A   1      30.332  28.605  22.976  1.00  0.00    -0.138 S 
ATOM     15  C   UNL A   1      28.889  26.700  23.885  1.00  0.00     0.024 A 
ENDBRANCH   8  10
ENDBRANCH   7   8
ENDBRANCH   6   7
ENDBRANCH   5   6
ENDBRANCH   3   5
ENDBRANCH   2   3
ENDBRANCH   1   2
BRANCH   1  16
ATOM     16  C   UNL A   1      34.864  31.733  28.298  1.00  0.00     0.275 C 
BRANCH  16  17
ATOM     17  O   UNL A   1      35.507  30.513  28.699  1.00  0.00    -0.458 OA
BRANCH  17  18
ATOM     18  C   UNL A   1      36.373  30.646  29.731  1.00  0.00     0.338 C 
ATOM     19  O   UNL A   1      36.130  31.056  30.853  1.00  0.00    -0.246 OA
BRANCH  18  20
ATOM     20  C   UNL A   1      37.655  30.041  29.358  1.00  0.00     0.060 A 
ATOM     21  C   UNL A   1      38.546  29.735  30.387  1.00  0.00     0.016 A 
ATOM     22  C   UNL A   1      38.010  29.845  28.025  1.00  0.00     0.016 A 
ATOM     23  C   UNL A   1      39.814  29.256  30.099  1.00  0.00     0.010 A 
ATOM     24  C   UNL A   1      39.284  29.351  27.733  1.00  0.00     0.010 A 
ATOM     25  C   UNL A   1      40.194  29.072  28.768  1.00  0.00    -0.014 A 
BRANCH  25  26
ATOM     26  C   UNL A   1      41.583  28.664  28.468  1.00  0.00     0.031 A 
ATOM     27  C   UNL A   1      42.669  29.696  28.508  1.00  0.00     0.074 A 
ATOM     28  C   UNL A   1      41.859  27.374  28.205  1.00  0.00     0.049 A 
ATOM     29  N   UNL A   1      43.920  29.593  28.147  1.00  0.00    -0.248 NA
ATOM     30  C   UNL A   1      42.295  31.026  29.016  1.00  0.00     0.031 C 
ATOM     31  C   UNL A   1      40.885  26.281  28.221  1.00  0.00     0.029 A 
ATOM     32  N   UNL A   1      43.040  26.765  27.873  1.00  0.00    -0.354 N 
ATOM     33  C   UNL A   1      44.475  30.850  28.350  1.00  0.00     0.074 A 
ATOM     34  C   UNL A   1      43.424  31.702  28.861  1.00  0.00     0.031 C 
ATOM     35  C   UNL A   1      41.509  25.134  27.908  1.00  0.00     0.029 A 
ATOM     36  C   UNL A   1      42.908  25.422  27.612  1.00  0.00     0.049 A 
ATOM     37  H   UNL A   1      43.900  27.242  27.824  1.00  0.00     0.167 HD
ATOM     38  C   UNL A   1      45.748  31.251  28.123  1.00  0.00     0.037 A 
ATOM     39  C   UNL A   1      43.809  24.537  27.146  1.00  0.00     0.037 A 
ATOM     40  C   UNL A   1      46.782  30.376  27.635  1.00  0.00     0.049 A 
ATOM     41  C   UNL A   1      45.204  25.017  26.849  1.00  0.00     0.074 A 
ATOM     42  C   UNL A   1      48.105  30.671  27.360  1.00  0.00     0.029 A 
ATOM     43  N   UNL A   1      46.607  29.026  27.357  1.00  0.00    -0.354 N 
ATOM     44  N   UNL A   1      45.708  26.220  26.997  1.00  0.00    -0.248 NA
ATOM     45  C   UNL A   1      46.147  24.028  26.312  1.00  0.00     0.031 C 
ATOM     46  C   UNL A   1      48.720  29.509  26.884  1.00  0.00     0.029 A 
ATOM     47  C   UNL A   1      47.792  28.478  26.901  1.00  0.00     0.049 A 
ATOM     48  H   UNL A   1      45.762  28.532  27.469  1.00  0.00     0.167 HD
ATOM     49  C   UNL A   1      47.032  26.131  26.582  1.00  0.00     0.074 A 
ATOM     50  C   UNL A   1      47.252  24.751  26.193  1.00  0.00     0.031 C 
ATOM     51  C   UNL A   1      47.979  27.099  26.525  1.00  0.00     0.037 A 
BRANCH  38  52
ATOM     52  C   UNL A   1      46.072  32.699  28.355  1.00  0.00     0.058 A 
ATOM     53  C   UNL A   1      45.972  33.656  27.334  1.00  0.00     0.135 A 
ATOM     54  C   UNL A   1      46.487  33.135  29.624  1.00  0.00     0.135 A 
ATOM     55  F   UNL A   1      45.604  33.289  26.096  1.00  0.00    -0.206 F 
ATOM     56  C   UNL A   1      46.295  34.992  27.557  1.00  0.00     0.059 A 
ATOM     57  C   UNL A   1      46.792  34.469  29.875  1.00  0.00     0.059 A 
ATOM     58  F   UNL A   1      46.608  32.259  30.634  1.00  0.00    -0.206 F 
ATOM     59  C   UNL A   1      46.708  35.389  28.830  1.00  0.00     0.060 A 
BRANCH  59  60
ATOM     60  S   UNL A   1      47.131  37.123  29.104  1.00  0.00     0.124 S 
ATOM     61  O   UNL A   1      46.589  37.346  30.440  1.00  0.00    -0.237 OA
ATOM     62  O   UNL A   1      48.587  37.110  29.006  1.00  0.00    -0.237 OA
ATOM     63  O   UNL A   1      46.439  37.816  28.022  1.00  0.00    -0.744 OA
ENDBRANCH  59  60
ENDBRANCH  38  52
BRANCH  39  64
ATOM     64  C   UNL A   1      43.405  23.129  26.894  1.00  0.00     0.058 A 
ATOM     65  C   UNL A   1      43.270  22.635  25.589  1.00  0.00     0.135 A 
ATOM     66  C   UNL A   1      43.170  22.240  27.956  1.00  0.00     0.135 A 
ATOM     67  F   UNL A   1      43.476  23.447  24.540  1.00  0.00    -0.206 F 
ATOM     68  C   UNL A   1      42.908  21.314  25.343  1.00  0.00     0.059 A 
ATOM     69  C   UNL A   1      42.832  20.910  27.736  1.00  0.00     0.059 A 
ATOM     70  F   UNL A   1      43.298  22.661  29.225  1.00  0.00    -0.206 F 
ATOM     71  C   UNL A   1      42.695  20.457  26.425  1.00  0.00     0.060 A 
BRANCH  71  72
ATOM     72  S   UNL A   1      42.282  18.729  26.099  1.00  0.00     0.124 S 
ATOM     73  O   UNL A   1      40.870  18.827  25.749  1.00  0.00    -0.237 OA
ATOM     74  O   UNL A   1      43.190  18.395  25.006  1.00  0.00    -0.237 OA
ATOM     75  O   UNL A   1      42.575  18.071  27.369  1.00  0.00    -0.744 OA
ENDBRANCH  71  72
ENDBRANCH  39  64
BRANCH  51  76
ATOM     76  C   UNL A   1      49.343  26.690  26.049  1.00  0.00     0.058 A 
ATOM     77  C   UNL A   1      49.768  26.944  24.736  1.00  0.00     0.135 A 
ATOM     78  C   UNL A   1      50.250  26.083  26.931  1.00  0.00     0.135 A 
ATOM     79  F   UNL A   1      48.934  27.516  23.854  1.00  0.00    -0.206 F 
ATOM     80  C   UNL A   1      51.043  26.591  24.307  1.00  0.00     0.059 A 
ATOM     81  C   UNL A   1      51.537  25.742  26.531  1.00  0.00     0.059 A 
ATOM     82  F   UNL A   1      49.892  25.829  28.200  1.00  0.00    -0.206 F 
ATOM     83  C   UNL A   1      51.920  25.990  25.213  1.00  0.00     0.060 A 
BRANCH  83  84
ATOM     84  S   UNL A   1      53.584  25.566  24.655  1.00  0.00     0.124 S 
ATOM     85  O   UNL A   1      53.735  24.215  25.187  1.00  0.00    -0.237 OA
ATOM     86  O   UNL A   1      53.465  25.666  23.204  1.00  0.00    -0.237 OA
ATOM     87  O   UNL A   1      54.420  26.586  25.280  1.00  0.00    -0.744 OA
ENDBRANCH  83  84
ENDBRANCH  51  76
ENDBRANCH  25  26
ENDBRANCH  18  20
ENDBRANCH  17  18
ENDBRANCH  16  17
ENDBRANCH   1  16
TORSDOF 18
ENDMDL
MODEL 3
REMARK VINA RESULT:     -10.0      6.741     11.260
REMARK SMILES Cc1ccc(C(=O)CCCC(=O)OCCOC(=O)c2ccc(-c3c4nc(c(-c5c(F)cc(S(=O)(=O)[O-])cc5F)c5ccc([nH]5)c(-c5c(F)cc(S(=O)(=O)[O-])cc5F)c5nc(c(-c6c(F)cc(S(=O)(=O)[O-])cc6F)c6ccc3[nH]6)C=C5)C=C4)cc2)s1
REMARK SMILES IDX 14 1 13 2 11 3 12 4 10 5 9 6 8 7 6 8 7 9 5 10 1 11 2 12 3 13
REMARK SMILES IDX 85 14 4 15 15 16 16 17 17 18 18 19 19 20 20 21 84 22 21 23
REMARK SMILES IDX 83 24 22 25 23 26 24 27 77 28 25 29 82 30 76 31 78 32 26 33
REMARK SMILES IDX 81 34 75 35 74 36 27 38 61 39 40 40 60 41 41 42 44 43 59 44
REMARK SMILES IDX 79 45 42 46 43 47 58 49 80 50 45 51 28 52 29 53 38 54 30 55
REMARK SMILES IDX 31 56 37 57 39 58 32 59 33 60 34 61 35 62 36 63 62 64 63 65
REMARK SMILES IDX 72 66 64 67 65 68 71 69 73 70 66 71 67 72 68 73 69 74 70 75
REMARK SMILES IDX 46 76 47 77 56 78 48 79 49 80 55 81 57 82 50 83 51 84 52 85
REMARK SMILES IDX 53 86 54 87
REMARK H PARENT 78 37 44 48
REMARK Flexibility Score: inf
ROOT
ATOM      1  C   UNL A   1      39.258  21.368  26.115  1.00  0.00     0.274 C 
ENDROOT
BRANCH   1   2
ATOM      2  O   UNL A   1      38.140  21.805  25.315  1.00  0.00    -0.462 OA
BRANCH   2   3
ATOM      3  C   UNL A   1      37.446  22.883  25.761  1.00  0.00     0.305 C 
ATOM      4  O   UNL A   1      37.943  23.825  26.365  1.00  0.00    -0.252 OA
BRANCH   3   5
ATOM      5  C   UNL A   1      35.962  22.815  25.451  1.00  0.00     0.123 C 
BRANCH   5   6
ATOM      6  C   UNL A   1      35.493  21.772  24.437  1.00  0.00     0.020 C 
BRANCH   6   7
ATOM      7  C   UNL A   1      35.136  20.391  24.992  1.00  0.00     0.082 C 
BRANCH   7   8
ATOM      8  C   UNL A   1      33.766  19.894  24.546  1.00  0.00     0.172 C 
ATOM      9  O   UNL A   1      32.862  20.714  24.370  1.00  0.00    -0.293 OA
BRANCH   8  10
ATOM     10  C   UNL A   1      33.592  18.452  24.402  1.00  0.00     0.070 A 
ATOM     11  C   UNL A   1      32.684  14.815  25.576  1.00  0.00     0.056 C 
ATOM     12  C   UNL A   1      33.121  16.079  24.919  1.00  0.00     0.002 A 
ATOM     13  C   UNL A   1      33.856  16.222  23.763  1.00  0.00     0.016 A 
ATOM     14  S   UNL A   1      32.705  17.594  25.591  1.00  0.00    -0.138 S 
ATOM     15  C   UNL A   1      34.083  17.590  23.438  1.00  0.00     0.024 A 
ENDBRANCH   8  10
ENDBRANCH   7   8
ENDBRANCH   6   7
ENDBRANCH   5   6
ENDBRANCH   3   5
ENDBRANCH   2   3
ENDBRANCH   1   2
BRANCH   1  16
ATOM     16  C   UNL A   1      39.709  19.960  25.722  1.00  0.00     0.275 C 
BRANCH  16  17
ATOM     17  O   UNL A   1      40.838  19.541  26.505  1.00  0.00    -0.458 OA
BRANCH  17  18
ATOM     18  C   UNL A   1      42.041  19.831  25.958  1.00  0.00     0.338 C 
ATOM     19  O   UNL A   1      42.657  19.179  25.133  1.00  0.00    -0.246 OA
BRANCH  18  20
ATOM     20  C   UNL A   1      42.442  21.178  26.379  1.00  0.00     0.060 A 
ATOM     21  C   UNL A   1      42.692  22.116  25.378  1.00  0.00     0.016 A 
ATOM     22  C   UNL A   1      42.643  21.495  27.721  1.00  0.00     0.016 A 
ATOM     23  C   UNL A   1      43.172  23.376  25.701  1.00  0.00     0.010 A 
ATOM     24  C   UNL A   1      43.115  22.768  28.049  1.00  0.00     0.010 A 
ATOM     25  C   UNL A   1      43.397  23.705  27.039  1.00  0.00    -0.014 A 
BRANCH  25  26
ATOM     26  C   UNL A   1      44.010  25.010  27.365  1.00  0.00     0.031 A 
ATOM     27  C   UNL A   1      43.142  26.106  27.906  1.00  0.00     0.074 A 
ATOM     28  C   UNL A   1      45.334  25.184  27.211  1.00  0.00     0.049 A 
ATOM     29  N   UNL A   1      43.436  27.360  28.126  1.00  0.00    -0.248 NA
ATOM     30  C   UNL A   1      41.755  25.744  28.239  1.00  0.00     0.031 C 
ATOM     31  C   UNL A   1      46.276  24.154  26.767  1.00  0.00     0.029 A 
ATOM     32  N   UNL A   1      46.118  26.290  27.411  1.00  0.00    -0.354 N 
ATOM     33  C   UNL A   1      42.264  27.945  28.588  1.00  0.00     0.074 A 
ATOM     34  C   UNL A   1      41.253  26.911  28.613  1.00  0.00     0.031 C 
ATOM     35  C   UNL A   1      47.511  24.679  26.725  1.00  0.00     0.029 A 
ATOM     36  C   UNL A   1      47.436  26.093  27.079  1.00  0.00     0.049 A 
ATOM     37  H   UNL A   1      45.770  27.144  27.758  1.00  0.00     0.167 HD
ATOM     38  C   UNL A   1      42.058  29.232  28.953  1.00  0.00     0.037 A 
ATOM     39  C   UNL A   1      48.458  26.969  27.028  1.00  0.00     0.037 A 
ATOM     40  C   UNL A   1      43.089  30.238  28.941  1.00  0.00     0.049 A 
ATOM     41  C   UNL A   1      48.193  28.406  27.386  1.00  0.00     0.074 A 
ATOM     42  C   UNL A   1      42.995  31.574  29.281  1.00  0.00     0.029 A 
ATOM     43  N   UNL A   1      44.409  30.008  28.575  1.00  0.00    -0.354 N 
ATOM     44  N   UNL A   1      47.069  28.963  27.775  1.00  0.00    -0.248 NA
ATOM     45  C   UNL A   1      49.326  29.335  27.286  1.00  0.00     0.031 C 
ATOM     46  C   UNL A   1      44.251  32.161  29.088  1.00  0.00     0.029 A 
ATOM     47  C   UNL A   1      45.137  31.181  28.667  1.00  0.00     0.049 A 
ATOM     48  H   UNL A   1      44.773  29.138  28.291  1.00  0.00     0.167 HD
ATOM     49  C   UNL A   1      47.362  30.306  27.978  1.00  0.00     0.074 A 
ATOM     50  C   UNL A   1      48.772  30.473  27.684  1.00  0.00     0.031 C 
ATOM     51  C   UNL A   1      46.542  31.312  28.369  1.00  0.00     0.037 A 
BRANCH  38  52
ATOM     52  C   UNL A   1      40.663  29.628  29.346  1.00  0.00     0.058 A 
ATOM     53  C   UNL A   1      39.633  29.759  28.403  1.00  0.00     0.135 A 
ATOM     54  C   UNL A   1      40.353  29.876  30.694  1.00  0.00     0.135 A 
ATOM     55  F   UNL A   1      39.881  29.557  27.099  1.00  0.00    -0.206 F 
ATOM     56  C   UNL A   1      38.349  30.146  28.777  1.00  0.00     0.059 A 
ATOM     57  C   UNL A   1      39.071  30.241  31.094  1.00  0.00     0.059 A 
ATOM     58  F   UNL A   1      41.303  29.773  31.637  1.00  0.00    -0.206 F 
ATOM     59  C   UNL A   1      38.079  30.389  30.125  1.00  0.00     0.060 A 
BRANCH  59  60
ATOM     60  S   UNL A   1      36.412  30.897  30.598  1.00  0.00     0.124 S 
ATOM     61  O   UNL A   1      35.690  30.732  29.341  1.00  0.00    -0.237 OA
ATOM     62  O   UNL A   1      36.079  29.942  31.649  1.00  0.00    -0.237 OA
ATOM     63  O   UNL A   1      36.591  32.276  31.042  1.00  0.00    -0.744 OA
ENDBRANCH  59  60
ENDBRANCH  38  52
BRANCH  39  64
ATOM     64  C   UNL A   1      49.802  26.517  26.583  1.00  0.00     0.058 A 
ATOM     65  C   UNL A   1      50.181  26.585  25.235  1.00  0.00     0.135 A 
ATOM     66  C   UNL A   1      50.745  26.031  27.503  1.00  0.00     0.135 A 
ATOM     67  F   UNL A   1      49.313  27.034  24.317  1.00  0.00    -0.206 F 
ATOM     68  C   UNL A   1      51.444  26.180  24.811  1.00  0.00     0.059 A 
ATOM     69  C   UNL A   1      52.021  25.644  27.108  1.00  0.00     0.059 A 
ATOM     70  F   UNL A   1      50.436  25.957  28.808  1.00  0.00    -0.206 F 
ATOM     71  C   UNL A   1      52.359  25.713  25.758  1.00  0.00     0.060 A 
BRANCH  71  72
ATOM     72  S   UNL A   1      54.015  25.244  25.210  1.00  0.00     0.124 S 
ATOM     73  O   UNL A   1      53.973  23.794  25.362  1.00  0.00    -0.237 OA
ATOM     74  O   UNL A   1      54.039  25.742  23.838  1.00  0.00    -0.237 OA
ATOM     75  O   UNL A   1      54.888  25.952  26.141  1.00  0.00    -0.744 OA
ENDBRANCH  71  72
ENDBRANCH  39  64
BRANCH  51  76
ATOM     76  C   UNL A   1      47.158  32.672  28.526  1.00  0.00     0.058 A 
ATOM     77  C   UNL A   1      47.133  33.613  27.485  1.00  0.00     0.135 A 
ATOM     78  C   UNL A   1      47.735  33.053  29.748  1.00  0.00     0.135 A 
ATOM     79  F   UNL A   1      46.598  33.292  26.297  1.00  0.00    -0.206 F 
ATOM     80  C   UNL A   1      47.678  34.882  27.644  1.00  0.00     0.059 A 
ATOM     81  C   UNL A   1      48.265  34.325  29.936  1.00  0.00     0.059 A 
ATOM     82  F   UNL A   1      47.773  32.191  30.775  1.00  0.00    -0.206 F 
ATOM     83  C   UNL A   1      48.243  35.228  28.874  1.00  0.00     0.060 A 
BRANCH  83  84
ATOM     84  S   UNL A   1      48.918  36.889  29.080  1.00  0.00     0.124 S 
ATOM     85  O   UNL A   1      49.244  36.898  30.503  1.00  0.00    -0.237 OA
ATOM     86  O   UNL A   1      50.058  36.882  28.169  1.00  0.00    -0.237 OA
ATOM     87  O   UNL A   1      47.812  37.756  28.682  1.00  0.00    -0.744 OA
ENDBRANCH  83  84
ENDBRANCH  51  76
ENDBRANCH  25  26
ENDBRANCH  18  20
ENDBRANCH  17  18
ENDBRANCH  16  17
ENDBRANCH   1  16
TORSDOF 18
ENDMDL
