MODEL 1
REMARK VINA RESULT:      -9.3      0.000      0.000
REMARK SMILES Cc1ccc(S(=O)(=O)n2cc(C(=O)C(=O)NCC(=O)N[C@H](Cc3c[nH]c4ccccc34)C(=O)OCCOC(=O)c3ccc(-c4c5nc(c(-c6c(F)cc(S(=O)(=O)[O-])cc6F)c6ccc([nH]6)c(-c6c(F)cc(S(=O)(=O)[O-])cc6F)c6nc(c(-c7c(F)cc(S(=O)(=O)[O-])cc7F)c7ccc4[nH]7)C=C6)C=C5)cc3)c3ccccc32)cc1
REMARK SMILES IDX 32 1 33 2 21 3 20 4 18 5 19 6 17 8 16 9 14 10 15 11 12 13
REMARK SMILES IDX 13 14 11 15 9 16 10 17 111 18 106 19 110 20 107 21 109 22
REMARK SMILES IDX 108 23 6 24 7 25 8 26 5 27 1 28 2 29 3 30 113 31 4 32 112 33
REMARK SMILES IDX 22 34 23 35 24 36 31 37 25 38 26 39 30 40 27 42 29 43 28 44
REMARK SMILES IDX 34 45 35 46 36 47 37 48 38 49 39 50 40 51 41 52 105 53 42 54
REMARK SMILES IDX 104 55 43 56 44 57 45 58 98 59 46 60 103 61 97 62 99 63
REMARK SMILES IDX 47 64 102 65 96 66 95 67 48 69 82 70 61 71 81 72 62 73 65 74
REMARK SMILES IDX 80 75 100 76 63 77 64 78 79 80 101 81 66 82 49 83 50 84
REMARK SMILES IDX 59 85 51 86 52 87 58 88 60 89 53 90 54 91 55 92 56 93 57 94
REMARK SMILES IDX 83 95 84 96 93 97 85 98 86 99 92 100 94 101 87 102 88 103
REMARK SMILES IDX 89 104 90 105 91 106 67 107 68 108 77 109 69 110 70 111
REMARK SMILES IDX 76 112 78 113 71 114 72 115 73 116 74 117 75 118
REMARK H PARENT 20 7 16 12 25 41 99 68 65 79
REMARK Flexibility Score: inf
ROOT
ATOM      1  C   UNL A   1      41.030  28.380  29.821  1.00  0.00     0.329 C 
ATOM      2  O   UNL A   1      41.365  27.325  29.218  1.00  0.00    -0.250 OA
ENDROOT
BRANCH   1   3
ATOM      3  C   UNL A   1      42.097  29.642  31.281  1.00  0.00     0.196 C 
BRANCH   3   4
ATOM      4  N   UNL A   1      43.824  29.815  31.516  1.00  0.00    -0.341 N 
ATOM      5  C   UNL A   1      45.050  29.707  30.949  1.00  0.00     0.240 C 
ATOM      6  O   UNL A   1      45.914  30.252  31.672  1.00  0.00    -0.273 OA
ATOM      7  H   UNL A   1      43.961  30.113  32.444  1.00  0.00     0.164 HD
BRANCH   5   8
ATOM      8  C   UNL A   1      45.578  29.182  29.555  1.00  0.00     0.216 C 
BRANCH   8   9
ATOM      9  N   UNL A   1      45.764  29.759  28.208  1.00  0.00    -0.340 N 
ATOM     10  C   UNL A   1      46.015  29.152  26.972  1.00  0.00     0.292 C 
ATOM     11  O   UNL A   1      45.743  29.692  25.904  1.00  0.00    -0.265 OA
ATOM     12  H   UNL A   1      45.699  30.741  28.173  1.00  0.00     0.164 HD
BRANCH  10  13
ATOM     13  C   UNL A   1      46.606  27.770  26.924  1.00  0.00     0.252 C 
ATOM     14  O   UNL A   1      47.734  27.713  27.428  1.00  0.00    -0.283 OA
BRANCH  13  15
ATOM     15  C   UNL A   1      46.028  26.522  26.376  1.00  0.00     0.054 A 
ATOM     16  N   UNL A   1      45.749  24.439  25.512  1.00  0.00    -0.240 N 
ATOM     17  C   UNL A   1      45.903  25.810  25.171  1.00  0.00     0.117 A 
ATOM     18  C   UNL A   1      45.572  24.420  26.923  1.00  0.00     0.065 A 
ATOM     19  C   UNL A   1      45.292  25.723  27.277  1.00  0.00     0.012 A 
ATOM     20  C   UNL A   1      45.327  23.372  27.831  1.00  0.00     0.028 A 
ATOM     21  C   UNL A   1      44.557  25.993  28.446  1.00  0.00     0.011 A 
ATOM     22  C   UNL A   1      44.514  23.643  28.932  1.00  0.00     0.002 A 
ATOM     23  C   UNL A   1      44.091  24.933  29.213  1.00  0.00     0.001 A 
BRANCH  16  24
ATOM     24  S   UNL A   1      44.795  23.171  24.806  1.00  0.00     0.268 S 
ATOM     25  O   UNL A   1      45.335  23.213  23.445  1.00  0.00    -0.201 OA
ATOM     26  O   UNL A   1      43.451  23.687  25.069  1.00  0.00    -0.201 OA
BRANCH  24  27
ATOM     27  C   UNL A   1      44.401  21.463  24.940  1.00  0.00     0.088 A 
ATOM     28  C   UNL A   1      42.825  17.766  26.611  1.00  0.00     0.044 C 
ATOM     29  C   UNL A   1      43.377  19.007  25.974  1.00  0.00    -0.051 A 
ATOM     30  C   UNL A   1      42.645  20.170  26.130  1.00  0.00     0.005 A 
ATOM     31  C   UNL A   1      44.609  19.077  25.287  1.00  0.00     0.005 A 
ATOM     32  C   UNL A   1      43.146  21.351  25.614  1.00  0.00     0.022 A 
ATOM     33  C   UNL A   1      45.139  20.305  24.786  1.00  0.00     0.022 A 
ENDBRANCH  24  27
ENDBRANCH  16  24
ENDBRANCH  13  15
ENDBRANCH  10  13
ENDBRANCH   8   9
ENDBRANCH   5   8
ENDBRANCH   3   4
BRANCH   3  34
ATOM     34  C   UNL A   1      41.719  30.262  32.949  1.00  0.00     0.074 C 
BRANCH  34  35
ATOM     35  C   UNL A   1      41.340  29.409  34.154  1.00  0.00    -0.020 A 
ATOM     36  C   UNL A   1      40.585  29.762  35.261  1.00  0.00     0.087 A 
ATOM     37  C   UNL A   1      41.903  28.114  34.448  1.00  0.00     0.003 A 
ATOM     38  N   UNL A   1      40.926  28.904  36.284  1.00  0.00    -0.361 N 
ATOM     39  C   UNL A   1      41.794  27.937  35.828  1.00  0.00     0.046 A 
ATOM     40  C   UNL A   1      42.671  27.192  33.710  1.00  0.00     0.010 A 
ATOM     41  H   UNL A   1      40.597  28.974  37.209  1.00  0.00     0.166 HD
ATOM     42  C   UNL A   1      42.541  26.974  36.521  1.00  0.00     0.026 A 
ATOM     43  C   UNL A   1      43.370  26.182  34.381  1.00  0.00     0.001 A 
ATOM     44  C   UNL A   1      43.339  26.105  35.770  1.00  0.00     0.002 A 
ENDBRANCH  34  35
ENDBRANCH   3  34
ENDBRANCH   1   3
BRANCH   1  45
ATOM     45  O   UNL A   1      39.633  28.549  29.451  1.00  0.00    -0.461 OA
BRANCH  45  46
ATOM     46  C   UNL A   1      39.386  29.377  28.302  1.00  0.00     0.274 C 
BRANCH  46  47
ATOM     47  C   UNL A   1      37.871  29.466  28.088  1.00  0.00     0.275 C 
BRANCH  47  48
ATOM     48  O   UNL A   1      37.346  30.797  27.821  1.00  0.00    -0.458 OA
BRANCH  48  49
ATOM     49  C   UNL A   1      36.309  31.355  28.500  1.00  0.00     0.338 C 
ATOM     50  O   UNL A   1      35.141  31.308  28.154  1.00  0.00    -0.246 OA
BRANCH  49  51
ATOM     51  C   UNL A   1      36.743  32.259  29.581  1.00  0.00     0.060 A 
ATOM     52  C   UNL A   1      37.383  33.852  29.112  1.00  0.00     0.016 A 
ATOM     53  C   UNL A   1      37.334  31.456  31.053  1.00  0.00     0.016 A 
ATOM     54  C   UNL A   1      38.720  34.591  30.103  1.00  0.00     0.010 A 
ATOM     55  C   UNL A   1      38.622  32.184  32.059  1.00  0.00     0.010 A 
ATOM     56  C   UNL A   1      39.402  33.696  31.515  1.00  0.00    -0.014 A 
BRANCH  56  57
ATOM     57  C   UNL A   1      40.724  33.827  32.081  1.00  0.00     0.031 A 
ATOM     58  C   UNL A   1      41.872  33.416  31.239  1.00  0.00     0.074 A 
ATOM     59  C   UNL A   1      40.866  34.597  33.184  1.00  0.00     0.049 A 
ATOM     60  N   UNL A   1      43.060  33.236  31.690  1.00  0.00    -0.248 NA
ATOM     61  C   UNL A   1      41.784  33.090  29.813  1.00  0.00     0.031 C 
ATOM     62  C   UNL A   1      42.071  35.291  33.613  1.00  0.00     0.029 A 
ATOM     63  N   UNL A   1      39.969  34.913  34.192  1.00  0.00    -0.354 N 
ATOM     64  C   UNL A   1      43.907  33.138  30.604  1.00  0.00     0.074 A 
ATOM     65  C   UNL A   1      43.053  32.840  29.499  1.00  0.00     0.031 C 
ATOM     66  C   UNL A   1      41.919  35.714  34.881  1.00  0.00     0.029 A 
ATOM     67  C   UNL A   1      40.650  35.212  35.380  1.00  0.00     0.049 A 
ATOM     68  H   UNL A   1      38.991  34.927  34.088  1.00  0.00     0.167 HD
ATOM     69  C   UNL A   1      45.207  33.513  30.759  1.00  0.00     0.037 A 
ATOM     70  C   UNL A   1      40.552  34.414  36.493  1.00  0.00     0.037 A 
ATOM     71  C   UNL A   1      45.454  33.763  32.180  1.00  0.00     0.049 A 
ATOM     72  C   UNL A   1      41.778  33.517  36.673  1.00  0.00     0.074 A 
ATOM     73  C   UNL A   1      45.547  34.919  32.936  1.00  0.00     0.029 A 
ATOM     74  N   UNL A   1      45.247  32.721  33.077  1.00  0.00    -0.354 N 
ATOM     75  N   UNL A   1      42.705  33.372  35.762  1.00  0.00    -0.248 NA
ATOM     76  C   UNL A   1      42.089  32.750  37.878  1.00  0.00     0.031 C 
ATOM     77  C   UNL A   1      45.289  34.569  34.291  1.00  0.00     0.029 A 
ATOM     78  C   UNL A   1      45.072  33.201  34.359  1.00  0.00     0.049 A 
ATOM     79  H   UNL A   1      45.227  31.768  32.830  1.00  0.00     0.167 HD
ATOM     80  C   UNL A   1      43.709  32.557  36.215  1.00  0.00     0.074 A 
ATOM     81  C   UNL A   1      43.272  32.191  37.550  1.00  0.00     0.031 C 
ATOM     82  C   UNL A   1      44.820  32.277  35.461  1.00  0.00     0.037 A 
BRANCH  69  83
ATOM     83  C   UNL A   1      46.185  33.889  29.655  1.00  0.00     0.058 A 
ATOM     84  C   UNL A   1      45.955  35.059  28.896  1.00  0.00     0.135 A 
ATOM     85  C   UNL A   1      47.309  33.145  29.228  1.00  0.00     0.135 A 
ATOM     86  F   UNL A   1      44.938  35.886  29.179  1.00  0.00    -0.206 F 
ATOM     87  C   UNL A   1      46.738  35.434  27.801  1.00  0.00     0.059 A 
ATOM     88  C   UNL A   1      48.114  33.505  28.144  1.00  0.00     0.059 A 
ATOM     89  F   UNL A   1      47.698  32.013  29.817  1.00  0.00    -0.206 F 
ATOM     90  C   UNL A   1      47.817  34.648  27.427  1.00  0.00     0.060 A 
BRANCH  90  91
ATOM     91  S   UNL A   1      48.817  35.135  26.013  1.00  0.00     0.124 S 
ATOM     92  O   UNL A   1      48.030  34.623  24.896  1.00  0.00    -0.237 OA
ATOM     93  O   UNL A   1      48.858  36.586  26.154  1.00  0.00    -0.237 OA
ATOM     94  O   UNL A   1      50.088  34.451  26.242  1.00  0.00    -0.744 OA
ENDBRANCH  90  91
ENDBRANCH  69  83
BRANCH  70  95
ATOM     95  C   UNL A   1      39.137  34.092  36.856  1.00  0.00     0.058 A 
ATOM     96  C   UNL A   1      38.604  32.863  36.433  1.00  0.00     0.135 A 
ATOM     97  C   UNL A   1      38.655  34.597  38.061  1.00  0.00     0.135 A 
ATOM     98  F   UNL A   1      38.918  32.381  35.221  1.00  0.00    -0.206 F 
ATOM     99  C   UNL A   1      37.874  32.045  37.296  1.00  0.00     0.059 A 
ATOM    100  C   UNL A   1      37.937  33.785  38.948  1.00  0.00     0.059 A 
ATOM    101  F   UNL A   1      39.144  35.769  38.489  1.00  0.00    -0.206 F 
ATOM    102  C   UNL A   1      37.650  32.474  38.597  1.00  0.00     0.060 A 
BRANCH 102 103
ATOM    103  S   UNL A   1      37.149  31.243  39.825  1.00  0.00     0.124 S 
ATOM    104  O   UNL A   1      35.961  31.876  40.384  1.00  0.00    -0.237 OA
ATOM    105  O   UNL A   1      36.919  30.054  39.015  1.00  0.00    -0.237 OA
ATOM    106  O   UNL A   1      38.262  31.166  40.764  1.00  0.00    -0.744 OA
ENDBRANCH 102 103
ENDBRANCH  70  95
BRANCH  82 107
ATOM    107  C   UNL A   1      45.851  31.194  35.732  1.00  0.00     0.058 A 
ATOM    108  C   UNL A   1      46.981  31.359  36.548  1.00  0.00     0.135 A 
ATOM    109  C   UNL A   1      45.653  29.870  35.248  1.00  0.00     0.135 A 
ATOM    110  F   UNL A   1      47.214  32.505  37.201  1.00  0.00    -0.206 F 
ATOM    111  C   UNL A   1      47.906  30.333  36.761  1.00  0.00     0.059 A 
ATOM    112  C   UNL A   1      46.513  28.814  35.522  1.00  0.00     0.059 A 
ATOM    113  F   UNL A   1      44.605  29.539  34.481  1.00  0.00    -0.206 F 
ATOM    114  C   UNL A   1      47.670  29.069  36.231  1.00  0.00     0.060 A 
BRANCH 114 115
ATOM    115  S   UNL A   1      48.883  27.762  36.459  1.00  0.00     0.124 S 
ATOM    116  O   UNL A   1      49.863  28.427  37.311  1.00  0.00    -0.237 OA
ATOM    117  O   UNL A   1      48.099  26.710  37.099  1.00  0.00    -0.237 OA
ATOM    118  O   UNL A   1      49.325  27.466  35.100  1.00  0.00    -0.744 OA
ENDBRANCH 114 115
ENDBRANCH  82 107
ENDBRANCH  56  57
ENDBRANCH  49  51
ENDBRANCH  48  49
ENDBRANCH  47  48
ENDBRANCH  46  47
ENDBRANCH  45  46
ENDBRANCH   1  45
TORSDOF 23
ENDMDL
MODEL 2
REMARK VINA RESULT:      -8.7      4.347     11.051
REMARK SMILES Cc1ccc(S(=O)(=O)n2cc(C(=O)C(=O)NCC(=O)N[C@H](Cc3c[nH]c4ccccc34)C(=O)OCCOC(=O)c3ccc(-c4c5nc(c(-c6c(F)cc(S(=O)(=O)[O-])cc6F)c6ccc([nH]6)c(-c6c(F)cc(S(=O)(=O)[O-])cc6F)c6nc(c(-c7c(F)cc(S(=O)(=O)[O-])cc7F)c7ccc4[nH]7)C=C6)C=C5)cc3)c3ccccc32)cc1
REMARK SMILES IDX 32 1 33 2 21 3 20 4 18 5 19 6 17 8 16 9 14 10 15 11 12 13
REMARK SMILES IDX 13 14 11 15 9 16 10 17 111 18 106 19 110 20 107 21 109 22
REMARK SMILES IDX 108 23 6 24 7 25 8 26 5 27 1 28 2 29 3 30 113 31 4 32 112 33
REMARK SMILES IDX 22 34 23 35 24 36 31 37 25 38 26 39 30 40 27 42 29 43 28 44
REMARK SMILES IDX 34 45 35 46 36 47 37 48 38 49 39 50 40 51 41 52 105 53 42 54
REMARK SMILES IDX 104 55 43 56 44 57 45 58 98 59 46 60 103 61 97 62 99 63
REMARK SMILES IDX 47 64 102 65 96 66 95 67 48 69 82 70 61 71 81 72 62 73 65 74
REMARK SMILES IDX 80 75 100 76 63 77 64 78 79 80 101 81 66 82 49 83 50 84
REMARK SMILES IDX 59 85 51 86 52 87 58 88 60 89 53 90 54 91 55 92 56 93 57 94
REMARK SMILES IDX 83 95 84 96 93 97 85 98 86 99 92 100 94 101 87 102 88 103
REMARK SMILES IDX 89 104 90 105 91 106 67 107 68 108 77 109 69 110 70 111
REMARK SMILES IDX 76 112 78 113 71 114 72 115 73 116 74 117 75 118
REMARK H PARENT 20 7 16 12 25 41 99 68 65 79
REMARK Flexibility Score: inf
ROOT
ATOM      1  C   UNL A   1      46.590  28.012  24.654  1.00  0.00     0.329 C 
ATOM      2  O   UNL A   1      46.448  29.238  24.913  1.00  0.00    -0.250 OA
ENDROOT
BRANCH   1   3
ATOM      3  C   UNL A   1      45.294  26.269  25.035  1.00  0.00     0.196 C 
BRANCH   3   4
ATOM      4  N   UNL A   1      43.545  26.191  25.040  1.00  0.00    -0.341 N 
ATOM      5  C   UNL A   1      42.417  26.354  25.772  1.00  0.00     0.240 C 
ATOM      6  O   UNL A   1      41.410  26.356  25.027  1.00  0.00    -0.273 OA
ATOM      7  H   UNL A   1      43.266  25.912  24.137  1.00  0.00     0.164 HD
BRANCH   5   8
ATOM      8  C   UNL A   1      42.124  26.669  27.293  1.00  0.00     0.216 C 
BRANCH   8   9
ATOM      9  N   UNL A   1      40.977  26.494  28.208  1.00  0.00    -0.340 N 
ATOM     10  C   UNL A   1      40.591  27.208  29.348  1.00  0.00     0.292 C 
ATOM     11  O   UNL A   1      39.435  27.220  29.760  1.00  0.00    -0.265 OA
ATOM     12  H   UNL A   1      40.380  25.747  27.974  1.00  0.00     0.164 HD
BRANCH  10  13
ATOM     13  C   UNL A   1      41.605  28.028  30.096  1.00  0.00     0.252 C 
ATOM     14  O   UNL A   1      42.523  27.345  30.566  1.00  0.00    -0.283 OA
BRANCH  13  15
ATOM     15  C   UNL A   1      41.643  29.490  30.325  1.00  0.00     0.054 A 
ATOM     16  N   UNL A   1      41.980  31.555  31.213  1.00  0.00    -0.240 N 
ATOM     17  C   UNL A   1      41.042  30.492  31.106  1.00  0.00     0.117 A 
ATOM     18  C   UNL A   1      43.023  31.228  30.305  1.00  0.00     0.065 A 
ATOM     19  C   UNL A   1      42.512  30.233  29.497  1.00  0.00     0.012 A 
ATOM     20  C   UNL A   1      44.198  31.908  29.930  1.00  0.00     0.028 A 
ATOM     21  C   UNL A   1      43.023  30.046  28.200  1.00  0.00     0.011 A 
ATOM     22  C   UNL A   1      44.630  31.781  28.610  1.00  0.00     0.002 A 
ATOM     23  C   UNL A   1      44.019  30.895  27.735  1.00  0.00     0.001 A 
BRANCH  16  24
ATOM     24  S   UNL A   1      41.776  33.279  31.243  1.00  0.00     0.268 S 
ATOM     25  O   UNL A   1      42.390  33.556  32.544  1.00  0.00    -0.201 OA
ATOM     26  O   UNL A   1      40.323  33.367  31.093  1.00  0.00    -0.201 OA
BRANCH  24  27
ATOM     27  C   UNL A   1      42.173  34.760  30.382  1.00  0.00     0.088 A 
ATOM     28  C   UNL A   1      42.715  37.517  27.058  1.00  0.00     0.044 C 
ATOM     29  C   UNL A   1      42.535  36.620  28.247  1.00  0.00    -0.051 A 
ATOM     30  C   UNL A   1      41.445  35.771  28.233  1.00  0.00     0.005 A 
ATOM     31  C   UNL A   1      43.430  36.545  29.338  1.00  0.00     0.005 A 
ATOM     32  C   UNL A   1      41.273  34.883  29.279  1.00  0.00     0.022 A 
ATOM     33  C   UNL A   1      43.267  35.602  30.399  1.00  0.00     0.022 A 
ENDBRANCH  24  27
ENDBRANCH  16  24
ENDBRANCH  13  15
ENDBRANCH  10  13
ENDBRANCH   8   9
ENDBRANCH   5   8
ENDBRANCH   3   4
BRANCH   3  34
ATOM     34  C   UNL A   1      45.453  24.755  26.030  1.00  0.00     0.074 C 
BRANCH  34  35
ATOM     35  C   UNL A   1      44.673  23.462  25.820  1.00  0.00    -0.020 A 
ATOM     36  C   UNL A   1      44.591  22.677  24.682  1.00  0.00     0.087 A 
ATOM     37  C   UNL A   1      43.692  22.941  26.741  1.00  0.00     0.003 A 
ATOM     38  N   UNL A   1      43.426  21.945  24.768  1.00  0.00    -0.361 N 
ATOM     39  C   UNL A   1      42.819  22.155  25.987  1.00  0.00     0.046 A 
ATOM     40  C   UNL A   1      43.351  23.235  28.076  1.00  0.00     0.010 A 
ATOM     41  H   UNL A   1      43.077  21.358  24.060  1.00  0.00     0.166 HD
ATOM     42  C   UNL A   1      41.553  21.779  26.458  1.00  0.00     0.026 A 
ATOM     43  C   UNL A   1      42.118  22.808  28.583  1.00  0.00     0.001 A 
ATOM     44  C   UNL A   1      41.216  22.130  27.769  1.00  0.00     0.002 A 
ENDBRANCH  34  35
ENDBRANCH   3  34
ENDBRANCH   1   3
BRANCH   1  45
ATOM     45  O   UNL A   1      47.948  27.934  24.138  1.00  0.00    -0.461 OA
BRANCH  45  46
ATOM     46  C   UNL A   1      48.685  26.753  24.495  1.00  0.00     0.274 C 
BRANCH  46  47
ATOM     47  C   UNL A   1      49.239  26.942  25.912  1.00  0.00     0.275 C 
BRANCH  47  48
ATOM     48  O   UNL A   1      49.522  25.719  26.650  1.00  0.00    -0.458 OA
BRANCH  48  49
ATOM     49  C   UNL A   1      48.790  25.284  27.709  1.00  0.00     0.338 C 
ATOM     50  O   UNL A   1      48.235  24.200  27.778  1.00  0.00    -0.246 OA
BRANCH  49  51
ATOM     51  C   UNL A   1      48.501  26.347  28.689  1.00  0.00     0.060 A 
ATOM     52  C   UNL A   1      49.584  26.485  30.094  1.00  0.00     0.016 A 
ATOM     53  C   UNL A   1      46.789  26.806  28.832  1.00  0.00     0.016 A 
ATOM     54  C   UNL A   1      48.889  27.001  31.696  1.00  0.00     0.010 A 
ATOM     55  C   UNL A   1      46.097  27.350  30.389  1.00  0.00     0.010 A 
ATOM     56  C   UNL A   1      47.121  27.330  31.852  1.00  0.00    -0.014 A 
BRANCH  56  57
ATOM     57  C   UNL A   1      46.313  27.237  33.045  1.00  0.00     0.031 A 
ATOM     58  C   UNL A   1      45.724  28.492  33.571  1.00  0.00     0.074 A 
ATOM     59  C   UNL A   1      45.878  26.013  33.421  1.00  0.00     0.049 A 
ATOM     60  N   UNL A   1      45.209  28.603  34.742  1.00  0.00    -0.248 NA
ATOM     61  C   UNL A   1      45.725  29.774  32.861  1.00  0.00     0.031 C 
ATOM     62  C   UNL A   1      44.691  25.714  34.209  1.00  0.00     0.029 A 
ATOM     63  N   UNL A   1      46.413  24.754  33.206  1.00  0.00    -0.354 N 
ATOM     64  C   UNL A   1      44.524  29.801  34.782  1.00  0.00     0.074 A 
ATOM     65  C   UNL A   1      45.051  30.562  33.695  1.00  0.00     0.031 C 
ATOM     66  C   UNL A   1      44.734  24.433  34.619  1.00  0.00     0.029 A 
ATOM     67  C   UNL A   1      46.012  23.869  34.215  1.00  0.00     0.049 A 
ATOM     68  H   UNL A   1      46.994  24.514  32.449  1.00  0.00     0.167 HD
ATOM     69  C   UNL A   1      43.460  29.911  35.625  1.00  0.00     0.037 A 
ATOM     70  C   UNL A   1      46.905  23.337  35.112  1.00  0.00     0.037 A 
ATOM     71  C   UNL A   1      43.415  28.722  36.478  1.00  0.00     0.049 A 
ATOM     72  C   UNL A   1      46.846  24.034  36.472  1.00  0.00     0.074 A 
ATOM     73  C   UNL A   1      42.648  27.571  36.458  1.00  0.00     0.029 A 
ATOM     74  N   UNL A   1      44.514  28.450  37.284  1.00  0.00    -0.354 N 
ATOM     75  N   UNL A   1      46.183  25.140  36.688  1.00  0.00    -0.248 NA
ATOM     76  C   UNL A   1      47.479  23.545  37.696  1.00  0.00     0.031 C 
ATOM     77  C   UNL A   1      43.357  26.569  37.179  1.00  0.00     0.029 A 
ATOM     78  C   UNL A   1      44.533  27.123  37.662  1.00  0.00     0.049 A 
ATOM     79  H   UNL A   1      45.190  29.115  37.550  1.00  0.00     0.167 HD
ATOM     80  C   UNL A   1      46.259  25.505  38.006  1.00  0.00     0.074 A 
ATOM     81  C   UNL A   1      47.088  24.470  38.597  1.00  0.00     0.031 C 
ATOM     82  C   UNL A   1      45.615  26.611  38.498  1.00  0.00     0.037 A 
BRANCH  69  83
ATOM     83  C   UNL A   1      42.333  30.932  35.541  1.00  0.00     0.058 A 
ATOM     84  C   UNL A   1      41.182  30.630  34.778  1.00  0.00     0.135 A 
ATOM     85  C   UNL A   1      42.322  32.230  36.101  1.00  0.00     0.135 A 
ATOM     86  F   UNL A   1      41.027  29.434  34.191  1.00  0.00    -0.206 F 
ATOM     87  C   UNL A   1      40.142  31.538  34.561  1.00  0.00     0.059 A 
ATOM     88  C   UNL A   1      41.288  33.151  35.909  1.00  0.00     0.059 A 
ATOM     89  F   UNL A   1      43.312  32.704  36.859  1.00  0.00    -0.206 F 
ATOM     90  C   UNL A   1      40.203  32.802  35.127  1.00  0.00     0.060 A 
BRANCH  90  91
ATOM     91  S   UNL A   1      38.862  33.965  34.839  1.00  0.00     0.124 S 
ATOM     92  O   UNL A   1      38.637  34.504  36.177  1.00  0.00    -0.237 OA
ATOM     93  O   UNL A   1      39.456  34.883  33.873  1.00  0.00    -0.237 OA
ATOM     94  O   UNL A   1      37.786  33.124  34.319  1.00  0.00    -0.744 OA
ENDBRANCH  90  91
ENDBRANCH  69  83
BRANCH  70  95
ATOM     95  C   UNL A   1      48.110  22.745  34.452  1.00  0.00     0.058 A 
ATOM     96  C   UNL A   1      49.351  23.373  34.648  1.00  0.00     0.135 A 
ATOM     97  C   UNL A   1      48.131  21.364  34.279  1.00  0.00     0.135 A 
ATOM     98  F   UNL A   1      49.424  24.711  34.686  1.00  0.00    -0.206 F 
ATOM     99  C   UNL A   1      50.500  22.643  34.958  1.00  0.00     0.059 A 
ATOM    100  C   UNL A   1      49.268  20.613  34.605  1.00  0.00     0.059 A 
ATOM    101  F   UNL A   1      46.961  20.738  34.089  1.00  0.00    -0.206 F 
ATOM    102  C   UNL A   1      50.411  21.260  35.051  1.00  0.00     0.060 A 
BRANCH 102 103
ATOM    103  S   UNL A   1      51.736  20.378  35.910  1.00  0.00     0.124 S 
ATOM    104  O   UNL A   1      51.949  19.251  35.011  1.00  0.00    -0.237 OA
ATOM    105  O   UNL A   1      52.805  21.368  35.959  1.00  0.00    -0.237 OA
ATOM    106  O   UNL A   1      51.167  19.994  37.197  1.00  0.00    -0.744 OA
ENDBRANCH 102 103
ENDBRANCH  70  95
BRANCH  82 107
ATOM    107  C   UNL A   1      45.838  27.264  39.851  1.00  0.00     0.058 A 
ATOM    108  C   UNL A   1      46.822  28.230  40.115  1.00  0.00     0.135 A 
ATOM    109  C   UNL A   1      44.951  27.006  40.934  1.00  0.00     0.135 A 
ATOM    110  F   UNL A   1      47.630  28.690  39.150  1.00  0.00    -0.206 F 
ATOM    111  C   UNL A   1      46.994  28.797  41.381  1.00  0.00     0.059 A 
ATOM    112  C   UNL A   1      45.049  27.625  42.174  1.00  0.00     0.059 A 
ATOM    113  F   UNL A   1      43.938  26.133  40.836  1.00  0.00    -0.206 F 
ATOM    114  C   UNL A   1      46.112  28.477  42.407  1.00  0.00     0.060 A 
BRANCH 114 115
ATOM    115  S   UNL A   1      46.360  29.164  44.049  1.00  0.00     0.124 S 
ATOM    116  O   UNL A   1      45.452  28.343  44.843  1.00  0.00    -0.237 OA
ATOM    117  O   UNL A   1      47.783  28.935  44.277  1.00  0.00    -0.237 OA
ATOM    118  O   UNL A   1      45.974  30.563  43.895  1.00  0.00    -0.744 OA
ENDBRANCH 114 115
ENDBRANCH  82 107
ENDBRANCH  56  57
ENDBRANCH  49  51
ENDBRANCH  48  49
ENDBRANCH  47  48
ENDBRANCH  46  47
ENDBRANCH  45  46
ENDBRANCH   1  45
TORSDOF 23
ENDMDL
MODEL 3
REMARK VINA RESULT:      -8.7      7.071     13.814
REMARK SMILES Cc1ccc(S(=O)(=O)n2cc(C(=O)C(=O)NCC(=O)N[C@H](Cc3c[nH]c4ccccc34)C(=O)OCCOC(=O)c3ccc(-c4c5nc(c(-c6c(F)cc(S(=O)(=O)[O-])cc6F)c6ccc([nH]6)c(-c6c(F)cc(S(=O)(=O)[O-])cc6F)c6nc(c(-c7c(F)cc(S(=O)(=O)[O-])cc7F)c7ccc4[nH]7)C=C6)C=C5)cc3)c3ccccc32)cc1
REMARK SMILES IDX 32 1 33 2 21 3 20 4 18 5 19 6 17 8 16 9 14 10 15 11 12 13
REMARK SMILES IDX 13 14 11 15 9 16 10 17 111 18 106 19 110 20 107 21 109 22
REMARK SMILES IDX 108 23 6 24 7 25 8 26 5 27 1 28 2 29 3 30 113 31 4 32 112 33
REMARK SMILES IDX 22 34 23 35 24 36 31 37 25 38 26 39 30 40 27 42 29 43 28 44
REMARK SMILES IDX 34 45 35 46 36 47 37 48 38 49 39 50 40 51 41 52 105 53 42 54
REMARK SMILES IDX 104 55 43 56 44 57 45 58 98 59 46 60 103 61 97 62 99 63
REMARK SMILES IDX 47 64 102 65 96 66 95 67 48 69 82 70 61 71 81 72 62 73 65 74
REMARK SMILES IDX 80 75 100 76 63 77 64 78 79 80 101 81 66 82 49 83 50 84
REMARK SMILES IDX 59 85 51 86 52 87 58 88 60 89 53 90 54 91 55 92 56 93 57 94
REMARK SMILES IDX 83 95 84 96 93 97 85 98 86 99 92 100 94 101 87 102 88 103
REMARK SMILES IDX 89 104 90 105 91 106 67 107 68 108 77 109 69 110 70 111
REMARK SMILES IDX 76 112 78 113 71 114 72 115 73 116 74 117 75 118
REMARK H PARENT 20 7 16 12 25 41 99 68 65 79
REMARK Flexibility Score: inf
ROOT
ATOM      1  C   UNL A   1      45.783  40.565  29.301  1.00  0.00     0.329 C 
ATOM      2  O   UNL A   1      46.574  41.448  29.729  1.00  0.00    -0.250 OA
ENDROOT
BRANCH   1   3
ATOM      3  C   UNL A   1      43.582  40.500  29.173  1.00  0.00     0.196 C 
BRANCH   3   4
ATOM      4  N   UNL A   1      42.573  40.512  27.742  1.00  0.00    -0.341 N 
ATOM      5  C   UNL A   1      42.433  40.960  26.471  1.00  0.00     0.240 C 
ATOM      6  O   UNL A   1      41.504  40.352  25.893  1.00  0.00    -0.273 OA
ATOM      7  H   UNL A   1      41.777  39.969  27.946  1.00  0.00     0.164 HD
BRANCH   5   8
ATOM      8  C   UNL A   1      43.252  41.954  25.556  1.00  0.00     0.216 C 
BRANCH   8   9
ATOM      9  N   UNL A   1      44.357  42.915  25.760  1.00  0.00    -0.340 N 
ATOM     10  C   UNL A   1      45.136  43.631  24.844  1.00  0.00     0.292 C 
ATOM     11  O   UNL A   1      45.718  44.670  25.143  1.00  0.00    -0.265 OA
ATOM     12  H   UNL A   1      44.585  43.079  26.704  1.00  0.00     0.164 HD
BRANCH  10  13
ATOM     13  C   UNL A   1      45.251  43.152  23.424  1.00  0.00     0.252 C 
ATOM     14  O   UNL A   1      45.500  41.943  23.344  1.00  0.00    -0.283 OA
BRANCH  13  15
ATOM     15  C   UNL A   1      45.105  43.913  22.163  1.00  0.00     0.054 A 
ATOM     16  N   UNL A   1      45.297  44.657  20.024  1.00  0.00    -0.240 N 
ATOM     17  C   UNL A   1      45.799  44.820  21.344  1.00  0.00     0.117 A 
ATOM     18  C   UNL A   1      44.167  43.805  20.154  1.00  0.00     0.065 A 
ATOM     19  C   UNL A   1      43.864  43.797  21.500  1.00  0.00     0.012 A 
ATOM     20  C   UNL A   1      43.232  43.324  19.217  1.00  0.00     0.028 A 
ATOM     21  C   UNL A   1      42.551  43.523  21.925  1.00  0.00     0.011 A 
ATOM     22  C   UNL A   1      41.914  43.152  19.641  1.00  0.00     0.002 A 
ATOM     23  C   UNL A   1      41.564  43.298  20.975  1.00  0.00     0.001 A 
BRANCH  16  24
ATOM     24  S   UNL A   1      45.001  45.798  18.749  1.00  0.00     0.268 S 
ATOM     25  O   UNL A   1      46.111  45.439  17.863  1.00  0.00    -0.201 OA
ATOM     26  O   UNL A   1      45.055  47.048  19.508  1.00  0.00    -0.201 OA
BRANCH  24  27
ATOM     27  C   UNL A   1      43.805  46.313  17.568  1.00  0.00     0.088 A 
ATOM     28  C   UNL A   1      40.816  48.807  15.622  1.00  0.00     0.044 C 
ATOM     29  C   UNL A   1      41.848  47.908  16.235  1.00  0.00    -0.051 A 
ATOM     30  C   UNL A   1      42.951  48.517  16.804  1.00  0.00     0.005 A 
ATOM     31  C   UNL A   1      41.739  46.502  16.322  1.00  0.00     0.005 A 
ATOM     32  C   UNL A   1      43.898  47.733  17.436  1.00  0.00     0.022 A 
ATOM     33  C   UNL A   1      42.702  45.700  17.007  1.00  0.00     0.022 A 
ENDBRANCH  24  27
ENDBRANCH  16  24
ENDBRANCH  13  15
ENDBRANCH  10  13
ENDBRANCH   8   9
ENDBRANCH   5   8
ENDBRANCH   3   4
BRANCH   3  34
ATOM     34  C   UNL A   1      42.225  41.065  30.243  1.00  0.00     0.074 C 
BRANCH  34  35
ATOM     35  C   UNL A   1      42.380  41.815  31.561  1.00  0.00    -0.020 A 
ATOM     36  C   UNL A   1      42.273  43.176  31.799  1.00  0.00     0.087 A 
ATOM     37  C   UNL A   1      42.888  41.232  32.778  1.00  0.00     0.003 A 
ATOM     38  N   UNL A   1      42.973  43.449  32.955  1.00  0.00    -0.361 N 
ATOM     39  C   UNL A   1      43.427  42.281  33.526  1.00  0.00     0.046 A 
ATOM     40  C   UNL A   1      43.127  39.911  33.204  1.00  0.00     0.010 A 
ATOM     41  H   UNL A   1      43.127  44.350  33.319  1.00  0.00     0.166 HD
ATOM     42  C   UNL A   1      44.317  42.065  34.587  1.00  0.00     0.026 A 
ATOM     43  C   UNL A   1      43.960  39.679  34.304  1.00  0.00     0.001 A 
ATOM     44  C   UNL A   1      44.581  40.741  34.955  1.00  0.00     0.002 A 
ENDBRANCH  34  35
ENDBRANCH   3  34
ENDBRANCH   1   3
BRANCH   1  45
ATOM     45  O   UNL A   1      46.660  39.441  29.012  1.00  0.00    -0.461 OA
BRANCH  45  46
ATOM     46  C   UNL A   1      46.327  38.204  29.665  1.00  0.00     0.274 C 
BRANCH  46  47
ATOM     47  C   UNL A   1      45.666  37.279  28.637  1.00  0.00     0.275 C 
BRANCH  47  48
ATOM     48  O   UNL A   1      44.212  37.325  28.585  1.00  0.00    -0.458 OA
BRANCH  48  49
ATOM     49  C   UNL A   1      43.475  36.889  27.530  1.00  0.00     0.338 C 
ATOM     50  O   UNL A   1      43.254  37.533  26.518  1.00  0.00    -0.246 OA
BRANCH  49  51
ATOM     51  C   UNL A   1      42.735  35.645  27.814  1.00  0.00     0.060 A 
ATOM     52  C   UNL A   1      41.086  35.801  28.463  1.00  0.00     0.016 A 
ATOM     53  C   UNL A   1      43.740  34.245  28.251  1.00  0.00     0.016 A 
ATOM     54  C   UNL A   1      40.489  34.563  29.658  1.00  0.00     0.010 A 
ATOM     55  C   UNL A   1      43.157  33.001  29.396  1.00  0.00     0.010 A 
ATOM     56  C   UNL A   1      41.575  33.225  30.195  1.00  0.00    -0.014 A 
BRANCH  56  57
ATOM     57  C   UNL A   1      41.518  32.494  31.439  1.00  0.00     0.031 A 
ATOM     58  C   UNL A   1      41.823  33.239  32.684  1.00  0.00     0.074 A 
ATOM     59  C   UNL A   1      40.892  31.296  31.440  1.00  0.00     0.049 A 
ATOM     60  N   UNL A   1      42.061  32.676  33.813  1.00  0.00    -0.248 NA
ATOM     61  C   UNL A   1      41.970  34.695  32.768  1.00  0.00     0.031 C 
ATOM     62  C   UNL A   1      40.258  30.644  32.578  1.00  0.00     0.029 A 
ATOM     63  N   UNL A   1      40.701  30.370  30.427  1.00  0.00    -0.354 N 
ATOM     64  C   UNL A   1      42.024  33.658  34.783  1.00  0.00     0.074 A 
ATOM     65  C   UNL A   1      42.181  34.884  34.069  1.00  0.00     0.031 C 
ATOM     66  C   UNL A   1      39.995  29.361  32.272  1.00  0.00     0.029 A 
ATOM     67  C   UNL A   1      40.553  29.082  30.959  1.00  0.00     0.049 A 
ATOM     68  H   UNL A   1      40.672  30.587  29.468  1.00  0.00     0.167 HD
ATOM     69  C   UNL A   1      41.674  33.304  36.051  1.00  0.00     0.037 A 
ATOM     70  C   UNL A   1      41.483  28.096  30.741  1.00  0.00     0.037 A 
ATOM     71  C   UNL A   1      41.602  31.844  36.125  1.00  0.00     0.049 A 
ATOM     72  C   UNL A   1      42.397  27.884  31.949  1.00  0.00     0.074 A 
ATOM     73  C   UNL A   1      40.549  30.946  36.113  1.00  0.00     0.029 A 
ATOM     74  N   UNL A   1      42.747  31.114  35.828  1.00  0.00    -0.354 N 
ATOM     75  N   UNL A   1      42.430  28.689  32.979  1.00  0.00    -0.248 NA
ATOM     76  C   UNL A   1      43.308  26.754  32.126  1.00  0.00     0.031 C 
ATOM     77  C   UNL A   1      41.064  29.684  35.702  1.00  0.00     0.029 A 
ATOM     78  C   UNL A   1      42.430  29.812  35.497  1.00  0.00     0.049 A 
ATOM     79  H   UNL A   1      43.662  31.477  35.849  1.00  0.00     0.167 HD
ATOM     80  C   UNL A   1      43.296  28.224  33.933  1.00  0.00     0.074 A 
ATOM     81  C   UNL A   1      43.825  27.006  33.347  1.00  0.00     0.031 C 
ATOM     82  C   UNL A   1      43.482  28.870  35.129  1.00  0.00     0.037 A 
BRANCH  69  83
ATOM     83  C   UNL A   1      41.166  34.230  37.147  1.00  0.00     0.058 A 
ATOM     84  C   UNL A   1      39.773  34.385  37.331  1.00  0.00     0.135 A 
ATOM     85  C   UNL A   1      41.947  35.044  37.999  1.00  0.00     0.135 A 
ATOM     86  F   UNL A   1      38.890  33.675  36.613  1.00  0.00    -0.206 F 
ATOM     87  C   UNL A   1      39.211  35.284  38.242  1.00  0.00     0.059 A 
ATOM     88  C   UNL A   1      41.409  35.941  38.926  1.00  0.00     0.059 A 
ATOM     89  F   UNL A   1      43.281  35.040  37.986  1.00  0.00    -0.206 F 
ATOM     90  C   UNL A   1      40.037  36.064  39.036  1.00  0.00     0.060 A 
BRANCH  90  91
ATOM     91  S   UNL A   1      39.306  37.222  40.202  1.00  0.00     0.124 S 
ATOM     92  O   UNL A   1      38.514  36.336  41.050  1.00  0.00    -0.237 OA
ATOM     93  O   UNL A   1      40.485  37.815  40.824  1.00  0.00    -0.237 OA
ATOM     94  O   UNL A   1      38.531  38.121  39.350  1.00  0.00    -0.744 OA
ENDBRANCH  90  91
ENDBRANCH  69  83
BRANCH  70  95
ATOM     95  C   UNL A   1      41.844  27.945  29.297  1.00  0.00     0.058 A 
ATOM     96  C   UNL A   1      43.112  28.384  28.880  1.00  0.00     0.135 A 
ATOM     97  C   UNL A   1      41.305  26.859  28.613  1.00  0.00     0.135 A 
ATOM     98  F   UNL A   1      43.635  29.504  29.400  1.00  0.00    -0.206 F 
ATOM     99  C   UNL A   1      43.919  27.607  28.048  1.00  0.00     0.059 A 
ATOM    100  C   UNL A   1      42.104  26.056  27.789  1.00  0.00     0.059 A 
ATOM    101  F   UNL A   1      40.096  26.419  28.988  1.00  0.00    -0.206 F 
ATOM    102  C   UNL A   1      43.440  26.380  27.605  1.00  0.00     0.060 A 
BRANCH 102 103
ATOM    103  S   UNL A   1      44.633  25.186  26.954  1.00  0.00     0.124 S 
ATOM    104  O   UNL A   1      44.806  24.310  28.105  1.00  0.00    -0.237 OA
ATOM    105  O   UNL A   1      43.929  24.613  25.814  1.00  0.00    -0.237 OA
ATOM    106  O   UNL A   1      45.822  25.969  26.637  1.00  0.00    -0.744 OA
ENDBRANCH 102 103
ENDBRANCH  70  95
BRANCH  82 107
ATOM    107  C   UNL A   1      44.593  28.614  36.134  1.00  0.00     0.058 A 
ATOM    108  C   UNL A   1      45.820  29.295  36.152  1.00  0.00     0.135 A 
ATOM    109  C   UNL A   1      44.392  27.719  37.222  1.00  0.00     0.135 A 
ATOM    110  F   UNL A   1      46.089  30.280  35.285  1.00  0.00    -0.206 F 
ATOM    111  C   UNL A   1      46.815  29.019  37.094  1.00  0.00     0.059 A 
ATOM    112  C   UNL A   1      45.333  27.496  38.219  1.00  0.00     0.059 A 
ATOM    113  F   UNL A   1      43.261  27.014  37.368  1.00  0.00    -0.206 F 
ATOM    114  C   UNL A   1      46.567  28.107  38.114  1.00  0.00     0.060 A 
BRANCH 114 115
ATOM    115  S   UNL A   1      47.862  27.711  39.296  1.00  0.00     0.124 S 
ATOM    116  O   UNL A   1      48.782  28.826  39.095  1.00  0.00    -0.237 OA
ATOM    117  O   UNL A   1      47.142  27.705  40.565  1.00  0.00    -0.237 OA
ATOM    118  O   UNL A   1      48.343  26.407  38.850  1.00  0.00    -0.744 OA
ENDBRANCH 114 115
ENDBRANCH  82 107
ENDBRANCH  56  57
ENDBRANCH  49  51
ENDBRANCH  48  49
ENDBRANCH  47  48
ENDBRANCH  46  47
ENDBRANCH  45  46
ENDBRANCH   1  45
TORSDOF 23
ENDMDL
