MODEL 1
REMARK VINA RESULT:     -10.1      0.000      0.000
REMARK SMILES C[C@@H](CC(=O)OCCOC(=O)c1ccc(-c2c3nc(c(-c4c(F)cc(S(=O)(=O)[O-])cc4F)c4ccc([nH]4)c(-c4c(F)cc(S(=O)(=O)[O-])cc4F)c4nc(c(-c5c(F)cc(S(=O)(=O)[O-])cc5F)c5ccc2[nH]5)C=C4)C=C3)cc1)NC(=O)CCCN1C(=O)CN(C)C1=O
REMARK SMILES IDX 6 1 4 2 5 3 3 4 2 5 1 6 78 7 79 8 80 10 81 11 82 12 83 13
REMARK SMILES IDX 84 14 85 15 90 16 86 17 87 18 88 19 91 20 89 21 7 22 8 23
REMARK SMILES IDX 9 24 10 25 11 26 12 27 13 28 77 29 14 30 76 31 15 32 16 33
REMARK SMILES IDX 17 34 70 35 18 36 75 37 69 38 71 39 19 40 74 41 68 42 67 43
REMARK SMILES IDX 20 45 54 46 33 47 53 48 34 49 37 50 52 51 72 52 35 53 36 54
REMARK SMILES IDX 51 56 73 57 38 58 21 59 22 60 31 61 23 62 24 63 30 64 32 65
REMARK SMILES IDX 25 66 26 67 27 68 28 69 29 70 55 71 56 72 65 73 57 74 58 75
REMARK SMILES IDX 64 76 66 77 59 78 60 79 61 80 62 81 63 82 39 83 40 84 49 85
REMARK SMILES IDX 41 86 42 87 48 88 50 89 43 90 44 91 45 92 46 93 47 94
REMARK H PARENT 78 9 71 44 37 55
REMARK Flexibility Score: inf
ROOT
ATOM      1  O   UNL A   1      45.900  22.687  25.121  1.00  0.00    -0.462 OA
ENDROOT
BRANCH   1   2
ATOM      2  C   UNL A   1      45.070  22.103  24.227  1.00  0.00     0.307 C 
ATOM      3  O   UNL A   1      44.161  22.681  23.640  1.00  0.00    -0.252 OA
BRANCH   2   4
ATOM      4  C   UNL A   1      45.290  20.626  24.073  1.00  0.00     0.147 C 
BRANCH   4   5
ATOM      5  C   UNL A   1      44.774  19.636  25.119  1.00  0.00     0.090 C 
ATOM      6  C   UNL A   1      45.689  18.457  25.421  1.00  0.00     0.031 C 
BRANCH   5   7
ATOM      7  N   UNL A   1      43.403  19.184  24.945  1.00  0.00    -0.353 N 
ATOM      8  C   UNL A   1      42.328  19.420  25.758  1.00  0.00     0.220 C 
ATOM      9  H   UNL A   1      43.227  18.641  24.144  1.00  0.00     0.163 HD
ATOM     10  O   UNL A   1      41.346  18.682  25.692  1.00  0.00    -0.275 OA
BRANCH   8  11
ATOM     11  C   UNL A   1      42.329  20.635  26.670  1.00  0.00     0.102 C 
BRANCH  11  12
ATOM     12  C   UNL A   1      41.448  21.820  26.242  1.00  0.00     0.032 C 
BRANCH  12  13
ATOM     13  C   UNL A   1      40.194  22.126  27.098  1.00  0.00     0.131 C 
BRANCH  13  14
ATOM     14  N   UNL A   1      39.031  22.509  26.320  1.00  0.00    -0.263 N 
ATOM     15  C   UNL A   1      38.495  23.766  26.280  1.00  0.00     0.250 C 
ATOM     16  C   UNL A   1      38.252  21.639  25.612  1.00  0.00     0.326 C 
ATOM     17  O   UNL A   1      39.007  24.785  26.718  1.00  0.00    -0.272 OA
ATOM     18  C   UNL A   1      37.114  23.681  25.645  1.00  0.00     0.221 C 
ATOM     19  N   UNL A   1      37.072  22.281  25.297  1.00  0.00    -0.318 N 
ATOM     20  O   UNL A   1      38.525  20.478  25.347  1.00  0.00    -0.248 OA
ATOM     21  C   UNL A   1      35.861  21.629  24.853  1.00  0.00     0.149 C 
ENDBRANCH  13  14
ENDBRANCH  12  13
ENDBRANCH  11  12
ENDBRANCH   8  11
ENDBRANCH   5   7
ENDBRANCH   4   5
ENDBRANCH   2   4
ENDBRANCH   1   2
BRANCH   1  22
ATOM     22  C   UNL A   1      45.300  23.056  26.374  1.00  0.00     0.274 C 
BRANCH  22  23
ATOM     23  C   UNL A   1      44.855  24.520  26.352  1.00  0.00     0.275 C 
BRANCH  23  24
ATOM     24  O   UNL A   1      43.422  24.644  26.265  1.00  0.00    -0.458 OA
BRANCH  24  25
ATOM     25  C   UNL A   1      42.967  25.895  26.024  1.00  0.00     0.338 C 
ATOM     26  O   UNL A   1      42.704  26.379  24.930  1.00  0.00    -0.246 OA
BRANCH  25  27
ATOM     27  C   UNL A   1      42.715  26.600  27.289  1.00  0.00     0.060 A 
ATOM     28  C   UNL A   1      41.883  26.008  28.242  1.00  0.00     0.016 A 
ATOM     29  C   UNL A   1      43.201  27.890  27.487  1.00  0.00     0.016 A 
ATOM     30  C   UNL A   1      41.515  26.708  29.388  1.00  0.00     0.010 A 
ATOM     31  C   UNL A   1      42.868  28.574  28.662  1.00  0.00     0.010 A 
ATOM     32  C   UNL A   1      42.014  27.994  29.620  1.00  0.00    -0.014 A 
BRANCH  32  33
ATOM     33  C   UNL A   1      41.634  28.741  30.849  1.00  0.00     0.031 A 
ATOM     34  C   UNL A   1      40.445  29.662  30.833  1.00  0.00     0.074 A 
ATOM     35  C   UNL A   1      42.363  28.605  31.975  1.00  0.00     0.049 A 
ATOM     36  N   UNL A   1      40.068  30.540  31.725  1.00  0.00    -0.248 NA
ATOM     37  C   UNL A   1      39.570  29.588  29.653  1.00  0.00     0.031 C 
ATOM     38  C   UNL A   1      43.507  27.706  32.141  1.00  0.00     0.029 A 
ATOM     39  N   UNL A   1      42.255  29.229  33.193  1.00  0.00    -0.354 N 
ATOM     40  C   UNL A   1      38.940  31.159  31.196  1.00  0.00     0.074 A 
ATOM     41  C   UNL A   1      38.698  30.555  29.903  1.00  0.00     0.031 C 
ATOM     42  C   UNL A   1      43.988  27.830  33.388  1.00  0.00     0.029 A 
ATOM     43  C   UNL A   1      43.240  28.870  34.084  1.00  0.00     0.049 A 
ATOM     44  H   UNL A   1      41.542  29.874  33.408  1.00  0.00     0.167 HD
ATOM     45  C   UNL A   1      38.181  32.141  31.741  1.00  0.00     0.037 A 
ATOM     46  C   UNL A   1      43.538  29.354  35.305  1.00  0.00     0.037 A 
ATOM     47  C   UNL A   1      38.413  32.711  33.045  1.00  0.00     0.049 A 
ATOM     48  C   UNL A   1      42.715  30.481  35.868  1.00  0.00     0.074 A 
ATOM     49  C   UNL A   1      37.697  33.705  33.691  1.00  0.00     0.029 A 
ATOM     50  N   UNL A   1      39.433  32.332  33.906  1.00  0.00    -0.354 N 
ATOM     51  N   UNL A   1      41.680  31.088  35.339  1.00  0.00    -0.248 NA
ATOM     52  C   UNL A   1      43.109  30.997  37.185  1.00  0.00     0.031 C 
ATOM     53  C   UNL A   1      38.305  33.951  34.926  1.00  0.00     0.029 A 
ATOM     54  C   UNL A   1      39.373  33.080  35.071  1.00  0.00     0.049 A 
ATOM     55  H   UNL A   1      40.100  31.634  33.717  1.00  0.00     0.167 HD
ATOM     56  C   UNL A   1      41.288  32.047  36.266  1.00  0.00     0.074 A 
ATOM     57  C   UNL A   1      42.189  31.929  37.394  1.00  0.00     0.031 C 
ATOM     58  C   UNL A   1      40.274  32.944  36.189  1.00  0.00     0.037 A 
BRANCH  45  59
ATOM     59  C   UNL A   1      37.049  32.688  30.914  1.00  0.00     0.058 A 
ATOM     60  C   UNL A   1      37.254  33.660  29.922  1.00  0.00     0.135 A 
ATOM     61  C   UNL A   1      35.741  32.212  31.102  1.00  0.00     0.135 A 
ATOM     62  F   UNL A   1      38.481  34.159  29.709  1.00  0.00    -0.206 F 
ATOM     63  C   UNL A   1      36.197  34.162  29.167  1.00  0.00     0.059 A 
ATOM     64  C   UNL A   1      34.674  32.681  30.340  1.00  0.00     0.059 A 
ATOM     65  F   UNL A   1      35.487  31.281  32.036  1.00  0.00    -0.206 F 
ATOM     66  C   UNL A   1      34.909  33.668  29.386  1.00  0.00     0.060 A 
BRANCH  66  67
ATOM     67  S   UNL A   1      33.548  34.330  28.402  1.00  0.00     0.124 S 
ATOM     68  O   UNL A   1      34.230  35.344  27.605  1.00  0.00    -0.237 OA
ATOM     69  O   UNL A   1      33.088  33.154  27.670  1.00  0.00    -0.237 OA
ATOM     70  O   UNL A   1      32.619  34.841  29.407  1.00  0.00    -0.744 OA
ENDBRANCH  66  67
ENDBRANCH  45  59
BRANCH  46  71
ATOM     71  C   UNL A   1      44.691  28.798  36.062  1.00  0.00     0.058 A 
ATOM     72  C   UNL A   1      45.978  29.330  35.907  1.00  0.00     0.135 A 
ATOM     73  C   UNL A   1      44.525  27.738  36.970  1.00  0.00     0.135 A 
ATOM     74  F   UNL A   1      46.189  30.334  35.043  1.00  0.00    -0.206 F 
ATOM     75  C   UNL A   1      47.064  28.830  36.619  1.00  0.00     0.059 A 
ATOM     76  C   UNL A   1      45.589  27.240  37.714  1.00  0.00     0.059 A 
ATOM     77  F   UNL A   1      43.310  27.202  37.164  1.00  0.00    -0.206 F 
ATOM     78  C   UNL A   1      46.857  27.787  37.526  1.00  0.00     0.060 A 
BRANCH  78  79
ATOM     79  S   UNL A   1      48.260  27.188  38.492  1.00  0.00     0.124 S 
ATOM     80  O   UNL A   1      48.587  25.948  37.797  1.00  0.00    -0.237 OA
ATOM     81  O   UNL A   1      49.222  28.277  38.344  1.00  0.00    -0.237 OA
ATOM     82  O   UNL A   1      47.702  27.034  39.832  1.00  0.00    -0.744 OA
ENDBRANCH  78  79
ENDBRANCH  46  71
BRANCH  58  83
ATOM     83  C   UNL A   1      40.060  33.843  37.375  1.00  0.00     0.058 A 
ATOM     84  C   UNL A   1      40.779  35.037  37.535  1.00  0.00     0.135 A 
ATOM     85  C   UNL A   1      39.091  33.524  38.339  1.00  0.00     0.135 A 
ATOM     86  F   UNL A   1      41.723  35.381  36.646  1.00  0.00    -0.206 F 
ATOM     87  C   UNL A   1      40.559  35.875  38.625  1.00  0.00     0.059 A 
ATOM     88  C   UNL A   1      38.837  34.359  39.423  1.00  0.00     0.059 A 
ATOM     89  F   UNL A   1      38.371  32.396  38.228  1.00  0.00    -0.206 F 
ATOM     90  C   UNL A   1      39.585  35.527  39.562  1.00  0.00     0.060 A 
BRANCH  90  91
ATOM     91  S   UNL A   1      39.286  36.638  40.954  1.00  0.00     0.124 S 
ATOM     92  O   UNL A   1      40.643  37.054  41.295  1.00  0.00    -0.237 OA
ATOM     93  O   UNL A   1      38.439  37.667  40.358  1.00  0.00    -0.237 OA
ATOM     94  O   UNL A   1      38.625  35.782  41.935  1.00  0.00    -0.744 OA
ENDBRANCH  90  91
ENDBRANCH  58  83
ENDBRANCH  32  33
ENDBRANCH  25  27
ENDBRANCH  24  25
ENDBRANCH  23  24
ENDBRANCH  22  23
ENDBRANCH   1  22
TORSDOF 20
ENDMDL
MODEL 2
REMARK VINA RESULT:      -9.9      6.189      9.552
REMARK SMILES C[C@@H](CC(=O)OCCOC(=O)c1ccc(-c2c3nc(c(-c4c(F)cc(S(=O)(=O)[O-])cc4F)c4ccc([nH]4)c(-c4c(F)cc(S(=O)(=O)[O-])cc4F)c4nc(c(-c5c(F)cc(S(=O)(=O)[O-])cc5F)c5ccc2[nH]5)C=C4)C=C3)cc1)NC(=O)CCCN1C(=O)CN(C)C1=O
REMARK SMILES IDX 6 1 4 2 5 3 3 4 2 5 1 6 78 7 79 8 80 10 81 11 82 12 83 13
REMARK SMILES IDX 84 14 85 15 90 16 86 17 87 18 88 19 91 20 89 21 7 22 8 23
REMARK SMILES IDX 9 24 10 25 11 26 12 27 13 28 77 29 14 30 76 31 15 32 16 33
REMARK SMILES IDX 17 34 70 35 18 36 75 37 69 38 71 39 19 40 74 41 68 42 67 43
REMARK SMILES IDX 20 45 54 46 33 47 53 48 34 49 37 50 52 51 72 52 35 53 36 54
REMARK SMILES IDX 51 56 73 57 38 58 21 59 22 60 31 61 23 62 24 63 30 64 32 65
REMARK SMILES IDX 25 66 26 67 27 68 28 69 29 70 55 71 56 72 65 73 57 74 58 75
REMARK SMILES IDX 64 76 66 77 59 78 60 79 61 80 62 81 63 82 39 83 40 84 49 85
REMARK SMILES IDX 41 86 42 87 48 88 50 89 43 90 44 91 45 92 46 93 47 94
REMARK H PARENT 78 9 71 44 37 55
REMARK Flexibility Score: inf
ROOT
ATOM      1  O   UNL A   1      37.540  21.724  24.938  1.00  0.00    -0.462 OA
ENDROOT
BRANCH   1   2
ATOM      2  C   UNL A   1      36.424  22.172  25.557  1.00  0.00     0.307 C 
ATOM      3  O   UNL A   1      35.796  21.542  26.401  1.00  0.00    -0.252 OA
BRANCH   2   4
ATOM      4  C   UNL A   1      35.940  23.498  25.045  1.00  0.00     0.147 C 
BRANCH   4   5
ATOM      5  C   UNL A   1      34.458  23.872  25.094  1.00  0.00     0.090 C 
ATOM      6  C   UNL A   1      34.119  25.289  24.652  1.00  0.00     0.031 C 
BRANCH   5   7
ATOM      7  N   UNL A   1      33.760  23.543  26.326  1.00  0.00    -0.353 N 
ATOM      8  C   UNL A   1      32.555  22.911  26.470  1.00  0.00     0.220 C 
ATOM      9  H   UNL A   1      34.209  23.809  27.161  1.00  0.00     0.163 HD
ATOM     10  O   UNL A   1      31.927  23.036  27.520  1.00  0.00    -0.275 OA
BRANCH   8  11
ATOM     11  C   UNL A   1      32.050  21.999  25.365  1.00  0.00     0.102 C 
BRANCH  11  12
ATOM     12  C   UNL A   1      32.628  20.575  25.327  1.00  0.00     0.032 C 
BRANCH  12  13
ATOM     13  C   UNL A   1      33.510  20.192  24.113  1.00  0.00     0.131 C 
BRANCH  13  14
ATOM     14  N   UNL A   1      33.776  18.769  24.005  1.00  0.00    -0.263 N 
ATOM     15  C   UNL A   1      32.911  17.848  23.484  1.00  0.00     0.250 C 
ATOM     16  C   UNL A   1      34.882  18.148  24.510  1.00  0.00     0.326 C 
ATOM     17  O   UNL A   1      31.887  18.089  22.862  1.00  0.00    -0.272 OA
ATOM     18  C   UNL A   1      33.404  16.458  23.859  1.00  0.00     0.221 C 
ATOM     19  N   UNL A   1      34.638  16.790  24.530  1.00  0.00    -0.318 N 
ATOM     20  O   UNL A   1      35.893  18.697  24.923  1.00  0.00    -0.248 OA
ATOM     21  C   UNL A   1      35.398  15.817  25.281  1.00  0.00     0.149 C 
ENDBRANCH  13  14
ENDBRANCH  12  13
ENDBRANCH  11  12
ENDBRANCH   8  11
ENDBRANCH   5   7
ENDBRANCH   4   5
ENDBRANCH   2   4
ENDBRANCH   1   2
BRANCH   1  22
ATOM     22  C   UNL A   1      38.700  21.584  25.776  1.00  0.00     0.274 C 
BRANCH  22  23
ATOM     23  C   UNL A   1      39.239  20.153  25.720  1.00  0.00     0.275 C 
BRANCH  23  24
ATOM     24  O   UNL A   1      40.242  19.918  26.729  1.00  0.00    -0.458 OA
BRANCH  24  25
ATOM     25  C   UNL A   1      41.511  19.841  26.270  1.00  0.00     0.338 C 
ATOM     26  O   UNL A   1      42.003  18.920  25.628  1.00  0.00    -0.246 OA
BRANCH  25  27
ATOM     27  C   UNL A   1      42.234  21.089  26.553  1.00  0.00     0.060 A 
ATOM     28  C   UNL A   1      42.539  21.412  27.877  1.00  0.00     0.016 A 
ATOM     29  C   UNL A   1      42.507  21.993  25.530  1.00  0.00     0.016 A 
ATOM     30  C   UNL A   1      43.100  22.647  28.189  1.00  0.00     0.010 A 
ATOM     31  C   UNL A   1      43.114  23.216  25.840  1.00  0.00     0.010 A 
ATOM     32  C   UNL A   1      43.408  23.560  27.174  1.00  0.00    -0.014 A 
BRANCH  32  33
ATOM     33  C   UNL A   1      44.018  24.876  27.501  1.00  0.00     0.031 A 
ATOM     34  C   UNL A   1      43.158  25.999  28.013  1.00  0.00     0.074 A 
ATOM     35  C   UNL A   1      45.341  25.070  27.327  1.00  0.00     0.049 A 
ATOM     36  N   UNL A   1      43.455  27.263  28.168  1.00  0.00    -0.248 NA
ATOM     37  C   UNL A   1      41.780  25.653  28.392  1.00  0.00     0.031 C 
ATOM     38  C   UNL A   1      46.296  24.050  26.889  1.00  0.00     0.029 A 
ATOM     39  N   UNL A   1      46.111  26.195  27.490  1.00  0.00    -0.354 N 
ATOM     40  C   UNL A   1      42.289  27.875  28.617  1.00  0.00     0.074 A 
ATOM     41  C   UNL A   1      41.280  26.841  28.706  1.00  0.00     0.031 C 
ATOM     42  C   UNL A   1      47.523  24.593  26.826  1.00  0.00     0.029 A 
ATOM     43  C   UNL A   1      47.430  26.013  27.144  1.00  0.00     0.049 A 
ATOM     44  H   UNL A   1      45.753  27.051  27.821  1.00  0.00     0.167 HD
ATOM     45  C   UNL A   1      42.084  29.179  28.924  1.00  0.00     0.037 A 
ATOM     46  C   UNL A   1      48.442  26.897  27.046  1.00  0.00     0.037 A 
ATOM     47  C   UNL A   1      43.106  30.194  28.863  1.00  0.00     0.049 A 
ATOM     48  C   UNL A   1      48.178  28.349  27.339  1.00  0.00     0.074 A 
ATOM     49  C   UNL A   1      43.001  31.542  29.160  1.00  0.00     0.029 A 
ATOM     50  N   UNL A   1      44.423  29.970  28.489  1.00  0.00    -0.354 N 
ATOM     51  N   UNL A   1      47.061  28.922  27.718  1.00  0.00    -0.248 NA
ATOM     52  C   UNL A   1      49.306  29.275  27.177  1.00  0.00     0.031 C 
ATOM     53  C   UNL A   1      44.245  32.140  28.931  1.00  0.00     0.029 A 
ATOM     54  C   UNL A   1      45.138  31.157  28.535  1.00  0.00     0.049 A 
ATOM     55  H   UNL A   1      44.795  29.097  28.229  1.00  0.00     0.167 HD
ATOM     56  C   UNL A   1      47.356  30.273  27.857  1.00  0.00     0.074 A 
ATOM     57  C   UNL A   1      48.760  30.429  27.534  1.00  0.00     0.031 C 
ATOM     58  C   UNL A   1      46.538  31.293  28.218  1.00  0.00     0.037 A 
BRANCH  45  59
ATOM     59  C   UNL A   1      40.691  29.592  29.318  1.00  0.00     0.058 A 
ATOM     60  C   UNL A   1      40.349  29.885  30.647  1.00  0.00     0.135 A 
ATOM     61  C   UNL A   1      39.688  29.719  28.342  1.00  0.00     0.135 A 
ATOM     62  F   UNL A   1      41.264  29.767  31.621  1.00  0.00    -0.206 F 
ATOM     63  C   UNL A   1      39.055  30.260  31.000  1.00  0.00     0.059 A 
ATOM     64  C   UNL A   1      38.395  30.118  28.668  1.00  0.00     0.059 A 
ATOM     65  F   UNL A   1      39.960  29.453  27.054  1.00  0.00    -0.206 F 
ATOM     66  C   UNL A   1      38.084  30.371  30.002  1.00  0.00     0.060 A 
BRANCH  66  67
ATOM     67  S   UNL A   1      36.409  30.856  30.473  1.00  0.00     0.124 S 
ATOM     68  O   UNL A   1      36.090  29.856  31.487  1.00  0.00    -0.237 OA
ATOM     69  O   UNL A   1      36.603  32.217  30.965  1.00  0.00    -0.237 OA
ATOM     70  O   UNL A   1      35.660  30.746  29.224  1.00  0.00    -0.744 OA
ENDBRANCH  66  67
ENDBRANCH  45  59
BRANCH  46  71
ATOM     71  C   UNL A   1      49.789  26.437  26.617  1.00  0.00     0.058 A 
ATOM     72  C   UNL A   1      50.697  25.904  27.543  1.00  0.00     0.135 A 
ATOM     73  C   UNL A   1      50.189  26.503  25.272  1.00  0.00     0.135 A 
ATOM     74  F   UNL A   1      50.365  25.832  28.841  1.00  0.00    -0.206 F 
ATOM     75  C   UNL A   1      51.955  25.456  27.155  1.00  0.00     0.059 A 
ATOM     76  C   UNL A   1      51.431  26.035  24.855  1.00  0.00     0.059 A 
ATOM     77  F   UNL A   1      49.353  26.994  24.344  1.00  0.00    -0.206 F 
ATOM     78  C   UNL A   1      52.311  25.521  25.806  1.00  0.00     0.060 A 
BRANCH  78  79
ATOM     79  S   UNL A   1      53.922  24.878  25.302  1.00  0.00     0.124 S 
ATOM     80  O   UNL A   1      53.612  23.476  25.045  1.00  0.00    -0.237 OA
ATOM     81  O   UNL A   1      54.224  25.692  24.128  1.00  0.00    -0.237 OA
ATOM     82  O   UNL A   1      54.764  25.136  26.466  1.00  0.00    -0.744 OA
ENDBRANCH  78  79
ENDBRANCH  46  71
BRANCH  58  83
ATOM     83  C   UNL A   1      47.150  32.661  28.323  1.00  0.00     0.058 A 
ATOM     84  C   UNL A   1      47.089  33.581  27.264  1.00  0.00     0.135 A 
ATOM     85  C   UNL A   1      47.769  33.071  29.515  1.00  0.00     0.135 A 
ATOM     86  F   UNL A   1      46.518  33.233  26.101  1.00  0.00    -0.206 F 
ATOM     87  C   UNL A   1      47.639  34.854  27.377  1.00  0.00     0.059 A 
ATOM     88  C   UNL A   1      48.303  34.348  29.658  1.00  0.00     0.059 A 
ATOM     89  F   UNL A   1      47.847  32.232  30.560  1.00  0.00    -0.206 F 
ATOM     90  C   UNL A   1      48.243  35.228  28.578  1.00  0.00     0.060 A 
BRANCH  90  91
ATOM     91  S   UNL A   1      48.924  36.894  28.724  1.00  0.00     0.124 S 
ATOM     92  O   UNL A   1      48.142  37.620  27.728  1.00  0.00    -0.237 OA
ATOM     93  O   UNL A   1      48.644  37.227  30.117  1.00  0.00    -0.237 OA
ATOM     94  O   UNL A   1      50.337  36.712  28.402  1.00  0.00    -0.744 OA
ENDBRANCH  90  91
ENDBRANCH  58  83
ENDBRANCH  32  33
ENDBRANCH  25  27
ENDBRANCH  24  25
ENDBRANCH  23  24
ENDBRANCH  22  23
ENDBRANCH   1  22
TORSDOF 20
ENDMDL
MODEL 3
REMARK VINA RESULT:      -9.7      2.748      9.636
REMARK SMILES C[C@@H](CC(=O)OCCOC(=O)c1ccc(-c2c3nc(c(-c4c(F)cc(S(=O)(=O)[O-])cc4F)c4ccc([nH]4)c(-c4c(F)cc(S(=O)(=O)[O-])cc4F)c4nc(c(-c5c(F)cc(S(=O)(=O)[O-])cc5F)c5ccc2[nH]5)C=C4)C=C3)cc1)NC(=O)CCCN1C(=O)CN(C)C1=O
REMARK SMILES IDX 6 1 4 2 5 3 3 4 2 5 1 6 78 7 79 8 80 10 81 11 82 12 83 13
REMARK SMILES IDX 84 14 85 15 90 16 86 17 87 18 88 19 91 20 89 21 7 22 8 23
REMARK SMILES IDX 9 24 10 25 11 26 12 27 13 28 77 29 14 30 76 31 15 32 16 33
REMARK SMILES IDX 17 34 70 35 18 36 75 37 69 38 71 39 19 40 74 41 68 42 67 43
REMARK SMILES IDX 20 45 54 46 33 47 53 48 34 49 37 50 52 51 72 52 35 53 36 54
REMARK SMILES IDX 51 56 73 57 38 58 21 59 22 60 31 61 23 62 24 63 30 64 32 65
REMARK SMILES IDX 25 66 26 67 27 68 28 69 29 70 55 71 56 72 65 73 57 74 58 75
REMARK SMILES IDX 64 76 66 77 59 78 60 79 61 80 62 81 63 82 39 83 40 84 49 85
REMARK SMILES IDX 41 86 42 87 48 88 50 89 43 90 44 91 45 92 46 93 47 94
REMARK H PARENT 78 9 71 44 37 55
REMARK Flexibility Score: inf
ROOT
ATOM      1  O   UNL A   1      36.986  20.952  25.434  1.00  0.00    -0.462 OA
ENDROOT
BRANCH   1   2
ATOM      2  C   UNL A   1      35.722  20.692  25.032  1.00  0.00     0.307 C 
ATOM      3  O   UNL A   1      35.279  19.570  24.811  1.00  0.00    -0.252 OA
BRANCH   2   4
ATOM      4  C   UNL A   1      34.903  21.924  24.774  1.00  0.00     0.147 C 
BRANCH   4   5
ATOM      5  C   UNL A   1      33.403  21.834  24.496  1.00  0.00     0.090 C 
ATOM      6  C   UNL A   1      32.918  22.546  23.241  1.00  0.00     0.031 C 
BRANCH   5   7
ATOM      7  N   UNL A   1      32.528  22.134  25.619  1.00  0.00    -0.353 N 
ATOM      8  C   UNL A   1      32.660  23.130  26.548  1.00  0.00     0.220 C 
ATOM      9  H   UNL A   1      31.745  21.547  25.724  1.00  0.00     0.163 HD
ATOM     10  O   UNL A   1      32.076  23.033  27.626  1.00  0.00    -0.275 OA
BRANCH   8  11
ATOM     11  C   UNL A   1      33.456  24.377  26.202  1.00  0.00     0.102 C 
BRANCH  11  12
ATOM     12  C   UNL A   1      32.759  25.415  25.308  1.00  0.00     0.032 C 
BRANCH  12  13
ATOM     13  C   UNL A   1      31.401  25.981  25.792  1.00  0.00     0.131 C 
BRANCH  13  14
ATOM     14  N   UNL A   1      31.319  27.429  25.751  1.00  0.00    -0.263 N 
ATOM     15  C   UNL A   1      31.073  28.169  24.628  1.00  0.00     0.250 C 
ATOM     16  C   UNL A   1      31.585  28.249  26.810  1.00  0.00     0.326 C 
ATOM     17  O   UNL A   1      30.696  27.740  23.548  1.00  0.00    -0.272 OA
ATOM     18  C   UNL A   1      31.404  29.624  24.928  1.00  0.00     0.221 C 
ATOM     19  N   UNL A   1      31.744  29.532  26.328  1.00  0.00    -0.318 N 
ATOM     20  O   UNL A   1      31.714  27.905  27.976  1.00  0.00    -0.248 OA
ATOM     21  C   UNL A   1      32.352  30.625  27.050  1.00  0.00     0.149 C 
ENDBRANCH  13  14
ENDBRANCH  12  13
ENDBRANCH  11  12
ENDBRANCH   8  11
ENDBRANCH   5   7
ENDBRANCH   4   5
ENDBRANCH   2   4
ENDBRANCH   1   2
BRANCH   1  22
ATOM     22  C   UNL A   1      37.410  22.319  25.301  1.00  0.00     0.274 C 
BRANCH  22  23
ATOM     23  C   UNL A   1      38.684  22.573  26.109  1.00  0.00     0.275 C 
BRANCH  23  24
ATOM     24  O   UNL A   1      38.871  23.974  26.391  1.00  0.00    -0.458 OA
BRANCH  24  25
ATOM     25  C   UNL A   1      40.120  24.321  26.776  1.00  0.00     0.338 C 
ATOM     26  O   UNL A   1      41.172  23.844  26.365  1.00  0.00    -0.246 OA
BRANCH  25  27
ATOM     27  C   UNL A   1      40.071  25.458  27.706  1.00  0.00     0.060 A 
ATOM     28  C   UNL A   1      41.015  26.480  27.580  1.00  0.00     0.016 A 
ATOM     29  C   UNL A   1      39.174  25.462  28.771  1.00  0.00     0.016 A 
ATOM     30  C   UNL A   1      41.081  27.499  28.525  1.00  0.00     0.010 A 
ATOM     31  C   UNL A   1      39.211  26.512  29.695  1.00  0.00     0.010 A 
ATOM     32  C   UNL A   1      40.171  27.537  29.588  1.00  0.00    -0.014 A 
BRANCH  32  33
ATOM     33  C   UNL A   1      40.230  28.630  30.594  1.00  0.00     0.031 A 
ATOM     34  C   UNL A   1      41.222  28.562  31.723  1.00  0.00     0.074 A 
ATOM     35  C   UNL A   1      39.385  29.677  30.505  1.00  0.00     0.049 A 
ATOM     36  N   UNL A   1      41.302  29.302  32.799  1.00  0.00    -0.248 NA
ATOM     37  C   UNL A   1      42.255  27.519  31.631  1.00  0.00     0.031 C 
ATOM     38  C   UNL A   1      38.412  29.892  29.432  1.00  0.00     0.029 A 
ATOM     39  N   UNL A   1      39.203  30.754  31.336  1.00  0.00    -0.354 N 
ATOM     40  C   UNL A   1      42.362  28.786  33.536  1.00  0.00     0.074 A 
ATOM     41  C   UNL A   1      42.892  27.668  32.784  1.00  0.00     0.031 C 
ATOM     42  C   UNL A   1      37.743  31.032  29.665  1.00  0.00     0.029 A 
ATOM     43  C   UNL A   1      38.183  31.589  30.939  1.00  0.00     0.049 A 
ATOM     44  H   UNL A   1      39.749  30.915  32.140  1.00  0.00     0.167 HD
ATOM     45  C   UNL A   1      42.844  29.207  34.731  1.00  0.00     0.037 A 
ATOM     46  C   UNL A   1      37.631  32.654  31.552  1.00  0.00     0.037 A 
ATOM     47  C   UNL A   1      42.329  30.343  35.455  1.00  0.00     0.049 A 
ATOM     48  C   UNL A   1      38.147  33.071  32.902  1.00  0.00     0.074 A 
ATOM     49  C   UNL A   1      42.753  30.855  36.669  1.00  0.00     0.029 A 
ATOM     50  N   UNL A   1      41.283  31.147  35.026  1.00  0.00    -0.354 N 
ATOM     51  N   UNL A   1      39.118  32.547  33.610  1.00  0.00    -0.248 NA
ATOM     52  C   UNL A   1      37.481  34.212  33.543  1.00  0.00     0.031 C 
ATOM     53  C   UNL A   1      41.940  31.947  36.992  1.00  0.00     0.029 A 
ATOM     54  C   UNL A   1      41.039  32.144  35.957  1.00  0.00     0.049 A 
ATOM     55  H   UNL A   1      40.788  31.027  34.184  1.00  0.00     0.167 HD
ATOM     56  C   UNL A   1      39.194  33.306  34.772  1.00  0.00     0.074 A 
ATOM     57  C   UNL A   1      38.177  34.333  34.665  1.00  0.00     0.031 C 
ATOM     58  C   UNL A   1      40.028  33.164  35.832  1.00  0.00     0.037 A 
BRANCH  45  59
ATOM     59  C   UNL A   1      43.964  28.414  35.350  1.00  0.00     0.058 A 
ATOM     60  C   UNL A   1      43.725  27.377  36.265  1.00  0.00     0.135 A 
ATOM     61  C   UNL A   1      45.298  28.682  35.000  1.00  0.00     0.135 A 
ATOM     62  F   UNL A   1      42.471  27.088  36.645  1.00  0.00    -0.206 F 
ATOM     63  C   UNL A   1      44.770  26.655  36.836  1.00  0.00     0.059 A 
ATOM     64  C   UNL A   1      46.357  27.955  35.538  1.00  0.00     0.059 A 
ATOM     65  F   UNL A   1      45.585  29.661  34.128  1.00  0.00    -0.206 F 
ATOM     66  C   UNL A   1      46.084  26.954  36.467  1.00  0.00     0.060 A 
BRANCH  66  67
ATOM     67  S   UNL A   1      47.430  26.011  37.216  1.00  0.00     0.124 S 
ATOM     68  O   UNL A   1      48.523  26.976  37.167  1.00  0.00    -0.237 OA
ATOM     69  O   UNL A   1      46.905  25.716  38.546  1.00  0.00    -0.237 OA
ATOM     70  O   UNL A   1      47.569  24.858  36.332  1.00  0.00    -0.744 OA
ENDBRANCH  66  67
ENDBRANCH  45  59
BRANCH  46  71
ATOM     71  C   UNL A   1      36.503  33.377  30.908  1.00  0.00     0.058 A 
ATOM     72  C   UNL A   1      36.717  34.197  29.792  1.00  0.00     0.135 A 
ATOM     73  C   UNL A   1      35.187  33.248  31.383  1.00  0.00     0.135 A 
ATOM     74  F   UNL A   1      37.957  34.362  29.309  1.00  0.00    -0.206 F 
ATOM     75  C   UNL A   1      35.669  34.869  29.170  1.00  0.00     0.059 A 
ATOM     76  C   UNL A   1      34.119  33.886  30.761  1.00  0.00     0.059 A 
ATOM     77  F   UNL A   1      34.927  32.465  32.442  1.00  0.00    -0.206 F 
ATOM     78  C   UNL A   1      34.371  34.702  29.659  1.00  0.00     0.060 A 
BRANCH  78  79
ATOM     79  S   UNL A   1      33.010  35.527  28.806  1.00  0.00     0.124 S 
ATOM     80  O   UNL A   1      32.215  36.016  29.926  1.00  0.00    -0.237 OA
ATOM     81  O   UNL A   1      33.709  36.544  28.026  1.00  0.00    -0.237 OA
ATOM     82  O   UNL A   1      32.407  34.453  28.022  1.00  0.00    -0.744 OA
ENDBRANCH  78  79
ENDBRANCH  46  71
BRANCH  58  83
ATOM     83  C   UNL A   1      39.904  34.169  36.943  1.00  0.00     0.058 A 
ATOM     84  C   UNL A   1      40.527  35.424  36.876  1.00  0.00     0.135 A 
ATOM     85  C   UNL A   1      39.116  33.885  38.070  1.00  0.00     0.135 A 
ATOM     86  F   UNL A   1      41.299  35.739  35.825  1.00  0.00    -0.206 F 
ATOM     87  C   UNL A   1      40.390  36.358  37.899  1.00  0.00     0.059 A 
ATOM     88  C   UNL A   1      38.944  34.813  39.093  1.00  0.00     0.059 A 
ATOM     89  F   UNL A   1      38.493  32.701  38.179  1.00  0.00    -0.206 F 
ATOM     90  C   UNL A   1      39.595  36.043  39.003  1.00  0.00     0.060 A 
BRANCH  90  91
ATOM     91  S   UNL A   1      39.398  37.274  40.309  1.00  0.00     0.124 S 
ATOM     92  O   UNL A   1      38.645  36.524  41.309  1.00  0.00    -0.237 OA
ATOM     93  O   UNL A   1      40.781  37.585  40.658  1.00  0.00    -0.237 OA
ATOM     94  O   UNL A   1      38.668  38.353  39.650  1.00  0.00    -0.744 OA
ENDBRANCH  90  91
ENDBRANCH  58  83
ENDBRANCH  32  33
ENDBRANCH  25  27
ENDBRANCH  24  25
ENDBRANCH  23  24
ENDBRANCH  22  23
ENDBRANCH   1  22
TORSDOF 20
ENDMDL
