MODEL 1
REMARK VINA RESULT:      -9.9      0.000      0.000
REMARK SMILES C[C@H](NC(=O)CCn1ccccc1=O)C(=O)OCCOC(=O)c1ccc(-c2c3nc(c(-c4c(F)cc(S(=O)(=O)[O-])cc4F)c4ccc([nH]4)c(-c4c(F)cc(S(=O)(=O)[O-])cc4F)c4nc(c(-c5c(F)cc(S(=O)(=O)[O-])cc5F)c5ccc2[nH]5)C=C4)C=C3)cc1
REMARK SMILES IDX 18 1 17 2 15 3 16 4 2 5 1 6 3 7 4 8 5 10 6 11 7 12 8 13 9 14
REMARK SMILES IDX 13 15 10 16 12 17 14 18 11 19 19 20 20 21 21 22 22 23 23 24
REMARK SMILES IDX 24 25 88 26 25 27 87 28 26 29 27 30 28 31 81 32 29 33 86 34
REMARK SMILES IDX 80 35 82 36 30 37 85 38 79 39 78 40 31 42 65 43 44 44 64 45
REMARK SMILES IDX 45 46 48 47 63 48 83 49 46 50 47 51 62 53 84 54 49 55 32 56
REMARK SMILES IDX 33 57 42 58 34 59 35 60 41 61 43 62 36 63 37 64 38 65 39 66
REMARK SMILES IDX 40 67 66 68 67 69 76 70 68 71 69 72 75 73 77 74 70 75 71 76
REMARK SMILES IDX 72 77 73 78 74 79 50 80 51 81 60 82 52 83 53 84 59 85 61 86
REMARK SMILES IDX 54 87 55 88 56 89 57 90 58 91
REMARK H PARENT 3 9 82 41 48 52
REMARK Flexibility Score: inf
ROOT
ATOM      1  C   UNL A   1      33.923  34.117  28.243  1.00  0.00     0.274 C 
ENDROOT
BRANCH   1   2
ATOM      2  O   UNL A   1      34.238  35.031  29.302  1.00  0.00    -0.461 OA
BRANCH   2   3
ATOM      3  C   UNL A   1      33.242  35.787  29.853  1.00  0.00     0.328 C 
ATOM      4  O   UNL A   1      32.498  36.538  29.244  1.00  0.00    -0.250 OA
BRANCH   3   5
ATOM      5  C   UNL A   1      33.234  35.503  31.360  1.00  0.00     0.189 C 
ATOM      6  C   UNL A   1      31.993  36.051  32.047  1.00  0.00     0.043 C 
BRANCH   5   7
ATOM      7  N   UNL A   1      34.432  35.814  32.123  1.00  0.00    -0.343 N 
ATOM      8  C   UNL A   1      35.271  34.924  32.732  1.00  0.00     0.222 C 
ATOM      9  H   UNL A   1      34.664  36.767  32.210  1.00  0.00     0.164 HD
ATOM     10  O   UNL A   1      36.037  35.341  33.602  1.00  0.00    -0.275 OA
BRANCH   8  11
ATOM     11  C   UNL A   1      35.352  33.489  32.233  1.00  0.00     0.122 C 
BRANCH  11  12
ATOM     12  C   UNL A   1      36.652  32.985  31.591  1.00  0.00     0.135 C 
BRANCH  12  13
ATOM     13  N   UNL A   1      37.928  33.099  32.334  1.00  0.00    -0.315 N 
ATOM     14  C   UNL A   1      38.335  32.143  33.257  1.00  0.00     0.089 A 
ATOM     15  C   UNL A   1      38.784  34.154  31.984  1.00  0.00     0.250 A 
ATOM     16  C   UNL A   1      39.465  32.269  33.963  1.00  0.00     0.018 A 
ATOM     17  C   UNL A   1      40.049  34.267  32.764  1.00  0.00     0.072 A 
ATOM     18  O   UNL A   1      38.545  34.990  31.117  1.00  0.00    -0.269 OA
ATOM     19  C   UNL A   1      40.341  33.381  33.724  1.00  0.00     0.007 A 
ENDBRANCH  12  13
ENDBRANCH  11  12
ENDBRANCH   8  11
ENDBRANCH   5   7
ENDBRANCH   3   5
ENDBRANCH   2   3
ENDBRANCH   1   2
BRANCH   1  20
ATOM     20  C   UNL A   1      34.097  32.655  28.652  1.00  0.00     0.275 C 
BRANCH  20  21
ATOM     21  O   UNL A   1      34.364  31.821  27.507  1.00  0.00    -0.458 OA
BRANCH  21  22
ATOM     22  C   UNL A   1      34.353  30.495  27.807  1.00  0.00     0.338 C 
ATOM     23  O   UNL A   1      33.362  29.780  27.898  1.00  0.00    -0.246 OA
BRANCH  22  24
ATOM     24  C   UNL A   1      35.724  30.021  28.075  1.00  0.00     0.060 A 
ATOM     25  C   UNL A   1      36.660  29.980  27.047  1.00  0.00     0.016 A 
ATOM     26  C   UNL A   1      36.109  29.692  29.375  1.00  0.00     0.016 A 
ATOM     27  C   UNL A   1      37.964  29.549  27.320  1.00  0.00     0.010 A 
ATOM     28  C   UNL A   1      37.403  29.243  29.652  1.00  0.00     0.010 A 
ATOM     29  C   UNL A   1      38.345  29.169  28.622  1.00  0.00    -0.014 A 
BRANCH  29  30
ATOM     30  C   UNL A   1      39.772  28.885  28.912  1.00  0.00     0.031 A 
ATOM     31  C   UNL A   1      40.403  27.562  28.605  1.00  0.00     0.074 A 
ATOM     32  C   UNL A   1      40.506  29.871  29.465  1.00  0.00     0.049 A 
ATOM     33  N   UNL A   1      41.674  27.260  28.531  1.00  0.00    -0.248 NA
ATOM     34  C   UNL A   1      39.500  26.424  28.380  1.00  0.00     0.031 C 
ATOM     35  C   UNL A   1      39.966  31.151  29.928  1.00  0.00     0.029 A 
ATOM     36  N   UNL A   1      41.852  29.967  29.705  1.00  0.00    -0.354 N 
ATOM     37  C   UNL A   1      41.729  25.911  28.208  1.00  0.00     0.074 A 
ATOM     38  C   UNL A   1      40.361  25.434  28.179  1.00  0.00     0.031 C 
ATOM     39  C   UNL A   1      40.977  31.928  30.342  1.00  0.00     0.029 A 
ATOM     40  C   UNL A   1      42.234  31.209  30.157  1.00  0.00     0.049 A 
ATOM     41  H   UNL A   1      42.481  29.222  29.568  1.00  0.00     0.167 HD
ATOM     42  C   UNL A   1      42.822  25.156  27.932  1.00  0.00     0.037 A 
ATOM     43  C   UNL A   1      43.462  31.730  30.343  1.00  0.00     0.037 A 
ATOM     44  C   UNL A   1      44.174  25.658  27.999  1.00  0.00     0.049 A 
ATOM     45  C   UNL A   1      44.663  30.902  29.984  1.00  0.00     0.074 A 
ATOM     46  C   UNL A   1      45.353  25.017  27.659  1.00  0.00     0.029 A 
ATOM     47  N   UNL A   1      44.526  26.920  28.461  1.00  0.00    -0.354 N 
ATOM     48  N   UNL A   1      44.704  29.681  29.502  1.00  0.00    -0.248 NA
ATOM     49  C   UNL A   1      45.981  31.523  30.167  1.00  0.00     0.031 C 
ATOM     50  C   UNL A   1      46.419  25.874  27.960  1.00  0.00     0.029 A 
ATOM     51  C   UNL A   1      45.903  27.067  28.444  1.00  0.00     0.049 A 
ATOM     52  H   UNL A   1      43.890  27.610  28.758  1.00  0.00     0.167 HD
ATOM     53  C   UNL A   1      46.050  29.390  29.318  1.00  0.00     0.074 A 
ATOM     54  C   UNL A   1      46.789  30.572  29.718  1.00  0.00     0.031 C 
ATOM     55  C   UNL A   1      46.621  28.248  28.861  1.00  0.00     0.037 A 
BRANCH  42  56
ATOM     56  C   UNL A   1      42.609  23.731  27.491  1.00  0.00     0.058 A 
ATOM     57  C   UNL A   1      42.487  23.405  26.131  1.00  0.00     0.135 A 
ATOM     58  C   UNL A   1      42.596  22.672  28.415  1.00  0.00     0.135 A 
ATOM     59  F   UNL A   1      42.492  24.373  25.200  1.00  0.00    -0.206 F 
ATOM     60  C   UNL A   1      42.332  22.090  25.703  1.00  0.00     0.059 A 
ATOM     61  C   UNL A   1      42.466  21.344  28.008  1.00  0.00     0.059 A 
ATOM     62  F   UNL A   1      42.717  22.919  29.728  1.00  0.00    -0.206 F 
ATOM     63  C   UNL A   1      42.323  21.064  26.650  1.00  0.00     0.060 A 
BRANCH  63  64
ATOM     64  S   UNL A   1      42.125  19.366  26.069  1.00  0.00     0.124 S 
ATOM     65  O   UNL A   1      40.710  19.343  25.712  1.00  0.00    -0.237 OA
ATOM     66  O   UNL A   1      43.060  19.311  24.950  1.00  0.00    -0.237 OA
ATOM     67  O   UNL A   1      42.493  18.562  27.230  1.00  0.00    -0.744 OA
ENDBRANCH  63  64
ENDBRANCH  42  56
BRANCH  43  68
ATOM     68  C   UNL A   1      43.588  33.143  30.785  1.00  0.00     0.058 A 
ATOM     69  C   UNL A   1      43.660  33.462  32.149  1.00  0.00     0.135 A 
ATOM     70  C   UNL A   1      43.730  34.188  29.859  1.00  0.00     0.135 A 
ATOM     71  F   UNL A   1      43.534  32.497  33.072  1.00  0.00    -0.206 F 
ATOM     72  C   UNL A   1      43.873  34.767  32.581  1.00  0.00     0.059 A 
ATOM     73  C   UNL A   1      43.964  35.498  30.266  1.00  0.00     0.059 A 
ATOM     74  F   UNL A   1      43.694  33.929  28.543  1.00  0.00    -0.206 F 
ATOM     75  C   UNL A   1      44.033  35.778  31.632  1.00  0.00     0.060 A 
BRANCH  75  76
ATOM     76  S   UNL A   1      44.392  37.452  32.208  1.00  0.00     0.124 S 
ATOM     77  O   UNL A   1      45.818  37.361  32.505  1.00  0.00    -0.237 OA
ATOM     78  O   UNL A   1      44.032  38.257  31.045  1.00  0.00    -0.237 OA
ATOM     79  O   UNL A   1      43.515  37.605  33.365  1.00  0.00    -0.744 OA
ENDBRANCH  75  76
ENDBRANCH  43  68
BRANCH  55  80
ATOM     80  C   UNL A   1      48.122  28.204  28.790  1.00  0.00     0.058 A 
ATOM     81  C   UNL A   1      48.885  27.732  29.869  1.00  0.00     0.135 A 
ATOM     82  C   UNL A   1      48.794  28.544  27.606  1.00  0.00     0.135 A 
ATOM     83  F   UNL A   1      48.291  27.403  31.025  1.00  0.00    -0.206 F 
ATOM     84  C   UNL A   1      50.267  27.599  29.776  1.00  0.00     0.059 A 
ATOM     85  C   UNL A   1      50.173  28.398  27.483  1.00  0.00     0.059 A 
ATOM     86  F   UNL A   1      48.107  28.996  26.544  1.00  0.00    -0.206 F 
ATOM     87  C   UNL A   1      50.901  27.925  28.574  1.00  0.00     0.060 A 
BRANCH  87  88
ATOM     88  S   UNL A   1      52.684  27.678  28.449  1.00  0.00     0.124 S 
ATOM     89  O   UNL A   1      52.949  28.129  27.086  1.00  0.00    -0.237 OA
ATOM     90  O   UNL A   1      53.193  28.540  29.511  1.00  0.00    -0.237 OA
ATOM     91  O   UNL A   1      52.847  26.246  28.679  1.00  0.00    -0.744 OA
ENDBRANCH  87  88
ENDBRANCH  55  80
ENDBRANCH  29  30
ENDBRANCH  22  24
ENDBRANCH  21  22
ENDBRANCH  20  21
ENDBRANCH   1  20
TORSDOF 18
ENDMDL
MODEL 2
REMARK VINA RESULT:      -9.6      3.197      6.067
REMARK SMILES C[C@H](NC(=O)CCn1ccccc1=O)C(=O)OCCOC(=O)c1ccc(-c2c3nc(c(-c4c(F)cc(S(=O)(=O)[O-])cc4F)c4ccc([nH]4)c(-c4c(F)cc(S(=O)(=O)[O-])cc4F)c4nc(c(-c5c(F)cc(S(=O)(=O)[O-])cc5F)c5ccc2[nH]5)C=C4)C=C3)cc1
REMARK SMILES IDX 18 1 17 2 15 3 16 4 2 5 1 6 3 7 4 8 5 10 6 11 7 12 8 13 9 14
REMARK SMILES IDX 13 15 10 16 12 17 14 18 11 19 19 20 20 21 21 22 22 23 23 24
REMARK SMILES IDX 24 25 88 26 25 27 87 28 26 29 27 30 28 31 81 32 29 33 86 34
REMARK SMILES IDX 80 35 82 36 30 37 85 38 79 39 78 40 31 42 65 43 44 44 64 45
REMARK SMILES IDX 45 46 48 47 63 48 83 49 46 50 47 51 62 53 84 54 49 55 32 56
REMARK SMILES IDX 33 57 42 58 34 59 35 60 41 61 43 62 36 63 37 64 38 65 39 66
REMARK SMILES IDX 40 67 66 68 67 69 76 70 68 71 69 72 75 73 77 74 70 75 71 76
REMARK SMILES IDX 72 77 73 78 74 79 50 80 51 81 60 82 52 83 53 84 59 85 61 86
REMARK SMILES IDX 54 87 55 88 56 89 57 90 58 91
REMARK H PARENT 3 9 82 41 48 52
REMARK Flexibility Score: inf
ROOT
ATOM      1  C   UNL A   1      32.008  29.176  26.116  1.00  0.00     0.274 C 
ENDROOT
BRANCH   1   2
ATOM      2  O   UNL A   1      32.783  28.023  25.762  1.00  0.00    -0.461 OA
BRANCH   2   3
ATOM      3  C   UNL A   1      32.334  26.781  26.115  1.00  0.00     0.328 C 
ATOM      4  O   UNL A   1      31.535  26.540  27.005  1.00  0.00    -0.250 OA
BRANCH   3   5
ATOM      5  C   UNL A   1      33.011  25.769  25.183  1.00  0.00     0.189 C 
ATOM      6  C   UNL A   1      34.214  25.099  25.830  1.00  0.00     0.043 C 
BRANCH   5   7
ATOM      7  N   UNL A   1      33.314  26.184  23.824  1.00  0.00    -0.343 N 
ATOM      8  C   UNL A   1      33.313  25.397  22.705  1.00  0.00     0.222 C 
ATOM      9  H   UNL A   1      33.544  27.132  23.693  1.00  0.00     0.164 HD
ATOM     10  O   UNL A   1      33.902  25.804  21.703  1.00  0.00    -0.275 OA
BRANCH   8  11
ATOM     11  C   UNL A   1      32.477  24.127  22.668  1.00  0.00     0.122 C 
BRANCH  11  12
ATOM     12  C   UNL A   1      33.176  22.766  22.561  1.00  0.00     0.135 C 
BRANCH  12  13
ATOM     13  N   UNL A   1      34.082  22.320  23.644  1.00  0.00    -0.315 N 
ATOM     14  C   UNL A   1      33.639  21.535  24.702  1.00  0.00     0.089 A 
ATOM     15  C   UNL A   1      35.446  22.614  23.505  1.00  0.00     0.250 A 
ATOM     16  C   UNL A   1      34.445  21.171  25.706  1.00  0.00     0.018 A 
ATOM     17  C   UNL A   1      36.335  22.182  24.621  1.00  0.00     0.072 A 
ATOM     18  O   UNL A   1      35.936  23.222  22.558  1.00  0.00    -0.269 OA
ATOM     19  C   UNL A   1      35.836  21.526  25.675  1.00  0.00     0.007 A 
ENDBRANCH  12  13
ENDBRANCH  11  12
ENDBRANCH   8  11
ENDBRANCH   5   7
ENDBRANCH   3   5
ENDBRANCH   2   3
ENDBRANCH   1   2
BRANCH   1  20
ATOM     20  C   UNL A   1      32.610  29.958  27.284  1.00  0.00     0.275 C 
BRANCH  20  21
ATOM     21  O   UNL A   1      34.021  30.178  27.093  1.00  0.00    -0.458 OA
BRANCH  21  22
ATOM     22  C   UNL A   1      34.603  30.812  28.146  1.00  0.00     0.338 C 
ATOM     23  O   UNL A   1      34.112  31.721  28.806  1.00  0.00    -0.246 OA
BRANCH  22  24
ATOM     24  C   UNL A   1      35.965  30.294  28.366  1.00  0.00     0.060 A 
ATOM     25  C   UNL A   1      36.853  30.195  27.299  1.00  0.00     0.016 A 
ATOM     26  C   UNL A   1      36.395  29.979  29.655  1.00  0.00     0.016 A 
ATOM     27  C   UNL A   1      38.151  29.722  27.526  1.00  0.00     0.010 A 
ATOM     28  C   UNL A   1      37.683  29.489  29.886  1.00  0.00     0.010 A 
ATOM     29  C   UNL A   1      38.575  29.357  28.819  1.00  0.00    -0.014 A 
BRANCH  29  30
ATOM     30  C   UNL A   1      40.003  29.027  29.054  1.00  0.00     0.031 A 
ATOM     31  C   UNL A   1      40.580  27.685  28.719  1.00  0.00     0.074 A 
ATOM     32  C   UNL A   1      40.788  29.986  29.581  1.00  0.00     0.049 A 
ATOM     33  N   UNL A   1      41.837  27.344  28.595  1.00  0.00    -0.248 NA
ATOM     34  C   UNL A   1      39.633  26.578  28.524  1.00  0.00     0.031 C 
ATOM     35  C   UNL A   1      40.307  31.280  30.070  1.00  0.00     0.029 A 
ATOM     36  N   UNL A   1      42.145  30.038  29.771  1.00  0.00    -0.354 N 
ATOM     37  C   UNL A   1      41.836  25.995  28.266  1.00  0.00     0.074 A 
ATOM     38  C   UNL A   1      40.453  25.562  28.287  1.00  0.00     0.031 C 
ATOM     39  C   UNL A   1      41.358  32.023  30.448  1.00  0.00     0.029 A 
ATOM     40  C   UNL A   1      42.583  31.265  30.212  1.00  0.00     0.049 A 
ATOM     41  H   UNL A   1      42.744  29.275  29.607  1.00  0.00     0.167 HD
ATOM     42  C   UNL A   1      42.893  25.208  27.946  1.00  0.00     0.037 A 
ATOM     43  C   UNL A   1      43.833  31.746  30.354  1.00  0.00     0.037 A 
ATOM     44  C   UNL A   1      44.262  25.666  27.964  1.00  0.00     0.049 A 
ATOM     45  C   UNL A   1      44.993  30.882  29.946  1.00  0.00     0.074 A 
ATOM     46  C   UNL A   1      45.406  24.989  27.577  1.00  0.00     0.029 A 
ATOM     47  N   UNL A   1      44.672  26.914  28.416  1.00  0.00    -0.354 N 
ATOM     48  N   UNL A   1      44.976  29.663  29.459  1.00  0.00    -0.248 NA
ATOM     49  C   UNL A   1      46.336  31.460  30.082  1.00  0.00     0.031 C 
ATOM     50  C   UNL A   1      46.509  25.810  27.839  1.00  0.00     0.029 A 
ATOM     51  C   UNL A   1      46.051  27.016  28.347  1.00  0.00     0.049 A 
ATOM     52  H   UNL A   1      44.069  27.622  28.739  1.00  0.00     0.167 HD
ATOM     53  C   UNL A   1      46.304  29.330  29.223  1.00  0.00     0.074 A 
ATOM     54  C   UNL A   1      47.096  30.486  29.598  1.00  0.00     0.031 C 
ATOM     55  C   UNL A   1      46.822  28.172  28.741  1.00  0.00     0.037 A 
BRANCH  42  56
ATOM     56  C   UNL A   1      42.618  23.792  27.509  1.00  0.00     0.058 A 
ATOM     57  C   UNL A   1      42.489  23.467  26.148  1.00  0.00     0.135 A 
ATOM     58  C   UNL A   1      42.551  22.737  28.436  1.00  0.00     0.135 A 
ATOM     59  F   UNL A   1      42.544  24.430  25.214  1.00  0.00    -0.206 F 
ATOM     60  C   UNL A   1      42.277  22.158  25.724  1.00  0.00     0.059 A 
ATOM     61  C   UNL A   1      42.364  21.416  28.032  1.00  0.00     0.059 A 
ATOM     62  F   UNL A   1      42.676  22.984  29.749  1.00  0.00    -0.206 F 
ATOM     63  C   UNL A   1      42.216  21.138  26.674  1.00  0.00     0.060 A 
BRANCH  63  64
ATOM     64  S   UNL A   1      41.945  19.448  26.098  1.00  0.00     0.124 S 
ATOM     65  O   UNL A   1      42.415  18.671  27.240  1.00  0.00    -0.237 OA
ATOM     66  O   UNL A   1      40.504  19.426  25.869  1.00  0.00    -0.237 OA
ATOM     67  O   UNL A   1      42.769  19.360  24.896  1.00  0.00    -0.744 OA
ENDBRANCH  63  64
ENDBRANCH  42  56
BRANCH  43  68
ATOM     68  C   UNL A   1      44.021  33.152  30.796  1.00  0.00     0.058 A 
ATOM     69  C   UNL A   1      44.004  34.203  29.868  1.00  0.00     0.135 A 
ATOM     70  C   UNL A   1      44.128  33.482  32.156  1.00  0.00     0.135 A 
ATOM     71  F   UNL A   1      43.898  33.937  28.556  1.00  0.00    -0.206 F 
ATOM     72  C   UNL A   1      44.082  35.532  30.270  1.00  0.00     0.059 A 
ATOM     73  C   UNL A   1      44.188  34.804  32.585  1.00  0.00     0.059 A 
ATOM     74  F   UNL A   1      44.123  32.513  33.084  1.00  0.00    -0.206 F 
ATOM     75  C   UNL A   1      44.164  35.824  31.632  1.00  0.00     0.060 A 
BRANCH  75  76
ATOM     76  S   UNL A   1      44.181  37.557  32.142  1.00  0.00     0.124 S 
ATOM     77  O   UNL A   1      43.736  38.226  30.925  1.00  0.00    -0.237 OA
ATOM     78  O   UNL A   1      43.233  37.555  33.253  1.00  0.00    -0.237 OA
ATOM     79  O   UNL A   1      45.573  37.784  32.515  1.00  0.00    -0.744 OA
ENDBRANCH  75  76
ENDBRANCH  43  68
BRANCH  55  80
ATOM     80  C   UNL A   1      48.316  28.081  28.613  1.00  0.00     0.058 A 
ATOM     81  C   UNL A   1      49.100  27.537  29.642  1.00  0.00     0.135 A 
ATOM     82  C   UNL A   1      48.958  28.450  27.420  1.00  0.00     0.135 A 
ATOM     83  F   UNL A   1      48.536  27.178  30.805  1.00  0.00    -0.206 F 
ATOM     84  C   UNL A   1      50.472  27.362  29.492  1.00  0.00     0.059 A 
ATOM     85  C   UNL A   1      50.325  28.262  27.240  1.00  0.00     0.059 A 
ATOM     86  F   UNL A   1      48.250  28.970  26.404  1.00  0.00    -0.206 F 
ATOM     87  C   UNL A   1      51.074  27.719  28.283  1.00  0.00     0.060 A 
BRANCH  87  88
ATOM     88  S   UNL A   1      52.842  27.417  28.082  1.00  0.00     0.124 S 
ATOM     89  O   UNL A   1      52.874  25.971  27.888  1.00  0.00    -0.237 OA
ATOM     90  O   UNL A   1      53.162  28.221  26.906  1.00  0.00    -0.237 OA
ATOM     91  O   UNL A   1      53.415  27.894  29.336  1.00  0.00    -0.744 OA
ENDBRANCH  87  88
ENDBRANCH  55  80
ENDBRANCH  29  30
ENDBRANCH  22  24
ENDBRANCH  21  22
ENDBRANCH  20  21
ENDBRANCH   1  20
TORSDOF 18
ENDMDL
MODEL 3
REMARK VINA RESULT:      -9.6      2.737      3.653
REMARK SMILES C[C@H](NC(=O)CCn1ccccc1=O)C(=O)OCCOC(=O)c1ccc(-c2c3nc(c(-c4c(F)cc(S(=O)(=O)[O-])cc4F)c4ccc([nH]4)c(-c4c(F)cc(S(=O)(=O)[O-])cc4F)c4nc(c(-c5c(F)cc(S(=O)(=O)[O-])cc5F)c5ccc2[nH]5)C=C4)C=C3)cc1
REMARK SMILES IDX 18 1 17 2 15 3 16 4 2 5 1 6 3 7 4 8 5 10 6 11 7 12 8 13 9 14
REMARK SMILES IDX 13 15 10 16 12 17 14 18 11 19 19 20 20 21 21 22 22 23 23 24
REMARK SMILES IDX 24 25 88 26 25 27 87 28 26 29 27 30 28 31 81 32 29 33 86 34
REMARK SMILES IDX 80 35 82 36 30 37 85 38 79 39 78 40 31 42 65 43 44 44 64 45
REMARK SMILES IDX 45 46 48 47 63 48 83 49 46 50 47 51 62 53 84 54 49 55 32 56
REMARK SMILES IDX 33 57 42 58 34 59 35 60 41 61 43 62 36 63 37 64 38 65 39 66
REMARK SMILES IDX 40 67 66 68 67 69 76 70 68 71 69 72 75 73 77 74 70 75 71 76
REMARK SMILES IDX 72 77 73 78 74 79 50 80 51 81 60 82 52 83 53 84 59 85 61 86
REMARK SMILES IDX 54 87 55 88 56 89 57 90 58 91
REMARK H PARENT 3 9 82 41 48 52
REMARK Flexibility Score: inf
ROOT
ATOM      1  C   UNL A   1      33.978  34.152  27.992  1.00  0.00     0.274 C 
ENDROOT
BRANCH   1   2
ATOM      2  O   UNL A   1      34.137  34.901  29.204  1.00  0.00    -0.461 OA
BRANCH   2   3
ATOM      3  C   UNL A   1      33.100  35.663  29.662  1.00  0.00     0.328 C 
ATOM      4  O   UNL A   1      32.368  36.355  28.975  1.00  0.00    -0.250 OA
BRANCH   3   5
ATOM      5  C   UNL A   1      33.029  35.471  31.183  1.00  0.00     0.189 C 
ATOM      6  C   UNL A   1      31.727  35.991  31.772  1.00  0.00     0.043 C 
BRANCH   5   7
ATOM      7  N   UNL A   1      34.168  35.892  31.981  1.00  0.00    -0.343 N 
ATOM      8  C   UNL A   1      34.911  35.115  32.825  1.00  0.00     0.222 C 
ATOM      9  H   UNL A   1      34.433  36.837  31.906  1.00  0.00     0.164 HD
ATOM     10  O   UNL A   1      35.617  35.673  33.666  1.00  0.00    -0.275 OA
BRANCH   8  11
ATOM     11  C   UNL A   1      34.972  33.609  32.618  1.00  0.00     0.122 C 
BRANCH  11  12
ATOM     12  C   UNL A   1      36.332  32.931  32.405  1.00  0.00     0.135 C 
BRANCH  12  13
ATOM     13  N   UNL A   1      37.233  33.416  31.335  1.00  0.00    -0.315 N 
ATOM     14  C   UNL A   1      37.010  33.128  29.994  1.00  0.00     0.089 A 
ATOM     15  C   UNL A   1      38.266  34.288  31.709  1.00  0.00     0.250 A 
ATOM     16  C   UNL A   1      37.850  33.527  29.030  1.00  0.00     0.018 A 
ATOM     17  C   UNL A   1      39.178  34.741  30.621  1.00  0.00     0.072 A 
ATOM     18  O   UNL A   1      38.478  34.667  32.858  1.00  0.00    -0.269 OA
ATOM     19  C   UNL A   1      38.985  34.342  29.358  1.00  0.00     0.007 A 
ENDBRANCH  12  13
ENDBRANCH  11  12
ENDBRANCH   8  11
ENDBRANCH   5   7
ENDBRANCH   3   5
ENDBRANCH   2   3
ENDBRANCH   1   2
BRANCH   1  20
ATOM     20  C   UNL A   1      33.905  32.644  28.232  1.00  0.00     0.275 C 
BRANCH  20  21
ATOM     21  O   UNL A   1      34.817  31.934  27.372  1.00  0.00    -0.458 OA
BRANCH  21  22
ATOM     22  C   UNL A   1      34.780  30.588  27.560  1.00  0.00     0.338 C 
ATOM     23  O   UNL A   1      33.829  29.850  27.329  1.00  0.00    -0.246 OA
BRANCH  22  24
ATOM     24  C   UNL A   1      36.046  30.119  28.152  1.00  0.00     0.060 A 
ATOM     25  C   UNL A   1      37.235  30.241  27.439  1.00  0.00     0.016 A 
ATOM     26  C   UNL A   1      36.070  29.631  29.459  1.00  0.00     0.016 A 
ATOM     27  C   UNL A   1      38.434  29.812  28.022  1.00  0.00     0.010 A 
ATOM     28  C   UNL A   1      37.260  29.185  30.040  1.00  0.00     0.010 A 
ATOM     29  C   UNL A   1      38.456  29.273  29.323  1.00  0.00    -0.014 A 
BRANCH  29  30
ATOM     30  C   UNL A   1      39.759  28.992  29.975  1.00  0.00     0.031 A 
ATOM     31  C   UNL A   1      40.695  27.937  29.470  1.00  0.00     0.074 A 
ATOM     32  C   UNL A   1      40.091  29.729  31.053  1.00  0.00     0.049 A 
ATOM     33  N   UNL A   1      41.964  27.771  29.744  1.00  0.00    -0.248 NA
ATOM     34  C   UNL A   1      40.137  26.922  28.566  1.00  0.00     0.031 C 
ATOM     35  C   UNL A   1      39.202  30.689  31.711  1.00  0.00     0.029 A 
ATOM     36  N   UNL A   1      41.260  29.810  31.765  1.00  0.00    -0.354 N 
ATOM     37  C   UNL A   1      42.371  26.662  29.015  1.00  0.00     0.074 A 
ATOM     38  C   UNL A   1      41.192  26.146  28.348  1.00  0.00     0.031 C 
ATOM     39  C   UNL A   1      39.875  31.306  32.693  1.00  0.00     0.029 A 
ATOM     40  C   UNL A   1      41.244  30.799  32.721  1.00  0.00     0.049 A 
ATOM     41  H   UNL A   1      42.032  29.221  31.607  1.00  0.00     0.167 HD
ATOM     42  C   UNL A   1      43.621  26.148  28.895  1.00  0.00     0.037 A 
ATOM     43  C   UNL A   1      42.236  31.285  33.492  1.00  0.00     0.037 A 
ATOM     44  C   UNL A   1      44.768  26.669  29.598  1.00  0.00     0.049 A 
ATOM     45  C   UNL A   1      43.625  30.743  33.310  1.00  0.00     0.074 A 
ATOM     46  C   UNL A   1      46.095  26.290  29.491  1.00  0.00     0.029 A 
ATOM     47  N   UNL A   1      44.717  27.671  30.559  1.00  0.00    -0.354 N 
ATOM     48  N   UNL A   1      44.042  29.812  32.483  1.00  0.00    -0.248 NA
ATOM     49  C   UNL A   1      44.684  31.327  34.144  1.00  0.00     0.031 C 
ATOM     50  C   UNL A   1      46.837  27.029  30.420  1.00  0.00     0.029 A 
ATOM     51  C   UNL A   1      45.982  27.902  31.075  1.00  0.00     0.049 A 
ATOM     52  H   UNL A   1      43.901  28.148  30.835  1.00  0.00     0.167 HD
ATOM     53  C   UNL A   1      45.411  29.704  32.691  1.00  0.00     0.074 A 
ATOM     54  C   UNL A   1      45.756  30.681  33.705  1.00  0.00     0.031 C 
ATOM     55  C   UNL A   1      46.302  28.870  32.097  1.00  0.00     0.037 A 
BRANCH  42  56
ATOM     56  C   UNL A   1      43.826  24.996  27.944  1.00  0.00     0.058 A 
ATOM     57  C   UNL A   1      43.621  23.670  28.359  1.00  0.00     0.135 A 
ATOM     58  C   UNL A   1      44.159  25.209  26.596  1.00  0.00     0.135 A 
ATOM     59  F   UNL A   1      43.302  23.402  29.635  1.00  0.00    -0.206 F 
ATOM     60  C   UNL A   1      43.766  22.598  27.484  1.00  0.00     0.059 A 
ATOM     61  C   UNL A   1      44.285  24.152  25.695  1.00  0.00     0.059 A 
ATOM     62  F   UNL A   1      44.359  26.455  26.137  1.00  0.00    -0.206 F 
ATOM     63  C   UNL A   1      44.098  22.849  26.151  1.00  0.00     0.060 A 
BRANCH  63  64
ATOM     64  S   UNL A   1      44.274  21.440  25.035  1.00  0.00     0.124 S 
ATOM     65  O   UNL A   1      43.100  20.646  25.380  1.00  0.00    -0.237 OA
ATOM     66  O   UNL A   1      44.240  22.079  23.723  1.00  0.00    -0.237 OA
ATOM     67  O   UNL A   1      45.558  20.861  25.415  1.00  0.00    -0.744 OA
ENDBRANCH  63  64
ENDBRANCH  42  56
BRANCH  43  68
ATOM     68  C   UNL A   1      41.950  32.418  34.409  1.00  0.00     0.058 A 
ATOM     69  C   UNL A   1      42.009  33.742  33.951  1.00  0.00     0.135 A 
ATOM     70  C   UNL A   1      41.525  32.200  35.729  1.00  0.00     0.135 A 
ATOM     71  F   UNL A   1      42.406  34.001  32.695  1.00  0.00    -0.206 F 
ATOM     72  C   UNL A   1      41.653  34.811  34.767  1.00  0.00     0.059 A 
ATOM     73  C   UNL A   1      41.145  33.251  36.558  1.00  0.00     0.059 A 
ATOM     74  F   UNL A   1      41.429  30.949  36.205  1.00  0.00    -0.206 F 
ATOM     75  C   UNL A   1      41.213  34.555  36.066  1.00  0.00     0.060 A 
BRANCH  75  76
ATOM     76  S   UNL A   1      40.676  35.948  37.084  1.00  0.00     0.124 S 
ATOM     77  O   UNL A   1      41.940  36.626  37.346  1.00  0.00    -0.237 OA
ATOM     78  O   UNL A   1      39.753  36.640  36.189  1.00  0.00    -0.237 OA
ATOM     79  O   UNL A   1      40.055  35.302  38.237  1.00  0.00    -0.744 OA
ENDBRANCH  75  76
ENDBRANCH  43  68
BRANCH  55  80
ATOM     80  C   UNL A   1      47.734  28.955  32.543  1.00  0.00     0.058 A 
ATOM     81  C   UNL A   1      48.627  29.857  31.944  1.00  0.00     0.135 A 
ATOM     82  C   UNL A   1      48.192  28.203  33.637  1.00  0.00     0.135 A 
ATOM     83  F   UNL A   1      48.241  30.591  30.890  1.00  0.00    -0.206 F 
ATOM     84  C   UNL A   1      49.928  30.009  32.414  1.00  0.00     0.059 A 
ATOM     85  C   UNL A   1      49.481  28.356  34.137  1.00  0.00     0.059 A 
ATOM     86  F   UNL A   1      47.373  27.331  34.247  1.00  0.00    -0.206 F 
ATOM     87  C   UNL A   1      50.342  29.261  33.518  1.00  0.00     0.060 A 
BRANCH  87  88
ATOM     88  S   UNL A   1      52.009  29.525  34.158  1.00  0.00     0.124 S 
ATOM     89  O   UNL A   1      51.760  29.637  35.592  1.00  0.00    -0.237 OA
ATOM     90  O   UNL A   1      52.702  28.314  33.729  1.00  0.00    -0.237 OA
ATOM     91  O   UNL A   1      52.438  30.754  33.498  1.00  0.00    -0.744 OA
ENDBRANCH  87  88
ENDBRANCH  55  80
ENDBRANCH  29  30
ENDBRANCH  22  24
ENDBRANCH  21  22
ENDBRANCH  20  21
ENDBRANCH   1  20
TORSDOF 18
ENDMDL
