MODEL 1
REMARK VINA RESULT:     -10.5      0.000      0.000
REMARK SMILES CCOc1cc(N2CCC[C@@H](C(=O)OCCOC(=O)c3ccc(-c4c5nc(c(-c6c(F)cc(S(=O)(=O)[O-])cc6F)c6ccc([nH]6)c(-c6c(F)cc(S(=O)(=O)[O-])cc6F)c6nc(c(-c7c(F)cc(S(=O)(=O)[O-])cc7F)c7ccc4[nH]7)C=C6)C=C5)cc3)C2)nc(SC)n1
REMARK SMILES IDX 15 1 14 2 12 3 13 4 11 5 7 6 8 7 86 8 9 9 10 10 6 11 4 12
REMARK SMILES IDX 5 13 91 14 88 15 87 16 3 17 2 18 1 19 89 20 90 21 16 22
REMARK SMILES IDX 17 23 18 24 19 25 20 26 21 27 85 28 22 29 84 30 23 31 24 32
REMARK SMILES IDX 25 33 78 34 26 35 83 36 77 37 79 38 27 39 82 40 76 41 75 42
REMARK SMILES IDX 28 44 62 45 41 46 61 47 42 48 45 49 60 50 80 51 43 52 44 53
REMARK SMILES IDX 59 55 81 56 46 57 29 58 30 59 39 60 31 61 32 62 38 63 40 64
REMARK SMILES IDX 33 65 34 66 35 67 36 68 37 69 63 70 64 71 73 72 65 73 66 74
REMARK SMILES IDX 72 75 74 76 67 77 68 78 69 79 70 80 71 81 47 82 48 83 57 84
REMARK SMILES IDX 49 85 50 86 56 87 58 88 51 89 52 90 53 91 54 92 55 93
REMARK H PARENT 79 43 45 54
REMARK Flexibility Score: inf
ROOT
ATOM      1  C   UNL A   1      41.691  21.642  26.107  1.00  0.00     0.274 C 
ENDROOT
BRANCH   1   2
ATOM      2  O   UNL A   1      40.312  21.667  26.525  1.00  0.00    -0.462 OA
BRANCH   2   3
ATOM      3  C   UNL A   1      39.444  20.937  25.773  1.00  0.00     0.310 C 
ATOM      4  O   UNL A   1      39.613  19.765  25.465  1.00  0.00    -0.252 OA
BRANCH   3   5
ATOM      5  C   UNL A   1      38.184  21.722  25.463  1.00  0.00     0.118 C 
ATOM      6  N   UNL A   1      35.757  21.856  25.612  1.00  0.00    -0.356 N 
ATOM      7  C   UNL A   1      35.755  23.209  26.167  1.00  0.00     0.118 C 
ATOM      8  C   UNL A   1      36.912  21.001  25.895  1.00  0.00     0.133 C 
ATOM      9  C   UNL A   1      37.021  23.944  25.747  1.00  0.00     0.022 C 
ATOM     10  C   UNL A   1      38.262  23.125  26.086  1.00  0.00     0.019 C 
BRANCH   6  11
ATOM     11  C   UNL A   1      34.621  21.412  24.969  1.00  0.00     0.137 A 
ATOM     12  C   UNL A   1      33.121  19.739  24.335  1.00  0.00     0.219 A 
ATOM     13  C   UNL A   1      34.351  20.073  24.842  1.00  0.00     0.115 A 
ATOM     14  N   UNL A   1      32.239  20.611  23.842  1.00  0.00    -0.187 NA
ATOM     15  C   UNL A   1      32.626  21.889  23.906  1.00  0.00     0.192 A 
ATOM     16  N   UNL A   1      33.751  22.322  24.500  1.00  0.00    -0.205 NA
BRANCH  12  17
ATOM     17  O   UNL A   1      32.751  18.414  24.329  1.00  0.00    -0.478 OA
BRANCH  17  18
ATOM     18  C   UNL A   1      32.974  17.843  23.032  1.00  0.00     0.228 C 
ATOM     19  C   UNL A   1      34.082  16.798  23.084  1.00  0.00     0.049 C 
ENDBRANCH  17  18
ENDBRANCH  12  17
BRANCH  15  20
ATOM     20  S   UNL A   1      31.544  23.096  23.175  1.00  0.00    -0.089 SA
ATOM     21  C   UNL A   1      32.773  24.147  22.355  1.00  0.00     0.094 C 
ENDBRANCH  15  20
ENDBRANCH   6  11
ENDBRANCH   3   5
ENDBRANCH   2   3
ENDBRANCH   1   2
BRANCH   1  22
ATOM     22  C   UNL A   1      42.227  23.064  25.904  1.00  0.00     0.275 C 
BRANCH  22  23
ATOM     23  O   UNL A   1      41.488  24.037  26.668  1.00  0.00    -0.458 OA
BRANCH  23  24
ATOM     24  C   UNL A   1      41.718  25.328  26.325  1.00  0.00     0.338 C 
ATOM     25  O   UNL A   1      42.042  25.746  25.226  1.00  0.00    -0.246 OA
BRANCH  24  26
ATOM     26  C   UNL A   1      41.384  26.219  27.450  1.00  0.00     0.060 A 
ATOM     27  C   UNL A   1      42.212  27.322  27.674  1.00  0.00     0.016 A 
ATOM     28  C   UNL A   1      40.326  25.947  28.319  1.00  0.00     0.016 A 
ATOM     29  C   UNL A   1      41.987  28.166  28.754  1.00  0.00     0.010 A 
ATOM     30  C   UNL A   1      40.105  26.792  29.415  1.00  0.00     0.010 A 
ATOM     31  C   UNL A   1      40.938  27.903  29.637  1.00  0.00    -0.014 A 
BRANCH  31  32
ATOM     32  C   UNL A   1      40.764  28.776  30.818  1.00  0.00     0.031 A 
ATOM     33  C   UNL A   1      39.702  29.835  30.810  1.00  0.00     0.074 A 
ATOM     34  C   UNL A   1      41.520  28.572  31.913  1.00  0.00     0.049 A 
ATOM     35  N   UNL A   1      39.428  30.735  31.717  1.00  0.00    -0.248 NA
ATOM     36  C   UNL A   1      38.826  29.881  29.628  1.00  0.00     0.031 C 
ATOM     37  C   UNL A   1      42.532  27.523  32.055  1.00  0.00     0.029 A 
ATOM     38  N   UNL A   1      41.552  29.234  33.113  1.00  0.00    -0.354 N 
ATOM     39  C   UNL A   1      38.364  31.470  31.211  1.00  0.00     0.074 A 
ATOM     40  C   UNL A   1      38.045  30.914  29.912  1.00  0.00     0.031 C 
ATOM     41  C   UNL A   1      43.088  27.616  33.273  1.00  0.00     0.029 A 
ATOM     42  C   UNL A   1      42.507  28.755  33.977  1.00  0.00     0.049 A 
ATOM     43  H   UNL A   1      40.949  29.979  33.335  1.00  0.00     0.167 HD
ATOM     44  C   UNL A   1      37.715  32.513  31.781  1.00  0.00     0.037 A 
ATOM     45  C   UNL A   1      42.892  29.209  35.186  1.00  0.00     0.037 A 
ATOM     46  C   UNL A   1      38.035  33.049  33.078  1.00  0.00     0.049 A 
ATOM     47  C   UNL A   1      42.206  30.415  35.765  1.00  0.00     0.074 A 
ATOM     48  C   UNL A   1      37.440  34.104  33.745  1.00  0.00     0.029 A 
ATOM     49  N   UNL A   1      39.042  32.570  33.905  1.00  0.00    -0.354 N 
ATOM     50  N   UNL A   1      41.215  31.116  35.268  1.00  0.00    -0.248 NA
ATOM     51  C   UNL A   1      42.695  30.899  37.064  1.00  0.00     0.031 C 
ATOM     52  C   UNL A   1      38.111  34.288  34.959  1.00  0.00     0.029 A 
ATOM     53  C   UNL A   1      39.099  33.322  35.067  1.00  0.00     0.049 A 
ATOM     54  H   UNL A   1      39.628  31.807  33.697  1.00  0.00     0.167 HD
ATOM     55  C   UNL A   1      40.953  32.116  36.198  1.00  0.00     0.074 A 
ATOM     56  C   UNL A   1      41.879  31.919  37.294  1.00  0.00     0.031 C 
ATOM     57  C   UNL A   1      40.029  33.108  36.147  1.00  0.00     0.037 A 
BRANCH  44  58
ATOM     58  C   UNL A   1      36.620  33.166  30.987  1.00  0.00     0.058 A 
ATOM     59  C   UNL A   1      36.895  34.047  29.931  1.00  0.00     0.135 A 
ATOM     60  C   UNL A   1      35.275  32.887  31.276  1.00  0.00     0.135 A 
ATOM     61  F   UNL A   1      38.165  34.362  29.625  1.00  0.00    -0.206 F 
ATOM     62  C   UNL A   1      35.873  34.650  29.203  1.00  0.00     0.059 A 
ATOM     63  C   UNL A   1      34.237  33.461  30.549  1.00  0.00     0.059 A 
ATOM     64  F   UNL A   1      34.958  32.054  32.279  1.00  0.00    -0.206 F 
ATOM     65  C   UNL A   1      34.547  34.353  29.522  1.00  0.00     0.060 A 
BRANCH  65  66
ATOM     66  S   UNL A   1      33.229  35.145  28.576  1.00  0.00     0.124 S 
ATOM     67  O   UNL A   1      32.425  35.739  29.639  1.00  0.00    -0.237 OA
ATOM     68  O   UNL A   1      33.965  36.085  27.738  1.00  0.00    -0.237 OA
ATOM     69  O   UNL A   1      32.606  34.033  27.865  1.00  0.00    -0.744 OA
ENDBRANCH  65  66
ENDBRANCH  44  58
BRANCH  45  70
ATOM     70  C   UNL A   1      44.007  28.540  35.906  1.00  0.00     0.058 A 
ATOM     71  C   UNL A   1      43.764  27.510  36.825  1.00  0.00     0.135 A 
ATOM     72  C   UNL A   1      45.341  28.913  35.679  1.00  0.00     0.135 A 
ATOM     73  F   UNL A   1      42.505  27.125  37.084  1.00  0.00    -0.206 F 
ATOM     74  C   UNL A   1      44.804  26.876  37.500  1.00  0.00     0.059 A 
ATOM     75  C   UNL A   1      46.399  28.280  36.322  1.00  0.00     0.059 A 
ATOM     76  F   UNL A   1      45.627  29.887  34.800  1.00  0.00    -0.206 F 
ATOM     77  C   UNL A   1      46.118  27.268  37.239  1.00  0.00     0.060 A 
BRANCH  77  78
ATOM     78  S   UNL A   1      47.466  26.407  38.079  1.00  0.00     0.124 S 
ATOM     79  O   UNL A   1      46.748  25.684  39.122  1.00  0.00    -0.237 OA
ATOM     80  O   UNL A   1      48.027  25.592  37.006  1.00  0.00    -0.237 OA
ATOM     81  O   UNL A   1      48.323  27.497  38.540  1.00  0.00    -0.744 OA
ENDBRANCH  77  78
ENDBRANCH  45  70
BRANCH  57  82
ATOM     82  C   UNL A   1      39.959  34.043  37.320  1.00  0.00     0.058 A 
ATOM     83  C   UNL A   1      40.647  35.266  37.324  1.00  0.00     0.135 A 
ATOM     84  C   UNL A   1      39.148  33.740  38.426  1.00  0.00     0.135 A 
ATOM     85  F   UNL A   1      41.441  35.598  36.294  1.00  0.00    -0.206 F 
ATOM     86  C   UNL A   1      40.542  36.153  38.391  1.00  0.00     0.059 A 
ATOM     87  C   UNL A   1      39.012  34.621  39.492  1.00  0.00     0.059 A 
ATOM     88  F   UNL A   1      38.464  32.585  38.465  1.00  0.00    -0.206 F 
ATOM     89  C   UNL A   1      39.720  35.822  39.470  1.00  0.00     0.060 A 
BRANCH  89  90
ATOM     90  S   UNL A   1      39.556  37.000  40.828  1.00  0.00     0.124 S 
ATOM     91  O   UNL A   1      38.648  37.988  40.252  1.00  0.00    -0.237 OA
ATOM     92  O   UNL A   1      38.999  36.174  41.895  1.00  0.00    -0.237 OA
ATOM     93  O   UNL A   1      40.925  37.457  41.049  1.00  0.00    -0.744 OA
ENDBRANCH  89  90
ENDBRANCH  57  82
ENDBRANCH  31  32
ENDBRANCH  24  26
ENDBRANCH  23  24
ENDBRANCH  22  23
ENDBRANCH   1  22
TORSDOF 18
ENDMDL
MODEL 2
REMARK VINA RESULT:     -10.4      2.248      3.867
REMARK SMILES CCOc1cc(N2CCC[C@@H](C(=O)OCCOC(=O)c3ccc(-c4c5nc(c(-c6c(F)cc(S(=O)(=O)[O-])cc6F)c6ccc([nH]6)c(-c6c(F)cc(S(=O)(=O)[O-])cc6F)c6nc(c(-c7c(F)cc(S(=O)(=O)[O-])cc7F)c7ccc4[nH]7)C=C6)C=C5)cc3)C2)nc(SC)n1
REMARK SMILES IDX 15 1 14 2 12 3 13 4 11 5 7 6 8 7 86 8 9 9 10 10 6 11 4 12
REMARK SMILES IDX 5 13 91 14 88 15 87 16 3 17 2 18 1 19 89 20 90 21 16 22
REMARK SMILES IDX 17 23 18 24 19 25 20 26 21 27 85 28 22 29 84 30 23 31 24 32
REMARK SMILES IDX 25 33 78 34 26 35 83 36 77 37 79 38 27 39 82 40 76 41 75 42
REMARK SMILES IDX 28 44 62 45 41 46 61 47 42 48 45 49 60 50 80 51 43 52 44 53
REMARK SMILES IDX 59 55 81 56 46 57 29 58 30 59 39 60 31 61 32 62 38 63 40 64
REMARK SMILES IDX 33 65 34 66 35 67 36 68 37 69 63 70 64 71 73 72 65 73 66 74
REMARK SMILES IDX 72 75 74 76 67 77 68 78 69 79 70 80 71 81 47 82 48 83 57 84
REMARK SMILES IDX 49 85 50 86 56 87 58 88 51 89 52 90 53 91 54 92 55 93
REMARK H PARENT 79 43 45 54
REMARK Flexibility Score: inf
ROOT
ATOM      1  C   UNL A   1      37.848  22.603  25.761  1.00  0.00     0.274 C 
ENDROOT
BRANCH   1   2
ATOM      2  O   UNL A   1      36.690  23.348  26.185  1.00  0.00    -0.462 OA
BRANCH   2   3
ATOM      3  C   UNL A   1      35.486  22.741  25.999  1.00  0.00     0.310 C 
ATOM      4  O   UNL A   1      35.344  21.562  25.705  1.00  0.00    -0.252 OA
BRANCH   3   5
ATOM      5  C   UNL A   1      34.338  23.679  26.318  1.00  0.00     0.118 C 
ATOM      6  N   UNL A   1      33.012  25.608  25.648  1.00  0.00    -0.356 N 
ATOM      7  C   UNL A   1      31.730  24.929  25.829  1.00  0.00     0.118 C 
ATOM      8  C   UNL A   1      34.175  24.793  25.291  1.00  0.00     0.133 C 
ATOM      9  C   UNL A   1      31.874  23.810  26.851  1.00  0.00     0.022 C 
ATOM     10  C   UNL A   1      33.031  22.887  26.486  1.00  0.00     0.019 C 
BRANCH   6  11
ATOM     11  C   UNL A   1      33.033  26.986  25.692  1.00  0.00     0.137 A 
ATOM     12  C   UNL A   1      32.154  29.088  25.179  1.00  0.00     0.219 A 
ATOM     13  C   UNL A   1      32.164  27.737  24.941  1.00  0.00     0.115 A 
ATOM     14  N   UNL A   1      33.010  29.725  25.980  1.00  0.00    -0.187 NA
ATOM     15  C   UNL A   1      33.895  28.931  26.593  1.00  0.00     0.192 A 
ATOM     16  N   UNL A   1      33.900  27.589  26.522  1.00  0.00    -0.205 NA
BRANCH  12  17
ATOM     17  O   UNL A   1      31.197  29.858  24.559  1.00  0.00    -0.478 OA
BRANCH  17  18
ATOM     18  C   UNL A   1      30.313  29.027  23.794  1.00  0.00     0.228 C 
ATOM     19  C   UNL A   1      29.947  29.695  22.474  1.00  0.00     0.049 C 
ENDBRANCH  17  18
ENDBRANCH  12  17
BRANCH  15  20
ATOM     20  S   UNL A   1      35.130  29.724  27.596  1.00  0.00    -0.089 SA
ATOM     21  C   UNL A   1      34.440  31.400  27.655  1.00  0.00     0.094 C 
ENDBRANCH  15  20
ENDBRANCH   6  11
ENDBRANCH   3   5
ENDBRANCH   2   3
ENDBRANCH   1   2
BRANCH   1  22
ATOM     22  C   UNL A   1      39.123  23.160  26.405  1.00  0.00     0.275 C 
BRANCH  22  23
ATOM     23  O   UNL A   1      39.099  24.597  26.501  1.00  0.00    -0.458 OA
BRANCH  23  24
ATOM     24  C   UNL A   1      40.319  25.189  26.533  1.00  0.00     0.338 C 
ATOM     25  O   UNL A   1      41.187  25.118  25.680  1.00  0.00    -0.246 OA
BRANCH  24  26
ATOM     26  C   UNL A   1      40.421  26.076  27.705  1.00  0.00     0.060 A 
ATOM     27  C   UNL A   1      39.457  25.941  28.709  1.00  0.00     0.016 A 
ATOM     28  C   UNL A   1      41.394  27.072  27.796  1.00  0.00     0.016 A 
ATOM     29  C   UNL A   1      39.461  26.785  29.810  1.00  0.00     0.010 A 
ATOM     30  C   UNL A   1      41.392  27.932  28.903  1.00  0.00     0.010 A 
ATOM     31  C   UNL A   1      40.423  27.793  29.912  1.00  0.00    -0.014 A 
BRANCH  31  32
ATOM     32  C   UNL A   1      40.362  28.724  31.060  1.00  0.00     0.031 A 
ATOM     33  C   UNL A   1      39.369  29.847  31.056  1.00  0.00     0.074 A 
ATOM     34  C   UNL A   1      41.158  28.516  32.126  1.00  0.00     0.049 A 
ATOM     35  N   UNL A   1      39.197  30.799  31.933  1.00  0.00    -0.248 NA
ATOM     36  C   UNL A   1      38.440  29.901  29.915  1.00  0.00     0.031 C 
ATOM     37  C   UNL A   1      42.108  27.411  32.267  1.00  0.00     0.029 A 
ATOM     38  N   UNL A   1      41.289  29.223  33.294  1.00  0.00    -0.354 N 
ATOM     39  C   UNL A   1      38.157  31.579  31.446  1.00  0.00     0.074 A 
ATOM     40  C   UNL A   1      37.740  30.993  30.190  1.00  0.00     0.031 C 
ATOM     41  C   UNL A   1      42.728  27.517  33.452  1.00  0.00     0.029 A 
ATOM     42  C   UNL A   1      42.254  28.719  34.132  1.00  0.00     0.049 A 
ATOM     43  H   UNL A   1      40.746  30.013  33.510  1.00  0.00     0.167 HD
ATOM     44  C   UNL A   1      37.603  32.684  32.000  1.00  0.00     0.037 A 
ATOM     45  C   UNL A   1      42.726  29.196  35.301  1.00  0.00     0.037 A 
ATOM     46  C   UNL A   1      38.019  33.251  33.256  1.00  0.00     0.049 A 
ATOM     47  C   UNL A   1      42.146  30.466  35.858  1.00  0.00     0.074 A 
ATOM     48  C   UNL A   1      37.525  34.369  33.903  1.00  0.00     0.029 A 
ATOM     49  N   UNL A   1      39.033  32.742  34.055  1.00  0.00    -0.354 N 
ATOM     50  N   UNL A   1      41.177  31.209  35.377  1.00  0.00    -0.248 NA
ATOM     51  C   UNL A   1      42.728  30.971  37.110  1.00  0.00     0.031 C 
ATOM     52  C   UNL A   1      38.265  34.559  35.075  1.00  0.00     0.029 A 
ATOM     53  C   UNL A   1      39.195  33.536  35.179  1.00  0.00     0.049 A 
ATOM     54  H   UNL A   1      39.561  31.936  33.853  1.00  0.00     0.167 HD
ATOM     55  C   UNL A   1      41.023  32.261  36.274  1.00  0.00     0.074 A 
ATOM     56  C   UNL A   1      41.989  32.050  37.333  1.00  0.00     0.031 C 
ATOM     57  C   UNL A   1      40.162  33.307  36.223  1.00  0.00     0.037 A 
BRANCH  44  58
ATOM     58  C   UNL A   1      36.513  33.373  31.229  1.00  0.00     0.058 A 
ATOM     59  C   UNL A   1      36.773  34.074  30.043  1.00  0.00     0.135 A 
ATOM     60  C   UNL A   1      35.184  33.311  31.677  1.00  0.00     0.135 A 
ATOM     61  F   UNL A   1      38.030  34.181  29.582  1.00  0.00    -0.206 F 
ATOM     62  C   UNL A   1      35.756  34.713  29.339  1.00  0.00     0.059 A 
ATOM     63  C   UNL A   1      34.148  33.923  30.979  1.00  0.00     0.059 A 
ATOM     64  F   UNL A   1      34.881  32.655  32.809  1.00  0.00    -0.206 F 
ATOM     65  C   UNL A   1      34.447  34.634  29.817  1.00  0.00     0.060 A 
BRANCH  65  66
ATOM     66  S   UNL A   1      33.136  35.470  28.899  1.00  0.00     0.124 S 
ATOM     67  O   UNL A   1      32.573  34.366  28.128  1.00  0.00    -0.237 OA
ATOM     68  O   UNL A   1      32.291  35.996  29.966  1.00  0.00    -0.237 OA
ATOM     69  O   UNL A   1      33.854  36.475  28.121  1.00  0.00    -0.744 OA
ENDBRANCH  65  66
ENDBRANCH  44  58
BRANCH  45  70
ATOM     70  C   UNL A   1      43.831  28.487  35.997  1.00  0.00     0.058 A 
ATOM     71  C   UNL A   1      43.578  27.402  36.846  1.00  0.00     0.135 A 
ATOM     72  C   UNL A   1      45.168  28.877  35.815  1.00  0.00     0.135 A 
ATOM     73  F   UNL A   1      42.316  26.999  37.061  1.00  0.00    -0.206 F 
ATOM     74  C   UNL A   1      44.608  26.731  37.498  1.00  0.00     0.059 A 
ATOM     75  C   UNL A   1      46.217  28.208  36.435  1.00  0.00     0.059 A 
ATOM     76  F   UNL A   1      45.464  29.904  35.002  1.00  0.00    -0.206 F 
ATOM     77  C   UNL A   1      45.925  27.141  37.284  1.00  0.00     0.060 A 
BRANCH  77  78
ATOM     78  S   UNL A   1      47.262  26.234  38.091  1.00  0.00     0.124 S 
ATOM     79  O   UNL A   1      48.162  25.980  36.973  1.00  0.00    -0.237 OA
ATOM     80  O   UNL A   1      47.731  27.196  39.084  1.00  0.00    -0.237 OA
ATOM     81  O   UNL A   1      46.587  25.061  38.639  1.00  0.00    -0.744 OA
ENDBRANCH  77  78
ENDBRANCH  45  70
BRANCH  57  82
ATOM     82  C   UNL A   1      40.208  34.291  37.356  1.00  0.00     0.058 A 
ATOM     83  C   UNL A   1      39.393  34.144  38.489  1.00  0.00     0.135 A 
ATOM     84  C   UNL A   1      41.120  35.359  37.335  1.00  0.00     0.135 A 
ATOM     85  F   UNL A   1      38.500  33.145  38.553  1.00  0.00    -0.206 F 
ATOM     86  C   UNL A   1      39.472  35.030  39.558  1.00  0.00     0.059 A 
ATOM     87  C   UNL A   1      41.231  36.243  38.402  1.00  0.00     0.059 A 
ATOM     88  F   UNL A   1      41.927  35.538  36.276  1.00  0.00    -0.206 F 
ATOM     89  C   UNL A   1      40.397  36.076  39.506  1.00  0.00     0.060 A 
BRANCH  89  90
ATOM     90  S   UNL A   1      40.523  37.193  40.919  1.00  0.00     0.124 S 
ATOM     91  O   UNL A   1      41.204  38.340  40.326  1.00  0.00    -0.237 OA
ATOM     92  O   UNL A   1      39.124  37.404  41.279  1.00  0.00    -0.237 OA
ATOM     93  O   UNL A   1      41.304  36.430  41.887  1.00  0.00    -0.744 OA
ENDBRANCH  89  90
ENDBRANCH  57  82
ENDBRANCH  31  32
ENDBRANCH  24  26
ENDBRANCH  23  24
ENDBRANCH  22  23
ENDBRANCH   1  22
TORSDOF 18
ENDMDL
MODEL 3
REMARK VINA RESULT:     -10.3      4.799      9.807
REMARK SMILES CCOc1cc(N2CCC[C@@H](C(=O)OCCOC(=O)c3ccc(-c4c5nc(c(-c6c(F)cc(S(=O)(=O)[O-])cc6F)c6ccc([nH]6)c(-c6c(F)cc(S(=O)(=O)[O-])cc6F)c6nc(c(-c7c(F)cc(S(=O)(=O)[O-])cc7F)c7ccc4[nH]7)C=C6)C=C5)cc3)C2)nc(SC)n1
REMARK SMILES IDX 15 1 14 2 12 3 13 4 11 5 7 6 8 7 86 8 9 9 10 10 6 11 4 12
REMARK SMILES IDX 5 13 91 14 88 15 87 16 3 17 2 18 1 19 89 20 90 21 16 22
REMARK SMILES IDX 17 23 18 24 19 25 20 26 21 27 85 28 22 29 84 30 23 31 24 32
REMARK SMILES IDX 25 33 78 34 26 35 83 36 77 37 79 38 27 39 82 40 76 41 75 42
REMARK SMILES IDX 28 44 62 45 41 46 61 47 42 48 45 49 60 50 80 51 43 52 44 53
REMARK SMILES IDX 59 55 81 56 46 57 29 58 30 59 39 60 31 61 32 62 38 63 40 64
REMARK SMILES IDX 33 65 34 66 35 67 36 68 37 69 63 70 64 71 73 72 65 73 66 74
REMARK SMILES IDX 72 75 74 76 67 77 68 78 69 79 70 80 71 81 47 82 48 83 57 84
REMARK SMILES IDX 49 85 50 86 56 87 58 88 51 89 52 90 53 91 54 92 55 93
REMARK H PARENT 79 43 45 54
REMARK Flexibility Score: inf
ROOT
ATOM      1  C   UNL A   1      32.204  28.139  25.638  1.00  0.00     0.274 C 
ENDROOT
BRANCH   1   2
ATOM      2  O   UNL A   1      32.113  27.022  26.543  1.00  0.00    -0.462 OA
BRANCH   2   3
ATOM      3  C   UNL A   1      31.236  26.039  26.196  1.00  0.00     0.310 C 
ATOM      4  O   UNL A   1      30.083  25.969  26.597  1.00  0.00    -0.252 OA
BRANCH   3   5
ATOM      5  C   UNL A   1      31.831  25.109  25.157  1.00  0.00     0.118 C 
ATOM      6  N   UNL A   1      32.357  22.823  24.503  1.00  0.00    -0.356 N 
ATOM      7  C   UNL A   1      31.735  22.939  23.185  1.00  0.00     0.118 C 
ATOM      8  C   UNL A   1      31.822  23.648  25.590  1.00  0.00     0.133 C 
ATOM      9  C   UNL A   1      31.733  24.394  22.738  1.00  0.00     0.022 C 
ATOM     10  C   UNL A   1      31.118  25.290  23.807  1.00  0.00     0.019 C 
BRANCH   6  11
ATOM     11  C   UNL A   1      33.320  21.854  24.688  1.00  0.00     0.137 A 
ATOM     12  C   UNL A   1      34.012  19.633  24.884  1.00  0.00     0.219 A 
ATOM     13  C   UNL A   1      32.981  20.538  24.876  1.00  0.00     0.115 A 
ATOM     14  N   UNL A   1      35.307  19.954  24.858  1.00  0.00    -0.187 NA
ATOM     15  C   UNL A   1      35.552  21.266  24.782  1.00  0.00     0.192 A 
ATOM     16  N   UNL A   1      34.613  22.217  24.639  1.00  0.00    -0.205 NA
BRANCH  12  17
ATOM     17  O   UNL A   1      33.708  18.291  24.920  1.00  0.00    -0.478 OA
BRANCH  17  18
ATOM     18  C   UNL A   1      33.968  17.691  23.643  1.00  0.00     0.228 C 
ATOM     19  C   UNL A   1      32.720  17.709  22.770  1.00  0.00     0.049 C 
ENDBRANCH  17  18
ENDBRANCH  12  17
BRANCH  15  20
ATOM     20  S   UNL A   1      37.256  21.771  24.844  1.00  0.00    -0.089 SA
ATOM     21  C   UNL A   1      37.035  23.567  24.962  1.00  0.00     0.094 C 
ENDBRANCH  15  20
ENDBRANCH   6  11
ENDBRANCH   3   5
ENDBRANCH   2   3
ENDBRANCH   1   2
BRANCH   1  22
ATOM     22  C   UNL A   1      33.502  28.922  25.865  1.00  0.00     0.275 C 
BRANCH  22  23
ATOM     23  O   UNL A   1      33.932  28.874  27.239  1.00  0.00    -0.458 OA
BRANCH  23  24
ATOM     24  C   UNL A   1      34.437  30.036  27.723  1.00  0.00     0.338 C 
ATOM     25  O   UNL A   1      33.828  31.077  27.904  1.00  0.00    -0.246 OA
BRANCH  24  26
ATOM     26  C   UNL A   1      35.834  29.843  28.149  1.00  0.00     0.060 A 
ATOM     27  C   UNL A   1      36.835  29.997  27.184  1.00  0.00     0.016 A 
ATOM     28  C   UNL A   1      36.164  29.448  29.446  1.00  0.00     0.016 A 
ATOM     29  C   UNL A   1      38.166  29.770  27.506  1.00  0.00     0.010 A 
ATOM     30  C   UNL A   1      37.506  29.209  29.768  1.00  0.00     0.010 A 
ATOM     31  C   UNL A   1      38.512  29.366  28.798  1.00  0.00    -0.014 A 
BRANCH  31  32
ATOM     32  C   UNL A   1      39.928  29.063  29.095  1.00  0.00     0.031 A 
ATOM     33  C   UNL A   1      40.782  30.092  29.774  1.00  0.00     0.074 A 
ATOM     34  C   UNL A   1      40.422  27.844  28.807  1.00  0.00     0.049 A 
ATOM     35  N   UNL A   1      42.055  30.044  30.068  1.00  0.00    -0.248 NA
ATOM     36  C   UNL A   1      40.113  31.337  30.185  1.00  0.00     0.031 C 
ATOM     37  C   UNL A   1      39.659  26.745  28.214  1.00  0.00     0.029 A 
ATOM     38  N   UNL A   1      41.679  27.325  28.981  1.00  0.00    -0.354 N 
ATOM     39  C   UNL A   1      42.347  31.256  30.679  1.00  0.00     0.074 A 
ATOM     40  C   UNL A   1      41.120  32.023  30.707  1.00  0.00     0.031 C 
ATOM     41  C   UNL A   1      40.466  25.682  28.068  1.00  0.00     0.029 A 
ATOM     42  C   UNL A   1      41.809  26.040  28.514  1.00  0.00     0.049 A 
ATOM     43  H   UNL A   1      42.416  27.824  29.399  1.00  0.00     0.167 HD
ATOM     44  C   UNL A   1      43.534  31.685  31.170  1.00  0.00     0.037 A 
ATOM     45  C   UNL A   1      42.900  25.254  28.423  1.00  0.00     0.037 A 
ATOM     46  C   UNL A   1      44.745  30.907  31.145  1.00  0.00     0.049 A 
ATOM     47  C   UNL A   1      44.222  25.782  28.907  1.00  0.00     0.074 A 
ATOM     48  C   UNL A   1      46.000  31.252  31.613  1.00  0.00     0.029 A 
ATOM     49  N   UNL A   1      44.852  29.627  30.619  1.00  0.00    -0.354 N 
ATOM     50  N   UNL A   1      44.493  26.939  29.463  1.00  0.00    -0.248 NA
ATOM     51  C   UNL A   1      45.390  24.905  28.742  1.00  0.00     0.031 C 
ATOM     52  C   UNL A   1      46.875  30.195  31.337  1.00  0.00     0.029 A 
ATOM     53  C   UNL A   1      46.157  29.176  30.732  1.00  0.00     0.049 A 
ATOM     54  H   UNL A   1      44.110  29.116  30.224  1.00  0.00     0.167 HD
ATOM     55  C   UNL A   1      45.858  26.925  29.727  1.00  0.00     0.074 A 
ATOM     56  C   UNL A   1      46.354  25.638  29.283  1.00  0.00     0.031 C 
ATOM     57  C   UNL A   1      46.630  27.890  30.285  1.00  0.00     0.037 A 
BRANCH  44  58
ATOM     58  C   UNL A   1      43.587  33.074  31.739  1.00  0.00     0.058 A 
ATOM     59  C   UNL A   1      43.785  34.201  30.928  1.00  0.00     0.135 A 
ATOM     60  C   UNL A   1      43.415  33.279  33.117  1.00  0.00     0.135 A 
ATOM     61  F   UNL A   1      43.974  34.058  29.606  1.00  0.00    -0.206 F 
ATOM     62  C   UNL A   1      43.835  35.484  31.466  1.00  0.00     0.059 A 
ATOM     63  C   UNL A   1      43.440  34.554  33.675  1.00  0.00     0.059 A 
ATOM     64  F   UNL A   1      43.226  32.234  33.938  1.00  0.00    -0.206 F 
ATOM     65  C   UNL A   1      43.666  35.649  32.842  1.00  0.00     0.060 A 
BRANCH  65  66
ATOM     66  S   UNL A   1      43.739  37.317  33.531  1.00  0.00     0.124 S 
ATOM     67  O   UNL A   1      43.865  38.124  32.321  1.00  0.00    -0.237 OA
ATOM     68  O   UNL A   1      42.464  37.423  34.234  1.00  0.00    -0.237 OA
ATOM     69  O   UNL A   1      44.920  37.280  34.386  1.00  0.00    -0.744 OA
ENDBRANCH  65  66
ENDBRANCH  44  58
BRANCH  45  70
ATOM     70  C   UNL A   1      42.789  23.902  27.817  1.00  0.00     0.058 A 
ATOM     71  C   UNL A   1      42.527  22.772  28.602  1.00  0.00     0.135 A 
ATOM     72  C   UNL A   1      42.933  23.717  26.432  1.00  0.00     0.135 A 
ATOM     73  F   UNL A   1      42.392  22.896  29.931  1.00  0.00    -0.206 F 
ATOM     74  C   UNL A   1      42.418  21.503  28.040  1.00  0.00     0.059 A 
ATOM     75  C   UNL A   1      42.805  22.464  25.843  1.00  0.00     0.059 A 
ATOM     76  F   UNL A   1      43.175  24.770  25.634  1.00  0.00    -0.206 F 
ATOM     77  C   UNL A   1      42.557  21.360  26.658  1.00  0.00     0.060 A 
BRANCH  77  78
ATOM     78  S   UNL A   1      42.363  19.720  25.928  1.00  0.00     0.124 S 
ATOM     79  O   UNL A   1      43.332  19.766  24.840  1.00  0.00    -0.237 OA
ATOM     80  O   UNL A   1      42.698  18.843  27.046  1.00  0.00    -0.237 OA
ATOM     81  O   UNL A   1      40.960  19.697  25.525  1.00  0.00    -0.744 OA
ENDBRANCH  77  78
ENDBRANCH  45  70
BRANCH  57  82
ATOM     82  C   UNL A   1      48.088  27.583  30.469  1.00  0.00     0.058 A 
ATOM     83  C   UNL A   1      48.580  27.052  31.671  1.00  0.00     0.135 A 
ATOM     84  C   UNL A   1      48.993  27.765  29.411  1.00  0.00     0.135 A 
ATOM     85  F   UNL A   1      47.757  26.867  32.715  1.00  0.00    -0.206 F 
ATOM     86  C   UNL A   1      49.923  26.724  31.822  1.00  0.00     0.059 A 
ATOM     87  C   UNL A   1      50.335  27.424  29.532  1.00  0.00     0.059 A 
ATOM     88  F   UNL A   1      48.569  28.263  28.237  1.00  0.00    -0.206 F 
ATOM     89  C   UNL A   1      50.793  26.911  30.746  1.00  0.00     0.060 A 
BRANCH  89  90
ATOM     90  S   UNL A   1      52.525  26.439  30.937  1.00  0.00     0.124 S 
ATOM     91  O   UNL A   1      52.949  26.305  29.547  1.00  0.00    -0.237 OA
ATOM     92  O   UNL A   1      53.083  27.578  31.662  1.00  0.00    -0.237 OA
ATOM     93  O   UNL A   1      52.456  25.195  31.696  1.00  0.00    -0.744 OA
ENDBRANCH  89  90
ENDBRANCH  57  82
ENDBRANCH  31  32
ENDBRANCH  24  26
ENDBRANCH  23  24
ENDBRANCH  22  23
ENDBRANCH   1  22
TORSDOF 18
ENDMDL
