MODEL 1
REMARK VINA RESULT:     -11.4      0.000      0.000
REMARK SMILES Cc1cc(OCC(=O)N/C(=C/c2ccccc2Cl)C(=O)OCCOC(=O)c2ccc(-c3c4nc(c(-c5c(F)cc(S(=O)(=O)[O-])cc5F)c5ccc([nH]5)c(-c5c(F)cc(S(=O)(=O)[O-])cc5F)c5nc(c(-c6c(F)cc(S(=O)(=O)[O-])cc6F)c6ccc3[nH]6)C=C5)C=C4)cc2)cc(C)c1Cl
REMARK SMILES IDX 22 1 21 2 19 3 20 4 10 5 11 6 9 7 7 8 8 9 6 11 5 12 4 13
REMARK SMILES IDX 1 14 2 15 3 16 96 17 94 18 97 19 93 20 95 21 12 22 13 23
REMARK SMILES IDX 17 24 14 25 16 26 18 27 15 28 23 29 24 30 25 31 26 32 27 33
REMARK SMILES IDX 28 34 92 35 29 36 91 37 30 38 31 39 32 40 85 41 33 42 90 43
REMARK SMILES IDX 84 44 86 45 34 46 89 47 83 48 82 49 35 51 69 52 48 53 68 54
REMARK SMILES IDX 49 55 52 56 67 57 87 58 50 59 51 60 66 62 88 63 53 64 36 65
REMARK SMILES IDX 37 66 46 67 38 68 39 69 45 70 47 71 40 72 41 73 42 74 43 75
REMARK SMILES IDX 44 76 70 77 71 78 80 79 72 80 73 81 79 82 81 83 74 84 75 85
REMARK SMILES IDX 76 86 77 87 78 88 54 89 55 90 64 91 56 92 57 93 63 94 65 95
REMARK SMILES IDX 58 96 59 97 60 98 61 99 62 100
REMARK H PARENT 9 10 86 50 52 61
REMARK Flexibility Score: inf
ROOT
ATOM      1  C   UNL A   1      31.961  28.466  27.737  1.00  0.00     0.275 C 
ENDROOT
BRANCH   1   2
ATOM      2  O   UNL A   1      31.070  27.522  27.120  1.00  0.00    -0.457 OA
BRANCH   2   3
ATOM      3  C   UNL A   1      31.680  26.447  26.560  1.00  0.00     0.354 C 
ATOM      4  O   UNL A   1      32.875  26.204  26.582  1.00  0.00    -0.244 OA
BRANCH   3   5
ATOM      5  C   UNL A   1      30.654  25.601  25.884  1.00  0.00     0.128 C 
ATOM      6  C   UNL A   1      30.433  25.798  24.568  1.00  0.00     0.043 C 
BRANCH   5   7
ATOM      7  N   UNL A   1      29.928  24.633  26.540  1.00  0.00    -0.317 N 
ATOM      8  C   UNL A   1      30.169  23.336  26.877  1.00  0.00     0.262 C 
ATOM      9  O   UNL A   1      29.291  22.767  27.536  1.00  0.00    -0.271 OA
ATOM     10  H   UNL A   1      29.042  24.947  26.830  1.00  0.00     0.170 HD
BRANCH   8  11
ATOM     11  C   UNL A   1      31.472  22.611  26.530  1.00  0.00     0.329 C 
BRANCH  11  12
ATOM     12  O   UNL A   1      32.676  22.988  27.158  1.00  0.00    -0.484 OA
BRANCH  12  13
ATOM     13  C   UNL A   1      33.836  22.616  26.547  1.00  0.00     0.120 A 
ATOM     14  C   UNL A   1      37.377  23.740  25.774  1.00  0.00     0.046 C 
ATOM     15  C   UNL A   1      36.147  22.874  25.837  1.00  0.00    -0.029 A 
ATOM     16  C   UNL A   1      34.992  23.386  26.453  1.00  0.00     0.051 A 
ATOM     17  C   UNL A   1      36.107  21.580  25.285  1.00  0.00     0.047 A 
ATOM     18  C   UNL A   1      34.930  20.808  25.351  1.00  0.00    -0.029 A 
ATOM     19  Cl  UNL A   1      37.517  20.918  24.525  1.00  0.00    -0.084 Cl
ATOM     20  C   UNL A   1      33.800  21.349  25.976  1.00  0.00     0.051 A 
ATOM     21  C   UNL A   1      34.839  19.425  24.775  1.00  0.00     0.046 C 
ENDBRANCH  12  13
ENDBRANCH  11  12
ENDBRANCH   8  11
ENDBRANCH   5   7
BRANCH   6  22
ATOM     22  C   UNL A   1      31.105  26.809  23.740  1.00  0.00    -0.005 A 
ATOM     23  C   UNL A   1      30.439  28.030  23.546  1.00  0.00     0.010 A 
ATOM     24  C   UNL A   1      32.379  26.633  23.175  1.00  0.00     0.048 A 
ATOM     25  C   UNL A   1      31.051  29.067  22.841  1.00  0.00     0.001 A 
ATOM     26  C   UNL A   1      33.000  27.684  22.498  1.00  0.00     0.021 A 
ATOM     27  Cl  UNL A   1      33.217  25.122  23.248  1.00  0.00    -0.084 Cl
ATOM     28  C   UNL A   1      32.338  28.902  22.335  1.00  0.00     0.002 A 
ENDBRANCH   6  22
ENDBRANCH   3   5
ENDBRANCH   2   3
ENDBRANCH   1   2
BRANCH   1  29
ATOM     29  C   UNL A   1      32.216  29.629  26.779  1.00  0.00     0.275 C 
BRANCH  29  30
ATOM     30  O   UNL A   1      33.630  29.883  26.685  1.00  0.00    -0.458 OA
BRANCH  30  31
ATOM     31  C   UNL A   1      34.077  30.950  27.397  1.00  0.00     0.338 C 
ATOM     32  O   UNL A   1      33.452  31.966  27.655  1.00  0.00    -0.246 OA
BRANCH  31  33
ATOM     33  C   UNL A   1      35.401  30.633  27.986  1.00  0.00     0.060 A 
ATOM     34  C   UNL A   1      35.598  29.341  28.485  1.00  0.00     0.016 A 
ATOM     35  C   UNL A   1      36.461  31.549  27.985  1.00  0.00     0.016 A 
ATOM     36  C   UNL A   1      36.855  28.956  28.958  1.00  0.00     0.010 A 
ATOM     37  C   UNL A   1      37.712  31.172  28.487  1.00  0.00     0.010 A 
ATOM     38  C   UNL A   1      37.918  29.874  28.976  1.00  0.00    -0.014 A 
BRANCH  38  39
ATOM     39  C   UNL A   1      39.199  29.492  29.622  1.00  0.00     0.031 A 
ATOM     40  C   UNL A   1      39.597  30.192  30.888  1.00  0.00     0.074 A 
ATOM     41  C   UNL A   1      39.985  28.527  29.111  1.00  0.00     0.049 A 
ATOM     42  N   UNL A   1      40.616  29.965  31.674  1.00  0.00    -0.248 NA
ATOM     43  C   UNL A   1      38.733  31.304  31.319  1.00  0.00     0.031 C 
ATOM     44  C   UNL A   1      39.723  27.790  27.880  1.00  0.00     0.029 A 
ATOM     45  N   UNL A   1      41.163  27.990  29.571  1.00  0.00    -0.354 N 
ATOM     46  C   UNL A   1      40.509  30.892  32.702  1.00  0.00     0.074 A 
ATOM     47  C   UNL A   1      39.335  31.695  32.432  1.00  0.00     0.031 C 
ATOM     48  C   UNL A   1      40.686  26.871  27.698  1.00  0.00     0.029 A 
ATOM     49  C   UNL A   1      41.655  26.974  28.785  1.00  0.00     0.049 A 
ATOM     50  H   UNL A   1      41.616  28.305  30.387  1.00  0.00     0.167 HD
ATOM     51  C   UNL A   1      41.321  31.066  33.770  1.00  0.00     0.037 A 
ATOM     52  C   UNL A   1      42.761  26.216  28.924  1.00  0.00     0.037 A 
ATOM     53  C   UNL A   1      42.526  30.317  34.002  1.00  0.00     0.049 A 
ATOM     54  C   UNL A   1      43.675  26.462  30.097  1.00  0.00     0.074 A 
ATOM     55  C   UNL A   1      43.434  30.445  35.038  1.00  0.00     0.029 A 
ATOM     56  N   UNL A   1      43.007  29.316  33.169  1.00  0.00    -0.354 N 
ATOM     57  N   UNL A   1      43.532  27.308  31.090  1.00  0.00    -0.248 NA
ATOM     58  C   UNL A   1      44.907  25.663  30.161  1.00  0.00     0.031 C 
ATOM     59  C   UNL A   1      44.487  29.552  34.808  1.00  0.00     0.029 A 
ATOM     60  C   UNL A   1      44.212  28.837  33.652  1.00  0.00     0.049 A 
ATOM     61  H   UNL A   1      42.557  28.994  32.355  1.00  0.00     0.167 HD
ATOM     62  C   UNL A   1      44.651  27.138  31.899  1.00  0.00     0.074 A 
ATOM     63  C   UNL A   1      45.449  26.091  31.292  1.00  0.00     0.031 C 
ATOM     64  C   UNL A   1      44.994  27.795  33.034  1.00  0.00     0.037 A 
BRANCH  51  65
ATOM     65  C   UNL A   1      40.944  32.150  34.734  1.00  0.00     0.058 A 
ATOM     66  C   UNL A   1      41.446  33.454  34.600  1.00  0.00     0.135 A 
ATOM     67  C   UNL A   1      40.093  31.877  35.816  1.00  0.00     0.135 A 
ATOM     68  F   UNL A   1      42.284  33.757  33.596  1.00  0.00    -0.206 F 
ATOM     69  C   UNL A   1      41.139  34.446  35.524  1.00  0.00     0.059 A 
ATOM     70  C   UNL A   1      39.758  32.859  36.742  1.00  0.00     0.059 A 
ATOM     71  F   UNL A   1      39.600  30.642  35.993  1.00  0.00    -0.206 F 
ATOM     72  C   UNL A   1      40.300  34.136  36.597  1.00  0.00     0.060 A 
BRANCH  72  73
ATOM     73  S   UNL A   1      39.934  35.424  37.807  1.00  0.00     0.124 S 
ATOM     74  O   UNL A   1      39.769  36.592  36.947  1.00  0.00    -0.237 OA
ATOM     75  O   UNL A   1      38.716  34.925  38.438  1.00  0.00    -0.237 OA
ATOM     76  O   UNL A   1      41.119  35.434  38.659  1.00  0.00    -0.744 OA
ENDBRANCH  72  73
ENDBRANCH  51  65
BRANCH  52  77
ATOM     77  C   UNL A   1      43.084  25.158  27.928  1.00  0.00     0.058 A 
ATOM     78  C   UNL A   1      42.717  23.822  28.152  1.00  0.00     0.135 A 
ATOM     79  C   UNL A   1      43.791  25.451  26.752  1.00  0.00     0.135 A 
ATOM     80  F   UNL A   1      42.049  23.487  29.266  1.00  0.00    -0.206 F 
ATOM     81  C   UNL A   1      43.064  22.810  27.261  1.00  0.00     0.059 A 
ATOM     82  C   UNL A   1      44.127  24.461  25.833  1.00  0.00     0.059 A 
ATOM     83  F   UNL A   1      44.157  26.715  26.485  1.00  0.00    -0.206 F 
ATOM     84  C   UNL A   1      43.774  23.140  26.106  1.00  0.00     0.060 A 
BRANCH  84  85
ATOM     85  S   UNL A   1      44.218  21.825  24.948  1.00  0.00     0.124 S 
ATOM     86  O   UNL A   1      44.116  22.517  23.669  1.00  0.00    -0.237 OA
ATOM     87  O   UNL A   1      45.569  21.476  25.378  1.00  0.00    -0.237 OA
ATOM     88  O   UNL A   1      43.204  20.806  25.198  1.00  0.00    -0.744 OA
ENDBRANCH  84  85
ENDBRANCH  52  77
BRANCH  64  89
ATOM     89  C   UNL A   1      46.282  27.401  33.702  1.00  0.00     0.058 A 
ATOM     90  C   UNL A   1      47.489  28.052  33.407  1.00  0.00     0.135 A 
ATOM     91  C   UNL A   1      46.297  26.404  34.691  1.00  0.00     0.135 A 
ATOM     92  F   UNL A   1      47.529  29.008  32.465  1.00  0.00    -0.206 F 
ATOM     93  C   UNL A   1      48.673  27.717  34.057  1.00  0.00     0.059 A 
ATOM     94  C   UNL A   1      47.464  26.070  35.370  1.00  0.00     0.059 A 
ATOM     95  F   UNL A   1      45.166  25.759  35.018  1.00  0.00    -0.206 F 
ATOM     96  C   UNL A   1      48.649  26.725  35.040  1.00  0.00     0.060 A 
BRANCH  96  97
ATOM     97  S   UNL A   1      50.180  26.330  35.912  1.00  0.00     0.124 S 
ATOM     98  O   UNL A   1      50.965  25.699  34.857  1.00  0.00    -0.237 OA
ATOM     99  O   UNL A   1      50.644  27.644  36.346  1.00  0.00    -0.237 OA
ATOM    100  O   UNL A   1      49.739  25.443  36.985  1.00  0.00    -0.744 OA
ENDBRANCH  96  97
ENDBRANCH  64  89
ENDBRANCH  38  39
ENDBRANCH  31  33
ENDBRANCH  30  31
ENDBRANCH  29  30
ENDBRANCH   1  29
TORSDOF 19
ENDMDL
MODEL 2
REMARK VINA RESULT:     -11.2      1.171      2.065
REMARK SMILES Cc1cc(OCC(=O)N/C(=C/c2ccccc2Cl)C(=O)OCCOC(=O)c2ccc(-c3c4nc(c(-c5c(F)cc(S(=O)(=O)[O-])cc5F)c5ccc([nH]5)c(-c5c(F)cc(S(=O)(=O)[O-])cc5F)c5nc(c(-c6c(F)cc(S(=O)(=O)[O-])cc6F)c6ccc3[nH]6)C=C5)C=C4)cc2)cc(C)c1Cl
REMARK SMILES IDX 22 1 21 2 19 3 20 4 10 5 11 6 9 7 7 8 8 9 6 11 5 12 4 13
REMARK SMILES IDX 1 14 2 15 3 16 96 17 94 18 97 19 93 20 95 21 12 22 13 23
REMARK SMILES IDX 17 24 14 25 16 26 18 27 15 28 23 29 24 30 25 31 26 32 27 33
REMARK SMILES IDX 28 34 92 35 29 36 91 37 30 38 31 39 32 40 85 41 33 42 90 43
REMARK SMILES IDX 84 44 86 45 34 46 89 47 83 48 82 49 35 51 69 52 48 53 68 54
REMARK SMILES IDX 49 55 52 56 67 57 87 58 50 59 51 60 66 62 88 63 53 64 36 65
REMARK SMILES IDX 37 66 46 67 38 68 39 69 45 70 47 71 40 72 41 73 42 74 43 75
REMARK SMILES IDX 44 76 70 77 71 78 80 79 72 80 73 81 79 82 81 83 74 84 75 85
REMARK SMILES IDX 76 86 77 87 78 88 54 89 55 90 64 91 56 92 57 93 63 94 65 95
REMARK SMILES IDX 58 96 59 97 60 98 61 99 62 100
REMARK H PARENT 9 10 86 50 52 61
REMARK Flexibility Score: inf
ROOT
ATOM      1  C   UNL A   1      31.914  28.183  27.643  1.00  0.00     0.275 C 
ENDROOT
BRANCH   1   2
ATOM      2  O   UNL A   1      31.074  27.168  27.068  1.00  0.00    -0.457 OA
BRANCH   2   3
ATOM      3  C   UNL A   1      31.742  26.144  26.480  1.00  0.00     0.354 C 
ATOM      4  O   UNL A   1      32.937  25.915  26.573  1.00  0.00    -0.244 OA
BRANCH   3   5
ATOM      5  C   UNL A   1      30.783  25.336  25.672  1.00  0.00     0.128 C 
ATOM      6  C   UNL A   1      30.672  25.609  24.355  1.00  0.00     0.043 C 
BRANCH   5   7
ATOM      7  N   UNL A   1      30.012  24.329  26.208  1.00  0.00    -0.317 N 
ATOM      8  C   UNL A   1      30.292  23.171  26.866  1.00  0.00     0.262 C 
ATOM      9  O   UNL A   1      29.322  22.519  27.268  1.00  0.00    -0.271 OA
ATOM     10  H   UNL A   1      29.047  24.481  26.089  1.00  0.00     0.170 HD
BRANCH   8  11
ATOM     11  C   UNL A   1      31.720  22.706  27.166  1.00  0.00     0.329 C 
BRANCH  11  12
ATOM     12  O   UNL A   1      32.666  22.619  26.126  1.00  0.00    -0.484 OA
BRANCH  12  13
ATOM     13  C   UNL A   1      32.626  21.503  25.345  1.00  0.00     0.120 A 
ATOM     14  C   UNL A   1      32.972  17.724  25.397  1.00  0.00     0.046 C 
ATOM     15  C   UNL A   1      32.735  19.119  24.881  1.00  0.00    -0.029 A 
ATOM     16  C   UNL A   1      32.850  20.197  25.774  1.00  0.00     0.051 A 
ATOM     17  C   UNL A   1      32.421  19.382  23.533  1.00  0.00     0.047 A 
ATOM     18  C   UNL A   1      32.223  20.703  23.088  1.00  0.00    -0.029 A 
ATOM     19  Cl  UNL A   1      32.265  18.071  22.409  1.00  0.00    -0.084 Cl
ATOM     20  C   UNL A   1      32.342  21.753  24.007  1.00  0.00     0.051 A 
ATOM     21  C   UNL A   1      31.889  21.032  21.662  1.00  0.00     0.046 C 
ENDBRANCH  12  13
ENDBRANCH  11  12
ENDBRANCH   8  11
ENDBRANCH   5   7
BRANCH   6  22
ATOM     22  C   UNL A   1      31.403  26.668  23.647  1.00  0.00    -0.005 A 
ATOM     23  C   UNL A   1      30.743  27.893  23.461  1.00  0.00     0.010 A 
ATOM     24  C   UNL A   1      32.724  26.531  23.189  1.00  0.00     0.048 A 
ATOM     25  C   UNL A   1      31.404  28.972  22.871  1.00  0.00     0.001 A 
ATOM     26  C   UNL A   1      33.391  27.622  22.628  1.00  0.00     0.021 A 
ATOM     27  Cl  UNL A   1      33.569  25.024  23.255  1.00  0.00    -0.084 Cl
ATOM     28  C   UNL A   1      32.733  28.842  22.473  1.00  0.00     0.002 A 
ENDBRANCH   6  22
ENDBRANCH   3   5
ENDBRANCH   2   3
ENDBRANCH   1   2
BRANCH   1  29
ATOM     29  C   UNL A   1      32.404  29.125  26.543  1.00  0.00     0.275 C 
BRANCH  29  30
ATOM     30  O   UNL A   1      33.836  29.249  26.610  1.00  0.00    -0.458 OA
BRANCH  30  31
ATOM     31  C   UNL A   1      34.294  30.357  27.249  1.00  0.00     0.338 C 
ATOM     32  O   UNL A   1      33.709  31.422  27.368  1.00  0.00    -0.246 OA
BRANCH  31  33
ATOM     33  C   UNL A   1      35.558  30.035  27.955  1.00  0.00     0.060 A 
ATOM     34  C   UNL A   1      36.760  30.290  27.285  1.00  0.00     0.016 A 
ATOM     35  C   UNL A   1      35.581  29.563  29.274  1.00  0.00     0.016 A 
ATOM     36  C   UNL A   1      37.980  30.100  27.939  1.00  0.00     0.010 A 
ATOM     37  C   UNL A   1      36.805  29.345  29.917  1.00  0.00     0.010 A 
ATOM     38  C   UNL A   1      38.011  29.612  29.255  1.00  0.00    -0.014 A 
BRANCH  38  39
ATOM     39  C   UNL A   1      39.317  29.274  29.875  1.00  0.00     0.031 A 
ATOM     40  C   UNL A   1      39.738  30.018  31.108  1.00  0.00     0.074 A 
ATOM     41  C   UNL A   1      40.108  28.308  29.370  1.00  0.00     0.049 A 
ATOM     42  N   UNL A   1      40.783  29.834  31.870  1.00  0.00    -0.248 NA
ATOM     43  C   UNL A   1      38.865  31.126  31.531  1.00  0.00     0.031 C 
ATOM     44  C   UNL A   1      39.825  27.530  28.169  1.00  0.00     0.029 A 
ATOM     45  N   UNL A   1      41.308  27.808  29.812  1.00  0.00    -0.354 N 
ATOM     46  C   UNL A   1      40.687  30.788  32.874  1.00  0.00     0.074 A 
ATOM     47  C   UNL A   1      39.490  31.561  32.614  1.00  0.00     0.031 C 
ATOM     48  C   UNL A   1      40.800  26.624  27.987  1.00  0.00     0.029 A 
ATOM     49  C   UNL A   1      41.797  26.777  29.042  1.00  0.00     0.049 A 
ATOM     50  H   UNL A   1      41.777  28.155  30.605  1.00  0.00     0.167 HD
ATOM     51  C   UNL A   1      41.525  31.009  33.912  1.00  0.00     0.037 A 
ATOM     52  C   UNL A   1      42.921  26.045  29.171  1.00  0.00     0.037 A 
ATOM     53  C   UNL A   1      42.750  30.290  34.131  1.00  0.00     0.049 A 
ATOM     54  C   UNL A   1      43.862  26.342  30.310  1.00  0.00     0.074 A 
ATOM     55  C   UNL A   1      43.684  30.465  35.136  1.00  0.00     0.029 A 
ATOM     56  N   UNL A   1      43.227  29.274  33.315  1.00  0.00    -0.354 N 
ATOM     57  N   UNL A   1      43.732  27.215  31.282  1.00  0.00    -0.248 NA
ATOM     58  C   UNL A   1      45.111  25.568  30.361  1.00  0.00     0.031 C 
ATOM     59  C   UNL A   1      44.747  29.586  34.902  1.00  0.00     0.029 A 
ATOM     60  C   UNL A   1      44.454  28.832  33.777  1.00  0.00     0.049 A 
ATOM     61  H   UNL A   1      42.760  28.919  32.523  1.00  0.00     0.167 HD
ATOM     62  C   UNL A   1      44.876  27.089  32.062  1.00  0.00     0.074 A 
ATOM     63  C   UNL A   1      45.676  26.040  31.464  1.00  0.00     0.031 C 
ATOM     64  C   UNL A   1      45.238  27.786  33.167  1.00  0.00     0.037 A 
BRANCH  51  65
ATOM     65  C   UNL A   1      41.155  32.115  34.854  1.00  0.00     0.058 A 
ATOM     66  C   UNL A   1      41.664  33.413  34.695  1.00  0.00     0.135 A 
ATOM     67  C   UNL A   1      40.303  31.868  35.942  1.00  0.00     0.135 A 
ATOM     68  F   UNL A   1      42.504  33.691  33.684  1.00  0.00    -0.206 F 
ATOM     69  C   UNL A   1      41.363  34.425  35.598  1.00  0.00     0.059 A 
ATOM     70  C   UNL A   1      39.973  32.871  36.849  1.00  0.00     0.059 A 
ATOM     71  F   UNL A   1      39.802  30.640  36.144  1.00  0.00    -0.206 F 
ATOM     72  C   UNL A   1      40.522  34.141  36.678  1.00  0.00     0.060 A 
BRANCH  72  73
ATOM     73  S   UNL A   1      40.164  35.455  37.862  1.00  0.00     0.124 S 
ATOM     74  O   UNL A   1      41.430  35.549  38.583  1.00  0.00    -0.237 OA
ATOM     75  O   UNL A   1      39.847  36.583  36.992  1.00  0.00    -0.237 OA
ATOM     76  O   UNL A   1      39.042  34.924  38.629  1.00  0.00    -0.744 OA
ENDBRANCH  72  73
ENDBRANCH  51  65
BRANCH  52  77
ATOM     77  C   UNL A   1      43.236  24.963  28.198  1.00  0.00     0.058 A 
ATOM     78  C   UNL A   1      43.847  25.254  26.969  1.00  0.00     0.135 A 
ATOM     79  C   UNL A   1      42.907  23.624  28.462  1.00  0.00     0.135 A 
ATOM     80  F   UNL A   1      44.173  26.519  26.665  1.00  0.00    -0.206 F 
ATOM     81  C   UNL A   1      44.094  24.263  26.023  1.00  0.00     0.059 A 
ATOM     82  C   UNL A   1      43.166  22.611  27.543  1.00  0.00     0.059 A 
ATOM     83  F   UNL A   1      42.330  23.290  29.627  1.00  0.00    -0.206 F 
ATOM     84  C   UNL A   1      43.744  22.944  26.318  1.00  0.00     0.060 A 
BRANCH  84  85
ATOM     85  S   UNL A   1      44.071  21.659  25.091  1.00  0.00     0.124 S 
ATOM     86  O   UNL A   1      43.031  20.687  25.403  1.00  0.00    -0.237 OA
ATOM     87  O   UNL A   1      43.911  22.383  23.833  1.00  0.00    -0.237 OA
ATOM     88  O   UNL A   1      45.437  21.245  25.399  1.00  0.00    -0.744 OA
ENDBRANCH  84  85
ENDBRANCH  52  77
BRANCH  64  89
ATOM     89  C   UNL A   1      46.552  27.436  33.809  1.00  0.00     0.058 A 
ATOM     90  C   UNL A   1      46.647  26.431  34.782  1.00  0.00     0.135 A 
ATOM     91  C   UNL A   1      47.736  28.071  33.402  1.00  0.00     0.135 A 
ATOM     92  F   UNL A   1      45.544  25.797  35.210  1.00  0.00    -0.206 F 
ATOM     93  C   UNL A   1      47.870  26.077  35.344  1.00  0.00     0.059 A 
ATOM     94  C   UNL A   1      48.972  27.718  33.932  1.00  0.00     0.059 A 
ATOM     95  F   UNL A   1      47.700  29.033  32.466  1.00  0.00    -0.206 F 
ATOM     96  C   UNL A   1      49.028  26.725  34.911  1.00  0.00     0.060 A 
BRANCH  96  97
ATOM     97  S   UNL A   1      50.616  26.227  35.611  1.00  0.00     0.124 S 
ATOM     98  O   UNL A   1      50.601  24.787  35.380  1.00  0.00    -0.237 OA
ATOM     99  O   UNL A   1      51.568  26.987  34.807  1.00  0.00    -0.237 OA
ATOM    100  O   UNL A   1      50.515  26.642  37.007  1.00  0.00    -0.744 OA
ENDBRANCH  96  97
ENDBRANCH  64  89
ENDBRANCH  38  39
ENDBRANCH  31  33
ENDBRANCH  30  31
ENDBRANCH  29  30
ENDBRANCH   1  29
TORSDOF 19
ENDMDL
MODEL 3
REMARK VINA RESULT:     -11.2      2.422      8.080
REMARK SMILES Cc1cc(OCC(=O)N/C(=C/c2ccccc2Cl)C(=O)OCCOC(=O)c2ccc(-c3c4nc(c(-c5c(F)cc(S(=O)(=O)[O-])cc5F)c5ccc([nH]5)c(-c5c(F)cc(S(=O)(=O)[O-])cc5F)c5nc(c(-c6c(F)cc(S(=O)(=O)[O-])cc6F)c6ccc3[nH]6)C=C5)C=C4)cc2)cc(C)c1Cl
REMARK SMILES IDX 22 1 21 2 19 3 20 4 10 5 11 6 9 7 7 8 8 9 6 11 5 12 4 13
REMARK SMILES IDX 1 14 2 15 3 16 96 17 94 18 97 19 93 20 95 21 12 22 13 23
REMARK SMILES IDX 17 24 14 25 16 26 18 27 15 28 23 29 24 30 25 31 26 32 27 33
REMARK SMILES IDX 28 34 92 35 29 36 91 37 30 38 31 39 32 40 85 41 33 42 90 43
REMARK SMILES IDX 84 44 86 45 34 46 89 47 83 48 82 49 35 51 69 52 48 53 68 54
REMARK SMILES IDX 49 55 52 56 67 57 87 58 50 59 51 60 66 62 88 63 53 64 36 65
REMARK SMILES IDX 37 66 46 67 38 68 39 69 45 70 47 71 40 72 41 73 42 74 43 75
REMARK SMILES IDX 44 76 70 77 71 78 80 79 72 80 73 81 79 82 81 83 74 84 75 85
REMARK SMILES IDX 76 86 77 87 78 88 54 89 55 90 64 91 56 92 57 93 63 94 65 95
REMARK SMILES IDX 58 96 59 97 60 98 61 99 62 100
REMARK H PARENT 9 10 86 50 52 61
REMARK Flexibility Score: inf
ROOT
ATOM      1  C   UNL A   1      31.781  28.166  27.784  1.00  0.00     0.275 C 
ENDROOT
BRANCH   1   2
ATOM      2  O   UNL A   1      30.732  27.470  27.092  1.00  0.00    -0.457 OA
BRANCH   2   3
ATOM      3  C   UNL A   1      31.157  26.478  26.268  1.00  0.00     0.354 C 
ATOM      4  O   UNL A   1      32.301  26.296  25.889  1.00  0.00    -0.244 OA
BRANCH   3   5
ATOM      5  C   UNL A   1      29.988  25.640  25.872  1.00  0.00     0.128 C 
ATOM      6  C   UNL A   1      29.382  25.906  24.696  1.00  0.00     0.043 C 
BRANCH   5   7
ATOM      7  N   UNL A   1      29.503  24.612  26.649  1.00  0.00    -0.317 N 
ATOM      8  C   UNL A   1      29.965  23.374  26.974  1.00  0.00     0.262 C 
ATOM      9  O   UNL A   1      29.278  22.721  27.768  1.00  0.00    -0.271 OA
ATOM     10  H   UNL A   1      28.632  24.818  27.058  1.00  0.00     0.170 HD
BRANCH   8  11
ATOM     11  C   UNL A   1      31.294  22.815  26.456  1.00  0.00     0.329 C 
BRANCH  11  12
ATOM     12  O   UNL A   1      32.512  23.346  26.925  1.00  0.00    -0.484 OA
BRANCH  12  13
ATOM     13  C   UNL A   1      33.579  23.286  26.080  1.00  0.00     0.120 A 
ATOM     14  C   UNL A   1      37.372  23.295  25.947  1.00  0.00     0.046 C 
ATOM     15  C   UNL A   1      35.938  23.232  25.492  1.00  0.00    -0.029 A 
ATOM     16  C   UNL A   1      34.920  23.353  26.452  1.00  0.00     0.051 A 
ATOM     17  C   UNL A   1      35.582  23.076  24.139  1.00  0.00     0.047 A 
ATOM     18  C   UNL A   1      34.227  23.037  23.754  1.00  0.00    -0.029 A 
ATOM     19  Cl  UNL A   1      36.815  22.917  22.931  1.00  0.00    -0.084 Cl
ATOM     20  C   UNL A   1      33.239  23.156  24.739  1.00  0.00     0.051 A 
ATOM     21  C   UNL A   1      33.800  22.875  22.324  1.00  0.00     0.046 C 
ENDBRANCH  12  13
ENDBRANCH  11  12
ENDBRANCH   8  11
ENDBRANCH   5   7
BRANCH   6  22
ATOM     22  C   UNL A   1      29.764  26.985  23.774  1.00  0.00    -0.005 A 
ATOM     23  C   UNL A   1      29.074  28.203  23.886  1.00  0.00     0.010 A 
ATOM     24  C   UNL A   1      30.797  26.874  22.828  1.00  0.00     0.048 A 
ATOM     25  C   UNL A   1      29.437  29.298  23.102  1.00  0.00     0.001 A 
ATOM     26  C   UNL A   1      31.177  27.982  22.068  1.00  0.00     0.021 A 
ATOM     27  Cl  UNL A   1      31.611  25.379  22.527  1.00  0.00    -0.084 Cl
ATOM     28  C   UNL A   1      30.500  29.194  22.208  1.00  0.00     0.002 A 
ENDBRANCH   6  22
ENDBRANCH   3   5
ENDBRANCH   2   3
ENDBRANCH   1   2
BRANCH   1  29
ATOM     29  C   UNL A   1      32.419  29.191  26.847  1.00  0.00     0.275 C 
BRANCH  29  30
ATOM     30  O   UNL A   1      33.849  29.181  27.015  1.00  0.00    -0.458 OA
BRANCH  30  31
ATOM     31  C   UNL A   1      34.364  30.253  27.672  1.00  0.00     0.338 C 
ATOM     32  O   UNL A   1      33.745  31.224  28.077  1.00  0.00    -0.246 OA
BRANCH  31  33
ATOM     33  C   UNL A   1      35.789  29.998  27.995  1.00  0.00     0.060 A 
ATOM     34  C   UNL A   1      36.106  29.659  29.315  1.00  0.00     0.016 A 
ATOM     35  C   UNL A   1      36.794  30.012  27.018  1.00  0.00     0.016 A 
ATOM     36  C   UNL A   1      37.415  29.310  29.654  1.00  0.00     0.010 A 
ATOM     37  C   UNL A   1      38.111  29.691  27.366  1.00  0.00     0.010 A 
ATOM     38  C   UNL A   1      38.431  29.337  28.684  1.00  0.00    -0.014 A 
BRANCH  38  39
ATOM     39  C   UNL A   1      39.838  29.112  29.098  1.00  0.00     0.031 A 
ATOM     40  C   UNL A   1      40.473  27.790  28.783  1.00  0.00     0.074 A 
ATOM     41  C   UNL A   1      40.552  30.069  29.721  1.00  0.00     0.049 A 
ATOM     42  N   UNL A   1      41.708  27.401  28.962  1.00  0.00    -0.248 NA
ATOM     43  C   UNL A   1      39.593  26.767  28.196  1.00  0.00     0.031 C 
ATOM     44  C   UNL A   1      40.046  31.383  30.102  1.00  0.00     0.029 A 
ATOM     45  N   UNL A   1      41.861  30.088  30.134  1.00  0.00    -0.354 N 
ATOM     46  C   UNL A   1      41.760  26.095  28.494  1.00  0.00     0.074 A 
ATOM     47  C   UNL A   1      40.429  25.752  28.038  1.00  0.00     0.031 C 
ATOM     48  C   UNL A   1      41.038  32.097  30.658  1.00  0.00     0.029 A 
ATOM     49  C   UNL A   1      42.247  31.280  30.703  1.00  0.00     0.049 A 
ATOM     50  H   UNL A   1      42.468  29.319  30.035  1.00  0.00     0.167 HD
ATOM     51  C   UNL A   1      42.818  25.252  28.457  1.00  0.00     0.037 A 
ATOM     52  C   UNL A   1      43.437  31.666  31.205  1.00  0.00     0.037 A 
ATOM     53  C   UNL A   1      44.122  25.566  28.974  1.00  0.00     0.049 A 
ATOM     54  C   UNL A   1      44.587  30.692  31.195  1.00  0.00     0.074 A 
ATOM     55  C   UNL A   1      45.248  24.765  29.014  1.00  0.00     0.029 A 
ATOM     56  N   UNL A   1      44.466  26.772  29.569  1.00  0.00    -0.354 N 
ATOM     57  N   UNL A   1      44.634  29.477  30.701  1.00  0.00    -0.248 NA
ATOM     58  C   UNL A   1      45.840  31.134  31.824  1.00  0.00     0.031 C 
ATOM     59  C   UNL A   1      46.262  25.470  29.672  1.00  0.00     0.029 A 
ATOM     60  C   UNL A   1      45.780  26.727  30.003  1.00  0.00     0.049 A 
ATOM     61  H   UNL A   1      43.865  27.546  29.667  1.00  0.00     0.167 HD
ATOM     62  C   UNL A   1      45.922  29.014  30.954  1.00  0.00     0.074 A 
ATOM     63  C   UNL A   1      46.628  30.088  31.622  1.00  0.00     0.031 C 
ATOM     64  C   UNL A   1      46.467  27.806  30.669  1.00  0.00     0.037 A 
BRANCH  51  65
ATOM     65  C   UNL A   1      42.575  23.891  27.878  1.00  0.00     0.058 A 
ATOM     66  C   UNL A   1      42.389  22.769  28.701  1.00  0.00     0.135 A 
ATOM     67  C   UNL A   1      42.555  23.701  26.487  1.00  0.00     0.135 A 
ATOM     68  F   UNL A   1      42.427  22.896  30.037  1.00  0.00    -0.206 F 
ATOM     69  C   UNL A   1      42.218  21.499  28.165  1.00  0.00     0.059 A 
ATOM     70  C   UNL A   1      42.366  22.441  25.929  1.00  0.00     0.059 A 
ATOM     71  F   UNL A   1      42.741  24.742  25.660  1.00  0.00    -0.206 F 
ATOM     72  C   UNL A   1      42.215  21.344  26.776  1.00  0.00     0.060 A 
BRANCH  72  73
ATOM     73  S   UNL A   1      42.024  19.685  26.092  1.00  0.00     0.124 S 
ATOM     74  O   UNL A   1      42.396  18.855  27.235  1.00  0.00    -0.237 OA
ATOM     75  O   UNL A   1      40.612  19.659  25.724  1.00  0.00    -0.237 OA
ATOM     76  O   UNL A   1      42.960  19.669  24.973  1.00  0.00    -0.744 OA
ENDBRANCH  72  73
ENDBRANCH  51  65
BRANCH  52  77
ATOM     77  C   UNL A   1      43.613  33.032  31.772  1.00  0.00     0.058 A 
ATOM     78  C   UNL A   1      43.381  33.283  33.132  1.00  0.00     0.135 A 
ATOM     79  C   UNL A   1      43.985  34.117  30.963  1.00  0.00     0.135 A 
ATOM     80  F   UNL A   1      43.014  32.282  33.947  1.00  0.00    -0.206 F 
ATOM     81  C   UNL A   1      43.482  34.564  33.666  1.00  0.00     0.059 A 
ATOM     82  C   UNL A   1      44.117  35.403  31.478  1.00  0.00     0.059 A 
ATOM     83  F   UNL A   1      44.228  33.929  29.656  1.00  0.00    -0.206 F 
ATOM     84  C   UNL A   1      43.846  35.619  32.829  1.00  0.00     0.060 A 
BRANCH  84  85
ATOM     85  S   UNL A   1      43.983  37.281  33.526  1.00  0.00     0.124 S 
ATOM     86  O   UNL A   1      45.252  37.195  34.237  1.00  0.00    -0.237 OA
ATOM     87  O   UNL A   1      43.978  38.120  32.330  1.00  0.00    -0.237 OA
ATOM     88  O   UNL A   1      42.793  37.389  34.365  1.00  0.00    -0.744 OA
ENDBRANCH  84  85
ENDBRANCH  52  77
BRANCH  64  89
ATOM     89  C   UNL A   1      47.897  27.578  31.070  1.00  0.00     0.058 A 
ATOM     90  C   UNL A   1      48.230  27.020  32.314  1.00  0.00     0.135 A 
ATOM     91  C   UNL A   1      48.943  27.865  30.178  1.00  0.00     0.135 A 
ATOM     92  F   UNL A   1      47.267  26.733  33.205  1.00  0.00    -0.206 F 
ATOM     93  C   UNL A   1      49.551  26.768  32.667  1.00  0.00     0.059 A 
ATOM     94  C   UNL A   1      50.270  27.600  30.501  1.00  0.00     0.059 A 
ATOM     95  F   UNL A   1      48.678  28.390  28.971  1.00  0.00    -0.206 F 
ATOM     96  C   UNL A   1      50.565  27.060  31.752  1.00  0.00     0.060 A 
BRANCH  96  97
ATOM     97  S   UNL A   1      52.274  26.686  32.201  1.00  0.00     0.124 S 
ATOM     98  O   UNL A   1      52.564  25.549  31.334  1.00  0.00    -0.237 OA
ATOM     99  O   UNL A   1      52.966  27.928  31.871  1.00  0.00    -0.237 OA
ATOM    100  O   UNL A   1      52.191  26.384  33.628  1.00  0.00    -0.744 OA
ENDBRANCH  96  97
ENDBRANCH  64  89
ENDBRANCH  38  39
ENDBRANCH  31  33
ENDBRANCH  30  31
ENDBRANCH  29  30
ENDBRANCH   1  29
TORSDOF 19
ENDMDL
