MODEL 1
REMARK VINA RESULT:     -12.3      0.000      0.000
REMARK SMILES Nc1nc2ccccc2nc1N1CCC(C(=O)OCCOC(=O)c2ccc(-c3c4nc(c(-c5c(F)cc(S(=O)(=O)[O-])cc5F)c5ccc([nH]5)c(-c5c(F)cc(S(=O)(=O)[O-])cc5F)c5nc(c(-c6c(F)cc(S(=O)(=O)[O-])cc6F)c6ccc3[nH]6)C=C5)C=C4)cc2)CC1
REMARK SMILES IDX 20 1 19 2 18 3 16 4 17 5 15 6 12 7 13 8 91 9 14 10 90 11
REMARK SMILES IDX 11 12 2 13 3 14 4 15 10 16 5 17 9 18 6 19 8 20 7 21 1 22
REMARK SMILES IDX 21 25 22 26 23 27 24 28 25 29 89 30 26 31 88 32 27 33 28 34
REMARK SMILES IDX 29 35 82 36 30 37 87 38 81 39 83 40 31 41 86 42 80 43 79 44
REMARK SMILES IDX 32 46 66 47 45 48 65 49 46 50 49 51 64 52 84 53 47 54 48 55
REMARK SMILES IDX 63 57 85 58 50 59 33 60 34 61 43 62 35 63 36 64 42 65 44 66
REMARK SMILES IDX 37 67 38 68 39 69 40 70 41 71 67 72 68 73 77 74 69 75 70 76
REMARK SMILES IDX 76 77 78 78 71 79 72 80 73 81 74 82 75 83 51 84 52 85 61 86
REMARK SMILES IDX 53 87 54 88 60 89 62 90 55 91 56 92 57 93 58 94 59 95
REMARK H PARENT 1 23 1 24 83 45 49 56
REMARK Flexibility Score: inf
ROOT
ATOM      1  C   UNL A   1      39.783  22.724  26.872  1.00  0.00     0.275 C 
ENDROOT
BRANCH   1   2
ATOM      2  C   UNL A   1      39.103  21.833  25.829  1.00  0.00     0.274 C 
BRANCH   2   3
ATOM      3  O   UNL A   1      37.674  22.015  25.848  1.00  0.00    -0.462 OA
BRANCH   3   4
ATOM      4  C   UNL A   1      36.945  21.042  25.249  1.00  0.00     0.309 C 
ATOM      5  O   UNL A   1      37.411  20.021  24.757  1.00  0.00    -0.252 OA
BRANCH   4   6
ATOM      6  C   UNL A   1      35.462  21.329  25.238  1.00  0.00     0.103 C 
ATOM      7  N   UNL A   1      32.983  22.714  25.420  1.00  0.00    -0.353 N 
ATOM      8  C   UNL A   1      33.323  21.758  26.467  1.00  0.00     0.119 C 
ATOM      9  C   UNL A   1      33.625  22.582  24.113  1.00  0.00     0.119 C 
ATOM     10  C   UNL A   1      34.833  21.599  26.607  1.00  0.00     0.037 C 
ATOM     11  C   UNL A   1      35.139  22.467  24.275  1.00  0.00     0.037 C 
BRANCH   7  12
ATOM     12  C   UNL A   1      32.592  23.997  25.796  1.00  0.00     0.172 A 
ATOM     13  C   UNL A   1      31.250  24.253  26.191  1.00  0.00     0.167 A 
ATOM     14  N   UNL A   1      30.821  25.476  26.548  1.00  0.00    -0.226 NA
ATOM     15  C   UNL A   1      31.737  26.456  26.529  1.00  0.00     0.091 A 
ATOM     16  N   UNL A   1      33.513  24.989  25.808  1.00  0.00    -0.225 NA
ATOM     17  C   UNL A   1      31.351  27.742  26.883  1.00  0.00     0.031 A 
ATOM     18  C   UNL A   1      33.084  26.215  26.158  1.00  0.00     0.091 A 
ATOM     19  C   UNL A   1      32.255  28.804  26.866  1.00  0.00     0.002 A 
ATOM     20  C   UNL A   1      33.976  27.282  26.145  1.00  0.00     0.031 A 
ATOM     21  C   UNL A   1      33.572  28.573  26.492  1.00  0.00     0.002 A 
BRANCH  13  22
ATOM     22  N   UNL A   1      30.294  23.242  26.212  1.00  0.00    -0.381 N 
ATOM     23  H   UNL A   1      29.339  23.470  26.281  1.00  0.00     0.158 HD
ATOM     24  H   UNL A   1      30.573  22.299  26.160  1.00  0.00     0.158 HD
ENDBRANCH  13  22
ENDBRANCH   7  12
ENDBRANCH   4   6
ENDBRANCH   3   4
ENDBRANCH   2   3
ENDBRANCH   1   2
BRANCH   1  25
ATOM     25  O   UNL A   1      39.640  24.120  26.553  1.00  0.00    -0.458 OA
BRANCH  25  26
ATOM     26  C   UNL A   1      40.764  24.867  26.676  1.00  0.00     0.338 C 
ATOM     27  O   UNL A   1      41.750  24.845  25.963  1.00  0.00    -0.246 OA
BRANCH  26  28
ATOM     28  C   UNL A   1      40.580  25.829  27.774  1.00  0.00     0.060 A 
ATOM     29  C   UNL A   1      39.479  25.734  28.622  1.00  0.00     0.016 A 
ATOM     30  C   UNL A   1      41.557  26.805  27.983  1.00  0.00     0.016 A 
ATOM     31  C   UNL A   1      39.345  26.649  29.667  1.00  0.00     0.010 A 
ATOM     32  C   UNL A   1      41.430  27.711  29.034  1.00  0.00     0.010 A 
ATOM     33  C   UNL A   1      40.316  27.647  29.878  1.00  0.00    -0.014 A 
BRANCH  33  34
ATOM     34  C   UNL A   1      40.180  28.593  31.011  1.00  0.00     0.031 A 
ATOM     35  C   UNL A   1      41.042  28.456  32.234  1.00  0.00     0.074 A 
ATOM     36  C   UNL A   1      39.264  29.577  30.927  1.00  0.00     0.049 A 
ATOM     37  N   UNL A   1      41.119  29.246  33.275  1.00  0.00    -0.248 NA
ATOM     38  C   UNL A   1      41.920  27.277  32.309  1.00  0.00     0.031 C 
ATOM     39  C   UNL A   1      38.327  29.759  29.816  1.00  0.00     0.029 A 
ATOM     40  N   UNL A   1      38.973  30.610  31.780  1.00  0.00    -0.354 N 
ATOM     41  C   UNL A   1      42.061  28.670  34.120  1.00  0.00     0.074 A 
ATOM     42  C   UNL A   1      42.488  27.437  33.497  1.00  0.00     0.031 C 
ATOM     43  C   UNL A   1      37.592  30.860  30.037  1.00  0.00     0.029 A 
ATOM     44  C   UNL A   1      37.986  31.447  31.315  1.00  0.00     0.049 A 
ATOM     45  H   UNL A   1      39.428  30.742  32.643  1.00  0.00     0.167 HD
ATOM     46  C   UNL A   1      42.540  29.146  35.293  1.00  0.00     0.037 A 
ATOM     47  C   UNL A   1      37.464  32.567  31.852  1.00  0.00     0.037 A 
ATOM     48  C   UNL A   1      42.110  30.384  35.895  1.00  0.00     0.049 A 
ATOM     49  C   UNL A   1      38.016  33.074  33.156  1.00  0.00     0.074 A 
ATOM     50  C   UNL A   1      42.583  30.987  37.047  1.00  0.00     0.029 A 
ATOM     51  N   UNL A   1      41.104  31.202  35.399  1.00  0.00    -0.354 N 
ATOM     52  N   UNL A   1      38.978  32.571  33.894  1.00  0.00    -0.248 NA
ATOM     53  C   UNL A   1      37.425  34.306  33.696  1.00  0.00     0.031 C 
ATOM     54  C   UNL A   1      41.827  32.140  37.278  1.00  0.00     0.029 A 
ATOM     55  C   UNL A   1      40.921  32.288  36.240  1.00  0.00     0.049 A 
ATOM     56  H   UNL A   1      40.596  31.035  34.573  1.00  0.00     0.167 HD
ATOM     57  C   UNL A   1      39.115  33.431  34.978  1.00  0.00     0.074 A 
ATOM     58  C   UNL A   1      38.155  34.498  34.787  1.00  0.00     0.031 C 
ATOM     59  C   UNL A   1      39.957  33.342  36.037  1.00  0.00     0.037 A 
BRANCH  46  60
ATOM     60  C   UNL A   1      43.598  28.350  36.007  1.00  0.00     0.058 A 
ATOM     61  C   UNL A   1      43.264  27.280  36.852  1.00  0.00     0.135 A 
ATOM     62  C   UNL A   1      44.961  28.590  35.765  1.00  0.00     0.135 A 
ATOM     63  F   UNL A   1      41.978  27.012  37.127  1.00  0.00    -0.206 F 
ATOM     64  C   UNL A   1      44.242  26.481  37.436  1.00  0.00     0.059 A 
ATOM     65  C   UNL A   1      45.956  27.789  36.319  1.00  0.00     0.059 A 
ATOM     66  F   UNL A   1      45.337  29.601  34.966  1.00  0.00    -0.206 F 
ATOM     67  C   UNL A   1      45.585  26.737  37.156  1.00  0.00     0.060 A 
BRANCH  67  68
ATOM     68  S   UNL A   1      46.835  25.657  37.885  1.00  0.00     0.124 S 
ATOM     69  O   UNL A   1      46.120  25.117  39.037  1.00  0.00    -0.237 OA
ATOM     70  O   UNL A   1      47.095  24.712  36.803  1.00  0.00    -0.237 OA
ATOM     71  O   UNL A   1      47.932  26.565  38.199  1.00  0.00    -0.744 OA
ENDBRANCH  67  68
ENDBRANCH  46  60
BRANCH  47  72
ATOM     72  C   UNL A   1      36.378  33.290  31.139  1.00  0.00     0.058 A 
ATOM     73  C   UNL A   1      35.067  33.308  31.638  1.00  0.00     0.135 A 
ATOM     74  C   UNL A   1      36.637  34.006  29.959  1.00  0.00     0.135 A 
ATOM     75  F   UNL A   1      34.767  32.637  32.761  1.00  0.00    -0.206 F 
ATOM     76  C   UNL A   1      34.049  33.996  30.988  1.00  0.00     0.059 A 
ATOM     77  C   UNL A   1      35.642  34.724  29.305  1.00  0.00     0.059 A 
ATOM     78  F   UNL A   1      37.879  34.036  29.450  1.00  0.00    -0.206 F 
ATOM     79  C   UNL A   1      34.347  34.706  29.823  1.00  0.00     0.060 A 
BRANCH  79  80
ATOM     80  S   UNL A   1      33.027  35.634  29.014  1.00  0.00     0.124 S 
ATOM     81  O   UNL A   1      33.781  36.664  28.309  1.00  0.00    -0.237 OA
ATOM     82  O   UNL A   1      32.405  34.612  28.178  1.00  0.00    -0.237 OA
ATOM     83  O   UNL A   1      32.211  36.102  30.131  1.00  0.00    -0.744 OA
ENDBRANCH  79  80
ENDBRANCH  47  72
BRANCH  59  84
ATOM     84  C   UNL A   1      39.888  34.427  37.075  1.00  0.00     0.058 A 
ATOM     85  C   UNL A   1      40.613  35.620  36.938  1.00  0.00     0.135 A 
ATOM     86  C   UNL A   1      39.026  34.306  38.179  1.00  0.00     0.135 A 
ATOM     87  F   UNL A   1      41.455  35.785  35.905  1.00  0.00    -0.206 F 
ATOM     88  C   UNL A   1      40.500  36.649  37.866  1.00  0.00     0.059 A 
ATOM     89  C   UNL A   1      38.875  35.334  39.103  1.00  0.00     0.059 A 
ATOM     90  F   UNL A   1      38.301  33.190  38.351  1.00  0.00    -0.206 F 
ATOM     91  C   UNL A   1      39.623  36.500  38.942  1.00  0.00     0.060 A 
BRANCH  91  92
ATOM     92  S   UNL A   1      39.455  37.864  40.112  1.00  0.00     0.124 S 
ATOM     93  O   UNL A   1      39.291  37.151  41.375  1.00  0.00    -0.237 OA
ATOM     94  O   UNL A   1      40.719  38.574  39.945  1.00  0.00    -0.237 OA
ATOM     95  O   UNL A   1      38.274  38.578  39.637  1.00  0.00    -0.744 OA
ENDBRANCH  91  92
ENDBRANCH  59  84
ENDBRANCH  33  34
ENDBRANCH  26  28
ENDBRANCH  25  26
ENDBRANCH   1  25
TORSDOF 16
ENDMDL
MODEL 2
REMARK VINA RESULT:     -12.2      5.193     10.104
REMARK SMILES Nc1nc2ccccc2nc1N1CCC(C(=O)OCCOC(=O)c2ccc(-c3c4nc(c(-c5c(F)cc(S(=O)(=O)[O-])cc5F)c5ccc([nH]5)c(-c5c(F)cc(S(=O)(=O)[O-])cc5F)c5nc(c(-c6c(F)cc(S(=O)(=O)[O-])cc6F)c6ccc3[nH]6)C=C5)C=C4)cc2)CC1
REMARK SMILES IDX 20 1 19 2 18 3 16 4 17 5 15 6 12 7 13 8 91 9 14 10 90 11
REMARK SMILES IDX 11 12 2 13 3 14 4 15 10 16 5 17 9 18 6 19 8 20 7 21 1 22
REMARK SMILES IDX 21 25 22 26 23 27 24 28 25 29 89 30 26 31 88 32 27 33 28 34
REMARK SMILES IDX 29 35 82 36 30 37 87 38 81 39 83 40 31 41 86 42 80 43 79 44
REMARK SMILES IDX 32 46 66 47 45 48 65 49 46 50 49 51 64 52 84 53 47 54 48 55
REMARK SMILES IDX 63 57 85 58 50 59 33 60 34 61 43 62 35 63 36 64 42 65 44 66
REMARK SMILES IDX 37 67 38 68 39 69 40 70 41 71 67 72 68 73 77 74 69 75 70 76
REMARK SMILES IDX 76 77 78 78 71 79 72 80 73 81 74 82 75 83 51 84 52 85 61 86
REMARK SMILES IDX 53 87 54 88 60 89 62 90 55 91 56 92 57 93 58 94 59 95
REMARK H PARENT 1 23 1 24 83 45 49 56
REMARK Flexibility Score: inf
ROOT
ATOM      1  C   UNL A   1      33.425  28.918  26.144  1.00  0.00     0.275 C 
ENDROOT
BRANCH   1   2
ATOM      2  C   UNL A   1      31.940  29.137  25.842  1.00  0.00     0.274 C 
BRANCH   2   3
ATOM      3  O   UNL A   1      31.354  27.960  25.253  1.00  0.00    -0.462 OA
BRANCH   3   4
ATOM      4  C   UNL A   1      31.078  26.945  26.107  1.00  0.00     0.309 C 
ATOM      5  O   UNL A   1      30.661  27.087  27.251  1.00  0.00    -0.252 OA
BRANCH   4   6
ATOM      6  C   UNL A   1      31.333  25.579  25.513  1.00  0.00     0.103 C 
ATOM      7  N   UNL A   1      32.627  23.146  24.806  1.00  0.00    -0.353 N 
ATOM      8  C   UNL A   1      32.388  24.135  23.762  1.00  0.00     0.119 C 
ATOM      9  C   UNL A   1      31.799  23.183  26.010  1.00  0.00     0.119 C 
ATOM     10  C   UNL A   1      32.310  25.545  24.335  1.00  0.00     0.037 C 
ATOM     11  C   UNL A   1      31.770  24.594  26.592  1.00  0.00     0.037 C 
BRANCH   7  12
ATOM     12  C   UNL A   1      33.914  22.632  24.950  1.00  0.00     0.172 A 
ATOM     13  C   UNL A   1      34.178  21.265  24.662  1.00  0.00     0.167 A 
ATOM     14  N   UNL A   1      35.399  20.718  24.800  1.00  0.00    -0.226 NA
ATOM     15  C   UNL A   1      36.375  21.542  25.211  1.00  0.00     0.091 A 
ATOM     16  N   UNL A   1      34.913  23.458  25.336  1.00  0.00    -0.225 NA
ATOM     17  C   UNL A   1      37.656  21.033  25.376  1.00  0.00     0.031 A 
ATOM     18  C   UNL A   1      36.134  22.912  25.482  1.00  0.00     0.091 A 
ATOM     19  C   UNL A   1      38.707  21.837  25.816  1.00  0.00     0.002 A 
ATOM     20  C   UNL A   1      37.190  23.703  25.920  1.00  0.00     0.031 A 
ATOM     21  C   UNL A   1      38.472  23.176  26.093  1.00  0.00     0.002 A 
BRANCH  13  22
ATOM     22  N   UNL A   1      33.170  20.404  24.237  1.00  0.00    -0.381 N 
ATOM     23  H   UNL A   1      33.104  19.499  24.616  1.00  0.00     0.158 HD
ATOM     24  H   UNL A   1      32.525  20.701  23.555  1.00  0.00     0.158 HD
ENDBRANCH  13  22
ENDBRANCH   7  12
ENDBRANCH   4   6
ENDBRANCH   3   4
ENDBRANCH   2   3
ENDBRANCH   1   2
BRANCH   1  25
ATOM     25  O   UNL A   1      33.707  29.050  27.549  1.00  0.00    -0.458 OA
BRANCH  25  26
ATOM     26  C   UNL A   1      34.373  30.173  27.910  1.00  0.00     0.338 C 
ATOM     27  O   UNL A   1      33.906  31.278  28.116  1.00  0.00    -0.246 OA
BRANCH  26  28
ATOM     28  C   UNL A   1      35.787  29.838  28.136  1.00  0.00     0.060 A 
ATOM     29  C   UNL A   1      36.727  30.011  27.121  1.00  0.00     0.016 A 
ATOM     30  C   UNL A   1      36.180  29.394  29.400  1.00  0.00     0.016 A 
ATOM     31  C   UNL A   1      38.065  29.704  27.375  1.00  0.00     0.010 A 
ATOM     32  C   UNL A   1      37.517  29.099  29.656  1.00  0.00     0.010 A 
ATOM     33  C   UNL A   1      38.469  29.241  28.641  1.00  0.00    -0.014 A 
BRANCH  33  34
ATOM     34  C   UNL A   1      39.898  28.949  28.908  1.00  0.00     0.031 A 
ATOM     35  C   UNL A   1      40.480  27.603  28.583  1.00  0.00     0.074 A 
ATOM     36  C   UNL A   1      40.664  29.912  29.456  1.00  0.00     0.049 A 
ATOM     37  N   UNL A   1      41.725  27.207  28.667  1.00  0.00    -0.248 NA
ATOM     38  C   UNL A   1      39.550  26.562  28.118  1.00  0.00     0.031 C 
ATOM     39  C   UNL A   1      40.183  31.231  29.875  1.00  0.00     0.029 A 
ATOM     40  N   UNL A   1      42.004  29.939  29.745  1.00  0.00    -0.354 N 
ATOM     41  C   UNL A   1      41.731  25.880  28.253  1.00  0.00     0.074 A 
ATOM     42  C   UNL A   1      40.359  25.521  27.970  1.00  0.00     0.031 C 
ATOM     43  C   UNL A   1      41.220  31.950  30.333  1.00  0.00     0.029 A 
ATOM     44  C   UNL A   1      42.431  31.139  30.263  1.00  0.00     0.049 A 
ATOM     45  H   UNL A   1      42.604  29.173  29.595  1.00  0.00     0.167 HD
ATOM     46  C   UNL A   1      42.791  25.052  28.100  1.00  0.00     0.037 A 
ATOM     47  C   UNL A   1      43.663  31.543  30.632  1.00  0.00     0.037 A 
ATOM     48  C   UNL A   1      44.154  25.431  28.376  1.00  0.00     0.049 A 
ATOM     49  C   UNL A   1      44.823  30.603  30.448  1.00  0.00     0.074 A 
ATOM     50  C   UNL A   1      45.306  24.686  28.189  1.00  0.00     0.029 A 
ATOM     51  N   UNL A   1      44.549  26.651  28.906  1.00  0.00    -0.354 N 
ATOM     52  N   UNL A   1      44.825  29.384  29.961  1.00  0.00    -0.248 NA
ATOM     53  C   UNL A   1      46.148  31.093  30.851  1.00  0.00     0.031 C 
ATOM     54  C   UNL A   1      46.390  25.435  28.654  1.00  0.00     0.029 A 
ATOM     55  C   UNL A   1      45.923  26.668  29.080  1.00  0.00     0.049 A 
ATOM     56  H   UNL A   1      43.942  27.394  29.125  1.00  0.00     0.167 HD
ATOM     57  C   UNL A   1      46.152  28.967  29.987  1.00  0.00     0.074 A 
ATOM     58  C   UNL A   1      46.925  30.071  30.516  1.00  0.00     0.031 C 
ATOM     59  C   UNL A   1      46.679  27.776  29.611  1.00  0.00     0.037 A 
BRANCH  46  60
ATOM     60  C   UNL A   1      42.538  23.659  27.592  1.00  0.00     0.058 A 
ATOM     61  C   UNL A   1      42.548  23.366  26.219  1.00  0.00     0.135 A 
ATOM     62  C   UNL A   1      42.387  22.586  28.487  1.00  0.00     0.135 A 
ATOM     63  F   UNL A   1      42.678  24.354  25.319  1.00  0.00    -0.206 F 
ATOM     64  C   UNL A   1      42.412  22.064  25.750  1.00  0.00     0.059 A 
ATOM     65  C   UNL A   1      42.274  21.272  28.042  1.00  0.00     0.059 A 
ATOM     66  F   UNL A   1      42.369  22.808  29.811  1.00  0.00    -0.206 F 
ATOM     67  C   UNL A   1      42.285  21.021  26.670  1.00  0.00     0.060 A 
BRANCH  67  68
ATOM     68  S   UNL A   1      42.160  19.333  26.042  1.00  0.00     0.124 S 
ATOM     69  O   UNL A   1      43.036  19.389  24.877  1.00  0.00    -0.237 OA
ATOM     70  O   UNL A   1      42.655  18.547  27.168  1.00  0.00    -0.237 OA
ATOM     71  O   UNL A   1      40.739  19.180  25.750  1.00  0.00    -0.744 OA
ENDBRANCH  67  68
ENDBRANCH  46  60
BRANCH  47  72
ATOM     72  C   UNL A   1      43.856  32.910  31.184  1.00  0.00     0.058 A 
ATOM     73  C   UNL A   1      44.102  34.005  30.342  1.00  0.00     0.135 A 
ATOM     74  C   UNL A   1      43.769  33.154  32.564  1.00  0.00     0.135 A 
ATOM     75  F   UNL A   1      44.198  33.824  29.016  1.00  0.00    -0.206 F 
ATOM     76  C   UNL A   1      44.267  35.290  30.848  1.00  0.00     0.059 A 
ATOM     77  C   UNL A   1      43.904  34.434  33.091  1.00  0.00     0.059 A 
ATOM     78  F   UNL A   1      43.518  32.143  33.410  1.00  0.00    -0.206 F 
ATOM     79  C   UNL A   1      44.162  35.495  32.225  1.00  0.00     0.060 A 
BRANCH  79  80
ATOM     80  S   UNL A   1      44.330  37.175  32.864  1.00  0.00     0.124 S 
ATOM     81  O   UNL A   1      44.202  37.968  31.647  1.00  0.00    -0.237 OA
ATOM     82  O   UNL A   1      43.214  37.257  33.801  1.00  0.00    -0.237 OA
ATOM     83  O   UNL A   1      45.655  37.171  33.477  1.00  0.00    -0.744 OA
ENDBRANCH  79  80
ENDBRANCH  47  72
BRANCH  59  84
ATOM     84  C   UNL A   1      48.166  27.598  29.751  1.00  0.00     0.058 A 
ATOM     85  C   UNL A   1      48.733  27.060  30.916  1.00  0.00     0.135 A 
ATOM     86  C   UNL A   1      49.024  27.896  28.679  1.00  0.00     0.135 A 
ATOM     87  F   UNL A   1      47.958  26.764  31.971  1.00  0.00    -0.206 F 
ATOM     88  C   UNL A   1      50.102  26.837  31.020  1.00  0.00     0.059 A 
ATOM     89  C   UNL A   1      50.392  27.654  28.751  1.00  0.00     0.059 A 
ATOM     90  F   UNL A   1      48.531  28.401  27.538  1.00  0.00    -0.206 F 
ATOM     91  C   UNL A   1      50.923  27.131  29.930  1.00  0.00     0.060 A 
BRANCH  91  92
ATOM     92  S   UNL A   1      52.690  26.793  30.067  1.00  0.00     0.124 S 
ATOM     93  O   UNL A   1      53.014  26.364  28.710  1.00  0.00    -0.237 OA
ATOM     94  O   UNL A   1      53.225  28.091  30.465  1.00  0.00    -0.237 OA
ATOM     95  O   UNL A   1      52.761  25.752  31.087  1.00  0.00    -0.744 OA
ENDBRANCH  91  92
ENDBRANCH  59  84
ENDBRANCH  33  34
ENDBRANCH  26  28
ENDBRANCH  25  26
ENDBRANCH   1  25
TORSDOF 16
ENDMDL
MODEL 3
REMARK VINA RESULT:     -12.1      7.035     12.362
REMARK SMILES Nc1nc2ccccc2nc1N1CCC(C(=O)OCCOC(=O)c2ccc(-c3c4nc(c(-c5c(F)cc(S(=O)(=O)[O-])cc5F)c5ccc([nH]5)c(-c5c(F)cc(S(=O)(=O)[O-])cc5F)c5nc(c(-c6c(F)cc(S(=O)(=O)[O-])cc6F)c6ccc3[nH]6)C=C5)C=C4)cc2)CC1
REMARK SMILES IDX 20 1 19 2 18 3 16 4 17 5 15 6 12 7 13 8 91 9 14 10 90 11
REMARK SMILES IDX 11 12 2 13 3 14 4 15 10 16 5 17 9 18 6 19 8 20 7 21 1 22
REMARK SMILES IDX 21 25 22 26 23 27 24 28 25 29 89 30 26 31 88 32 27 33 28 34
REMARK SMILES IDX 29 35 82 36 30 37 87 38 81 39 83 40 31 41 86 42 80 43 79 44
REMARK SMILES IDX 32 46 66 47 45 48 65 49 46 50 49 51 64 52 84 53 47 54 48 55
REMARK SMILES IDX 63 57 85 58 50 59 33 60 34 61 43 62 35 63 36 64 42 65 44 66
REMARK SMILES IDX 37 67 38 68 39 69 40 70 41 71 67 72 68 73 77 74 69 75 70 76
REMARK SMILES IDX 76 77 78 78 71 79 72 80 73 81 74 82 75 83 51 84 52 85 61 86
REMARK SMILES IDX 53 87 54 88 60 89 62 90 55 91 56 92 57 93 58 94 59 95
REMARK H PARENT 1 23 1 24 83 45 49 56
REMARK Flexibility Score: inf
ROOT
ATOM      1  C   UNL A   1      35.000  32.063  29.829  1.00  0.00     0.275 C 
ENDROOT
BRANCH   1   2
ATOM      2  C   UNL A   1      34.940  31.812  28.319  1.00  0.00     0.274 C 
BRANCH   2   3
ATOM      3  O   UNL A   1      34.025  30.744  28.010  1.00  0.00    -0.462 OA
BRANCH   3   4
ATOM      4  C   UNL A   1      34.590  29.561  27.666  1.00  0.00     0.309 C 
ATOM      5  O   UNL A   1      35.691  29.175  28.044  1.00  0.00    -0.252 OA
BRANCH   4   6
ATOM      6  C   UNL A   1      33.722  28.729  26.751  1.00  0.00     0.103 C 
ATOM      7  N   UNL A   1      31.865  28.004  24.722  1.00  0.00    -0.353 N 
ATOM      8  C   UNL A   1      31.476  27.825  26.115  1.00  0.00     0.119 C 
ATOM      9  C   UNL A   1      33.288  28.058  24.391  1.00  0.00     0.119 C 
ATOM     10  C   UNL A   1      32.219  28.793  27.030  1.00  0.00     0.037 C 
ATOM     11  C   UNL A   1      34.004  29.064  25.289  1.00  0.00     0.037 C 
BRANCH   7  12
ATOM     12  C   UNL A   1      31.002  28.698  23.877  1.00  0.00     0.172 A 
ATOM     13  C   UNL A   1      30.709  28.197  22.578  1.00  0.00     0.167 A 
ATOM     14  N   UNL A   1      29.895  28.837  21.721  1.00  0.00    -0.226 NA
ATOM     15  C   UNL A   1      29.350  29.981  22.162  1.00  0.00     0.091 A 
ATOM     16  N   UNL A   1      30.423  29.838  24.319  1.00  0.00    -0.225 NA
ATOM     17  C   UNL A   1      28.505  30.689  21.319  1.00  0.00     0.031 A 
ATOM     18  C   UNL A   1      29.614  30.485  23.460  1.00  0.00     0.091 A 
ATOM     19  C   UNL A   1      27.922  31.893  21.716  1.00  0.00     0.002 A 
ATOM     20  C   UNL A   1      29.028  31.686  23.845  1.00  0.00     0.031 A 
ATOM     21  C   UNL A   1      28.188  32.395  22.982  1.00  0.00     0.002 A 
BRANCH  13  22
ATOM     22  N   UNL A   1      31.271  27.011  22.114  1.00  0.00    -0.381 N 
ATOM     23  H   UNL A   1      30.785  26.460  21.459  1.00  0.00     0.158 HD
ATOM     24  H   UNL A   1      32.154  26.723  22.442  1.00  0.00     0.158 HD
ENDBRANCH  13  22
ENDBRANCH   7  12
ENDBRANCH   4   6
ENDBRANCH   3   4
ENDBRANCH   2   3
ENDBRANCH   1   2
BRANCH   1  25
ATOM     25  O   UNL A   1      36.356  32.088  30.310  1.00  0.00    -0.458 OA
BRANCH  25  26
ATOM     26  C   UNL A   1      36.764  30.977  30.969  1.00  0.00     0.338 C 
ATOM     27  O   UNL A   1      36.158  30.358  31.825  1.00  0.00    -0.246 OA
BRANCH  26  28
ATOM     28  C   UNL A   1      38.051  30.535  30.410  1.00  0.00     0.060 A 
ATOM     29  C   UNL A   1      38.253  30.510  29.032  1.00  0.00     0.016 A 
ATOM     30  C   UNL A   1      39.083  30.192  31.287  1.00  0.00     0.016 A 
ATOM     31  C   UNL A   1      39.493  30.106  28.534  1.00  0.00     0.010 A 
ATOM     32  C   UNL A   1      40.323  29.799  30.790  1.00  0.00     0.010 A 
ATOM     33  C   UNL A   1      40.535  29.743  29.408  1.00  0.00    -0.014 A 
BRANCH  33  34
ATOM     34  C   UNL A   1      41.858  29.347  28.869  1.00  0.00     0.031 A 
ATOM     35  C   UNL A   1      42.978  30.343  28.772  1.00  0.00     0.074 A 
ATOM     36  C   UNL A   1      42.036  28.076  28.461  1.00  0.00     0.049 A 
ATOM     37  N   UNL A   1      44.220  30.147  28.412  1.00  0.00    -0.248 NA
ATOM     38  C   UNL A   1      42.665  31.742  29.108  1.00  0.00     0.031 C 
ATOM     39  C   UNL A   1      40.996  27.045  28.445  1.00  0.00     0.029 A 
ATOM     40  N   UNL A   1      43.151  27.430  27.990  1.00  0.00    -0.354 N 
ATOM     41  C   UNL A   1      44.841  31.388  28.491  1.00  0.00     0.074 A 
ATOM     42  C   UNL A   1      43.825  32.343  28.880  1.00  0.00     0.031 C 
ATOM     43  C   UNL A   1      41.530  25.888  28.024  1.00  0.00     0.029 A 
ATOM     44  C   UNL A   1      42.942  26.099  27.716  1.00  0.00     0.049 A 
ATOM     45  H   UNL A   1      44.018  27.877  27.861  1.00  0.00     0.167 HD
ATOM     46  C   UNL A   1      46.143  31.693  28.282  1.00  0.00     0.037 A 
ATOM     47  C   UNL A   1      43.794  25.153  27.276  1.00  0.00     0.037 A 
ATOM     48  C   UNL A   1      47.144  30.726  27.904  1.00  0.00     0.049 A 
ATOM     49  C   UNL A   1      45.236  25.518  27.055  1.00  0.00     0.074 A 
ATOM     50  C   UNL A   1      48.504  30.922  27.735  1.00  0.00     0.029 A 
ATOM     51  N   UNL A   1      46.895  29.389  27.630  1.00  0.00    -0.354 N 
ATOM     52  N   UNL A   1      45.828  26.676  27.230  1.00  0.00    -0.248 NA
ATOM     53  C   UNL A   1      46.131  24.449  26.589  1.00  0.00     0.031 C 
ATOM     54  C   UNL A   1      49.068  29.718  27.306  1.00  0.00     0.029 A 
ATOM     55  C   UNL A   1      48.072  28.755  27.262  1.00  0.00     0.049 A 
ATOM     56  H   UNL A   1      46.014  28.955  27.688  1.00  0.00     0.167 HD
ATOM     57  C   UNL A   1      47.165  26.472  26.908  1.00  0.00     0.074 A 
ATOM     58  C   UNL A   1      47.299  25.075  26.550  1.00  0.00     0.031 C 
ATOM     59  C   UNL A   1      48.188  27.363  26.905  1.00  0.00     0.037 A 
BRANCH  46  60
ATOM     60  C   UNL A   1      46.581  33.119  28.473  1.00  0.00     0.058 A 
ATOM     61  C   UNL A   1      47.135  33.559  29.685  1.00  0.00     0.135 A 
ATOM     62  C   UNL A   1      46.543  34.030  27.404  1.00  0.00     0.135 A 
ATOM     63  F   UNL A   1      47.185  32.735  30.743  1.00  0.00    -0.206 F 
ATOM     64  C   UNL A   1      47.629  34.851  29.834  1.00  0.00     0.059 A 
ATOM     65  C   UNL A   1      47.055  35.319  27.522  1.00  0.00     0.059 A 
ATOM     66  F   UNL A   1      46.023  33.663  26.222  1.00  0.00    -0.206 F 
ATOM     67  C   UNL A   1      47.594  35.721  28.743  1.00  0.00     0.060 A 
BRANCH  67  68
ATOM     68  S   UNL A   1      48.288  37.376  28.943  1.00  0.00     0.124 S 
ATOM     69  O   UNL A   1      49.118  37.205  30.131  1.00  0.00    -0.237 OA
ATOM     70  O   UNL A   1      49.010  37.562  27.688  1.00  0.00    -0.237 OA
ATOM     71  O   UNL A   1      47.112  38.222  29.119  1.00  0.00    -0.744 OA
ENDBRANCH  67  68
ENDBRANCH  46  60
BRANCH  47  72
ATOM     72  C   UNL A   1      43.303  23.768  27.046  1.00  0.00     0.058 A 
ATOM     73  C   UNL A   1      43.007  23.308  25.754  1.00  0.00     0.135 A 
ATOM     74  C   UNL A   1      43.150  22.867  28.112  1.00  0.00     0.135 A 
ATOM     75  F   UNL A   1      43.135  24.132  24.703  1.00  0.00    -0.206 F 
ATOM     76  C   UNL A   1      42.565  22.009  25.527  1.00  0.00     0.059 A 
ATOM     77  C   UNL A   1      42.734  21.555  27.906  1.00  0.00     0.059 A 
ATOM     78  F   UNL A   1      43.436  23.252  29.365  1.00  0.00    -0.206 F 
ATOM     79  C   UNL A   1      42.435  21.138  26.610  1.00  0.00     0.060 A 
BRANCH  79  80
ATOM     80  S   UNL A   1      41.905  19.441  26.297  1.00  0.00     0.124 S 
ATOM     81  O   UNL A   1      42.372  18.760  27.498  1.00  0.00    -0.237 OA
ATOM     82  O   UNL A   1      40.459  19.593  26.168  1.00  0.00    -0.237 OA
ATOM     83  O   UNL A   1      42.604  19.093  25.062  1.00  0.00    -0.744 OA
ENDBRANCH  79  80
ENDBRANCH  47  72
BRANCH  59  84
ATOM     84  C   UNL A   1      49.548  26.860  26.507  1.00  0.00     0.058 A 
ATOM     85  C   UNL A   1      50.362  26.158  27.409  1.00  0.00     0.135 A 
ATOM     86  C   UNL A   1      50.008  27.014  25.189  1.00  0.00     0.135 A 
ATOM     87  F   UNL A   1      49.971  25.988  28.682  1.00  0.00    -0.206 F 
ATOM     88  C   UNL A   1      51.592  25.638  27.022  1.00  0.00     0.059 A 
ATOM     89  C   UNL A   1      51.222  26.477  24.773  1.00  0.00     0.059 A 
ATOM     90  F   UNL A   1      49.264  27.667  24.284  1.00  0.00    -0.206 F 
ATOM     91  C   UNL A   1      52.012  25.797  25.700  1.00  0.00     0.060 A 
BRANCH  91  92
ATOM     92  S   UNL A   1      53.591  25.076  25.205  1.00  0.00     0.124 S 
ATOM     93  O   UNL A   1      53.723  25.569  23.837  1.00  0.00    -0.237 OA
ATOM     94  O   UNL A   1      54.513  25.653  26.177  1.00  0.00    -0.237 OA
ATOM     95  O   UNL A   1      53.367  23.640  25.335  1.00  0.00    -0.744 OA
ENDBRANCH  91  92
ENDBRANCH  59  84
ENDBRANCH  33  34
ENDBRANCH  26  28
ENDBRANCH  25  26
ENDBRANCH   1  25
TORSDOF 16
ENDMDL
