MODEL 1
REMARK VINA RESULT:     -11.4      0.000      0.000
REMARK SMILES O=C(OCCOC(=O)c1cc(OC[C@@H]2Cc3cc(F)ccc3O2)cs1)c1ccc(-c2c3nc(c(-c4c(F)cc(S(=O)(=O)[O-])cc4F)c4ccc([nH]4)c(-c4c(F)cc(S(=O)(=O)[O-])cc4F)c4nc(c(-c5c(F)cc(S(=O)(=O)[O-])cc5F)c5ccc2[nH]5)C=C4)C=C3)cc1
REMARK SMILES IDX 4 1 3 2 2 3 1 4 26 5 27 6 91 7 28 8 90 9 29 10 30 11 31 12
REMARK SMILES IDX 84 13 32 14 89 15 83 16 85 17 33 18 88 19 82 20 81 21 34 23
REMARK SMILES IDX 68 24 47 25 67 26 48 27 51 28 66 29 86 30 49 31 50 32 65 34
REMARK SMILES IDX 87 35 52 36 35 37 36 38 45 39 37 40 38 41 44 42 46 43 39 44
REMARK SMILES IDX 40 45 41 46 42 47 43 48 69 49 70 50 79 51 71 52 72 53 78 54
REMARK SMILES IDX 80 55 73 56 74 57 75 58 76 59 77 60 53 61 54 62 63 63 55 64
REMARK SMILES IDX 56 65 62 66 64 67 57 68 58 69 59 70 60 71 61 72 5 73 6 74
REMARK SMILES IDX 7 75 8 76 9 77 10 78 25 79 11 80 24 81 12 82 13 83 14 84
REMARK SMILES IDX 15 85 23 86 16 87 22 88 17 89 21 90 18 91 20 92 19 93
REMARK H PARENT 85 22 51 33
REMARK Flexibility Score: inf
ROOT
ATOM      1  C   UNL A   1      36.241  31.867  33.273  1.00  0.00     0.275 C 
ENDROOT
BRANCH   1   2
ATOM      2  O   UNL A   1      36.458  30.777  32.353  1.00  0.00    -0.458 OA
BRANCH   2   3
ATOM      3  C   UNL A   1      36.738  30.766  31.024  1.00  0.00     0.338 C 
ATOM      4  O   UNL A   1      35.806  30.867  30.229  1.00  0.00    -0.246 OA
BRANCH   3   5
ATOM      5  C   UNL A   1      38.107  30.529  30.467  1.00  0.00     0.060 A 
ATOM      6  C   UNL A   1      38.243  30.224  29.098  1.00  0.00     0.016 A 
ATOM      7  C   UNL A   1      39.256  30.480  31.233  1.00  0.00     0.016 A 
ATOM      8  C   UNL A   1      39.480  29.810  28.561  1.00  0.00     0.010 A 
ATOM      9  C   UNL A   1      40.438  29.992  30.719  1.00  0.00     0.010 A 
ATOM     10  C   UNL A   1      40.598  29.673  29.393  1.00  0.00    -0.014 A 
BRANCH  10  11
ATOM     11  C   UNL A   1      41.966  29.318  28.978  1.00  0.00     0.031 A 
ATOM     12  C   UNL A   1      43.031  30.360  28.683  1.00  0.00     0.074 A 
ATOM     13  C   UNL A   1      42.244  28.042  28.648  1.00  0.00     0.049 A 
ATOM     14  N   UNL A   1      44.645  30.016  28.537  1.00  0.00    -0.248 NA
ATOM     15  C   UNL A   1      42.859  32.391  28.605  1.00  0.00     0.031 C 
ATOM     16  C   UNL A   1      41.253  26.970  28.643  1.00  0.00     0.029 A 
ATOM     17  N   UNL A   1      43.386  27.450  28.160  1.00  0.00    -0.354 N 
ATOM     18  C   UNL A   1      45.637  31.533  28.478  1.00  0.00     0.074 A 
ATOM     19  C   UNL A   1      44.403  32.995  28.482  1.00  0.00     0.031 C 
ATOM     20  C   UNL A   1      41.813  25.862  28.145  1.00  0.00     0.029 A 
ATOM     21  C   UNL A   1      43.208  26.135  27.802  1.00  0.00     0.049 A 
ATOM     22  H   UNL A   1      44.246  27.922  28.074  1.00  0.00     0.167 HD
ATOM     23  C   UNL A   1      46.971  31.668  28.301  1.00  0.00     0.037 A 
ATOM     24  C   UNL A   1      44.039  25.224  27.259  1.00  0.00     0.037 A 
ATOM     25  C   UNL A   1      47.860  30.594  27.950  1.00  0.00     0.049 A 
ATOM     26  C   UNL A   1      45.489  25.538  27.001  1.00  0.00     0.074 A 
ATOM     27  C   UNL A   1      49.227  30.662  27.746  1.00  0.00     0.029 A 
ATOM     28  N   UNL A   1      47.476  29.285  27.664  1.00  0.00    -0.354 N 
ATOM     29  N   UNL A   1      46.160  26.650  27.189  1.00  0.00    -0.248 NA
ATOM     30  C   UNL A   1      46.303  24.427  26.483  1.00  0.00     0.031 C 
ATOM     31  C   UNL A   1      49.662  29.422  27.268  1.00  0.00     0.029 A 
ATOM     32  C   UNL A   1      48.582  28.553  27.247  1.00  0.00     0.049 A 
ATOM     33  H   UNL A   1      46.561  28.933  27.745  1.00  0.00     0.167 HD
ATOM     34  C   UNL A   1      47.481  26.357  26.854  1.00  0.00     0.074 A 
ATOM     35  C   UNL A   1      47.513  24.962  26.465  1.00  0.00     0.031 C 
ATOM     36  C   UNL A   1      48.577  27.158  26.869  1.00  0.00     0.037 A 
BRANCH  23  37
ATOM     37  C   UNL A   1      47.494  33.049  28.500  1.00  0.00     0.058 A 
ATOM     38  C   UNL A   1      47.635  33.894  27.389  1.00  0.00     0.135 A 
ATOM     39  C   UNL A   1      47.798  33.572  29.767  1.00  0.00     0.135 A 
ATOM     40  F   UNL A   1      47.346  33.439  26.159  1.00  0.00    -0.206 F 
ATOM     41  C   UNL A   1      48.090  35.196  27.517  1.00  0.00     0.059 A 
ATOM     42  C   UNL A   1      48.240  34.884  29.922  1.00  0.00     0.059 A 
ATOM     43  F   UNL A   1      47.677  32.806  30.862  1.00  0.00    -0.206 F 
ATOM     44  C   UNL A   1      48.394  35.682  28.788  1.00  0.00     0.060 A 
BRANCH  44  45
ATOM     45  S   UNL A   1      49.016  37.371  28.918  1.00  0.00     0.124 S 
ATOM     46  O   UNL A   1      49.849  37.277  30.113  1.00  0.00    -0.237 OA
ATOM     47  O   UNL A   1      49.731  37.533  27.657  1.00  0.00    -0.237 OA
ATOM     48  O   UNL A   1      47.804  38.169  29.062  1.00  0.00    -0.744 OA
ENDBRANCH  44  45
ENDBRANCH  23  37
BRANCH  24  49
ATOM     49  C   UNL A   1      43.506  23.854  27.003  1.00  0.00     0.058 A 
ATOM     50  C   UNL A   1      43.312  22.960  28.066  1.00  0.00     0.135 A 
ATOM     51  C   UNL A   1      43.117  23.441  25.718  1.00  0.00     0.135 A 
ATOM     52  F   UNL A   1      43.669  23.311  29.310  1.00  0.00    -0.206 F 
ATOM     53  C   UNL A   1      42.761  21.700  27.865  1.00  0.00     0.059 A 
ATOM     54  C   UNL A   1      42.534  22.196  25.498  1.00  0.00     0.059 A 
ATOM     55  F   UNL A   1      43.252  24.272  24.673  1.00  0.00    -0.206 F 
ATOM     56  C   UNL A   1      42.366  21.331  26.578  1.00  0.00     0.060 A 
BRANCH  56  57
ATOM     57  S   UNL A   1      41.590  19.716  26.353  1.00  0.00     0.124 S 
ATOM     58  O   UNL A   1      41.886  19.067  27.625  1.00  0.00    -0.237 OA
ATOM     59  O   UNL A   1      40.195  20.080  26.129  1.00  0.00    -0.237 OA
ATOM     60  O   UNL A   1      42.282  19.169  25.190  1.00  0.00    -0.744 OA
ENDBRANCH  56  57
ENDBRANCH  24  49
BRANCH  36  61
ATOM     61  C   UNL A   1      49.902  26.539  26.484  1.00  0.00     0.058 A 
ATOM     62  C   UNL A   1      50.337  26.475  25.151  1.00  0.00     0.135 A 
ATOM     63  C   UNL A   1      50.780  26.071  27.478  1.00  0.00     0.135 A 
ATOM     64  F   UNL A   1      49.540  26.899  24.158  1.00  0.00    -0.206 F 
ATOM     65  C   UNL A   1      51.583  25.953  24.815  1.00  0.00     0.059 A 
ATOM     66  C   UNL A   1      52.046  25.581  27.168  1.00  0.00     0.059 A 
ATOM     67  F   UNL A   1      50.424  26.115  28.771  1.00  0.00    -0.206 F 
ATOM     68  C   UNL A   1      52.435  25.517  25.832  1.00  0.00     0.060 A 
BRANCH  68  69
ATOM     69  S   UNL A   1      54.068  24.893  25.381  1.00  0.00     0.124 S 
ATOM     70  O   UNL A   1      54.434  25.786  24.285  1.00  0.00    -0.237 OA
ATOM     71  O   UNL A   1      54.820  25.069  26.619  1.00  0.00    -0.237 OA
ATOM     72  O   UNL A   1      53.812  23.507  25.001  1.00  0.00    -0.744 OA
ENDBRANCH  68  69
ENDBRANCH  36  61
ENDBRANCH  10  11
ENDBRANCH   3   5
ENDBRANCH   2   3
ENDBRANCH   1   2
BRANCH   1  73
ATOM     73  C   UNL A   1      37.405  32.096  34.260  1.00  0.00     0.275 C 
BRANCH  73  74
ATOM     74  O   UNL A   1      38.528  32.830  33.723  1.00  0.00    -0.458 OA
BRANCH  74  75
ATOM     75  C   UNL A   1      38.356  34.134  33.309  1.00  0.00     0.348 C 
ATOM     76  O   UNL A   1      38.122  35.056  34.078  1.00  0.00    -0.245 OA
BRANCH  75  77
ATOM     77  C   UNL A   1      38.560  34.216  31.856  1.00  0.00     0.116 A 
ATOM     78  C   UNL A   1      37.586  34.153  30.875  1.00  0.00     0.074 A 
ATOM     79  S   UNL A   1      40.089  34.258  31.115  1.00  0.00    -0.133 S 
ATOM     80  C   UNL A   1      38.023  33.998  29.515  1.00  0.00     0.131 A 
ATOM     81  C   UNL A   1      39.408  34.009  29.541  1.00  0.00     0.112 A 
BRANCH  80  82
ATOM     82  O   UNL A   1      37.399  33.458  28.399  1.00  0.00    -0.489 OA
BRANCH  82  83
ATOM     83  C   UNL A   1      35.787  33.535  27.955  1.00  0.00     0.275 C 
BRANCH  83  84
ATOM     84  C   UNL A   1      34.021  33.833  29.361  1.00  0.00     0.215 C 
ATOM     85  C   UNL A   1      32.926  35.251  29.536  1.00  0.00     0.088 C 
ATOM     86  O   UNL A   1      34.082  33.628  31.013  1.00  0.00    -0.486 OA
ATOM     87  C   UNL A   1      33.348  35.834  30.837  1.00  0.00     0.001 A 
ATOM     88  C   UNL A   1      33.887  34.843  31.633  1.00  0.00     0.123 A 
ATOM     89  C   UNL A   1      33.340  37.161  31.259  1.00  0.00     0.047 A 
ATOM     90  C   UNL A   1      34.373  35.120  32.906  1.00  0.00     0.050 A 
ATOM     91  C   UNL A   1      33.891  37.461  32.507  1.00  0.00     0.123 A 
ATOM     92  C   UNL A   1      34.390  36.453  33.340  1.00  0.00     0.043 A 
ATOM     93  F   UNL A   1      34.028  38.744  32.876  1.00  0.00    -0.207 F 
ENDBRANCH  83  84
ENDBRANCH  82  83
ENDBRANCH  80  82
ENDBRANCH  75  77
ENDBRANCH  74  75
ENDBRANCH  73  74
ENDBRANCH   1  73
TORSDOF 17
ENDMDL
MODEL 2
REMARK VINA RESULT:     -11.3      3.973      5.229
REMARK SMILES O=C(OCCOC(=O)c1cc(OC[C@@H]2Cc3cc(F)ccc3O2)cs1)c1ccc(-c2c3nc(c(-c4c(F)cc(S(=O)(=O)[O-])cc4F)c4ccc([nH]4)c(-c4c(F)cc(S(=O)(=O)[O-])cc4F)c4nc(c(-c5c(F)cc(S(=O)(=O)[O-])cc5F)c5ccc2[nH]5)C=C4)C=C3)cc1
REMARK SMILES IDX 4 1 3 2 2 3 1 4 26 5 27 6 91 7 28 8 90 9 29 10 30 11 31 12
REMARK SMILES IDX 84 13 32 14 89 15 83 16 85 17 33 18 88 19 82 20 81 21 34 23
REMARK SMILES IDX 68 24 47 25 67 26 48 27 51 28 66 29 86 30 49 31 50 32 65 34
REMARK SMILES IDX 87 35 52 36 35 37 36 38 45 39 37 40 38 41 44 42 46 43 39 44
REMARK SMILES IDX 40 45 41 46 42 47 43 48 69 49 70 50 79 51 71 52 72 53 78 54
REMARK SMILES IDX 80 55 73 56 74 57 75 58 76 59 77 60 53 61 54 62 63 63 55 64
REMARK SMILES IDX 56 65 62 66 64 67 57 68 58 69 59 70 60 71 61 72 5 73 6 74
REMARK SMILES IDX 7 75 8 76 9 77 10 78 25 79 11 80 24 81 12 82 13 83 14 84
REMARK SMILES IDX 15 85 23 86 16 87 22 88 17 89 21 90 18 91 20 92 19 93
REMARK H PARENT 85 22 51 33
REMARK Flexibility Score: inf
ROOT
ATOM      1  C   UNL A   1      35.715  32.932  29.921  1.00  0.00     0.275 C 
ENDROOT
BRANCH   1   2
ATOM      2  O   UNL A   1      36.005  32.150  31.097  1.00  0.00    -0.458 OA
BRANCH   2   3
ATOM      3  C   UNL A   1      36.679  30.980  31.253  1.00  0.00     0.338 C 
ATOM      4  O   UNL A   1      36.204  30.126  31.999  1.00  0.00    -0.246 OA
BRANCH   3   5
ATOM      5  C   UNL A   1      38.025  30.711  30.654  1.00  0.00     0.060 A 
ATOM      6  C   UNL A   1      38.101  30.260  29.322  1.00  0.00     0.016 A 
ATOM      7  C   UNL A   1      39.211  30.771  31.360  1.00  0.00     0.016 A 
ATOM      8  C   UNL A   1      39.319  29.815  28.769  1.00  0.00     0.010 A 
ATOM      9  C   UNL A   1      40.379  30.253  30.842  1.00  0.00     0.010 A 
ATOM     10  C   UNL A   1      40.481  29.793  29.551  1.00  0.00    -0.014 A 
BRANCH  10  11
ATOM     11  C   UNL A   1      41.836  29.423  29.107  1.00  0.00     0.031 A 
ATOM     12  C   UNL A   1      42.902  30.453  28.776  1.00  0.00     0.074 A 
ATOM     13  C   UNL A   1      42.094  28.142  28.782  1.00  0.00     0.049 A 
ATOM     14  N   UNL A   1      44.508  30.095  28.595  1.00  0.00    -0.248 NA
ATOM     15  C   UNL A   1      42.744  32.485  28.683  1.00  0.00     0.031 C 
ATOM     16  C   UNL A   1      41.095  27.078  28.813  1.00  0.00     0.029 A 
ATOM     17  N   UNL A   1      43.220  27.536  28.273  1.00  0.00    -0.354 N 
ATOM     18  C   UNL A   1      45.511  31.602  28.497  1.00  0.00     0.074 A 
ATOM     19  C   UNL A   1      44.289  33.074  28.516  1.00  0.00     0.031 C 
ATOM     20  C   UNL A   1      41.634  25.961  28.312  1.00  0.00     0.029 A 
ATOM     21  C   UNL A   1      43.022  26.219  27.932  1.00  0.00     0.049 A 
ATOM     22  H   UNL A   1      44.081  28.000  28.162  1.00  0.00     0.167 HD
ATOM     23  C   UNL A   1      46.841  31.725  28.286  1.00  0.00     0.037 A 
ATOM     24  C   UNL A   1      43.832  25.295  27.378  1.00  0.00     0.037 A 
ATOM     25  C   UNL A   1      47.713  30.640  27.924  1.00  0.00     0.049 A 
ATOM     26  C   UNL A   1      45.279  25.595  27.082  1.00  0.00     0.074 A 
ATOM     27  C   UNL A   1      49.075  30.694  27.686  1.00  0.00     0.029 A 
ATOM     28  N   UNL A   1      47.311  29.332  27.661  1.00  0.00    -0.354 N 
ATOM     29  N   UNL A   1      45.962  26.703  27.243  1.00  0.00    -0.248 NA
ATOM     30  C   UNL A   1      46.070  24.472  26.556  1.00  0.00     0.031 C 
ATOM     31  C   UNL A   1      49.488  29.446  27.210  1.00  0.00     0.029 A 
ATOM     32  C   UNL A   1      48.400  28.586  27.224  1.00  0.00     0.049 A 
ATOM     33  H   UNL A   1      46.395  28.988  27.767  1.00  0.00     0.167 HD
ATOM     34  C   UNL A   1      47.273  26.396  26.878  1.00  0.00     0.074 A 
ATOM     35  C   UNL A   1      47.284  24.997  26.503  1.00  0.00     0.031 C 
ATOM     36  C   UNL A   1      48.375  27.188  26.860  1.00  0.00     0.037 A 
BRANCH  23  37
ATOM     37  C   UNL A   1      47.381  33.103  28.460  1.00  0.00     0.058 A 
ATOM     38  C   UNL A   1      47.797  33.519  29.733  1.00  0.00     0.135 A 
ATOM     39  C   UNL A   1      47.553  33.993  27.388  1.00  0.00     0.135 A 
ATOM     40  F   UNL A   1      47.661  32.697  30.786  1.00  0.00    -0.206 F 
ATOM     41  C   UNL A   1      48.332  34.779  29.950  1.00  0.00     0.059 A 
ATOM     42  C   UNL A   1      48.105  35.258  27.578  1.00  0.00     0.059 A 
ATOM     43  F   UNL A   1      47.174  33.641  26.149  1.00  0.00    -0.206 F 
ATOM     44  C   UNL A   1      48.479  35.644  28.866  1.00  0.00     0.060 A 
BRANCH  44  45
ATOM     45  S   UNL A   1      49.147  37.289  29.185  1.00  0.00     0.124 S 
ATOM     46  O   UNL A   1      50.565  37.080  28.908  1.00  0.00    -0.237 OA
ATOM     47  O   UNL A   1      48.425  38.107  28.218  1.00  0.00    -0.237 OA
ATOM     48  O   UNL A   1      48.812  37.525  30.586  1.00  0.00    -0.744 OA
ENDBRANCH  44  45
ENDBRANCH  23  37
BRANCH  24  49
ATOM     49  C   UNL A   1      43.282  23.928  27.149  1.00  0.00     0.058 A 
ATOM     50  C   UNL A   1      42.928  23.515  25.856  1.00  0.00     0.135 A 
ATOM     51  C   UNL A   1      43.169  22.993  28.191  1.00  0.00     0.135 A 
ATOM     52  F   UNL A   1      43.020  24.374  24.830  1.00  0.00    -0.206 F 
ATOM     53  C   UNL A   1      42.470  22.228  25.604  1.00  0.00     0.059 A 
ATOM     54  C   UNL A   1      42.743  21.688  27.957  1.00  0.00     0.059 A 
ATOM     55  F   UNL A   1      43.526  23.329  29.440  1.00  0.00    -0.206 F 
ATOM     56  C   UNL A   1      42.390  21.318  26.660  1.00  0.00     0.060 A 
BRANCH  56  57
ATOM     57  S   UNL A   1      41.858  19.631  26.296  1.00  0.00     0.124 S 
ATOM     58  O   UNL A   1      42.582  19.354  25.060  1.00  0.00    -0.237 OA
ATOM     59  O   UNL A   1      42.312  18.909  27.480  1.00  0.00    -0.237 OA
ATOM     60  O   UNL A   1      40.410  19.756  26.163  1.00  0.00    -0.744 OA
ENDBRANCH  56  57
ENDBRANCH  24  49
BRANCH  36  61
ATOM     61  C   UNL A   1      49.685  26.554  26.449  1.00  0.00     0.058 A 
ATOM     62  C   UNL A   1      50.204  26.687  25.151  1.00  0.00     0.135 A 
ATOM     63  C   UNL A   1      50.467  25.866  27.395  1.00  0.00     0.135 A 
ATOM     64  F   UNL A   1      49.501  27.326  24.203  1.00  0.00    -0.206 F 
ATOM     65  C   UNL A   1      51.438  26.146  24.801  1.00  0.00     0.059 A 
ATOM     66  C   UNL A   1      51.720  25.351  27.076  1.00  0.00     0.059 A 
ATOM     67  F   UNL A   1      50.027  25.715  28.654  1.00  0.00    -0.206 F 
ATOM     68  C   UNL A   1      52.194  25.487  25.773  1.00  0.00     0.060 A 
BRANCH  68  69
ATOM     69  S   UNL A   1      53.815  24.839  25.314  1.00  0.00     0.124 S 
ATOM     70  O   UNL A   1      53.521  23.425  25.107  1.00  0.00    -0.237 OA
ATOM     71  O   UNL A   1      54.125  25.604  24.111  1.00  0.00    -0.237 OA
ATOM     72  O   UNL A   1      54.647  25.143  26.475  1.00  0.00    -0.744 OA
ENDBRANCH  68  69
ENDBRANCH  36  61
ENDBRANCH  10  11
ENDBRANCH   3   5
ENDBRANCH   2   3
ENDBRANCH   1   2
BRANCH   1  73
ATOM     73  C   UNL A   1      34.313  32.676  29.328  1.00  0.00     0.275 C 
BRANCH  73  74
ATOM     74  O   UNL A   1      34.213  31.515  28.473  1.00  0.00    -0.458 OA
BRANCH  74  75
ATOM     75  C   UNL A   1      33.172  31.417  27.574  1.00  0.00     0.348 C 
ATOM     76  O   UNL A   1      32.494  32.374  27.228  1.00  0.00    -0.245 OA
BRANCH  75  77
ATOM     77  C   UNL A   1      33.077  30.034  27.087  1.00  0.00     0.116 A 
ATOM     78  C   UNL A   1      31.946  29.237  27.062  1.00  0.00     0.074 A 
ATOM     79  S   UNL A   1      34.415  29.111  26.591  1.00  0.00    -0.133 S 
ATOM     80  C   UNL A   1      32.126  27.839  26.784  1.00  0.00     0.131 A 
ATOM     81  C   UNL A   1      33.477  27.655  26.540  1.00  0.00     0.112 A 
BRANCH  80  82
ATOM     82  O   UNL A   1      31.369  26.725  27.118  1.00  0.00    -0.489 OA
BRANCH  82  83
ATOM     83  C   UNL A   1      30.232  25.911  26.196  1.00  0.00     0.275 C 
BRANCH  83  84
ATOM     84  C   UNL A   1      29.662  26.384  24.044  1.00  0.00     0.215 C 
ATOM     85  C   UNL A   1      30.499  27.433  22.844  1.00  0.00     0.088 C 
ATOM     86  O   UNL A   1      28.174  26.958  23.563  1.00  0.00    -0.486 OA
ATOM     87  C   UNL A   1      29.601  28.615  22.756  1.00  0.00     0.001 A 
ATOM     88  C   UNL A   1      28.312  28.239  23.075  1.00  0.00     0.123 A 
ATOM     89  C   UNL A   1      29.913  29.949  22.502  1.00  0.00     0.047 A 
ATOM     90  C   UNL A   1      27.270  29.159  23.082  1.00  0.00     0.050 A 
ATOM     91  C   UNL A   1      28.886  30.892  22.576  1.00  0.00     0.123 A 
ATOM     92  C   UNL A   1      27.567  30.509  22.846  1.00  0.00     0.043 A 
ATOM     93  F   UNL A   1      29.183  32.198  22.478  1.00  0.00    -0.207 F 
ENDBRANCH  83  84
ENDBRANCH  82  83
ENDBRANCH  80  82
ENDBRANCH  75  77
ENDBRANCH  74  75
ENDBRANCH  73  74
ENDBRANCH   1  73
TORSDOF 17
ENDMDL
MODEL 3
REMARK VINA RESULT:     -11.2      6.473     14.124
REMARK SMILES O=C(OCCOC(=O)c1cc(OC[C@@H]2Cc3cc(F)ccc3O2)cs1)c1ccc(-c2c3nc(c(-c4c(F)cc(S(=O)(=O)[O-])cc4F)c4ccc([nH]4)c(-c4c(F)cc(S(=O)(=O)[O-])cc4F)c4nc(c(-c5c(F)cc(S(=O)(=O)[O-])cc5F)c5ccc2[nH]5)C=C4)C=C3)cc1
REMARK SMILES IDX 4 1 3 2 2 3 1 4 26 5 27 6 91 7 28 8 90 9 29 10 30 11 31 12
REMARK SMILES IDX 84 13 32 14 89 15 83 16 85 17 33 18 88 19 82 20 81 21 34 23
REMARK SMILES IDX 68 24 47 25 67 26 48 27 51 28 66 29 86 30 49 31 50 32 65 34
REMARK SMILES IDX 87 35 52 36 35 37 36 38 45 39 37 40 38 41 44 42 46 43 39 44
REMARK SMILES IDX 40 45 41 46 42 47 43 48 69 49 70 50 79 51 71 52 72 53 78 54
REMARK SMILES IDX 80 55 73 56 74 57 75 58 76 59 77 60 53 61 54 62 63 63 55 64
REMARK SMILES IDX 56 65 62 66 64 67 57 68 58 69 59 70 60 71 61 72 5 73 6 74
REMARK SMILES IDX 7 75 8 76 9 77 10 78 25 79 11 80 24 81 12 82 13 83 14 84
REMARK SMILES IDX 15 85 23 86 16 87 22 88 17 89 21 90 18 91 20 92 19 93
REMARK H PARENT 85 22 51 33
REMARK Flexibility Score: inf
ROOT
ATOM      1  C   UNL A   1      42.410  23.095  26.847  1.00  0.00     0.275 C 
ENDROOT
BRANCH   1   2
ATOM      2  O   UNL A   1      41.992  24.014  25.817  1.00  0.00    -0.458 OA
BRANCH   2   3
ATOM      3  C   UNL A   1      42.149  25.358  25.696  1.00  0.00     0.338 C 
ATOM      4  O   UNL A   1      42.586  25.804  24.637  1.00  0.00    -0.246 OA
BRANCH   3   5
ATOM      5  C   UNL A   1      41.922  26.325  26.817  1.00  0.00     0.060 A 
ATOM      6  C   UNL A   1      42.786  27.429  26.952  1.00  0.00     0.016 A 
ATOM      7  C   UNL A   1      40.976  26.149  27.809  1.00  0.00     0.016 A 
ATOM      8  C   UNL A   1      42.736  28.262  28.088  1.00  0.00     0.010 A 
ATOM      9  C   UNL A   1      40.992  26.914  28.956  1.00  0.00     0.010 A 
ATOM     10  C   UNL A   1      41.832  27.988  29.123  1.00  0.00    -0.014 A 
BRANCH  10  11
ATOM     11  C   UNL A   1      41.611  28.794  30.336  1.00  0.00     0.031 A 
ATOM     12  C   UNL A   1      42.267  28.471  31.667  1.00  0.00     0.074 A 
ATOM     13  C   UNL A   1      40.642  29.730  30.337  1.00  0.00     0.049 A 
ATOM     14  N   UNL A   1      42.313  29.514  32.952  1.00  0.00    -0.248 NA
ATOM     15  C   UNL A   1      43.414  26.863  32.181  1.00  0.00     0.031 C 
ATOM     16  C   UNL A   1      39.758  29.985  29.204  1.00  0.00     0.029 A 
ATOM     17  N   UNL A   1      40.170  30.557  31.330  1.00  0.00    -0.354 N 
ATOM     18  C   UNL A   1      43.422  28.908  34.252  1.00  0.00     0.074 A 
ATOM     19  C   UNL A   1      44.040  27.188  33.686  1.00  0.00     0.031 C 
ATOM     20  C   UNL A   1      38.829  30.876  29.569  1.00  0.00     0.029 A 
ATOM     21  C   UNL A   1      39.053  31.268  30.960  1.00  0.00     0.049 A 
ATOM     22  H   UNL A   1      40.589  30.631  32.218  1.00  0.00     0.167 HD
ATOM     23  C   UNL A   1      43.673  29.440  35.470  1.00  0.00     0.037 A 
ATOM     24  C   UNL A   1      38.272  32.140  31.629  1.00  0.00     0.037 A 
ATOM     25  C   UNL A   1      42.952  30.543  36.042  1.00  0.00     0.049 A 
ATOM     26  C   UNL A   1      38.598  32.568  33.036  1.00  0.00     0.074 A 
ATOM     27  C   UNL A   1      43.148  31.131  37.280  1.00  0.00     0.029 A 
ATOM     28  N   UNL A   1      41.847  31.172  35.471  1.00  0.00    -0.354 N 
ATOM     29  N   UNL A   1      39.574  32.193  33.829  1.00  0.00    -0.248 NA
ATOM     30  C   UNL A   1      37.711  33.587  33.617  1.00  0.00     0.031 C 
ATOM     31  C   UNL A   1      42.126  32.060  37.493  1.00  0.00     0.029 A 
ATOM     32  C   UNL A   1      41.333  32.113  36.357  1.00  0.00     0.049 A 
ATOM     33  H   UNL A   1      41.484  30.979  34.577  1.00  0.00     0.167 HD
ATOM     34  C   UNL A   1      39.440  32.963  34.984  1.00  0.00     0.074 A 
ATOM     35  C   UNL A   1      38.299  33.830  34.777  1.00  0.00     0.031 C 
ATOM     36  C   UNL A   1      40.191  32.965  36.115  1.00  0.00     0.037 A 
BRANCH  23  37
ATOM     37  C   UNL A   1      44.789  28.795  36.219  1.00  0.00     0.058 A 
ATOM     38  C   UNL A   1      44.506  27.720  37.075  1.00  0.00     0.135 A 
ATOM     39  C   UNL A   1      46.131  29.175  36.062  1.00  0.00     0.135 A 
ATOM     40  F   UNL A   1      43.238  27.315  37.248  1.00  0.00    -0.206 F 
ATOM     41  C   UNL A   1      45.505  27.064  37.776  1.00  0.00     0.059 A 
ATOM     42  C   UNL A   1      47.155  28.519  36.741  1.00  0.00     0.059 A 
ATOM     43  F   UNL A   1      46.454  30.196  35.252  1.00  0.00    -0.206 F 
ATOM     44  C   UNL A   1      46.828  27.474  37.606  1.00  0.00     0.060 A 
BRANCH  44  45
ATOM     45  S   UNL A   1      48.102  26.622  38.558  1.00  0.00     0.124 S 
ATOM     46  O   UNL A   1      47.300  25.667  39.318  1.00  0.00    -0.237 OA
ATOM     47  O   UNL A   1      48.941  26.054  37.509  1.00  0.00    -0.237 OA
ATOM     48  O   UNL A   1      48.711  27.691  39.342  1.00  0.00    -0.744 OA
ENDBRANCH  44  45
ENDBRANCH  23  37
BRANCH  24  49
ATOM     49  C   UNL A   1      37.119  32.747  30.903  1.00  0.00     0.058 A 
ATOM     50  C   UNL A   1      35.809  32.332  31.184  1.00  0.00     0.135 A 
ATOM     51  C   UNL A   1      37.294  33.790  29.979  1.00  0.00     0.135 A 
ATOM     52  F   UNL A   1      35.594  31.339  32.059  1.00  0.00    -0.206 F 
ATOM     53  C   UNL A   1      34.712  32.922  30.568  1.00  0.00     0.059 A 
ATOM     54  C   UNL A   1      36.209  34.417  29.373  1.00  0.00     0.059 A 
ATOM     55  F   UNL A   1      38.526  34.244  29.700  1.00  0.00    -0.206 F 
ATOM     56  C   UNL A   1      34.922  33.970  29.670  1.00  0.00     0.060 A 
BRANCH  56  57
ATOM     57  S   UNL A   1      33.478  34.767  28.933  1.00  0.00     0.124 S 
ATOM     58  O   UNL A   1      34.066  35.974  28.364  1.00  0.00    -0.237 OA
ATOM     59  O   UNL A   1      33.033  33.759  27.976  1.00  0.00    -0.237 OA
ATOM     60  O   UNL A   1      32.590  34.975  30.073  1.00  0.00    -0.744 OA
ENDBRANCH  56  57
ENDBRANCH  24  49
BRANCH  36  61
ATOM     61  C   UNL A   1      39.822  33.953  37.198  1.00  0.00     0.058 A 
ATOM     62  C   UNL A   1      38.970  33.612  38.261  1.00  0.00     0.135 A 
ATOM     63  C   UNL A   1      40.390  35.240  37.207  1.00  0.00     0.135 A 
ATOM     64  F   UNL A   1      38.391  32.402  38.303  1.00  0.00    -0.206 F 
ATOM     65  C   UNL A   1      38.682  34.514  39.282  1.00  0.00     0.059 A 
ATOM     66  C   UNL A   1      40.146  36.143  38.238  1.00  0.00     0.059 A 
ATOM     67  F   UNL A   1      41.219  35.620  36.223  1.00  0.00    -0.206 F 
ATOM     68  C   UNL A   1      39.282  35.774  39.267  1.00  0.00     0.060 A 
BRANCH  68  69
ATOM     69  S   UNL A   1      38.938  36.910  40.628  1.00  0.00     0.124 S 
ATOM     70  O   UNL A   1      40.285  37.266  41.064  1.00  0.00    -0.237 OA
ATOM     71  O   UNL A   1      38.186  37.970  39.964  1.00  0.00    -0.237 OA
ATOM     72  O   UNL A   1      38.169  36.097  41.566  1.00  0.00    -0.744 OA
ENDBRANCH  68  69
ENDBRANCH  36  61
ENDBRANCH  10  11
ENDBRANCH   3   5
ENDBRANCH   2   3
ENDBRANCH   1   2
BRANCH   1  73
ATOM     73  C   UNL A   1      41.991  21.633  26.591  1.00  0.00     0.275 C 
BRANCH  73  74
ATOM     74  O   UNL A   1      40.651  21.297  27.016  1.00  0.00    -0.458 OA
BRANCH  74  75
ATOM     75  C   UNL A   1      39.772  20.730  26.118  1.00  0.00     0.348 C 
ATOM     76  O   UNL A   1      39.875  19.579  25.714  1.00  0.00    -0.245 OA
BRANCH  75  77
ATOM     77  C   UNL A   1      38.708  21.692  25.802  1.00  0.00     0.116 A 
ATOM     78  C   UNL A   1      37.700  21.541  24.866  1.00  0.00     0.074 A 
ATOM     79  S   UNL A   1      38.623  23.259  26.458  1.00  0.00    -0.133 S 
ATOM     80  C   UNL A   1      36.918  22.701  24.539  1.00  0.00     0.131 A 
ATOM     81  C   UNL A   1      37.377  23.728  25.348  1.00  0.00     0.112 A 
BRANCH  80  82
ATOM     82  O   UNL A   1      36.202  23.043  23.400  1.00  0.00    -0.489 OA
BRANCH  82  83
ATOM     83  C   UNL A   1      34.544  23.135  23.190  1.00  0.00     0.275 C 
BRANCH  83  84
ATOM     84  C   UNL A   1      33.006  21.654  23.981  1.00  0.00     0.215 C 
ATOM     85  C   UNL A   1      33.141  20.484  25.342  1.00  0.00     0.088 C 
ATOM     86  O   UNL A   1      32.205  20.532  23.047  1.00  0.00    -0.486 OA
ATOM     87  C   UNL A   1      33.225  19.175  24.644  1.00  0.00     0.001 A 
ATOM     88  C   UNL A   1      32.593  19.264  23.420  1.00  0.00     0.123 A 
ATOM     89  C   UNL A   1      33.889  18.009  25.021  1.00  0.00     0.047 A 
ATOM     90  C   UNL A   1      32.534  18.177  22.555  1.00  0.00     0.050 A 
ATOM     91  C   UNL A   1      33.896  16.936  24.128  1.00  0.00     0.123 A 
ATOM     92  C   UNL A   1      33.212  17.002  22.909  1.00  0.00     0.043 A 
ATOM     93  F   UNL A   1      34.647  15.857  24.401  1.00  0.00    -0.207 F 
ENDBRANCH  83  84
ENDBRANCH  82  83
ENDBRANCH  80  82
ENDBRANCH  75  77
ENDBRANCH  74  75
ENDBRANCH  73  74
ENDBRANCH   1  73
TORSDOF 17
ENDMDL
