MODEL 1
REMARK VINA RESULT:     -13.3      0.000      0.000
REMARK SMILES COc1cccc(-c2nn(-c3cc4c(cc3C(N)=O)OCO4)cc2C(=O)OCCOC(=O)c2ccc(-c3c4nc(c(-c5c(F)cc(S(=O)(=O)[O-])cc5F)c5ccc([nH]5)c(-c5c(F)cc(S(=O)(=O)[O-])cc5F)c5nc(c(-c6c(F)cc(S(=O)(=O)[O-])cc6F)c6ccc3[nH]6)C=C5)C=C4)cc2)c1
REMARK SMILES IDX 29 1 28 2 27 3 25 4 26 5 24 6 8 7 9 8 10 9 23 10 7 11 3 12
REMARK SMILES IDX 4 13 99 14 5 15 6 16 2 17 1 18 11 19 12 20 16 21 13 22 15 23
REMARK SMILES IDX 14 24 22 25 20 26 21 27 17 28 18 29 19 30 30 33 31 34 32 35
REMARK SMILES IDX 33 36 34 37 98 38 35 39 97 40 36 41 37 42 38 43 91 44 39 45
REMARK SMILES IDX 96 46 90 47 92 48 40 49 95 50 89 51 88 52 41 54 75 55 54 56
REMARK SMILES IDX 74 57 55 58 58 59 73 60 93 61 56 62 57 63 72 65 94 66 59 67
REMARK SMILES IDX 42 68 43 69 52 70 44 71 45 72 51 73 53 74 46 75 47 76 48 77
REMARK SMILES IDX 49 78 50 79 76 80 77 81 86 82 78 83 79 84 85 85 87 86 80 87
REMARK SMILES IDX 81 88 82 89 83 90 84 91 60 92 61 93 70 94 62 95 63 96 69 97
REMARK SMILES IDX 71 98 64 99 65 100 66 101 67 102 68 103
REMARK H PARENT 18 31 18 32 92 53 58 64
REMARK Flexibility Score: inf
ROOT
ATOM      1  C   UNL A   1      33.018  30.684  27.244  1.00  0.00     0.275 C 
ENDROOT
BRANCH   1   2
ATOM      2  C   UNL A   1      32.239  30.325  25.980  1.00  0.00     0.275 C 
BRANCH   2   3
ATOM      3  O   UNL A   1      32.215  28.910  25.728  1.00  0.00    -0.458 OA
BRANCH   3   4
ATOM      4  C   UNL A   1      32.709  28.463  24.530  1.00  0.00     0.342 C 
ATOM      5  O   UNL A   1      33.576  29.049  23.883  1.00  0.00    -0.246 OA
BRANCH   4   6
ATOM      6  C   UNL A   1      32.067  27.237  24.096  1.00  0.00     0.106 A 
ATOM      7  C   UNL A   1      30.747  26.979  23.618  1.00  0.00     0.107 A 
ATOM      8  N   UNL A   1      30.550  25.660  23.414  1.00  0.00    -0.167 NA
ATOM      9  N   UNL A   1      31.663  25.087  23.925  1.00  0.00    -0.239 N 
ATOM     10  C   UNL A   1      32.671  25.997  24.075  1.00  0.00     0.131 A 
BRANCH   7  11
ATOM     11  C   UNL A   1      29.698  27.944  23.310  1.00  0.00     0.007 A 
ATOM     12  C   UNL A   1      28.972  30.081  22.419  1.00  0.00     0.119 A 
ATOM     13  C   UNL A   1      27.641  29.688  22.598  1.00  0.00     0.046 A 
ATOM     14  C   UNL A   1      30.003  29.195  22.751  1.00  0.00     0.056 A 
ATOM     15  C   UNL A   1      27.334  28.459  23.177  1.00  0.00     0.005 A 
ATOM     16  C   UNL A   1      28.364  27.604  23.562  1.00  0.00     0.011 A 
BRANCH  12  17
ATOM     17  O   UNL A   1      29.116  31.344  21.915  1.00  0.00    -0.497 OA
ATOM     18  C   UNL A   1      28.212  31.752  20.900  1.00  0.00     0.278 C 
ENDBRANCH  12  17
ENDBRANCH   7  11
BRANCH   9  19
ATOM     19  C   UNL A   1      31.739  23.701  24.201  1.00  0.00     0.081 A 
ATOM     20  C   UNL A   1      31.998  22.833  23.120  1.00  0.00     0.079 A 
ATOM     21  C   UNL A   1      31.570  23.190  25.524  1.00  0.00     0.069 A 
ATOM     22  C   UNL A   1      32.140  21.492  23.400  1.00  0.00     0.167 A 
ATOM     23  C   UNL A   1      31.846  21.834  25.767  1.00  0.00     0.066 A 
ATOM     24  C   UNL A   1      32.093  21.016  24.687  1.00  0.00     0.166 A 
ATOM     25  O   UNL A   1      32.322  20.490  22.497  1.00  0.00    -0.454 OA
ATOM     26  O   UNL A   1      32.236  19.664  24.752  1.00  0.00    -0.454 OA
ATOM     27  C   UNL A   1      32.160  19.337  23.348  1.00  0.00     0.468 C 
BRANCH  21  28
ATOM     28  C   UNL A   1      30.871  23.976  26.611  1.00  0.00     0.251 C 
ATOM     29  N   UNL A   1      29.553  23.710  26.865  1.00  0.00    -0.366 N 
ATOM     30  O   UNL A   1      31.367  24.907  27.227  1.00  0.00    -0.269 OA
ATOM     31  H   UNL A   1      29.100  22.971  26.398  1.00  0.00     0.159 HD
ATOM     32  H   UNL A   1      29.057  24.259  27.515  1.00  0.00     0.159 HD
ENDBRANCH  21  28
ENDBRANCH   9  19
ENDBRANCH   4   6
ENDBRANCH   3   4
ENDBRANCH   2   3
ENDBRANCH   1   2
BRANCH   1  33
ATOM     33  O   UNL A   1      34.405  30.388  27.107  1.00  0.00    -0.458 OA
BRANCH  33  34
ATOM     34  C   UNL A   1      35.207  31.330  27.647  1.00  0.00     0.338 C 
ATOM     35  O   UNL A   1      35.104  32.541  27.530  1.00  0.00    -0.246 OA
BRANCH  34  36
ATOM     36  C   UNL A   1      36.331  30.705  28.332  1.00  0.00     0.060 A 
ATOM     37  C   UNL A   1      37.296  31.571  28.856  1.00  0.00     0.016 A 
ATOM     38  C   UNL A   1      36.536  29.324  28.239  1.00  0.00     0.016 A 
ATOM     39  C   UNL A   1      38.534  31.071  29.174  1.00  0.00     0.010 A 
ATOM     40  C   UNL A   1      37.780  28.825  28.545  1.00  0.00     0.010 A 
ATOM     41  C   UNL A   1      38.778  29.717  28.941  1.00  0.00    -0.014 A 
BRANCH  41  42
ATOM     42  C   UNL A   1      40.121  29.235  29.179  1.00  0.00     0.031 A 
ATOM     43  C   UNL A   1      40.452  29.193  30.627  1.00  0.00     0.074 A 
ATOM     44  C   UNL A   1      40.873  28.809  28.142  1.00  0.00     0.049 A 
ATOM     45  N   UNL A   1      41.369  29.851  31.253  1.00  0.00    -0.248 NA
ATOM     46  C   UNL A   1      39.521  28.486  31.529  1.00  0.00     0.031 C 
ATOM     47  C   UNL A   1      40.429  28.636  26.750  1.00  0.00     0.029 A 
ATOM     48  N   UNL A   1      42.141  28.314  28.117  1.00  0.00    -0.354 N 
ATOM     49  C   UNL A   1      41.311  29.401  32.573  1.00  0.00     0.074 A 
ATOM     50  C   UNL A   1      40.040  28.755  32.727  1.00  0.00     0.031 C 
ATOM     51  C   UNL A   1      41.302  27.844  26.093  1.00  0.00     0.029 A 
ATOM     52  C   UNL A   1      42.433  27.582  26.962  1.00  0.00     0.049 A 
ATOM     53  H   UNL A   1      42.791  28.456  28.843  1.00  0.00     0.167 HD
ATOM     54  C   UNL A   1      42.453  29.297  33.307  1.00  0.00     0.037 A 
ATOM     55  C   UNL A   1      43.496  26.756  26.794  1.00  0.00     0.037 A 
ATOM     56  C   UNL A   1      43.498  30.092  32.718  1.00  0.00     0.049 A 
ATOM     57  C   UNL A   1      44.514  27.168  27.793  1.00  0.00     0.074 A 
ATOM     58  C   UNL A   1      43.822  31.428  32.660  1.00  0.00     0.029 A 
ATOM     59  N   UNL A   1      44.156  29.458  31.697  1.00  0.00    -0.354 N 
ATOM     60  N   UNL A   1      45.097  28.338  27.778  1.00  0.00    -0.248 NA
ATOM     61  C   UNL A   1      44.605  26.440  29.053  1.00  0.00     0.031 C 
ATOM     62  C   UNL A   1      44.579  31.598  31.464  1.00  0.00     0.029 A 
ATOM     63  C   UNL A   1      44.752  30.356  30.856  1.00  0.00     0.049 A 
ATOM     64  H   UNL A   1      44.195  28.481  31.583  1.00  0.00     0.167 HD
ATOM     65  C   UNL A   1      45.258  28.661  29.113  1.00  0.00     0.074 A 
ATOM     66  C   UNL A   1      45.089  27.407  29.839  1.00  0.00     0.031 C 
ATOM     67  C   UNL A   1      45.190  29.956  29.536  1.00  0.00     0.037 A 
BRANCH  54  68
ATOM     68  C   UNL A   1      42.785  28.112  34.197  1.00  0.00     0.058 A 
ATOM     69  C   UNL A   1      42.963  28.321  35.581  1.00  0.00     0.135 A 
ATOM     70  C   UNL A   1      43.234  26.859  33.718  1.00  0.00     0.135 A 
ATOM     71  F   UNL A   1      42.587  29.478  36.152  1.00  0.00    -0.206 F 
ATOM     72  C   UNL A   1      43.591  27.386  36.410  1.00  0.00     0.059 A 
ATOM     73  C   UNL A   1      43.820  25.896  34.533  1.00  0.00     0.059 A 
ATOM     74  F   UNL A   1      43.216  26.534  32.421  1.00  0.00    -0.206 F 
ATOM     75  C   UNL A   1      44.025  26.179  35.872  1.00  0.00     0.060 A 
BRANCH  75  76
ATOM     76  S   UNL A   1      44.889  24.994  36.917  1.00  0.00     0.124 S 
ATOM     77  O   UNL A   1      46.258  25.492  36.860  1.00  0.00    -0.237 OA
ATOM     78  O   UNL A   1      44.199  25.160  38.193  1.00  0.00    -0.237 OA
ATOM     79  O   UNL A   1      44.652  23.718  36.248  1.00  0.00    -0.744 OA
ENDBRANCH  75  76
ENDBRANCH  54  68
BRANCH  55  80
ATOM     80  C   UNL A   1      43.517  25.427  26.123  1.00  0.00     0.058 A 
ATOM     81  C   UNL A   1      44.494  25.103  25.164  1.00  0.00     0.135 A 
ATOM     82  C   UNL A   1      42.759  24.348  26.622  1.00  0.00     0.135 A 
ATOM     83  F   UNL A   1      45.273  26.065  24.646  1.00  0.00    -0.206 F 
ATOM     84  C   UNL A   1      44.740  23.784  24.763  1.00  0.00     0.059 A 
ATOM     85  C   UNL A   1      42.982  23.027  26.234  1.00  0.00     0.059 A 
ATOM     86  F   UNL A   1      41.835  24.537  27.577  1.00  0.00    -0.206 F 
ATOM     87  C   UNL A   1      43.992  22.748  25.322  1.00  0.00     0.060 A 
BRANCH  87  88
ATOM     88  S   UNL A   1      44.418  21.030  24.942  1.00  0.00     0.124 S 
ATOM     89  O   UNL A   1      45.667  20.860  25.677  1.00  0.00    -0.237 OA
ATOM     90  O   UNL A   1      43.267  20.303  25.465  1.00  0.00    -0.237 OA
ATOM     91  O   UNL A   1      44.547  21.026  23.487  1.00  0.00    -0.744 OA
ENDBRANCH  87  88
ENDBRANCH  55  80
BRANCH  67  92
ATOM     92  C   UNL A   1      45.474  31.042  28.543  1.00  0.00     0.058 A 
ATOM     93  C   UNL A   1      44.509  31.738  27.797  1.00  0.00     0.135 A 
ATOM     94  C   UNL A   1      46.804  31.475  28.446  1.00  0.00     0.135 A 
ATOM     95  F   UNL A   1      43.208  31.427  27.895  1.00  0.00    -0.206 F 
ATOM     96  C   UNL A   1      44.862  32.812  26.975  1.00  0.00     0.059 A 
ATOM     97  C   UNL A   1      47.174  32.556  27.660  1.00  0.00     0.059 A 
ATOM     98  F   UNL A   1      47.760  30.873  29.174  1.00  0.00    -0.206 F 
ATOM     99  C   UNL A   1      46.199  33.216  26.917  1.00  0.00     0.060 A 
BRANCH  99 100
ATOM    100  S   UNL A   1      46.657  34.645  25.913  1.00  0.00     0.124 S 
ATOM    101  O   UNL A   1      46.497  35.747  26.856  1.00  0.00    -0.237 OA
ATOM    102  O   UNL A   1      48.030  34.334  25.527  1.00  0.00    -0.237 OA
ATOM    103  O   UNL A   1      45.691  34.618  24.817  1.00  0.00    -0.744 OA
ENDBRANCH  99 100
ENDBRANCH  67  92
ENDBRANCH  41  42
ENDBRANCH  34  36
ENDBRANCH  33  34
ENDBRANCH   1  33
TORSDOF 18
ENDMDL
MODEL 2
REMARK VINA RESULT:     -12.8      3.060      9.737
REMARK SMILES COc1cccc(-c2nn(-c3cc4c(cc3C(N)=O)OCO4)cc2C(=O)OCCOC(=O)c2ccc(-c3c4nc(c(-c5c(F)cc(S(=O)(=O)[O-])cc5F)c5ccc([nH]5)c(-c5c(F)cc(S(=O)(=O)[O-])cc5F)c5nc(c(-c6c(F)cc(S(=O)(=O)[O-])cc6F)c6ccc3[nH]6)C=C5)C=C4)cc2)c1
REMARK SMILES IDX 29 1 28 2 27 3 25 4 26 5 24 6 8 7 9 8 10 9 23 10 7 11 3 12
REMARK SMILES IDX 4 13 99 14 5 15 6 16 2 17 1 18 11 19 12 20 16 21 13 22 15 23
REMARK SMILES IDX 14 24 22 25 20 26 21 27 17 28 18 29 19 30 30 33 31 34 32 35
REMARK SMILES IDX 33 36 34 37 98 38 35 39 97 40 36 41 37 42 38 43 91 44 39 45
REMARK SMILES IDX 96 46 90 47 92 48 40 49 95 50 89 51 88 52 41 54 75 55 54 56
REMARK SMILES IDX 74 57 55 58 58 59 73 60 93 61 56 62 57 63 72 65 94 66 59 67
REMARK SMILES IDX 42 68 43 69 52 70 44 71 45 72 51 73 53 74 46 75 47 76 48 77
REMARK SMILES IDX 49 78 50 79 76 80 77 81 86 82 78 83 79 84 85 85 87 86 80 87
REMARK SMILES IDX 81 88 82 89 83 90 84 91 60 92 61 93 70 94 62 95 63 96 69 97
REMARK SMILES IDX 71 98 64 99 65 100 66 101 67 102 68 103
REMARK H PARENT 18 31 18 32 92 53 58 64
REMARK Flexibility Score: inf
ROOT
ATOM      1  C   UNL A   1      38.139  21.523  26.120  1.00  0.00     0.275 C 
ENDROOT
BRANCH   1   2
ATOM      2  C   UNL A   1      37.883  21.046  24.692  1.00  0.00     0.275 C 
BRANCH   2   3
ATOM      3  O   UNL A   1      36.547  21.330  24.245  1.00  0.00    -0.458 OA
BRANCH   3   4
ATOM      4  C   UNL A   1      36.317  22.535  23.632  1.00  0.00     0.342 C 
ATOM      5  O   UNL A   1      37.027  22.997  22.740  1.00  0.00    -0.246 OA
BRANCH   4   6
ATOM      6  C   UNL A   1      35.160  23.215  24.179  1.00  0.00     0.106 A 
ATOM      7  C   UNL A   1      33.815  22.781  24.379  1.00  0.00     0.107 A 
ATOM      8  N   UNL A   1      33.040  23.786  24.836  1.00  0.00    -0.167 NA
ATOM      9  N   UNL A   1      33.840  24.872  24.753  1.00  0.00    -0.239 N 
ATOM     10  C   UNL A   1      35.154  24.518  24.634  1.00  0.00     0.131 A 
BRANCH   7  11
ATOM     11  C   UNL A   1      33.265  21.443  24.194  1.00  0.00     0.007 A 
ATOM     12  C   UNL A   1      32.617  19.274  25.065  1.00  0.00     0.119 A 
ATOM     13  C   UNL A   1      32.063  18.954  23.822  1.00  0.00     0.046 A 
ATOM     14  C   UNL A   1      33.195  20.533  25.260  1.00  0.00     0.056 A 
ATOM     15  C   UNL A   1      32.154  19.843  22.753  1.00  0.00     0.005 A 
ATOM     16  C   UNL A   1      32.784  21.072  22.933  1.00  0.00     0.011 A 
BRANCH  12  17
ATOM     17  O   UNL A   1      32.521  18.271  25.991  1.00  0.00    -0.497 OA
ATOM     18  C   UNL A   1      32.864  16.958  25.573  1.00  0.00     0.278 C 
ENDBRANCH  12  17
ENDBRANCH   7  11
BRANCH   9  19
ATOM     19  C   UNL A   1      33.333  26.191  24.838  1.00  0.00     0.081 A 
ATOM     20  C   UNL A   1      33.118  26.725  26.125  1.00  0.00     0.079 A 
ATOM     21  C   UNL A   1      33.056  26.964  23.669  1.00  0.00     0.069 A 
ATOM     22  C   UNL A   1      32.690  28.033  26.208  1.00  0.00     0.167 A 
ATOM     23  C   UNL A   1      32.741  28.325  23.817  1.00  0.00     0.066 A 
ATOM     24  C   UNL A   1      32.535  28.812  25.088  1.00  0.00     0.166 A 
ATOM     25  O   UNL A   1      32.361  28.707  27.343  1.00  0.00    -0.454 OA
ATOM     26  O   UNL A   1      32.089  30.065  25.380  1.00  0.00    -0.454 OA
ATOM     27  C   UNL A   1      31.781  29.901  26.780  1.00  0.00     0.468 C 
BRANCH  21  28
ATOM     28  C   UNL A   1      32.841  26.330  22.314  1.00  0.00     0.251 C 
ATOM     29  N   UNL A   1      31.776  25.487  22.147  1.00  0.00    -0.366 N 
ATOM     30  O   UNL A   1      33.604  26.436  21.365  1.00  0.00    -0.269 OA
ATOM     31  H   UNL A   1      31.128  25.362  22.878  1.00  0.00     0.159 HD
ATOM     32  H   UNL A   1      31.658  25.006  21.297  1.00  0.00     0.159 HD
ENDBRANCH  21  28
ENDBRANCH   9  19
ENDBRANCH   4   6
ENDBRANCH   3   4
ENDBRANCH   2   3
ENDBRANCH   1   2
BRANCH   1  33
ATOM     33  O   UNL A   1      38.751  22.810  26.141  1.00  0.00    -0.458 OA
BRANCH  33  34
ATOM     34  C   UNL A   1      39.891  22.847  26.862  1.00  0.00     0.338 C 
ATOM     35  O   UNL A   1      40.505  21.897  27.321  1.00  0.00    -0.246 OA
BRANCH  34  36
ATOM     36  C   UNL A   1      40.271  24.228  27.136  1.00  0.00     0.060 A 
ATOM     37  C   UNL A   1      41.502  24.416  27.771  1.00  0.00     0.016 A 
ATOM     38  C   UNL A   1      39.338  25.260  26.992  1.00  0.00     0.016 A 
ATOM     39  C   UNL A   1      41.756  25.617  28.385  1.00  0.00     0.010 A 
ATOM     40  C   UNL A   1      39.585  26.458  27.618  1.00  0.00     0.010 A 
ATOM     41  C   UNL A   1      40.759  26.593  28.362  1.00  0.00    -0.014 A 
BRANCH  41  42
ATOM     42  C   UNL A   1      41.002  27.808  29.109  1.00  0.00     0.031 A 
ATOM     43  C   UNL A   1      42.152  28.576  28.566  1.00  0.00     0.074 A 
ATOM     44  C   UNL A   1      40.165  28.158  30.108  1.00  0.00     0.049 A 
ATOM     45  N   UNL A   1      43.263  28.868  29.155  1.00  0.00    -0.248 NA
ATOM     46  C   UNL A   1      42.154  28.890  27.123  1.00  0.00     0.031 C 
ATOM     47  C   UNL A   1      38.897  27.501  30.461  1.00  0.00     0.029 A 
ATOM     48  N   UNL A   1      40.183  29.241  30.935  1.00  0.00    -0.354 N 
ATOM     49  C   UNL A   1      43.967  29.658  28.245  1.00  0.00     0.074 A 
ATOM     50  C   UNL A   1      43.355  29.448  26.966  1.00  0.00     0.031 C 
ATOM     51  C   UNL A   1      38.157  28.331  31.226  1.00  0.00     0.029 A 
ATOM     52  C   UNL A   1      38.950  29.502  31.541  1.00  0.00     0.049 A 
ATOM     53  H   UNL A   1      40.987  29.787  31.091  1.00  0.00     0.167 HD
ATOM     54  C   UNL A   1      44.758  30.670  28.694  1.00  0.00     0.037 A 
ATOM     55  C   UNL A   1      38.607  30.650  32.176  1.00  0.00     0.037 A 
ATOM     56  C   UNL A   1      45.074  30.478  30.085  1.00  0.00     0.049 A 
ATOM     57  C   UNL A   1      39.876  31.319  32.559  1.00  0.00     0.074 A 
ATOM     58  C   UNL A   1      45.924  29.677  30.813  1.00  0.00     0.029 A 
ATOM     59  N   UNL A   1      44.098  30.930  30.934  1.00  0.00    -0.354 N 
ATOM     60  N   UNL A   1      40.728  30.803  33.407  1.00  0.00    -0.248 NA
ATOM     61  C   UNL A   1      40.407  32.374  31.704  1.00  0.00     0.031 C 
ATOM     62  C   UNL A   1      45.329  29.540  32.101  1.00  0.00     0.029 A 
ATOM     63  C   UNL A   1      44.168  30.308  32.149  1.00  0.00     0.049 A 
ATOM     64  H   UNL A   1      43.432  31.616  30.699  1.00  0.00     0.167 HD
ATOM     65  C   UNL A   1      41.968  31.168  32.916  1.00  0.00     0.074 A 
ATOM     66  C   UNL A   1      41.710  32.251  31.975  1.00  0.00     0.031 C 
ATOM     67  C   UNL A   1      43.050  30.351  33.068  1.00  0.00     0.037 A 
BRANCH  54  68
ATOM     68  C   UNL A   1      44.798  32.056  28.072  1.00  0.00     0.058 A 
ATOM     69  C   UNL A   1      46.003  32.518  27.501  1.00  0.00     0.135 A 
ATOM     70  C   UNL A   1      43.816  33.051  28.285  1.00  0.00     0.135 A 
ATOM     71  F   UNL A   1      47.017  31.668  27.263  1.00  0.00    -0.206 F 
ATOM     72  C   UNL A   1      46.235  33.868  27.220  1.00  0.00     0.059 A 
ATOM     73  C   UNL A   1      44.009  34.392  27.971  1.00  0.00     0.059 A 
ATOM     74  F   UNL A   1      42.653  32.799  28.894  1.00  0.00    -0.206 F 
ATOM     75  C   UNL A   1      45.233  34.800  27.469  1.00  0.00     0.060 A 
BRANCH  75  76
ATOM     76  S   UNL A   1      45.543  36.548  27.168  1.00  0.00     0.124 S 
ATOM     77  O   UNL A   1      46.181  36.954  28.414  1.00  0.00    -0.237 OA
ATOM     78  O   UNL A   1      46.405  36.501  25.991  1.00  0.00    -0.237 OA
ATOM     79  O   UNL A   1      44.207  37.092  26.934  1.00  0.00    -0.744 OA
ENDBRANCH  75  76
ENDBRANCH  54  68
BRANCH  55  80
ATOM     80  C   UNL A   1      37.305  31.370  32.112  1.00  0.00     0.058 A 
ATOM     81  C   UNL A   1      36.688  31.877  33.269  1.00  0.00     0.135 A 
ATOM     82  C   UNL A   1      36.788  31.829  30.883  1.00  0.00     0.135 A 
ATOM     83  F   UNL A   1      37.125  31.507  34.483  1.00  0.00    -0.206 F 
ATOM     84  C   UNL A   1      35.655  32.822  33.214  1.00  0.00     0.059 A 
ATOM     85  C   UNL A   1      35.757  32.766  30.802  1.00  0.00     0.059 A 
ATOM     86  F   UNL A   1      37.335  31.448  29.718  1.00  0.00    -0.206 F 
ATOM     87  C   UNL A   1      35.211  33.279  31.972  1.00  0.00     0.060 A 
BRANCH  87  88
ATOM     88  S   UNL A   1      34.003  34.624  31.893  1.00  0.00     0.124 S 
ATOM     89  O   UNL A   1      33.583  34.569  30.497  1.00  0.00    -0.237 OA
ATOM     90  O   UNL A   1      33.009  34.205  32.874  1.00  0.00    -0.237 OA
ATOM     91  O   UNL A   1      34.783  35.803  32.262  1.00  0.00    -0.744 OA
ENDBRANCH  87  88
ENDBRANCH  55  80
BRANCH  67  92
ATOM     92  C   UNL A   1      43.037  29.355  34.187  1.00  0.00     0.058 A 
ATOM     93  C   UNL A   1      43.195  29.657  35.549  1.00  0.00     0.135 A 
ATOM     94  C   UNL A   1      42.719  28.032  33.849  1.00  0.00     0.135 A 
ATOM     95  F   UNL A   1      43.429  30.915  35.952  1.00  0.00    -0.206 F 
ATOM     96  C   UNL A   1      43.060  28.672  36.532  1.00  0.00     0.059 A 
ATOM     97  C   UNL A   1      42.550  27.045  34.809  1.00  0.00     0.059 A 
ATOM     98  F   UNL A   1      42.511  27.699  32.564  1.00  0.00    -0.206 F 
ATOM     99  C   UNL A   1      42.731  27.368  36.151  1.00  0.00     0.060 A 
BRANCH  99 100
ATOM    100  S   UNL A   1      42.484  26.103  37.415  1.00  0.00     0.124 S 
ATOM    101  O   UNL A   1      43.431  26.512  38.447  1.00  0.00    -0.237 OA
ATOM    102  O   UNL A   1      41.072  26.262  37.750  1.00  0.00    -0.237 OA
ATOM    103  O   UNL A   1      42.815  24.859  36.724  1.00  0.00    -0.744 OA
ENDBRANCH  99 100
ENDBRANCH  67  92
ENDBRANCH  41  42
ENDBRANCH  34  36
ENDBRANCH  33  34
ENDBRANCH   1  33
TORSDOF 18
ENDMDL
MODEL 3
REMARK VINA RESULT:     -12.3      2.780      9.370
REMARK SMILES COc1cccc(-c2nn(-c3cc4c(cc3C(N)=O)OCO4)cc2C(=O)OCCOC(=O)c2ccc(-c3c4nc(c(-c5c(F)cc(S(=O)(=O)[O-])cc5F)c5ccc([nH]5)c(-c5c(F)cc(S(=O)(=O)[O-])cc5F)c5nc(c(-c6c(F)cc(S(=O)(=O)[O-])cc6F)c6ccc3[nH]6)C=C5)C=C4)cc2)c1
REMARK SMILES IDX 29 1 28 2 27 3 25 4 26 5 24 6 8 7 9 8 10 9 23 10 7 11 3 12
REMARK SMILES IDX 4 13 99 14 5 15 6 16 2 17 1 18 11 19 12 20 16 21 13 22 15 23
REMARK SMILES IDX 14 24 22 25 20 26 21 27 17 28 18 29 19 30 30 33 31 34 32 35
REMARK SMILES IDX 33 36 34 37 98 38 35 39 97 40 36 41 37 42 38 43 91 44 39 45
REMARK SMILES IDX 96 46 90 47 92 48 40 49 95 50 89 51 88 52 41 54 75 55 54 56
REMARK SMILES IDX 74 57 55 58 58 59 73 60 93 61 56 62 57 63 72 65 94 66 59 67
REMARK SMILES IDX 42 68 43 69 52 70 44 71 45 72 51 73 53 74 46 75 47 76 48 77
REMARK SMILES IDX 49 78 50 79 76 80 77 81 86 82 78 83 79 84 85 85 87 86 80 87
REMARK SMILES IDX 81 88 82 89 83 90 84 91 60 92 61 93 70 94 62 95 63 96 69 97
REMARK SMILES IDX 71 98 64 99 65 100 66 101 67 102 68 103
REMARK H PARENT 18 31 18 32 92 53 58 64
REMARK Flexibility Score: inf
ROOT
ATOM      1  C   UNL A   1      37.748  21.594  25.908  1.00  0.00     0.275 C 
ENDROOT
BRANCH   1   2
ATOM      2  C   UNL A   1      37.323  21.403  24.454  1.00  0.00     0.275 C 
BRANCH   2   3
ATOM      3  O   UNL A   1      35.902  21.528  24.272  1.00  0.00    -0.458 OA
BRANCH   3   4
ATOM      4  C   UNL A   1      35.440  22.598  23.548  1.00  0.00     0.342 C 
ATOM      5  O   UNL A   1      36.138  23.263  22.785  1.00  0.00    -0.246 OA
BRANCH   4   6
ATOM      6  C   UNL A   1      34.042  22.874  23.813  1.00  0.00     0.106 A 
ATOM      7  C   UNL A   1      32.884  22.042  23.746  1.00  0.00     0.107 A 
ATOM      8  N   UNL A   1      31.760  22.747  23.989  1.00  0.00    -0.167 NA
ATOM      9  N   UNL A   1      32.187  24.028  24.031  1.00  0.00    -0.239 N 
ATOM     10  C   UNL A   1      33.541  24.100  24.203  1.00  0.00     0.131 A 
BRANCH   7  11
ATOM     11  C   UNL A   1      32.823  20.605  23.505  1.00  0.00     0.007 A 
ATOM     12  C   UNL A   1      33.190  18.314  24.216  1.00  0.00     0.119 A 
ATOM     13  C   UNL A   1      32.541  17.866  23.061  1.00  0.00     0.046 A 
ATOM     14  C   UNL A   1      33.308  19.689  24.451  1.00  0.00     0.056 A 
ATOM     15  C   UNL A   1      32.083  18.770  22.106  1.00  0.00     0.005 A 
ATOM     16  C   UNL A   1      32.255  20.136  22.315  1.00  0.00     0.011 A 
BRANCH  12  17
ATOM     17  O   UNL A   1      33.655  17.309  25.019  1.00  0.00    -0.497 OA
ATOM     18  C   UNL A   1      32.701  16.580  25.775  1.00  0.00     0.278 C 
ENDBRANCH  12  17
ENDBRANCH   7  11
BRANCH   9  19
ATOM     19  C   UNL A   1      31.295  25.124  23.954  1.00  0.00     0.081 A 
ATOM     20  C   UNL A   1      31.435  26.004  22.861  1.00  0.00     0.079 A 
ATOM     21  C   UNL A   1      30.280  25.335  24.937  1.00  0.00     0.069 A 
ATOM     22  C   UNL A   1      30.523  27.030  22.748  1.00  0.00     0.167 A 
ATOM     23  C   UNL A   1      29.308  26.322  24.705  1.00  0.00     0.066 A 
ATOM     24  C   UNL A   1      29.478  27.164  23.629  1.00  0.00     0.166 A 
ATOM     25  O   UNL A   1      30.526  28.019  21.814  1.00  0.00    -0.454 OA
ATOM     26  O   UNL A   1      28.701  28.249  23.360  1.00  0.00    -0.454 OA
ATOM     27  C   UNL A   1      29.508  28.889  22.349  1.00  0.00     0.468 C 
BRANCH  21  28
ATOM     28  C   UNL A   1      30.354  24.723  26.317  1.00  0.00     0.251 C 
ATOM     29  N   UNL A   1      29.207  24.222  26.872  1.00  0.00    -0.366 N 
ATOM     30  O   UNL A   1      31.347  24.722  27.028  1.00  0.00    -0.269 OA
ATOM     31  H   UNL A   1      28.375  24.197  26.346  1.00  0.00     0.159 HD
ATOM     32  H   UNL A   1      29.214  23.886  27.797  1.00  0.00     0.159 HD
ENDBRANCH  21  28
ENDBRANCH   9  19
ENDBRANCH   4   6
ENDBRANCH   3   4
ENDBRANCH   2   3
ENDBRANCH   1   2
BRANCH   1  33
ATOM     33  O   UNL A   1      38.527  22.775  26.075  1.00  0.00    -0.458 OA
BRANCH  33  34
ATOM     34  C   UNL A   1      39.646  22.578  26.804  1.00  0.00     0.338 C 
ATOM     35  O   UNL A   1      40.023  21.532  27.307  1.00  0.00    -0.246 OA
BRANCH  34  36
ATOM     36  C   UNL A   1      40.337  23.843  27.023  1.00  0.00     0.060 A 
ATOM     37  C   UNL A   1      41.503  23.786  27.791  1.00  0.00     0.016 A 
ATOM     38  C   UNL A   1      39.718  25.053  26.690  1.00  0.00     0.016 A 
ATOM     39  C   UNL A   1      41.992  24.943  28.344  1.00  0.00     0.010 A 
ATOM     40  C   UNL A   1      40.198  26.211  27.254  1.00  0.00     0.010 A 
ATOM     41  C   UNL A   1      41.285  26.127  28.127  1.00  0.00    -0.014 A 
BRANCH  41  42
ATOM     42  C   UNL A   1      41.754  27.314  28.808  1.00  0.00     0.031 A 
ATOM     43  C   UNL A   1      42.973  27.878  28.174  1.00  0.00     0.074 A 
ATOM     44  C   UNL A   1      41.040  27.821  29.835  1.00  0.00     0.049 A 
ATOM     45  N   UNL A   1      44.148  28.014  28.690  1.00  0.00    -0.248 NA
ATOM     46  C   UNL A   1      42.938  28.140  26.721  1.00  0.00     0.031 C 
ATOM     47  C   UNL A   1      39.710  27.379  30.282  1.00  0.00     0.029 A 
ATOM     48  N   UNL A   1      41.271  28.915  30.614  1.00  0.00    -0.354 N 
ATOM     49  C   UNL A   1      44.909  28.656  27.713  1.00  0.00     0.074 A 
ATOM     50  C   UNL A   1      44.198  28.501  26.477  1.00  0.00     0.031 C 
ATOM     51  C   UNL A   1      39.150  28.338  31.050  1.00  0.00     0.029 A 
ATOM     52  C   UNL A   1      40.130  29.382  31.274  1.00  0.00     0.049 A 
ATOM     53  H   UNL A   1      42.156  29.336  30.705  1.00  0.00     0.167 HD
ATOM     54  C   UNL A   1      45.870  29.549  28.077  1.00  0.00     0.037 A 
ATOM     55  C   UNL A   1      40.003  30.590  31.878  1.00  0.00     0.037 A 
ATOM     56  C   UNL A   1      46.234  29.356  29.455  1.00  0.00     0.049 A 
ATOM     57  C   UNL A   1      41.379  31.067  32.165  1.00  0.00     0.074 A 
ATOM     58  C   UNL A   1      46.994  28.458  30.169  1.00  0.00     0.029 A 
ATOM     59  N   UNL A   1      45.390  29.981  30.336  1.00  0.00    -0.354 N 
ATOM     60  N   UNL A   1      42.191  30.455  32.987  1.00  0.00    -0.248 NA
ATOM     61  C   UNL A   1      42.013  31.999  31.240  1.00  0.00     0.031 C 
ATOM     62  C   UNL A   1      46.462  28.456  31.492  1.00  0.00     0.029 A 
ATOM     63  C   UNL A   1      45.436  29.395  31.570  1.00  0.00     0.049 A 
ATOM     64  H   UNL A   1      44.823  30.753  30.108  1.00  0.00     0.167 HD
ATOM     65  C   UNL A   1      43.441  30.608  32.417  1.00  0.00     0.074 A 
ATOM     66  C   UNL A   1      43.295  31.687  31.446  1.00  0.00     0.031 C 
ATOM     67  C   UNL A   1      44.394  29.640  32.544  1.00  0.00     0.037 A 
BRANCH  54  68
ATOM     68  C   UNL A   1      46.083  30.891  27.397  1.00  0.00     0.058 A 
ATOM     69  C   UNL A   1      47.385  31.256  26.992  1.00  0.00     0.135 A 
ATOM     70  C   UNL A   1      45.141  31.945  27.406  1.00  0.00     0.135 A 
ATOM     71  F   UNL A   1      48.371  30.344  26.954  1.00  0.00    -0.206 F 
ATOM     72  C   UNL A   1      47.735  32.574  26.680  1.00  0.00     0.059 A 
ATOM     73  C   UNL A   1      45.456  33.253  27.055  1.00  0.00     0.059 A 
ATOM     74  F   UNL A   1      43.887  31.788  27.843  1.00  0.00    -0.206 F 
ATOM     75  C   UNL A   1      46.763  33.568  26.724  1.00  0.00     0.060 A 
BRANCH  75  76
ATOM     76  S   UNL A   1      47.216  35.277  26.383  1.00  0.00     0.124 S 
ATOM     77  O   UNL A   1      47.816  35.682  27.648  1.00  0.00    -0.237 OA
ATOM     78  O   UNL A   1      48.134  35.125  25.258  1.00  0.00    -0.237 OA
ATOM     79  O   UNL A   1      45.939  35.906  26.058  1.00  0.00    -0.744 OA
ENDBRANCH  75  76
ENDBRANCH  54  68
BRANCH  55  80
ATOM     80  C   UNL A   1      38.824  31.500  31.853  1.00  0.00     0.058 A 
ATOM     81  C   UNL A   1      38.404  32.126  30.667  1.00  0.00     0.135 A 
ATOM     82  C   UNL A   1      37.914  31.540  32.930  1.00  0.00     0.135 A 
ATOM     83  F   UNL A   1      39.200  32.122  29.586  1.00  0.00    -0.206 F 
ATOM     84  C   UNL A   1      37.138  32.712  30.537  1.00  0.00     0.059 A 
ATOM     85  C   UNL A   1      36.650  32.122  32.826  1.00  0.00     0.059 A 
ATOM     86  F   UNL A   1      38.192  30.931  34.092  1.00  0.00    -0.206 F 
ATOM     87  C   UNL A   1      36.258  32.684  31.618  1.00  0.00     0.060 A 
BRANCH  87  88
ATOM     88  S   UNL A   1      34.562  33.280  31.407  1.00  0.00     0.124 S 
ATOM     89  O   UNL A   1      34.750  34.727  31.395  1.00  0.00    -0.237 OA
ATOM     90  O   UNL A   1      34.177  32.677  30.136  1.00  0.00    -0.237 OA
ATOM     91  O   UNL A   1      33.868  32.753  32.580  1.00  0.00    -0.744 OA
ENDBRANCH  87  88
ENDBRANCH  55  80
BRANCH  67  92
ATOM     92  C   UNL A   1      44.295  28.695  33.703  1.00  0.00     0.058 A 
ATOM     93  C   UNL A   1      44.653  28.990  35.029  1.00  0.00     0.135 A 
ATOM     94  C   UNL A   1      43.681  27.459  33.457  1.00  0.00     0.135 A 
ATOM     95  F   UNL A   1      45.179  30.181  35.350  1.00  0.00    -0.206 F 
ATOM     96  C   UNL A   1      44.424  28.078  36.063  1.00  0.00     0.059 A 
ATOM     97  C   UNL A   1      43.416  26.551  34.472  1.00  0.00     0.059 A 
ATOM     98  F   UNL A   1      43.277  27.146  32.215  1.00  0.00    -0.206 F 
ATOM     99  C   UNL A   1      43.799  26.862  35.774  1.00  0.00     0.060 A 
BRANCH  99 100
ATOM    100  S   UNL A   1      43.433  25.706  37.112  1.00  0.00     0.124 S 
ATOM    101  O   UNL A   1      44.737  25.548  37.747  1.00  0.00    -0.237 OA
ATOM    102  O   UNL A   1      42.431  26.428  37.889  1.00  0.00    -0.237 OA
ATOM    103  O   UNL A   1      42.934  24.522  36.415  1.00  0.00    -0.744 OA
ENDBRANCH  99 100
ENDBRANCH  67  92
ENDBRANCH  41  42
ENDBRANCH  34  36
ENDBRANCH  33  34
ENDBRANCH   1  33
TORSDOF 18
ENDMDL
