MODEL 1
REMARK VINA RESULT:     -11.1      0.000      0.000
REMARK SMILES C[C@@H]1CN(C(=O)NC(=O)CCCCC(=O)OCCOC(=O)c2ccc(-c3c4nc(c(-c5c(F)cc(S(=O)(=O)[O-])cc5F)c5ccc([nH]5)c(-c5c(F)cc(S(=O)(=O)[O-])cc5F)c5nc(c(-c6c(F)cc(S(=O)(=O)[O-])cc6F)c6ccc3[nH]6)C=C5)C=C4)cc2)CCO1
REMARK SMILES IDX 17 1 16 2 14 3 15 4 13 5 12 6 11 7 10 8 8 9 5 10 6 11 7 12
REMARK SMILES IDX 9 14 4 15 1 16 2 17 3 18 90 19 89 20 88 21 18 22 19 23 20 24
REMARK SMILES IDX 21 25 22 26 23 27 87 28 24 29 86 30 25 31 26 32 27 33 80 34
REMARK SMILES IDX 28 35 85 36 79 37 81 38 29 39 84 40 78 41 77 42 30 44 64 45
REMARK SMILES IDX 43 46 63 47 44 48 47 49 62 50 82 51 45 52 46 53 61 55 83 56
REMARK SMILES IDX 48 57 31 58 32 59 41 60 33 61 34 62 40 63 42 64 35 65 36 66
REMARK SMILES IDX 37 67 38 68 39 69 65 70 66 71 75 72 67 73 68 74 74 75 76 76
REMARK SMILES IDX 69 77 70 78 71 79 72 80 73 81 49 82 50 83 59 84 51 85 52 86
REMARK SMILES IDX 58 87 60 88 53 89 54 90 55 91 56 92 57 93
REMARK H PARENT 7 13 81 43 47 54
REMARK Flexibility Score: inf
ROOT
ATOM      1  C   UNL A   1      38.181  21.861  25.442  1.00  0.00     0.274 C 
ENDROOT
BRANCH   1   2
ATOM      2  O   UNL A   1      36.813  21.504  25.157  1.00  0.00    -0.462 OA
BRANCH   2   3
ATOM      3  C   UNL A   1      36.222  22.291  24.227  1.00  0.00     0.305 C 
ATOM      4  O   UNL A   1      36.729  22.570  23.147  1.00  0.00    -0.252 OA
BRANCH   3   5
ATOM      5  C   UNL A   1      34.815  22.711  24.567  1.00  0.00     0.123 C 
BRANCH   5   6
ATOM      6  C   UNL A   1      34.449  24.184  24.516  1.00  0.00     0.012 C 
BRANCH   6   7
ATOM      7  C   UNL A   1      33.403  24.650  23.506  1.00  0.00     0.010 C 
BRANCH   7   8
ATOM      8  C   UNL A   1      33.782  25.630  22.399  1.00  0.00     0.100 C 
BRANCH   8   9
ATOM      9  C   UNL A   1      32.727  25.989  21.383  1.00  0.00     0.227 C 
ATOM     10  C   UNL A   1      30.792  27.402  22.550  1.00  0.00     0.324 C 
ATOM     11  O   UNL A   1      30.095  28.278  22.026  1.00  0.00    -0.248 OA
ATOM     12  N   UNL A   1      31.529  26.636  21.663  1.00  0.00    -0.278 N 
ATOM     13  H   UNL A   1      30.947  26.482  20.884  1.00  0.00     0.174 HD
ATOM     14  O   UNL A   1      32.938  25.711  20.194  1.00  0.00    -0.275 OA
BRANCH  10  15
ATOM     15  N   UNL A   1      30.832  27.241  23.906  1.00  0.00    -0.320 N 
ATOM     16  C   UNL A   1      31.763  28.848  27.236  1.00  0.00     0.040 C 
ATOM     17  C   UNL A   1      31.667  27.669  26.269  1.00  0.00     0.134 C 
ATOM     18  C   UNL A   1      31.339  28.197  24.866  1.00  0.00     0.153 C 
ATOM     19  O   UNL A   1      30.643  26.799  26.755  1.00  0.00    -0.375 OA
ATOM     20  C   UNL A   1      30.474  25.689  25.870  1.00  0.00     0.182 C 
ATOM     21  C   UNL A   1      30.048  26.128  24.468  1.00  0.00     0.150 C 
ENDBRANCH  10  15
ENDBRANCH   8   9
ENDBRANCH   7   8
ENDBRANCH   6   7
ENDBRANCH   5   6
ENDBRANCH   3   5
ENDBRANCH   2   3
ENDBRANCH   1   2
BRANCH   1  22
ATOM     22  C   UNL A   1      38.290  23.276  26.019  1.00  0.00     0.275 C 
BRANCH  22  23
ATOM     23  O   UNL A   1      39.231  23.349  27.106  1.00  0.00    -0.458 OA
BRANCH  23  24
ATOM     24  C   UNL A   1      40.313  24.123  26.874  1.00  0.00     0.338 C 
ATOM     25  O   UNL A   1      41.260  23.866  26.140  1.00  0.00    -0.246 OA
BRANCH  24  26
ATOM     26  C   UNL A   1      40.226  25.378  27.633  1.00  0.00     0.060 A 
ATOM     27  C   UNL A   1      41.173  26.387  27.436  1.00  0.00     0.016 A 
ATOM     28  C   UNL A   1      39.287  25.478  28.659  1.00  0.00     0.016 A 
ATOM     29  C   UNL A   1      41.215  27.480  28.303  1.00  0.00     0.010 A 
ATOM     30  C   UNL A   1      39.300  26.596  29.494  1.00  0.00     0.010 A 
ATOM     31  C   UNL A   1      40.285  27.590  29.345  1.00  0.00    -0.014 A 
BRANCH  31  32
ATOM     32  C   UNL A   1      40.355  28.702  30.329  1.00  0.00     0.031 A 
ATOM     33  C   UNL A   1      41.334  28.616  31.469  1.00  0.00     0.074 A 
ATOM     34  C   UNL A   1      39.519  29.753  30.234  1.00  0.00     0.049 A 
ATOM     35  N   UNL A   1      41.390  29.323  32.566  1.00  0.00    -0.248 NA
ATOM     36  C   UNL A   1      42.380  27.585  31.365  1.00  0.00     0.031 C 
ATOM     37  C   UNL A   1      38.555  29.977  29.155  1.00  0.00     0.029 A 
ATOM     38  N   UNL A   1      39.327  30.819  31.078  1.00  0.00    -0.354 N 
ATOM     39  C   UNL A   1      42.435  28.788  33.309  1.00  0.00     0.074 A 
ATOM     40  C   UNL A   1      42.998  27.705  32.532  1.00  0.00     0.031 C 
ATOM     41  C   UNL A   1      37.864  31.101  29.410  1.00  0.00     0.029 A 
ATOM     42  C   UNL A   1      38.289  31.637  30.699  1.00  0.00     0.049 A 
ATOM     43  H   UNL A   1      39.879  30.982  31.876  1.00  0.00     0.167 HD
ATOM     44  C   UNL A   1      42.873  29.162  34.535  1.00  0.00     0.037 A 
ATOM     45  C   UNL A   1      37.707  32.669  31.344  1.00  0.00     0.037 A 
ATOM     46  C   UNL A   1      42.343  30.276  35.277  1.00  0.00     0.049 A 
ATOM     47  C   UNL A   1      38.208  33.058  32.709  1.00  0.00     0.074 A 
ATOM     48  C   UNL A   1      42.739  30.754  36.514  1.00  0.00     0.029 A 
ATOM     49  N   UNL A   1      41.311  31.094  34.843  1.00  0.00    -0.354 N 
ATOM     50  N   UNL A   1      39.174  32.523  33.417  1.00  0.00    -0.248 NA
ATOM     51  C   UNL A   1      37.530  34.182  33.372  1.00  0.00     0.031 C 
ATOM     52  C   UNL A   1      41.929  31.846  36.840  1.00  0.00     0.029 A 
ATOM     53  C   UNL A   1      41.051  32.068  35.792  1.00  0.00     0.049 A 
ATOM     54  H   UNL A   1      40.834  30.997  33.987  1.00  0.00     0.167 HD
ATOM     55  C   UNL A   1      39.229  33.254  34.599  1.00  0.00     0.074 A 
ATOM     56  C   UNL A   1      38.209  34.278  34.506  1.00  0.00     0.031 C 
ATOM     57  C   UNL A   1      40.044  33.090  35.669  1.00  0.00     0.037 A 
BRANCH  44  58
ATOM     58  C   UNL A   1      43.960  28.347  35.176  1.00  0.00     0.058 A 
ATOM     59  C   UNL A   1      45.315  28.679  35.042  1.00  0.00     0.135 A 
ATOM     60  C   UNL A   1      43.628  27.260  36.001  1.00  0.00     0.135 A 
ATOM     61  F   UNL A   1      45.687  29.698  34.251  1.00  0.00    -0.206 F 
ATOM     62  C   UNL A   1      46.307  27.958  35.701  1.00  0.00     0.059 A 
ATOM     63  C   UNL A   1      44.601  26.537  36.684  1.00  0.00     0.059 A 
ATOM     64  F   UNL A   1      42.345  26.899  36.159  1.00  0.00    -0.206 F 
ATOM     65  C   UNL A   1      45.939  26.890  36.523  1.00  0.00     0.060 A 
BRANCH  65  66
ATOM     66  S   UNL A   1      47.231  25.988  37.404  1.00  0.00     0.124 S 
ATOM     67  O   UNL A   1      47.207  24.699  36.719  1.00  0.00    -0.237 OA
ATOM     68  O   UNL A   1      48.412  26.812  37.163  1.00  0.00    -0.237 OA
ATOM     69  O   UNL A   1      46.755  25.972  38.784  1.00  0.00    -0.744 OA
ENDBRANCH  65  66
ENDBRANCH  44  58
BRANCH  45  70
ATOM     70  C   UNL A   1      36.543  33.368  30.741  1.00  0.00     0.058 A 
ATOM     71  C   UNL A   1      36.707  34.249  29.662  1.00  0.00     0.135 A 
ATOM     72  C   UNL A   1      35.247  33.188  31.248  1.00  0.00     0.135 A 
ATOM     73  F   UNL A   1      37.929  34.461  29.150  1.00  0.00    -0.206 F 
ATOM     74  C   UNL A   1      35.632  34.949  29.124  1.00  0.00     0.059 A 
ATOM     75  C   UNL A   1      34.153  33.857  30.710  1.00  0.00     0.059 A 
ATOM     76  F   UNL A   1      35.035  32.346  32.271  1.00  0.00    -0.206 F 
ATOM     77  C   UNL A   1      34.358  34.749  29.659  1.00  0.00     0.060 A 
BRANCH  77  78
ATOM     78  S   UNL A   1      32.959  35.642  28.946  1.00  0.00     0.124 S 
ATOM     79  O   UNL A   1      32.386  34.629  28.067  1.00  0.00    -0.237 OA
ATOM     80  O   UNL A   1      32.171  35.984  30.126  1.00  0.00    -0.237 OA
ATOM     81  O   UNL A   1      33.595  36.774  28.278  1.00  0.00    -0.744 OA
ENDBRANCH  77  78
ENDBRANCH  45  70
BRANCH  57  82
ATOM     82  C   UNL A   1      39.894  34.060  36.804  1.00  0.00     0.058 A 
ATOM     83  C   UNL A   1      40.495  35.327  36.770  1.00  0.00     0.135 A 
ATOM     84  C   UNL A   1      39.098  33.737  37.913  1.00  0.00     0.135 A 
ATOM     85  F   UNL A   1      41.271  35.680  35.733  1.00  0.00    -0.206 F 
ATOM     86  C   UNL A   1      40.327  36.236  37.809  1.00  0.00     0.059 A 
ATOM     87  C   UNL A   1      38.899  34.638  38.954  1.00  0.00     0.059 A 
ATOM     88  F   UNL A   1      38.495  32.539  37.986  1.00  0.00    -0.206 F 
ATOM     89  C   UNL A   1      39.527  35.882  38.898  1.00  0.00     0.060 A 
BRANCH  89  90
ATOM     90  S   UNL A   1      39.283  37.080  40.226  1.00  0.00     0.124 S 
ATOM     91  O   UNL A   1      40.658  37.331  40.648  1.00  0.00    -0.237 OA
ATOM     92  O   UNL A   1      38.620  38.184  39.539  1.00  0.00    -0.237 OA
ATOM     93  O   UNL A   1      38.453  36.358  41.185  1.00  0.00    -0.744 OA
ENDBRANCH  89  90
ENDBRANCH  57  82
ENDBRANCH  31  32
ENDBRANCH  24  26
ENDBRANCH  23  24
ENDBRANCH  22  23
ENDBRANCH   1  22
TORSDOF 19
ENDMDL
MODEL 2
REMARK VINA RESULT:     -11.1      6.199     12.925
REMARK SMILES C[C@@H]1CN(C(=O)NC(=O)CCCCC(=O)OCCOC(=O)c2ccc(-c3c4nc(c(-c5c(F)cc(S(=O)(=O)[O-])cc5F)c5ccc([nH]5)c(-c5c(F)cc(S(=O)(=O)[O-])cc5F)c5nc(c(-c6c(F)cc(S(=O)(=O)[O-])cc6F)c6ccc3[nH]6)C=C5)C=C4)cc2)CCO1
REMARK SMILES IDX 17 1 16 2 14 3 15 4 13 5 12 6 11 7 10 8 8 9 5 10 6 11 7 12
REMARK SMILES IDX 9 14 4 15 1 16 2 17 3 18 90 19 89 20 88 21 18 22 19 23 20 24
REMARK SMILES IDX 21 25 22 26 23 27 87 28 24 29 86 30 25 31 26 32 27 33 80 34
REMARK SMILES IDX 28 35 85 36 79 37 81 38 29 39 84 40 78 41 77 42 30 44 64 45
REMARK SMILES IDX 43 46 63 47 44 48 47 49 62 50 82 51 45 52 46 53 61 55 83 56
REMARK SMILES IDX 48 57 31 58 32 59 41 60 33 61 34 62 40 63 42 64 35 65 36 66
REMARK SMILES IDX 37 67 38 68 39 69 65 70 66 71 75 72 67 73 68 74 74 75 76 76
REMARK SMILES IDX 69 77 70 78 71 79 72 80 73 81 49 82 50 83 59 84 51 85 52 86
REMARK SMILES IDX 58 87 60 88 53 89 54 90 55 91 56 92 57 93
REMARK H PARENT 7 13 81 43 47 54
REMARK Flexibility Score: inf
ROOT
ATOM      1  C   UNL A   1      34.267  34.052  29.552  1.00  0.00     0.274 C 
ENDROOT
BRANCH   1   2
ATOM      2  O   UNL A   1      33.147  34.623  30.258  1.00  0.00    -0.462 OA
BRANCH   2   3
ATOM      3  C   UNL A   1      32.894  35.914  29.937  1.00  0.00     0.305 C 
ATOM      4  O   UNL A   1      32.432  36.272  28.860  1.00  0.00    -0.252 OA
BRANCH   3   5
ATOM      5  C   UNL A   1      33.111  36.892  31.063  1.00  0.00     0.123 C 
BRANCH   5   6
ATOM      6  C   UNL A   1      33.294  36.365  32.476  1.00  0.00     0.012 C 
BRANCH   6   7
ATOM      7  C   UNL A   1      34.701  36.019  32.959  1.00  0.00     0.010 C 
BRANCH   7   8
ATOM      8  C   UNL A   1      34.926  34.831  33.891  1.00  0.00     0.100 C 
BRANCH   8   9
ATOM      9  C   UNL A   1      34.486  33.469  33.418  1.00  0.00     0.227 C 
ATOM     10  C   UNL A   1      36.620  31.955  32.910  1.00  0.00     0.324 C 
ATOM     11  O   UNL A   1      36.702  30.728  33.025  1.00  0.00    -0.248 OA
ATOM     12  N   UNL A   1      35.333  32.462  32.971  1.00  0.00    -0.278 N 
ATOM     13  H   UNL A   1      34.764  31.824  32.480  1.00  0.00     0.174 HD
ATOM     14  O   UNL A   1      33.276  33.201  33.442  1.00  0.00    -0.275 OA
BRANCH  10  15
ATOM     15  N   UNL A   1      37.734  32.732  32.761  1.00  0.00    -0.320 N 
ATOM     16  C   UNL A   1      39.999  34.538  30.281  1.00  0.00     0.040 C 
ATOM     17  C   UNL A   1      39.738  33.703  31.534  1.00  0.00     0.134 C 
ATOM     18  C   UNL A   1      38.288  33.202  31.510  1.00  0.00     0.153 C 
ATOM     19  O   UNL A   1      39.985  34.540  32.665  1.00  0.00    -0.375 OA
ATOM     20  C   UNL A   1      39.721  33.827  33.876  1.00  0.00     0.182 C 
ATOM     21  C   UNL A   1      38.263  33.377  33.975  1.00  0.00     0.150 C 
ENDBRANCH  10  15
ENDBRANCH   8   9
ENDBRANCH   7   8
ENDBRANCH   6   7
ENDBRANCH   5   6
ENDBRANCH   3   5
ENDBRANCH   2   3
ENDBRANCH   1   2
BRANCH   1  22
ATOM     22  C   UNL A   1      34.353  32.537  29.755  1.00  0.00     0.275 C 
BRANCH  22  23
ATOM     23  O   UNL A   1      35.648  32.013  29.404  1.00  0.00    -0.458 OA
BRANCH  23  24
ATOM     24  C   UNL A   1      35.626  30.907  28.629  1.00  0.00     0.338 C 
ATOM     25  O   UNL A   1      34.691  30.504  27.946  1.00  0.00    -0.246 OA
BRANCH  24  26
ATOM     26  C   UNL A   1      36.914  30.205  28.691  1.00  0.00     0.060 A 
ATOM     27  C   UNL A   1      37.494  29.905  29.926  1.00  0.00     0.016 A 
ATOM     28  C   UNL A   1      37.619  29.989  27.507  1.00  0.00     0.016 A 
ATOM     29  C   UNL A   1      38.807  29.435  29.983  1.00  0.00     0.010 A 
ATOM     30  C   UNL A   1      38.914  29.472  27.564  1.00  0.00     0.010 A 
ATOM     31  C   UNL A   1      39.531  29.222  28.803  1.00  0.00    -0.014 A 
BRANCH  31  32
ATOM     32  C   UNL A   1      40.955  28.797  28.836  1.00  0.00     0.031 A 
ATOM     33  C   UNL A   1      42.025  29.822  29.101  1.00  0.00     0.074 A 
ATOM     34  C   UNL A   1      41.293  27.518  28.583  1.00  0.00     0.049 A 
ATOM     35  N   UNL A   1      43.316  29.736  28.923  1.00  0.00    -0.248 NA
ATOM     36  C   UNL A   1      41.576  31.126  29.620  1.00  0.00     0.031 C 
ATOM     37  C   UNL A   1      40.352  26.420  28.356  1.00  0.00     0.029 A 
ATOM     38  N   UNL A   1      42.528  26.932  28.448  1.00  0.00    -0.354 N 
ATOM     39  C   UNL A   1      43.829  30.985  29.251  1.00  0.00     0.074 A 
ATOM     40  C   UNL A   1      42.711  31.810  29.654  1.00  0.00     0.031 C 
ATOM     41  C   UNL A   1      41.043  25.298  28.094  1.00  0.00     0.029 A 
ATOM     42  C   UNL A   1      42.468  25.612  28.069  1.00  0.00     0.049 A 
ATOM     43  H   UNL A   1      43.372  27.411  28.606  1.00  0.00     0.167 HD
ATOM     44  C   UNL A   1      45.116  31.404  29.205  1.00  0.00     0.037 A 
ATOM     45  C   UNL A   1      43.446  24.765  27.690  1.00  0.00     0.037 A 
ATOM     46  C   UNL A   1      46.228  30.560  28.856  1.00  0.00     0.049 A 
ATOM     47  C   UNL A   1      44.867  25.259  27.640  1.00  0.00     0.074 A 
ATOM     48  C   UNL A   1      47.574  30.882  28.810  1.00  0.00     0.029 A 
ATOM     49  N   UNL A   1      46.125  29.222  28.506  1.00  0.00    -0.354 N 
ATOM     50  N   UNL A   1      45.336  26.452  27.919  1.00  0.00    -0.248 NA
ATOM     51  C   UNL A   1      45.892  24.297  27.209  1.00  0.00     0.031 C 
ATOM     52  C   UNL A   1      48.282  29.745  28.407  1.00  0.00     0.029 A 
ATOM     53  C   UNL A   1      47.381  28.708  28.234  1.00  0.00     0.049 A 
ATOM     54  H   UNL A   1      45.283  28.713  28.460  1.00  0.00     0.167 HD
ATOM     55  C   UNL A   1      46.709  26.378  27.712  1.00  0.00     0.074 A 
ATOM     56  C   UNL A   1      46.998  25.021  27.298  1.00  0.00     0.031 C 
ATOM     57  C   UNL A   1      47.647  27.348  27.844  1.00  0.00     0.037 A 
BRANCH  44  58
ATOM     58  C   UNL A   1      45.401  32.848  29.509  1.00  0.00     0.058 A 
ATOM     59  C   UNL A   1      45.327  33.843  28.526  1.00  0.00     0.135 A 
ATOM     60  C   UNL A   1      45.678  33.245  30.828  1.00  0.00     0.135 A 
ATOM     61  F   UNL A   1      45.083  33.513  27.247  1.00  0.00    -0.206 F 
ATOM     62  C   UNL A   1      45.523  35.186  28.837  1.00  0.00     0.059 A 
ATOM     63  C   UNL A   1      45.859  34.583  31.165  1.00  0.00     0.059 A 
ATOM     64  F   UNL A   1      45.764  32.330  31.806  1.00  0.00    -0.206 F 
ATOM     65  C   UNL A   1      45.784  35.546  30.160  1.00  0.00     0.060 A 
BRANCH  65  66
ATOM     66  S   UNL A   1      45.996  37.294  30.559  1.00  0.00     0.124 S 
ATOM     67  O   UNL A   1      44.840  37.888  29.894  1.00  0.00    -0.237 OA
ATOM     68  O   UNL A   1      45.954  37.292  32.018  1.00  0.00    -0.237 OA
ATOM     69  O   UNL A   1      47.292  37.622  29.973  1.00  0.00    -0.744 OA
ENDBRANCH  65  66
ENDBRANCH  44  58
BRANCH  45  70
ATOM     70  C   UNL A   1      43.114  23.380  27.264  1.00  0.00     0.058 A 
ATOM     71  C   UNL A   1      42.921  22.360  28.206  1.00  0.00     0.135 A 
ATOM     72  C   UNL A   1      43.010  23.046  25.905  1.00  0.00     0.135 A 
ATOM     73  F   UNL A   1      43.021  22.629  29.517  1.00  0.00    -0.206 F 
ATOM     74  C   UNL A   1      42.662  21.049  27.817  1.00  0.00     0.059 A 
ATOM     75  C   UNL A   1      42.726  21.749  25.492  1.00  0.00     0.059 A 
ATOM     76  F   UNL A   1      43.173  23.989  24.965  1.00  0.00    -0.206 F 
ATOM     77  C   UNL A   1      42.571  20.753  26.455  1.00  0.00     0.060 A 
BRANCH  77  78
ATOM     78  S   UNL A   1      42.213  19.056  25.951  1.00  0.00     0.124 S 
ATOM     79  O   UNL A   1      42.992  18.947  24.723  1.00  0.00    -0.237 OA
ATOM     80  O   UNL A   1      42.702  18.282  27.088  1.00  0.00    -0.237 OA
ATOM     81  O   UNL A   1      40.762  19.059  25.783  1.00  0.00    -0.744 OA
ENDBRANCH  77  78
ENDBRANCH  45  70
BRANCH  57  82
ATOM     82  C   UNL A   1      49.074  26.965  27.579  1.00  0.00     0.058 A 
ATOM     83  C   UNL A   1      49.659  27.143  26.316  1.00  0.00     0.135 A 
ATOM     84  C   UNL A   1      49.877  26.464  28.614  1.00  0.00     0.135 A 
ATOM     85  F   UNL A   1      48.928  27.614  25.293  1.00  0.00    -0.206 F 
ATOM     86  C   UNL A   1      50.991  26.818  26.084  1.00  0.00     0.059 A 
ATOM     87  C   UNL A   1      51.217  26.151  28.410  1.00  0.00     0.059 A 
ATOM     88  F   UNL A   1      49.364  26.284  29.842  1.00  0.00    -0.206 F 
ATOM     89  C   UNL A   1      51.762  26.322  27.137  1.00  0.00     0.060 A 
BRANCH  89  90
ATOM     90  S   UNL A   1      53.501  25.936  26.837  1.00  0.00     0.124 S 
ATOM     91  O   UNL A   1      53.410  24.584  26.297  1.00  0.00    -0.237 OA
ATOM     92  O   UNL A   1      53.896  26.972  25.888  1.00  0.00    -0.237 OA
ATOM     93  O   UNL A   1      54.105  26.046  28.161  1.00  0.00    -0.744 OA
ENDBRANCH  89  90
ENDBRANCH  57  82
ENDBRANCH  31  32
ENDBRANCH  24  26
ENDBRANCH  23  24
ENDBRANCH  22  23
ENDBRANCH   1  22
TORSDOF 19
ENDMDL
MODEL 3
REMARK VINA RESULT:     -11.0      5.594     11.107
REMARK SMILES C[C@@H]1CN(C(=O)NC(=O)CCCCC(=O)OCCOC(=O)c2ccc(-c3c4nc(c(-c5c(F)cc(S(=O)(=O)[O-])cc5F)c5ccc([nH]5)c(-c5c(F)cc(S(=O)(=O)[O-])cc5F)c5nc(c(-c6c(F)cc(S(=O)(=O)[O-])cc6F)c6ccc3[nH]6)C=C5)C=C4)cc2)CCO1
REMARK SMILES IDX 17 1 16 2 14 3 15 4 13 5 12 6 11 7 10 8 8 9 5 10 6 11 7 12
REMARK SMILES IDX 9 14 4 15 1 16 2 17 3 18 90 19 89 20 88 21 18 22 19 23 20 24
REMARK SMILES IDX 21 25 22 26 23 27 87 28 24 29 86 30 25 31 26 32 27 33 80 34
REMARK SMILES IDX 28 35 85 36 79 37 81 38 29 39 84 40 78 41 77 42 30 44 64 45
REMARK SMILES IDX 43 46 63 47 44 48 47 49 62 50 82 51 45 52 46 53 61 55 83 56
REMARK SMILES IDX 48 57 31 58 32 59 41 60 33 61 34 62 40 63 42 64 35 65 36 66
REMARK SMILES IDX 37 67 38 68 39 69 65 70 66 71 75 72 67 73 68 74 74 75 76 76
REMARK SMILES IDX 69 77 70 78 71 79 72 80 73 81 49 82 50 83 59 84 51 85 52 86
REMARK SMILES IDX 58 87 60 88 53 89 54 90 55 91 56 92 57 93
REMARK H PARENT 7 13 81 43 47 54
REMARK Flexibility Score: inf
ROOT
ATOM      1  C   UNL A   1      32.495  29.023  27.268  1.00  0.00     0.274 C 
ENDROOT
BRANCH   1   2
ATOM      2  O   UNL A   1      33.216  28.214  26.316  1.00  0.00    -0.462 OA
BRANCH   2   3
ATOM      3  C   UNL A   1      32.809  28.377  25.035  1.00  0.00     0.305 C 
ATOM      4  O   UNL A   1      33.524  28.813  24.141  1.00  0.00    -0.252 OA
BRANCH   3   5
ATOM      5  C   UNL A   1      31.421  27.863  24.751  1.00  0.00     0.123 C 
BRANCH   5   6
ATOM      6  C   UNL A   1      31.181  26.364  24.702  1.00  0.00     0.012 C 
BRANCH   6   7
ATOM      7  C   UNL A   1      30.596  25.670  25.930  1.00  0.00     0.010 C 
BRANCH   7   8
ATOM      8  C   UNL A   1      31.362  24.543  26.618  1.00  0.00     0.100 C 
BRANCH   8   9
ATOM      9  C   UNL A   1      30.703  23.190  26.701  1.00  0.00     0.227 C 
ATOM     10  C   UNL A   1      32.047  21.436  25.210  1.00  0.00     0.324 C 
ATOM     11  O   UNL A   1      32.164  20.224  25.417  1.00  0.00    -0.248 OA
ATOM     12  N   UNL A   1      31.079  22.067  25.973  1.00  0.00    -0.278 N 
ATOM     13  H   UNL A   1      30.319  21.442  26.023  1.00  0.00     0.174 HD
ATOM     14  O   UNL A   1      29.762  23.042  27.493  1.00  0.00    -0.275 OA
BRANCH  10  15
ATOM     15  N   UNL A   1      32.843  22.084  24.309  1.00  0.00    -0.320 N 
ATOM     16  C   UNL A   1      36.428  22.764  23.201  1.00  0.00     0.040 C 
ATOM     17  C   UNL A   1      34.980  23.174  23.464  1.00  0.00     0.134 C 
ATOM     18  C   UNL A   1      34.290  22.077  24.285  1.00  0.00     0.153 C 
ATOM     19  O   UNL A   1      34.348  23.356  22.196  1.00  0.00    -0.375 OA
ATOM     20  C   UNL A   1      32.973  23.704  22.372  1.00  0.00     0.182 C 
ATOM     21  C   UNL A   1      32.189  22.611  23.099  1.00  0.00     0.150 C 
ENDBRANCH  10  15
ENDBRANCH   8   9
ENDBRANCH   7   8
ENDBRANCH   6   7
ENDBRANCH   5   6
ENDBRANCH   3   5
ENDBRANCH   2   3
ENDBRANCH   1   2
BRANCH   1  22
ATOM     22  C   UNL A   1      32.957  30.482  27.236  1.00  0.00     0.275 C 
BRANCH  22  23
ATOM     23  O   UNL A   1      34.393  30.598  27.238  1.00  0.00    -0.458 OA
BRANCH  23  24
ATOM     24  C   UNL A   1      34.939  30.914  28.432  1.00  0.00     0.338 C 
ATOM     25  O   UNL A   1      34.453  31.630  29.299  1.00  0.00    -0.246 OA
BRANCH  24  26
ATOM     26  C   UNL A   1      36.248  30.267  28.591  1.00  0.00     0.060 A 
ATOM     27  C   UNL A   1      36.732  29.959  29.865  1.00  0.00     0.016 A 
ATOM     28  C   UNL A   1      37.063  30.115  27.468  1.00  0.00     0.016 A 
ATOM     29  C   UNL A   1      38.055  29.546  30.027  1.00  0.00     0.010 A 
ATOM     30  C   UNL A   1      38.371  29.654  27.628  1.00  0.00     0.010 A 
ATOM     31  C   UNL A   1      38.889  29.397  28.910  1.00  0.00    -0.014 A 
BRANCH  31  32
ATOM     32  C   UNL A   1      40.322  29.035  29.059  1.00  0.00     0.031 A 
ATOM     33  C   UNL A   1      41.317  30.099  29.437  1.00  0.00     0.074 A 
ATOM     34  C   UNL A   1      40.739  27.779  28.809  1.00  0.00     0.049 A 
ATOM     35  N   UNL A   1      42.622  30.073  29.371  1.00  0.00    -0.248 NA
ATOM     36  C   UNL A   1      40.766  31.368  29.943  1.00  0.00     0.031 C 
ATOM     37  C   UNL A   1      39.873  26.646  28.477  1.00  0.00     0.029 A 
ATOM     38  N   UNL A   1      42.006  27.250  28.770  1.00  0.00    -0.354 N 
ATOM     39  C   UNL A   1      43.046  31.335  29.769  1.00  0.00     0.074 A 
ATOM     40  C   UNL A   1      41.861  32.100  30.091  1.00  0.00     0.031 C 
ATOM     41  C   UNL A   1      40.634  25.562  28.253  1.00  0.00     0.029 A 
ATOM     42  C   UNL A   1      42.040  25.939  28.360  1.00  0.00     0.049 A 
ATOM     43  H   UNL A   1      42.812  27.762  29.012  1.00  0.00     0.167 HD
ATOM     44  C   UNL A   1      44.312  31.811  29.846  1.00  0.00     0.037 A 
ATOM     45  C   UNL A   1      43.085  25.146  28.050  1.00  0.00     0.037 A 
ATOM     46  C   UNL A   1      45.488  31.026  29.577  1.00  0.00     0.049 A 
ATOM     47  C   UNL A   1      44.481  25.702  28.135  1.00  0.00     0.074 A 
ATOM     48  C   UNL A   1      46.816  31.408  29.656  1.00  0.00     0.029 A 
ATOM     49  N   UNL A   1      45.476  29.694  29.192  1.00  0.00    -0.354 N 
ATOM     50  N   UNL A   1      44.869  26.907  28.479  1.00  0.00    -0.248 NA
ATOM     51  C   UNL A   1      45.582  24.797  27.774  1.00  0.00     0.031 C 
ATOM     52  C   UNL A   1      47.607  30.314  29.292  1.00  0.00     0.029 A 
ATOM     53  C   UNL A   1      46.773  29.242  29.020  1.00  0.00     0.049 A 
ATOM     54  H   UNL A   1      44.666  29.150  29.061  1.00  0.00     0.167 HD
ATOM     55  C   UNL A   1      46.257  26.899  28.391  1.00  0.00     0.074 A 
ATOM     56  C   UNL A   1      46.642  25.567  27.976  1.00  0.00     0.031 C 
ATOM     57  C   UNL A   1      47.134  27.905  28.625  1.00  0.00     0.037 A 
BRANCH  44  58
ATOM     58  C   UNL A   1      44.503  33.258  30.204  1.00  0.00     0.058 A 
ATOM     59  C   UNL A   1      44.384  34.281  29.254  1.00  0.00     0.135 A 
ATOM     60  C   UNL A   1      44.734  33.625  31.540  1.00  0.00     0.135 A 
ATOM     61  F   UNL A   1      44.181  33.982  27.960  1.00  0.00    -0.206 F 
ATOM     62  C   UNL A   1      44.492  35.622  29.614  1.00  0.00     0.059 A 
ATOM     63  C   UNL A   1      44.827  34.958  31.926  1.00  0.00     0.059 A 
ATOM     64  F   UNL A   1      44.861  32.683  32.488  1.00  0.00    -0.206 F 
ATOM     65  C   UNL A   1      44.709  35.950  30.954  1.00  0.00     0.060 A 
BRANCH  65  66
ATOM     66  S   UNL A   1      44.807  37.693  31.415  1.00  0.00     0.124 S 
ATOM     67  O   UNL A   1      44.730  38.345  30.112  1.00  0.00    -0.237 OA
ATOM     68  O   UNL A   1      43.640  37.857  32.276  1.00  0.00    -0.237 OA
ATOM     69  O   UNL A   1      46.097  37.794  32.090  1.00  0.00    -0.744 OA
ENDBRANCH  65  66
ENDBRANCH  44  58
BRANCH  45  70
ATOM     70  C   UNL A   1      42.855  23.759  27.567  1.00  0.00     0.058 A 
ATOM     71  C   UNL A   1      42.698  23.485  26.200  1.00  0.00     0.135 A 
ATOM     72  C   UNL A   1      42.761  22.684  28.465  1.00  0.00     0.135 A 
ATOM     73  F   UNL A   1      42.768  24.481  25.305  1.00  0.00    -0.206 F 
ATOM     74  C   UNL A   1      42.429  22.199  25.742  1.00  0.00     0.059 A 
ATOM     75  C   UNL A   1      42.520  21.387  28.029  1.00  0.00     0.059 A 
ATOM     76  F   UNL A   1      42.917  22.892  29.781  1.00  0.00    -0.206 F 
ATOM     77  C   UNL A   1      42.337  21.157  26.666  1.00  0.00     0.060 A 
BRANCH  77  78
ATOM     78  S   UNL A   1      42.010  19.484  26.068  1.00  0.00     0.124 S 
ATOM     79  O   UNL A   1      42.448  18.679  27.202  1.00  0.00    -0.237 OA
ATOM     80  O   UNL A   1      40.571  19.515  25.823  1.00  0.00    -0.237 OA
ATOM     81  O   UNL A   1      42.839  19.393  24.869  1.00  0.00    -0.744 OA
ENDBRANCH  77  78
ENDBRANCH  45  70
BRANCH  57  82
ATOM     82  C   UNL A   1      48.595  27.593  28.478  1.00  0.00     0.058 A 
ATOM     83  C   UNL A   1      49.344  27.069  29.542  1.00  0.00     0.135 A 
ATOM     84  C   UNL A   1      49.237  27.772  27.244  1.00  0.00     0.135 A 
ATOM     85  F   UNL A   1      48.775  26.885  30.744  1.00  0.00    -0.206 F 
ATOM     86  C   UNL A   1      50.690  26.750  29.392  1.00  0.00     0.059 A 
ATOM     87  C   UNL A   1      50.576  27.441  27.065  1.00  0.00     0.059 A 
ATOM     88  F   UNL A   1      48.559  28.263  26.193  1.00  0.00    -0.206 F 
ATOM     89  C   UNL A   1      51.297  26.940  28.149  1.00  0.00     0.060 A 
BRANCH  89  90
ATOM     90  S   UNL A   1      53.035  26.490  27.951  1.00  0.00     0.124 S 
ATOM     91  O   UNL A   1      53.412  26.170  29.324  1.00  0.00    -0.237 OA
ATOM     92  O   UNL A   1      52.966  25.357  27.032  1.00  0.00    -0.237 OA
ATOM     93  O   UNL A   1      53.636  27.700  27.399  1.00  0.00    -0.744 OA
ENDBRANCH  89  90
ENDBRANCH  57  82
ENDBRANCH  31  32
ENDBRANCH  24  26
ENDBRANCH  23  24
ENDBRANCH  22  23
ENDBRANCH   1  22
TORSDOF 19
ENDMDL
