MODEL 1
REMARK VINA RESULT:     -11.4      0.000      0.000
REMARK SMILES O=CN1CC[NH+](C[C@@H](CC(=O)Nc2ccc(C(F)(F)F)nc2)C(=O)OCCOC(=O)c2ccc(-c3c4nc(c(-c5c(F)cc(S(=O)(=O)[O-])cc5F)c5ccc([nH]5)c(-c5c(F)cc(S(=O)(=O)[O-])cc5F)c5nc(c(-c6c(F)cc(S(=O)(=O)[O-])cc6F)c6ccc3[nH]6)C=C5)C=C4)cc2)CC1
REMARK SMILES IDX 26 1 25 2 23 3 24 4 8 5 7 6 6 7 1 8 2 9 3 10 4 11 98 12 5 13
REMARK SMILES IDX 97 14 9 16 10 17 11 18 12 19 13 21 14 22 22 23 15 24 21 25
REMARK SMILES IDX 16 26 17 27 18 28 19 29 20 30 27 31 28 32 29 33 30 34 31 35
REMARK SMILES IDX 32 36 96 37 33 38 95 39 34 40 35 41 36 42 89 43 37 44 94 45
REMARK SMILES IDX 88 46 90 47 38 48 93 49 87 50 86 51 39 53 73 54 52 55 72 56
REMARK SMILES IDX 53 57 56 58 71 59 91 60 54 61 55 62 70 64 92 65 57 66 40 67
REMARK SMILES IDX 41 68 50 69 42 70 43 71 49 72 51 73 44 74 45 75 46 76 47 77
REMARK SMILES IDX 48 78 74 79 75 80 84 81 76 82 77 83 83 84 85 85 78 86 79 87
REMARK SMILES IDX 80 88 81 89 82 90 58 91 59 92 68 93 60 94 61 95 67 96 69 97
REMARK SMILES IDX 62 98 63 99 64 100 65 101 66 102
REMARK H PARENT 6 15 12 20 90 52 56 63
REMARK Flexibility Score: inf
ROOT
ATOM      1  C   UNL A   1      33.673  27.016  26.022  1.00  0.00     0.274 C 
ENDROOT
BRANCH   1   2
ATOM      2  O   UNL A   1      32.541  26.296  25.486  1.00  0.00    -0.462 OA
BRANCH   2   3
ATOM      3  C   UNL A   1      32.203  25.148  26.127  1.00  0.00     0.315 C 
ATOM      4  O   UNL A   1      31.412  25.081  27.061  1.00  0.00    -0.252 OA
BRANCH   3   5
ATOM      5  C   UNL A   1      32.891  23.909  25.557  1.00  0.00     0.163 C 
BRANCH   5   6
ATOM      6  C   UNL A   1      32.193  22.649  26.097  1.00  0.00     0.278 C 
BRANCH   6   7
ATOM      7  N   UNL A   1      32.876  21.465  26.652  1.00  0.00    -0.331 N 
ATOM      8  O   UNL A   1      37.824  21.503  25.333  1.00  0.00    -0.279 OA
ATOM      9  C   UNL A   1      36.804  20.941  24.960  1.00  0.00     0.340 C 
ATOM     10  N   UNL A   1      35.545  21.121  25.490  1.00  0.00    -0.334 N 
ATOM     11  C   UNL A   1      34.383  20.544  24.835  1.00  0.00     0.180 C 
ATOM     12  C   UNL A   1      35.321  22.133  26.524  1.00  0.00     0.180 C 
ATOM     13  C   UNL A   1      33.215  20.323  25.800  1.00  0.00     0.284 C 
ATOM     14  C   UNL A   1      34.098  21.830  27.418  1.00  0.00     0.284 C 
ATOM     15  H   UNL A   1      32.108  21.116  27.227  1.00  0.00     0.348 HD
ENDBRANCH   6   7
ENDBRANCH   5   6
BRANCH   5  16
ATOM     16  C   UNL A   1      33.187  24.059  24.061  1.00  0.00     0.121 C 
BRANCH  16  17
ATOM     17  C   UNL A   1      32.285  23.396  23.039  1.00  0.00     0.225 C 
ATOM     18  O   UNL A   1      32.582  22.287  22.584  1.00  0.00    -0.275 OA
ATOM     19  N   UNL A   1      31.114  23.958  22.621  1.00  0.00    -0.325 N 
ATOM     20  H   UNL A   1      30.474  23.352  22.182  1.00  0.00     0.169 HD
BRANCH  19  21
ATOM     21  C   UNL A   1      30.717  25.290  22.743  1.00  0.00     0.059 A 
ATOM     22  C   UNL A   1      29.701  25.594  23.640  1.00  0.00     0.030 A 
ATOM     23  C   UNL A   1      31.334  26.336  22.072  1.00  0.00     0.137 A 
ATOM     24  C   UNL A   1      29.236  26.905  23.724  1.00  0.00     0.035 A 
ATOM     25  N   UNL A   1      30.941  27.631  22.175  1.00  0.00    -0.250 NA
ATOM     26  C   UNL A   1      29.850  27.899  22.959  1.00  0.00     0.144 A 
BRANCH  26  27
ATOM     27  C   UNL A   1      29.271  29.309  23.015  1.00  0.00     0.433 C 
ATOM     28  F   UNL A   1      29.378  29.956  21.816  1.00  0.00    -0.165 F 
ATOM     29  F   UNL A   1      27.952  29.364  23.350  1.00  0.00    -0.165 F 
ATOM     30  F   UNL A   1      29.915  30.110  23.915  1.00  0.00    -0.165 F 
ENDBRANCH  26  27
ENDBRANCH  19  21
ENDBRANCH  16  17
ENDBRANCH   5  16
ENDBRANCH   3   5
ENDBRANCH   2   3
ENDBRANCH   1   2
BRANCH   1  31
ATOM     31  C   UNL A   1      33.291  28.403  26.545  1.00  0.00     0.275 C 
BRANCH  31  32
ATOM     32  O   UNL A   1      33.925  28.694  27.803  1.00  0.00    -0.458 OA
BRANCH  32  33
ATOM     33  C   UNL A   1      34.439  29.941  27.892  1.00  0.00     0.338 C 
ATOM     34  O   UNL A   1      33.840  30.996  27.775  1.00  0.00    -0.246 OA
BRANCH  33  35
ATOM     35  C   UNL A   1      35.856  29.877  28.272  1.00  0.00     0.060 A 
ATOM     36  C   UNL A   1      36.802  30.078  27.270  1.00  0.00     0.016 A 
ATOM     37  C   UNL A   1      36.254  29.481  29.548  1.00  0.00     0.016 A 
ATOM     38  C   UNL A   1      38.136  29.773  27.494  1.00  0.00     0.010 A 
ATOM     39  C   UNL A   1      37.613  29.259  29.799  1.00  0.00     0.010 A 
ATOM     40  C   UNL A   1      38.561  29.368  28.764  1.00  0.00    -0.014 A 
BRANCH  40  41
ATOM     41  C   UNL A   1      39.996  29.057  28.988  1.00  0.00     0.031 A 
ATOM     42  C   UNL A   1      40.925  30.114  29.521  1.00  0.00     0.074 A 
ATOM     43  C   UNL A   1      40.455  27.815  28.729  1.00  0.00     0.049 A 
ATOM     44  N   UNL A   1      42.224  30.075  29.658  1.00  0.00    -0.248 NA
ATOM     45  C   UNL A   1      40.316  31.384  29.949  1.00  0.00     0.031 C 
ATOM     46  C   UNL A   1      39.643  26.695  28.245  1.00  0.00     0.029 A 
ATOM     47  N   UNL A   1      41.715  27.285  28.838  1.00  0.00    -0.354 N 
ATOM     48  C   UNL A   1      42.595  31.324  30.140  1.00  0.00     0.074 A 
ATOM     49  C   UNL A   1      41.382  32.101  30.277  1.00  0.00     0.031 C 
ATOM     50  C   UNL A   1      40.421  25.611  28.109  1.00  0.00     0.029 A 
ATOM     51  C   UNL A   1      41.797  25.974  28.427  1.00  0.00     0.049 A 
ATOM     52  H   UNL A   1      42.487  27.793  29.177  1.00  0.00     0.167 HD
ATOM     53  C   UNL A   1      43.835  31.777  30.438  1.00  0.00     0.037 A 
ATOM     54  C   UNL A   1      42.864  25.168  28.278  1.00  0.00     0.037 A 
ATOM     55  C   UNL A   1      45.029  30.974  30.353  1.00  0.00     0.049 A 
ATOM     56  C   UNL A   1      44.230  25.701  28.605  1.00  0.00     0.074 A 
ATOM     57  C   UNL A   1      46.329  31.330  30.668  1.00  0.00     0.029 A 
ATOM     58  N   UNL A   1      45.067  29.652  29.935  1.00  0.00    -0.354 N 
ATOM     59  N   UNL A   1      44.565  26.892  29.043  1.00  0.00    -0.248 NA
ATOM     60  C   UNL A   1      45.365  24.790  28.410  1.00  0.00     0.031 C 
ATOM     61  C   UNL A   1      47.158  30.236  30.405  1.00  0.00     0.029 A 
ATOM     62  C   UNL A   1      46.370  29.185  29.965  1.00  0.00     0.049 A 
ATOM     63  H   UNL A   1      44.284  29.125  29.656  1.00  0.00     0.167 HD
ATOM     64  C   UNL A   1      45.946  26.866  29.190  1.00  0.00     0.074 A 
ATOM     65  C   UNL A   1      46.383  25.538  28.810  1.00  0.00     0.031 C 
ATOM     66  C   UNL A   1      46.780  27.854  29.596  1.00  0.00     0.037 A 
BRANCH  53  67
ATOM     67  C   UNL A   1      43.986  33.211  30.858  1.00  0.00     0.058 A 
ATOM     68  C   UNL A   1      44.242  34.235  29.934  1.00  0.00     0.135 A 
ATOM     69  C   UNL A   1      43.788  33.574  32.201  1.00  0.00     0.135 A 
ATOM     70  F   UNL A   1      44.459  33.940  28.642  1.00  0.00    -0.206 F 
ATOM     71  C   UNL A   1      44.300  35.568  30.326  1.00  0.00     0.059 A 
ATOM     72  C   UNL A   1      43.820  34.903  32.612  1.00  0.00     0.059 A 
ATOM     73  F   UNL A   1      43.544  32.632  33.126  1.00  0.00    -0.206 F 
ATOM     74  C   UNL A   1      44.082  35.893  31.668  1.00  0.00     0.060 A 
BRANCH  74  75
ATOM     75  S   UNL A   1      44.117  37.632  32.156  1.00  0.00     0.124 S 
ATOM     76  O   UNL A   1      43.213  37.631  33.302  1.00  0.00    -0.237 OA
ATOM     77  O   UNL A   1      45.529  37.843  32.464  1.00  0.00    -0.237 OA
ATOM     78  O   UNL A   1      43.626  38.327  30.972  1.00  0.00    -0.744 OA
ENDBRANCH  74  75
ENDBRANCH  53  67
BRANCH  54  79
ATOM     79  C   UNL A   1      42.691  23.794  27.736  1.00  0.00     0.058 A 
ATOM     80  C   UNL A   1      42.603  23.559  26.357  1.00  0.00     0.135 A 
ATOM     81  C   UNL A   1      42.595  22.687  28.595  1.00  0.00     0.135 A 
ATOM     82  F   UNL A   1      42.682  24.585  25.496  1.00  0.00    -0.206 F 
ATOM     83  C   UNL A   1      42.400  22.280  25.847  1.00  0.00     0.059 A 
ATOM     84  C   UNL A   1      42.420  21.396  28.110  1.00  0.00     0.059 A 
ATOM     85  F   UNL A   1      42.689  22.855  29.924  1.00  0.00    -0.206 F 
ATOM     86  C   UNL A   1      42.304  21.205  26.733  1.00  0.00     0.060 A 
BRANCH  86  87
ATOM     87  S   UNL A   1      42.053  19.544  26.071  1.00  0.00     0.124 S 
ATOM     88  O   UNL A   1      42.518  18.715  27.177  1.00  0.00    -0.237 OA
ATOM     89  O   UNL A   1      40.617  19.523  25.815  1.00  0.00    -0.237 OA
ATOM     90  O   UNL A   1      42.894  19.532  24.877  1.00  0.00    -0.744 OA
ENDBRANCH  86  87
ENDBRANCH  54  79
BRANCH  66  91
ATOM     91  C   UNL A   1      48.241  27.525  29.684  1.00  0.00     0.058 A 
ATOM     92  C   UNL A   1      49.107  27.737  28.601  1.00  0.00     0.135 A 
ATOM     93  C   UNL A   1      48.788  27.035  30.880  1.00  0.00     0.135 A 
ATOM     94  F   UNL A   1      48.629  28.197  27.434  1.00  0.00    -0.206 F 
ATOM     95  C   UNL A   1      50.466  27.454  28.694  1.00  0.00     0.059 A 
ATOM     96  C   UNL A   1      50.147  26.768  31.003  1.00  0.00     0.059 A 
ATOM     97  F   UNL A   1      48.002  26.825  31.947  1.00  0.00    -0.206 F 
ATOM     98  C   UNL A   1      50.976  26.970  29.900  1.00  0.00     0.060 A 
BRANCH  98  99
ATOM     99  S   UNL A   1      52.747  26.640  30.022  1.00  0.00     0.124 S 
ATOM    100  O   UNL A   1      52.783  25.619  31.063  1.00  0.00    -0.237 OA
ATOM    101  O   UNL A   1      53.077  26.185  28.676  1.00  0.00    -0.237 OA
ATOM    102  O   UNL A   1      53.308  27.937  30.394  1.00  0.00    -0.744 OA
ENDBRANCH  98  99
ENDBRANCH  66  91
ENDBRANCH  40  41
ENDBRANCH  33  35
ENDBRANCH  32  33
ENDBRANCH  31  32
ENDBRANCH   1  31
TORSDOF 20
ENDMDL
MODEL 2
REMARK VINA RESULT:     -11.3      2.345      3.212
REMARK SMILES O=CN1CC[NH+](C[C@@H](CC(=O)Nc2ccc(C(F)(F)F)nc2)C(=O)OCCOC(=O)c2ccc(-c3c4nc(c(-c5c(F)cc(S(=O)(=O)[O-])cc5F)c5ccc([nH]5)c(-c5c(F)cc(S(=O)(=O)[O-])cc5F)c5nc(c(-c6c(F)cc(S(=O)(=O)[O-])cc6F)c6ccc3[nH]6)C=C5)C=C4)cc2)CC1
REMARK SMILES IDX 26 1 25 2 23 3 24 4 8 5 7 6 6 7 1 8 2 9 3 10 4 11 98 12 5 13
REMARK SMILES IDX 97 14 9 16 10 17 11 18 12 19 13 21 14 22 22 23 15 24 21 25
REMARK SMILES IDX 16 26 17 27 18 28 19 29 20 30 27 31 28 32 29 33 30 34 31 35
REMARK SMILES IDX 32 36 96 37 33 38 95 39 34 40 35 41 36 42 89 43 37 44 94 45
REMARK SMILES IDX 88 46 90 47 38 48 93 49 87 50 86 51 39 53 73 54 52 55 72 56
REMARK SMILES IDX 53 57 56 58 71 59 91 60 54 61 55 62 70 64 92 65 57 66 40 67
REMARK SMILES IDX 41 68 50 69 42 70 43 71 49 72 51 73 44 74 45 75 46 76 47 77
REMARK SMILES IDX 48 78 74 79 75 80 84 81 76 82 77 83 83 84 85 85 78 86 79 87
REMARK SMILES IDX 80 88 81 89 82 90 58 91 59 92 68 93 60 94 61 95 67 96 69 97
REMARK SMILES IDX 62 98 63 99 64 100 65 101 66 102
REMARK H PARENT 6 15 12 20 90 52 56 63
REMARK Flexibility Score: inf
ROOT
ATOM      1  C   UNL A   1      34.227  28.564  26.872  1.00  0.00     0.274 C 
ENDROOT
BRANCH   1   2
ATOM      2  O   UNL A   1      32.876  28.225  26.487  1.00  0.00    -0.462 OA
BRANCH   2   3
ATOM      3  C   UNL A   1      32.602  26.901  26.363  1.00  0.00     0.315 C 
ATOM      4  O   UNL A   1      31.578  26.363  26.771  1.00  0.00    -0.252 OA
BRANCH   3   5
ATOM      5  C   UNL A   1      33.693  26.120  25.633  1.00  0.00     0.163 C 
BRANCH   5   6
ATOM      6  C   UNL A   1      33.669  24.656  26.105  1.00  0.00     0.278 C 
BRANCH   6   7
ATOM      7  N   UNL A   1      32.460  23.895  26.471  1.00  0.00    -0.331 N 
ATOM      8  O   UNL A   1      33.149  18.914  25.503  1.00  0.00    -0.279 OA
ATOM      9  C   UNL A   1      32.589  19.860  24.967  1.00  0.00     0.340 C 
ATOM     10  N   UNL A   1      32.561  21.153  25.439  1.00  0.00    -0.334 N 
ATOM     11  C   UNL A   1      32.030  22.225  24.615  1.00  0.00     0.180 C 
ATOM     12  C   UNL A   1      33.335  21.518  26.628  1.00  0.00     0.180 C 
ATOM     13  C   UNL A   1      31.534  23.413  25.444  1.00  0.00     0.284 C 
ATOM     14  C   UNL A   1      32.768  22.749  27.369  1.00  0.00     0.284 C 
ATOM     15  H   UNL A   1      31.947  24.655  26.920  1.00  0.00     0.348 HD
ENDBRANCH   6   7
ENDBRANCH   5   6
BRANCH   5  16
ATOM     16  C   UNL A   1      33.733  26.461  24.139  1.00  0.00     0.121 C 
BRANCH  16  17
ATOM     17  C   UNL A   1      33.260  25.445  23.118  1.00  0.00     0.225 C 
ATOM     18  O   UNL A   1      34.043  24.590  22.691  1.00  0.00    -0.275 OA
ATOM     19  N   UNL A   1      31.973  25.404  22.667  1.00  0.00    -0.325 N 
ATOM     20  H   UNL A   1      31.692  24.567  22.231  1.00  0.00     0.169 HD
BRANCH  19  21
ATOM     21  C   UNL A   1      31.007  26.408  22.753  1.00  0.00     0.059 A 
ATOM     22  C   UNL A   1      29.938  26.220  23.619  1.00  0.00     0.030 A 
ATOM     23  C   UNL A   1      31.098  27.616  22.076  1.00  0.00     0.137 A 
ATOM     24  C   UNL A   1      28.923  27.173  23.667  1.00  0.00     0.035 A 
ATOM     25  N   UNL A   1      30.154  28.588  22.144  1.00  0.00    -0.250 NA
ATOM     26  C   UNL A   1      29.037  28.333  22.896  1.00  0.00     0.144 A 
BRANCH  26  27
ATOM     27  C   UNL A   1      27.877  29.322  22.910  1.00  0.00     0.433 C 
ATOM     28  F   UNL A   1      28.142  30.414  23.688  1.00  0.00    -0.165 F 
ATOM     29  F   UNL A   1      27.541  29.813  21.684  1.00  0.00    -0.165 F 
ATOM     30  F   UNL A   1      26.730  28.785  23.421  1.00  0.00    -0.165 F 
ENDBRANCH  26  27
ENDBRANCH  19  21
ENDBRANCH  16  17
ENDBRANCH   5  16
ENDBRANCH   3   5
ENDBRANCH   2   3
ENDBRANCH   1   2
BRANCH   1  31
ATOM     31  C   UNL A   1      34.291  29.823  27.740  1.00  0.00     0.275 C 
BRANCH  31  32
ATOM     32  O   UNL A   1      35.632  30.332  27.847  1.00  0.00    -0.458 OA
BRANCH  32  33
ATOM     33  C   UNL A   1      36.210  30.128  29.051  1.00  0.00     0.338 C 
ATOM     34  O   UNL A   1      35.649  29.986  30.124  1.00  0.00    -0.246 OA
BRANCH  33  35
ATOM     35  C   UNL A   1      37.663  29.983  28.896  1.00  0.00     0.060 A 
ATOM     36  C   UNL A   1      38.154  29.744  27.615  1.00  0.00     0.016 A 
ATOM     37  C   UNL A   1      38.515  29.931  29.998  1.00  0.00     0.016 A 
ATOM     38  C   UNL A   1      39.466  29.337  27.431  1.00  0.00     0.010 A 
ATOM     39  C   UNL A   1      39.863  29.606  29.802  1.00  0.00     0.010 A 
ATOM     40  C   UNL A   1      40.341  29.270  28.522  1.00  0.00    -0.014 A 
BRANCH  40  41
ATOM     41  C   UNL A   1      41.746  28.842  28.303  1.00  0.00     0.031 A 
ATOM     42  C   UNL A   1      42.862  29.851  28.362  1.00  0.00     0.074 A 
ATOM     43  C   UNL A   1      42.016  27.541  28.073  1.00  0.00     0.049 A 
ATOM     44  N   UNL A   1      44.127  29.697  28.072  1.00  0.00    -0.248 NA
ATOM     45  C   UNL A   1      42.508  31.212  28.796  1.00  0.00     0.031 C 
ATOM     46  C   UNL A   1      41.024  26.464  28.030  1.00  0.00     0.029 A 
ATOM     47  N   UNL A   1      43.206  26.902  27.833  1.00  0.00    -0.354 N 
ATOM     48  C   UNL A   1      44.712  30.945  28.240  1.00  0.00     0.074 A 
ATOM     49  C   UNL A   1      43.664  31.850  28.662  1.00  0.00     0.031 C 
ATOM     50  C   UNL A   1      41.644  25.300  27.790  1.00  0.00     0.029 A 
ATOM     51  C   UNL A   1      43.066  25.554  27.592  1.00  0.00     0.049 A 
ATOM     52  H   UNL A   1      44.076  27.362  27.832  1.00  0.00     0.167 HD
ATOM     53  C   UNL A   1      46.005  31.301  28.056  1.00  0.00     0.037 A 
ATOM     54  C   UNL A   1      43.971  24.635  27.210  1.00  0.00     0.037 A 
ATOM     55  C   UNL A   1      47.050  30.378  27.691  1.00  0.00     0.049 A 
ATOM     56  C   UNL A   1      45.397  25.060  27.001  1.00  0.00     0.074 A 
ATOM     57  C   UNL A   1      48.400  30.634  27.516  1.00  0.00     0.029 A 
ATOM     58  N   UNL A   1      46.867  29.024  27.459  1.00  0.00    -0.354 N 
ATOM     59  N   UNL A   1      45.930  26.250  27.146  1.00  0.00    -0.248 NA
ATOM     60  C   UNL A   1      46.344  24.025  26.566  1.00  0.00     0.031 C 
ATOM     61  C   UNL A   1      49.025  29.441  27.142  1.00  0.00     0.029 A 
ATOM     62  C   UNL A   1      48.074  28.435  27.124  1.00  0.00     0.049 A 
ATOM     63  H   UNL A   1      46.005  28.551  27.522  1.00  0.00     0.167 HD
ATOM     64  C   UNL A   1      47.276  26.102  26.837  1.00  0.00     0.074 A 
ATOM     65  C   UNL A   1      47.481  24.705  26.512  1.00  0.00     0.031 C 
ATOM     66  C   UNL A   1      48.256  27.039  26.817  1.00  0.00     0.037 A 
BRANCH  53  67
ATOM     67  C   UNL A   1      46.374  32.749  28.214  1.00  0.00     0.058 A 
ATOM     68  C   UNL A   1      46.210  33.676  27.174  1.00  0.00     0.135 A 
ATOM     69  C   UNL A   1      46.821  33.228  29.456  1.00  0.00     0.135 A 
ATOM     70  F   UNL A   1      45.805  33.267  25.961  1.00  0.00    -0.206 F 
ATOM     71  C   UNL A   1      46.481  35.028  27.359  1.00  0.00     0.059 A 
ATOM     72  C   UNL A   1      47.077  34.578  29.670  1.00  0.00     0.059 A 
ATOM     73  F   UNL A   1      46.998  32.381  30.483  1.00  0.00    -0.206 F 
ATOM     74  C   UNL A   1      46.908  35.471  28.613  1.00  0.00     0.060 A 
BRANCH  74  75
ATOM     75  S   UNL A   1      47.214  37.235  28.853  1.00  0.00     0.124 S 
ATOM     76  O   UNL A   1      45.937  37.810  28.443  1.00  0.00    -0.237 OA
ATOM     77  O   UNL A   1      47.515  37.311  30.280  1.00  0.00    -0.237 OA
ATOM     78  O   UNL A   1      48.338  37.509  27.963  1.00  0.00    -0.744 OA
ENDBRANCH  74  75
ENDBRANCH  53  67
BRANCH  54  79
ATOM     79  C   UNL A   1      43.545  23.236  26.937  1.00  0.00     0.058 A 
ATOM     80  C   UNL A   1      43.233  22.352  27.980  1.00  0.00     0.135 A 
ATOM     81  C   UNL A   1      43.456  22.753  25.622  1.00  0.00     0.135 A 
ATOM     82  F   UNL A   1      43.311  22.765  29.254  1.00  0.00    -0.206 F 
ATOM     83  C   UNL A   1      42.874  21.031  27.732  1.00  0.00     0.059 A 
ATOM     84  C   UNL A   1      43.073  21.445  25.347  1.00  0.00     0.059 A 
ATOM     85  F   UNL A   1      43.728  23.563  24.587  1.00  0.00    -0.206 F 
ATOM     86  C   UNL A   1      42.801  20.585  26.410  1.00  0.00     0.060 A 
BRANCH  86  87
ATOM     87  S   UNL A   1      42.322  18.875  26.088  1.00  0.00     0.124 S 
ATOM     88  O   UNL A   1      43.246  18.509  25.021  1.00  0.00    -0.237 OA
ATOM     89  O   UNL A   1      42.554  18.236  27.380  1.00  0.00    -0.237 OA
ATOM     90  O   UNL A   1      40.920  18.990  25.698  1.00  0.00    -0.744 OA
ENDBRANCH  86  87
ENDBRANCH  54  79
BRANCH  66  91
ATOM     91  C   UNL A   1      49.639  26.576  26.466  1.00  0.00     0.058 A 
ATOM     92  C   UNL A   1      50.471  25.966  27.416  1.00  0.00     0.135 A 
ATOM     93  C   UNL A   1      50.120  26.706  25.153  1.00  0.00     0.135 A 
ATOM     94  F   UNL A   1      50.060  25.827  28.686  1.00  0.00    -0.206 F 
ATOM     95  C   UNL A   1      51.744  25.516  27.080  1.00  0.00     0.059 A 
ATOM     96  C   UNL A   1      51.379  26.242  24.790  1.00  0.00     0.059 A 
ATOM     97  F   UNL A   1      49.356  27.275  24.207  1.00  0.00    -0.206 F 
ATOM     98  C   UNL A   1      52.188  25.659  25.764  1.00  0.00     0.060 A 
BRANCH  98  99
ATOM     99  S   UNL A   1      53.828  25.039  25.330  1.00  0.00     0.124 S 
ATOM    100  O   UNL A   1      54.015  25.610  24.001  1.00  0.00    -0.237 OA
ATOM    101  O   UNL A   1      54.667  25.600  26.385  1.00  0.00    -0.237 OA
ATOM    102  O   UNL A   1      53.664  23.588  25.374  1.00  0.00    -0.744 OA
ENDBRANCH  98  99
ENDBRANCH  66  91
ENDBRANCH  40  41
ENDBRANCH  33  35
ENDBRANCH  32  33
ENDBRANCH  31  32
ENDBRANCH   1  31
TORSDOF 20
ENDMDL
MODEL 3
REMARK VINA RESULT:     -11.0      5.382     10.802
REMARK SMILES O=CN1CC[NH+](C[C@@H](CC(=O)Nc2ccc(C(F)(F)F)nc2)C(=O)OCCOC(=O)c2ccc(-c3c4nc(c(-c5c(F)cc(S(=O)(=O)[O-])cc5F)c5ccc([nH]5)c(-c5c(F)cc(S(=O)(=O)[O-])cc5F)c5nc(c(-c6c(F)cc(S(=O)(=O)[O-])cc6F)c6ccc3[nH]6)C=C5)C=C4)cc2)CC1
REMARK SMILES IDX 26 1 25 2 23 3 24 4 8 5 7 6 6 7 1 8 2 9 3 10 4 11 98 12 5 13
REMARK SMILES IDX 97 14 9 16 10 17 11 18 12 19 13 21 14 22 22 23 15 24 21 25
REMARK SMILES IDX 16 26 17 27 18 28 19 29 20 30 27 31 28 32 29 33 30 34 31 35
REMARK SMILES IDX 32 36 96 37 33 38 95 39 34 40 35 41 36 42 89 43 37 44 94 45
REMARK SMILES IDX 88 46 90 47 38 48 93 49 87 50 86 51 39 53 73 54 52 55 72 56
REMARK SMILES IDX 53 57 56 58 71 59 91 60 54 61 55 62 70 64 92 65 57 66 40 67
REMARK SMILES IDX 41 68 50 69 42 70 43 71 49 72 51 73 44 74 45 75 46 76 47 77
REMARK SMILES IDX 48 78 74 79 75 80 84 81 76 82 77 83 83 84 85 85 78 86 79 87
REMARK SMILES IDX 80 88 81 89 82 90 58 91 59 92 68 93 60 94 61 95 67 96 69 97
REMARK SMILES IDX 62 98 63 99 64 100 65 101 66 102
REMARK H PARENT 6 15 12 20 90 52 56 63
REMARK Flexibility Score: inf
ROOT
ATOM      1  C   UNL A   1      38.196  21.967  25.718  1.00  0.00     0.274 C 
ENDROOT
BRANCH   1   2
ATOM      2  O   UNL A   1      37.155  22.753  26.341  1.00  0.00    -0.462 OA
BRANCH   2   3
ATOM      3  C   UNL A   1      36.380  23.492  25.505  1.00  0.00     0.315 C 
ATOM      4  O   UNL A   1      36.745  23.916  24.415  1.00  0.00    -0.252 OA
BRANCH   3   5
ATOM      5  C   UNL A   1      34.971  23.737  26.041  1.00  0.00     0.163 C 
BRANCH   5   6
ATOM      6  C   UNL A   1      34.218  24.670  25.076  1.00  0.00     0.278 C 
BRANCH   6   7
ATOM      7  N   UNL A   1      33.587  24.257  23.809  1.00  0.00    -0.331 N 
ATOM      8  O   UNL A   1      30.661  28.042  21.982  1.00  0.00    -0.279 OA
ATOM      9  C   UNL A   1      30.491  26.997  22.595  1.00  0.00     0.340 C 
ATOM     10  N   UNL A   1      31.482  26.129  22.997  1.00  0.00    -0.334 N 
ATOM     11  C   UNL A   1      31.173  25.022  23.885  1.00  0.00     0.180 C 
ATOM     12  C   UNL A   1      32.890  26.478  22.796  1.00  0.00     0.180 C 
ATOM     13  C   UNL A   1      32.175  23.871  23.760  1.00  0.00     0.284 C 
ATOM     14  C   UNL A   1      33.818  25.246  22.720  1.00  0.00     0.284 C 
ATOM     15  H   UNL A   1      34.082  23.374  23.686  1.00  0.00     0.348 HD
ENDBRANCH   6   7
ENDBRANCH   5   6
BRANCH   5  16
ATOM     16  C   UNL A   1      34.322  22.445  26.548  1.00  0.00     0.121 C 
BRANCH  16  17
ATOM     17  C   UNL A   1      32.820  22.376  26.740  1.00  0.00     0.225 C 
ATOM     18  O   UNL A   1      32.257  23.181  27.488  1.00  0.00    -0.275 OA
ATOM     19  N   UNL A   1      32.037  21.475  26.078  1.00  0.00    -0.325 N 
ATOM     20  H   UNL A   1      31.073  21.676  26.049  1.00  0.00     0.169 HD
BRANCH  19  21
ATOM     21  C   UNL A   1      32.441  20.303  25.438  1.00  0.00     0.059 A 
ATOM     22  C   UNL A   1      32.763  19.202  26.221  1.00  0.00     0.030 A 
ATOM     23  C   UNL A   1      32.467  20.155  24.058  1.00  0.00     0.137 A 
ATOM     24  C   UNL A   1      33.240  18.046  25.609  1.00  0.00     0.035 A 
ATOM     25  N   UNL A   1      32.875  19.024  23.431  1.00  0.00    -0.250 NA
ATOM     26  C   UNL A   1      33.318  17.992  24.215  1.00  0.00     0.144 A 
BRANCH  26  27
ATOM     27  C   UNL A   1      33.916  16.742  23.576  1.00  0.00     0.433 C 
ATOM     28  F   UNL A   1      33.031  15.701  23.559  1.00  0.00    -0.165 F 
ATOM     29  F   UNL A   1      34.319  16.908  22.285  1.00  0.00    -0.165 F 
ATOM     30  F   UNL A   1      35.010  16.276  24.249  1.00  0.00    -0.165 F 
ENDBRANCH  26  27
ENDBRANCH  19  21
ENDBRANCH  16  17
ENDBRANCH   5  16
ENDBRANCH   3   5
ENDBRANCH   2   3
ENDBRANCH   1   2
BRANCH   1  31
ATOM     31  C   UNL A   1      39.598  22.436  26.112  1.00  0.00     0.275 C 
BRANCH  31  32
ATOM     32  O   UNL A   1      39.555  23.519  27.058  1.00  0.00    -0.458 OA
BRANCH  32  33
ATOM     33  C   UNL A   1      40.655  24.305  27.055  1.00  0.00     0.338 C 
ATOM     34  O   UNL A   1      41.667  24.154  26.392  1.00  0.00    -0.246 OA
BRANCH  33  35
ATOM     35  C   UNL A   1      40.437  25.482  27.905  1.00  0.00     0.060 A 
ATOM     36  C   UNL A   1      41.463  26.421  27.982  1.00  0.00     0.016 A 
ATOM     37  C   UNL A   1      39.316  25.594  28.727  1.00  0.00     0.016 A 
ATOM     38  C   UNL A   1      41.440  27.407  28.956  1.00  0.00     0.010 A 
ATOM     39  C   UNL A   1      39.251  26.645  29.650  1.00  0.00     0.010 A 
ATOM     40  C   UNL A   1      40.329  27.537  29.798  1.00  0.00    -0.014 A 
BRANCH  40  41
ATOM     41  C   UNL A   1      40.317  28.608  30.827  1.00  0.00     0.031 A 
ATOM     42  C   UNL A   1      41.265  28.546  31.995  1.00  0.00     0.074 A 
ATOM     43  C   UNL A   1      39.467  29.647  30.695  1.00  0.00     0.049 A 
ATOM     44  N   UNL A   1      41.316  29.308  33.055  1.00  0.00    -0.248 NA
ATOM     45  C   UNL A   1      42.282  27.482  31.972  1.00  0.00     0.031 C 
ATOM     46  C   UNL A   1      38.527  29.838  29.588  1.00  0.00     0.029 A 
ATOM     47  N   UNL A   1      39.255  30.738  31.499  1.00  0.00    -0.354 N 
ATOM     48  C   UNL A   1      42.334  28.792  33.847  1.00  0.00     0.074 A 
ATOM     49  C   UNL A   1      42.879  27.651  33.145  1.00  0.00     0.031 C 
ATOM     50  C   UNL A   1      37.849  30.980  29.774  1.00  0.00     0.029 A 
ATOM     51  C   UNL A   1      38.252  31.566  31.047  1.00  0.00     0.049 A 
ATOM     52  H   UNL A   1      39.769  30.913  32.319  1.00  0.00     0.167 HD
ATOM     53  C   UNL A   1      42.769  29.233  35.051  1.00  0.00     0.037 A 
ATOM     54  C   UNL A   1      37.688  32.648  31.615  1.00  0.00     0.037 A 
ATOM     55  C   UNL A   1      42.257  30.406  35.713  1.00  0.00     0.049 A 
ATOM     56  C   UNL A   1      38.182  33.107  32.957  1.00  0.00     0.074 A 
ATOM     57  C   UNL A   1      42.657  30.956  36.919  1.00  0.00     0.029 A 
ATOM     58  N   UNL A   1      41.244  31.215  35.222  1.00  0.00    -0.354 N 
ATOM     59  N   UNL A   1      39.134  32.595  33.702  1.00  0.00    -0.248 NA
ATOM     60  C   UNL A   1      37.523  34.281  33.543  1.00  0.00     0.031 C 
ATOM     61  C   UNL A   1      41.861  32.077  37.174  1.00  0.00     0.029 A 
ATOM     62  C   UNL A   1      40.993  32.248  36.108  1.00  0.00     0.049 A 
ATOM     63  H   UNL A   1      40.772  31.075  34.369  1.00  0.00     0.167 HD
ATOM     64  C   UNL A   1      39.198  33.396  34.836  1.00  0.00     0.074 A 
ATOM     65  C   UNL A   1      38.201  34.434  34.673  1.00  0.00     0.031 C 
ATOM     66  C   UNL A   1      40.004  33.279  35.919  1.00  0.00     0.037 A 
BRANCH  53  67
ATOM     67  C   UNL A   1      43.832  28.439  35.757  1.00  0.00     0.058 A 
ATOM     68  C   UNL A   1      43.519  27.379  36.620  1.00  0.00     0.135 A 
ATOM     69  C   UNL A   1      45.188  28.696  35.497  1.00  0.00     0.135 A 
ATOM     70  F   UNL A   1      42.239  27.104  36.917  1.00  0.00    -0.206 F 
ATOM     71  C   UNL A   1      44.515  26.602  37.204  1.00  0.00     0.059 A 
ATOM     72  C   UNL A   1      46.199  27.919  36.053  1.00  0.00     0.059 A 
ATOM     73  F   UNL A   1      45.541  29.703  34.681  1.00  0.00    -0.206 F 
ATOM     74  C   UNL A   1      45.853  26.876  36.910  1.00  0.00     0.060 A 
BRANCH  74  75
ATOM     75  S   UNL A   1      47.133  25.833  37.640  1.00  0.00     0.124 S 
ATOM     76  O   UNL A   1      48.222  25.994  36.682  1.00  0.00    -0.237 OA
ATOM     77  O   UNL A   1      47.340  26.457  38.944  1.00  0.00    -0.237 OA
ATOM     78  O   UNL A   1      46.517  24.511  37.672  1.00  0.00    -0.744 OA
ENDBRANCH  74  75
ENDBRANCH  53  67
BRANCH  54  79
ATOM     79  C   UNL A   1      36.549  33.332  30.946  1.00  0.00     0.058 A 
ATOM     80  C   UNL A   1      36.750  34.173  29.842  1.00  0.00     0.135 A 
ATOM     81  C   UNL A   1      35.235  33.169  31.413  1.00  0.00     0.135 A 
ATOM     82  F   UNL A   1      37.988  34.366  29.364  1.00  0.00    -0.206 F 
ATOM     83  C   UNL A   1      35.693  34.848  29.239  1.00  0.00     0.059 A 
ATOM     84  C   UNL A   1      34.159  33.811  30.811  1.00  0.00     0.059 A 
ATOM     85  F   UNL A   1      34.986  32.363  32.457  1.00  0.00    -0.206 F 
ATOM     86  C   UNL A   1      34.400  34.664  29.735  1.00  0.00     0.060 A 
BRANCH  86  87
ATOM     87  S   UNL A   1      33.028  35.530  28.944  1.00  0.00     0.124 S 
ATOM     88  O   UNL A   1      32.432  34.466  28.145  1.00  0.00    -0.237 OA
ATOM     89  O   UNL A   1      32.245  35.986  30.088  1.00  0.00    -0.237 OA
ATOM     90  O   UNL A   1      33.694  36.588  28.189  1.00  0.00    -0.744 OA
ENDBRANCH  86  87
ENDBRANCH  54  79
BRANCH  66  91
ATOM     91  C   UNL A   1      39.865  34.318  36.992  1.00  0.00     0.058 A 
ATOM     92  C   UNL A   1      40.590  35.518  36.950  1.00  0.00     0.135 A 
ATOM     93  C   UNL A   1      38.963  34.129  38.051  1.00  0.00     0.135 A 
ATOM     94  F   UNL A   1      41.471  35.741  35.962  1.00  0.00    -0.206 F 
ATOM     95  C   UNL A   1      40.440  36.489  37.934  1.00  0.00     0.059 A 
ATOM     96  C   UNL A   1      38.779  35.096  39.032  1.00  0.00     0.059 A 
ATOM     97  F   UNL A   1      38.239  33.001  38.130  1.00  0.00    -0.206 F 
ATOM     98  C   UNL A   1      39.531  36.269  38.971  1.00  0.00     0.060 A 
BRANCH  98  99
ATOM     99  S   UNL A   1      39.317  37.551  40.223  1.00  0.00     0.124 S 
ATOM    100  O   UNL A   1      38.859  36.771  41.367  1.00  0.00    -0.237 OA
ATOM    101  O   UNL A   1      40.660  38.111  40.336  1.00  0.00    -0.237 OA
ATOM    102  O   UNL A   1      38.322  38.441  39.630  1.00  0.00    -0.744 OA
ENDBRANCH  98  99
ENDBRANCH  66  91
ENDBRANCH  40  41
ENDBRANCH  33  35
ENDBRANCH  32  33
ENDBRANCH  31  32
ENDBRANCH   1  31
TORSDOF 20
ENDMDL
