MODEL 1
REMARK VINA RESULT:     -12.3      0.000      0.000
REMARK SMILES O=C(CCC(=O)OCCOC(=O)c1ccc(-c2c3nc(c(-c4c(F)cc(S(=O)(=O)[O-])cc4F)c4ccc([nH]4)c(-c4c(F)cc(S(=O)(=O)[O-])cc4F)c4nc(c(-c5c(F)cc(S(=O)(=O)[O-])cc5F)c5ccc2[nH]5)C=C4)C=C3)cc1)Nc1cccc2c1C(=O)c1ccccc1C2=O
REMARK SMILES IDX 8 1 7 2 5 3 6 4 4 5 3 6 2 7 1 8 79 9 80 11 81 12 85 13 82 14
REMARK SMILES IDX 84 15 86 16 83 17 94 18 87 19 88 20 93 21 95 22 89 23 92 24
REMARK SMILES IDX 90 25 91 26 9 27 10 28 11 29 12 30 13 31 14 32 78 33 15 34
REMARK SMILES IDX 77 35 16 36 17 37 18 38 71 39 19 40 76 41 70 42 72 43 20 44
REMARK SMILES IDX 75 45 69 46 68 47 21 49 55 50 34 51 54 52 35 53 38 54 53 55
REMARK SMILES IDX 73 56 36 57 37 58 52 60 74 61 39 62 22 63 23 64 32 65 24 66
REMARK SMILES IDX 25 67 31 68 33 69 26 70 27 71 28 72 29 73 30 74 56 75 57 76
REMARK SMILES IDX 66 77 58 78 59 79 65 80 67 81 60 82 61 83 62 84 63 85 64 86
REMARK SMILES IDX 40 87 41 88 50 89 42 90 43 91 49 92 51 93 44 94 45 95 46 96
REMARK SMILES IDX 47 97 48 98
REMARK H PARENT 79 10 72 48 38 59
REMARK Flexibility Score: inf
ROOT
ATOM      1  C   UNL A   1      39.618  21.436  26.131  1.00  0.00     0.274 C 
ENDROOT
BRANCH   1   2
ATOM      2  O   UNL A   1      38.542  22.071  25.402  1.00  0.00    -0.462 OA
BRANCH   2   3
ATOM      3  C   UNL A   1      37.418  21.332  25.193  1.00  0.00     0.306 C 
ATOM      4  O   UNL A   1      37.398  20.246  24.631  1.00  0.00    -0.252 OA
BRANCH   3   5
ATOM      5  C   UNL A   1      36.163  22.077  25.608  1.00  0.00     0.132 C 
BRANCH   5   6
ATOM      6  C   UNL A   1      34.855  21.346  25.326  1.00  0.00     0.112 C 
BRANCH   6   7
ATOM      7  C   UNL A   1      33.931  21.903  24.238  1.00  0.00     0.224 C 
ATOM      8  O   UNL A   1      32.797  21.445  24.108  1.00  0.00    -0.275 OA
ATOM      9  N   UNL A   1      34.383  23.065  23.634  1.00  0.00    -0.325 N 
ATOM     10  H   UNL A   1      35.330  23.118  23.370  1.00  0.00     0.169 HD
BRANCH   9  11
ATOM     11  C   UNL A   1      33.543  24.181  23.380  1.00  0.00     0.053 A 
ATOM     12  C   UNL A   1      32.879  24.112  22.147  1.00  0.00     0.027 A 
ATOM     13  C   UNL A   1      33.671  25.427  23.996  1.00  0.00     0.057 A 
ATOM     14  C   UNL A   1      32.671  25.270  21.399  1.00  0.00     0.003 A 
ATOM     15  C   UNL A   1      33.596  26.564  23.197  1.00  0.00     0.036 A 
ATOM     16  C   UNL A   1      33.306  25.599  25.437  1.00  0.00     0.196 C 
ATOM     17  C   UNL A   1      33.128  26.491  21.883  1.00  0.00     0.013 A 
ATOM     18  C   UNL A   1      33.839  27.880  23.793  1.00  0.00     0.194 C 
ATOM     19  O   UNL A   1      33.122  24.644  26.182  1.00  0.00    -0.288 OA
ATOM     20  C   UNL A   1      32.935  26.970  25.898  1.00  0.00     0.034 A 
ATOM     21  C   UNL A   1      33.283  28.084  25.134  1.00  0.00     0.034 A 
ATOM     22  O   UNL A   1      34.352  28.786  23.150  1.00  0.00    -0.289 OA
ATOM     23  C   UNL A   1      32.131  27.154  27.028  1.00  0.00     0.013 A 
ATOM     24  C   UNL A   1      32.919  29.378  25.521  1.00  0.00     0.013 A 
ATOM     25  C   UNL A   1      31.704  28.441  27.383  1.00  0.00     0.001 A 
ATOM     26  C   UNL A   1      32.116  29.552  26.644  1.00  0.00     0.001 A 
ENDBRANCH   9  11
ENDBRANCH   6   7
ENDBRANCH   5   6
ENDBRANCH   3   5
ENDBRANCH   2   3
ENDBRANCH   1   2
BRANCH   1  27
ATOM     27  C   UNL A   1      40.406  22.433  26.985  1.00  0.00     0.275 C 
BRANCH  27  28
ATOM     28  O   UNL A   1      40.065  23.787  26.650  1.00  0.00    -0.458 OA
BRANCH  28  29
ATOM     29  C   UNL A   1      41.114  24.636  26.546  1.00  0.00     0.338 C 
ATOM     30  O   UNL A   1      41.927  24.679  25.641  1.00  0.00    -0.246 OA
BRANCH  29  31
ATOM     31  C   UNL A   1      41.053  25.622  27.640  1.00  0.00     0.060 A 
ATOM     32  C   UNL A   1      39.884  25.673  28.407  1.00  0.00     0.016 A 
ATOM     33  C   UNL A   1      42.113  26.497  27.900  1.00  0.00     0.016 A 
ATOM     34  C   UNL A   1      39.770  26.603  29.437  1.00  0.00     0.010 A 
ATOM     35  C   UNL A   1      41.994  27.432  28.930  1.00  0.00     0.010 A 
ATOM     36  C   UNL A   1      40.819  27.494  29.698  1.00  0.00    -0.014 A 
BRANCH  36  37
ATOM     37  C   UNL A   1      40.671  28.514  30.758  1.00  0.00     0.031 A 
ATOM     38  C   UNL A   1      41.545  28.457  31.976  1.00  0.00     0.074 A 
ATOM     39  C   UNL A   1      39.757  29.491  30.618  1.00  0.00     0.049 A 
ATOM     40  N   UNL A   1      41.558  29.245  33.019  1.00  0.00    -0.248 NA
ATOM     41  C   UNL A   1      42.534  27.369  32.026  1.00  0.00     0.031 C 
ATOM     42  C   UNL A   1      38.864  29.652  29.472  1.00  0.00     0.029 A 
ATOM     43  N   UNL A   1      39.429  30.529  31.451  1.00  0.00    -0.354 N 
ATOM     44  C   UNL A   1      42.550  28.748  33.854  1.00  0.00     0.074 A 
ATOM     45  C   UNL A   1      43.106  27.580  33.202  1.00  0.00     0.031 C 
ATOM     46  C   UNL A   1      38.081  30.724  29.677  1.00  0.00     0.029 A 
ATOM     47  C   UNL A   1      38.406  31.312  30.975  1.00  0.00     0.049 A 
ATOM     48  H   UNL A   1      39.882  30.697  32.308  1.00  0.00     0.167 HD
ATOM     49  C   UNL A   1      42.963  29.228  35.052  1.00  0.00     0.037 A 
ATOM     50  C   UNL A   1      37.793  32.374  31.529  1.00  0.00     0.037 A 
ATOM     51  C   UNL A   1      42.407  30.388  35.696  1.00  0.00     0.049 A 
ATOM     52  C   UNL A   1      38.249  32.872  32.871  1.00  0.00     0.074 A 
ATOM     53  C   UNL A   1      42.769  30.960  36.903  1.00  0.00     0.029 A 
ATOM     54  N   UNL A   1      41.366  31.150  35.188  1.00  0.00    -0.354 N 
ATOM     55  N   UNL A   1      39.203  32.406  33.640  1.00  0.00    -0.248 NA
ATOM     56  C   UNL A   1      37.547  34.039  33.421  1.00  0.00     0.031 C 
ATOM     57  C   UNL A   1      41.928  32.056  37.136  1.00  0.00     0.029 A 
ATOM     58  C   UNL A   1      41.060  32.179  36.062  1.00  0.00     0.049 A 
ATOM     59  H   UNL A   1      40.911  30.983  34.330  1.00  0.00     0.167 HD
ATOM     60  C   UNL A   1      39.225  33.227  34.760  1.00  0.00     0.074 A 
ATOM     61  C   UNL A   1      38.193  34.226  34.565  1.00  0.00     0.031 C 
ATOM     62  C   UNL A   1      40.027  33.161  35.851  1.00  0.00     0.037 A 
BRANCH  49  63
ATOM     63  C   UNL A   1      44.059  28.473  35.744  1.00  0.00     0.058 A 
ATOM     64  C   UNL A   1      45.411  28.758  35.499  1.00  0.00     0.135 A 
ATOM     65  C   UNL A   1      43.755  27.451  36.656  1.00  0.00     0.135 A 
ATOM     66  F   UNL A   1      45.752  29.715  34.621  1.00  0.00    -0.206 F 
ATOM     67  C   UNL A   1      46.427  28.034  36.114  1.00  0.00     0.059 A 
ATOM     68  C   UNL A   1      44.754  26.726  37.294  1.00  0.00     0.059 A 
ATOM     69  F   UNL A   1      42.476  27.139  36.919  1.00  0.00    -0.206 F 
ATOM     70  C   UNL A   1      46.088  27.012  37.003  1.00  0.00     0.060 A 
BRANCH  70  71
ATOM     71  S   UNL A   1      47.409  26.057  37.780  1.00  0.00     0.124 S 
ATOM     72  O   UNL A   1      48.578  26.871  37.461  1.00  0.00    -0.237 OA
ATOM     73  O   UNL A   1      47.011  26.045  39.184  1.00  0.00    -0.237 OA
ATOM     74  O   UNL A   1      47.335  24.768  37.101  1.00  0.00    -0.744 OA
ENDBRANCH  70  71
ENDBRANCH  49  63
BRANCH  50  75
ATOM     75  C   UNL A   1      36.678  33.033  30.806  1.00  0.00     0.058 A 
ATOM     76  C   UNL A   1      35.347  32.836  31.198  1.00  0.00     0.135 A 
ATOM     77  C   UNL A   1      36.928  33.909  29.739  1.00  0.00     0.135 A 
ATOM     78  F   UNL A   1      35.062  32.001  32.210  1.00  0.00    -0.206 F 
ATOM     79  C   UNL A   1      34.298  33.486  30.557  1.00  0.00     0.059 A 
ATOM     80  C   UNL A   1      35.897  34.582  29.093  1.00  0.00     0.059 A 
ATOM     81  F   UNL A   1      38.188  34.138  29.338  1.00  0.00    -0.206 F 
ATOM     82  C   UNL A   1      34.583  34.361  29.507  1.00  0.00     0.060 A 
BRANCH  82  83
ATOM     83  S   UNL A   1      33.227  35.266  28.729  1.00  0.00     0.124 S 
ATOM     84  O   UNL A   1      32.566  34.211  27.974  1.00  0.00    -0.237 OA
ATOM     85  O   UNL A   1      32.495  35.783  29.881  1.00  0.00    -0.237 OA
ATOM     86  O   UNL A   1      33.919  36.278  27.934  1.00  0.00    -0.744 OA
ENDBRANCH  82  83
ENDBRANCH  50  75
BRANCH  62  87
ATOM     87  C   UNL A   1      39.825  34.203  36.913  1.00  0.00     0.058 A 
ATOM     88  C   UNL A   1      39.055  33.939  38.055  1.00  0.00     0.135 A 
ATOM     89  C   UNL A   1      40.444  35.458  36.807  1.00  0.00     0.135 A 
ATOM     90  F   UNL A   1      38.440  32.754  38.196  1.00  0.00    -0.206 F 
ATOM     91  C   UNL A   1      38.893  34.892  39.055  1.00  0.00     0.059 A 
ATOM     92  C   UNL A   1      40.307  36.420  37.802  1.00  0.00     0.059 A 
ATOM     93  F   UNL A   1      41.195  35.753  35.734  1.00  0.00    -0.206 F 
ATOM     94  C   UNL A   1      39.522  36.132  38.918  1.00  0.00     0.060 A 
BRANCH  94  95
ATOM     95  S   UNL A   1      39.338  37.354  40.235  1.00  0.00     0.124 S 
ATOM     96  O   UNL A   1      40.726  37.732  40.478  1.00  0.00    -0.237 OA
ATOM     97  O   UNL A   1      38.503  38.375  39.608  1.00  0.00    -0.237 OA
ATOM     98  O   UNL A   1      38.693  36.599  41.306  1.00  0.00    -0.744 OA
ENDBRANCH  94  95
ENDBRANCH  62  87
ENDBRANCH  36  37
ENDBRANCH  29  31
ENDBRANCH  28  29
ENDBRANCH  27  28
ENDBRANCH   1  27
TORSDOF 17
ENDMDL
MODEL 2
REMARK VINA RESULT:     -12.2      6.310     11.855
REMARK SMILES O=C(CCC(=O)OCCOC(=O)c1ccc(-c2c3nc(c(-c4c(F)cc(S(=O)(=O)[O-])cc4F)c4ccc([nH]4)c(-c4c(F)cc(S(=O)(=O)[O-])cc4F)c4nc(c(-c5c(F)cc(S(=O)(=O)[O-])cc5F)c5ccc2[nH]5)C=C4)C=C3)cc1)Nc1cccc2c1C(=O)c1ccccc1C2=O
REMARK SMILES IDX 8 1 7 2 5 3 6 4 4 5 3 6 2 7 1 8 79 9 80 11 81 12 85 13 82 14
REMARK SMILES IDX 84 15 86 16 83 17 94 18 87 19 88 20 93 21 95 22 89 23 92 24
REMARK SMILES IDX 90 25 91 26 9 27 10 28 11 29 12 30 13 31 14 32 78 33 15 34
REMARK SMILES IDX 77 35 16 36 17 37 18 38 71 39 19 40 76 41 70 42 72 43 20 44
REMARK SMILES IDX 75 45 69 46 68 47 21 49 55 50 34 51 54 52 35 53 38 54 53 55
REMARK SMILES IDX 73 56 36 57 37 58 52 60 74 61 39 62 22 63 23 64 32 65 24 66
REMARK SMILES IDX 25 67 31 68 33 69 26 70 27 71 28 72 29 73 30 74 56 75 57 76
REMARK SMILES IDX 66 77 58 78 59 79 65 80 67 81 60 82 61 83 62 84 63 85 64 86
REMARK SMILES IDX 40 87 41 88 50 89 42 90 43 91 49 92 51 93 44 94 45 95 46 96
REMARK SMILES IDX 47 97 48 98
REMARK H PARENT 79 10 72 48 38 59
REMARK Flexibility Score: inf
ROOT
ATOM      1  C   UNL A   1      34.530  32.119  27.949  1.00  0.00     0.274 C 
ENDROOT
BRANCH   1   2
ATOM      2  O   UNL A   1      34.343  30.804  27.376  1.00  0.00    -0.462 OA
BRANCH   2   3
ATOM      3  C   UNL A   1      33.133  30.544  26.809  1.00  0.00     0.306 C 
ATOM      4  O   UNL A   1      32.128  31.220  26.979  1.00  0.00    -0.252 OA
BRANCH   3   5
ATOM      5  C   UNL A   1      33.132  29.230  26.050  1.00  0.00     0.132 C 
BRANCH   5   6
ATOM      6  C   UNL A   1      32.028  29.085  25.009  1.00  0.00     0.112 C 
BRANCH   6   7
ATOM      7  C   UNL A   1      31.212  27.788  24.989  1.00  0.00     0.224 C 
ATOM      8  O   UNL A   1      30.540  27.506  23.998  1.00  0.00    -0.275 OA
ATOM      9  N   UNL A   1      31.494  26.912  26.024  1.00  0.00    -0.325 N 
ATOM     10  H   UNL A   1      31.580  27.274  26.935  1.00  0.00     0.169 HD
BRANCH   9  11
ATOM     11  C   UNL A   1      31.664  25.516  25.828  1.00  0.00     0.053 A 
ATOM     12  C   UNL A   1      30.476  24.784  25.957  1.00  0.00     0.027 A 
ATOM     13  C   UNL A   1      32.878  24.839  25.958  1.00  0.00     0.057 A 
ATOM     14  C   UNL A   1      30.494  23.517  26.540  1.00  0.00     0.003 A 
ATOM     15  C   UNL A   1      32.888  23.641  26.667  1.00  0.00     0.036 A 
ATOM     16  C   UNL A   1      33.958  25.019  24.938  1.00  0.00     0.196 C 
ATOM     17  C   UNL A   1      31.698  22.988  26.992  1.00  0.00     0.013 A 
ATOM     18  C   UNL A   1      34.163  22.965  26.919  1.00  0.00     0.194 C 
ATOM     19  O   UNL A   1      33.927  25.920  24.108  1.00  0.00    -0.288 OA
ATOM     20  C   UNL A   1      34.966  23.927  24.796  1.00  0.00     0.034 A 
ATOM     21  C   UNL A   1      35.124  22.984  25.812  1.00  0.00     0.034 A 
ATOM     22  O   UNL A   1      34.348  22.312  27.937  1.00  0.00    -0.289 OA
ATOM     23  C   UNL A   1      35.676  23.755  23.602  1.00  0.00     0.013 A 
ATOM     24  C   UNL A   1      36.034  21.929  25.693  1.00  0.00     0.013 A 
ATOM     25  C   UNL A   1      36.537  22.661  23.451  1.00  0.00     0.001 A 
ATOM     26  C   UNL A   1      36.733  21.762  24.502  1.00  0.00     0.001 A 
ENDBRANCH   9  11
ENDBRANCH   6   7
ENDBRANCH   5   6
ENDBRANCH   3   5
ENDBRANCH   2   3
ENDBRANCH   1   2
BRANCH   1  27
ATOM     27  C   UNL A   1      34.894  32.057  29.435  1.00  0.00     0.275 C 
BRANCH  27  28
ATOM     28  O   UNL A   1      35.624  30.859  29.741  1.00  0.00    -0.458 OA
BRANCH  28  29
ATOM     29  C   UNL A   1      36.538  30.979  30.732  1.00  0.00     0.338 C 
ATOM     30  O   UNL A   1      36.326  31.329  31.879  1.00  0.00    -0.246 OA
BRANCH  29  31
ATOM     31  C   UNL A   1      37.841  30.479  30.256  1.00  0.00     0.060 A 
ATOM     32  C   UNL A   1      38.795  30.131  31.217  1.00  0.00     0.016 A 
ATOM     33  C   UNL A   1      38.131  30.371  28.892  1.00  0.00     0.016 A 
ATOM     34  C   UNL A   1      40.048  29.675  30.817  1.00  0.00     0.010 A 
ATOM     35  C   UNL A   1      39.391  29.918  28.493  1.00  0.00     0.010 A 
ATOM     36  C   UNL A   1      40.357  29.575  29.454  1.00  0.00    -0.014 A 
BRANCH  36  37
ATOM     37  C   UNL A   1      41.707  29.141  29.035  1.00  0.00     0.031 A 
ATOM     38  C   UNL A   1      42.840  30.123  29.036  1.00  0.00     0.074 A 
ATOM     39  C   UNL A   1      41.910  27.865  28.662  1.00  0.00     0.049 A 
ATOM     40  N   UNL A   1      44.088  29.944  28.688  1.00  0.00    -0.248 NA
ATOM     41  C   UNL A   1      42.528  31.489  29.486  1.00  0.00     0.031 C 
ATOM     42  C   UNL A   1      40.885  26.822  28.635  1.00  0.00     0.029 A 
ATOM     43  N   UNL A   1      43.047  27.233  28.231  1.00  0.00    -0.354 N 
ATOM     44  C   UNL A   1      44.711  31.170  28.873  1.00  0.00     0.074 A 
ATOM     45  C   UNL A   1      43.699  32.092  29.346  1.00  0.00     0.031 C 
ATOM     46  C   UNL A   1      41.440  25.677  28.201  1.00  0.00     0.029 A 
ATOM     47  C   UNL A   1      42.851  25.914  27.904  1.00  0.00     0.049 A 
ATOM     48  H   UNL A   1      43.921  27.681  28.162  1.00  0.00     0.167 HD
ATOM     49  C   UNL A   1      46.011  31.496  28.669  1.00  0.00     0.037 A 
ATOM     50  C   UNL A   1      43.710  25.003  27.410  1.00  0.00     0.037 A 
ATOM     51  C   UNL A   1      47.012  30.577  28.196  1.00  0.00     0.049 A 
ATOM     52  C   UNL A   1      45.140  25.393  27.166  1.00  0.00     0.074 A 
ATOM     53  C   UNL A   1      48.358  30.809  27.974  1.00  0.00     0.029 A 
ATOM     54  N   UNL A   1      46.775  29.251  27.867  1.00  0.00    -0.354 N 
ATOM     55  N   UNL A   1      45.721  26.552  27.365  1.00  0.00    -0.248 NA
ATOM     56  C   UNL A   1      46.032  24.355  26.632  1.00  0.00     0.031 C 
ATOM     57  C   UNL A   1      48.930  29.627  27.487  1.00  0.00     0.029 A 
ATOM     58  C   UNL A   1      47.944  28.654  27.429  1.00  0.00     0.049 A 
ATOM     59  H   UNL A   1      45.902  28.801  27.936  1.00  0.00     0.167 HD
ATOM     60  C   UNL A   1      47.049  26.381  26.991  1.00  0.00     0.074 A 
ATOM     61  C   UNL A   1      47.187  25.004  26.563  1.00  0.00     0.031 C 
ATOM     62  C   UNL A   1      48.060  27.283  27.003  1.00  0.00     0.037 A 
BRANCH  49  63
ATOM     63  C   UNL A   1      46.405  32.917  28.943  1.00  0.00     0.058 A 
ATOM     64  C   UNL A   1      46.341  33.899  27.944  1.00  0.00     0.135 A 
ATOM     65  C   UNL A   1      46.859  33.298  30.214  1.00  0.00     0.135 A 
ATOM     66  F   UNL A   1      45.930  33.579  26.706  1.00  0.00    -0.206 F 
ATOM     67  C   UNL A   1      46.741  35.209  28.188  1.00  0.00     0.059 A 
ATOM     68  C   UNL A   1      47.249  34.605  30.485  1.00  0.00     0.059 A 
ATOM     69  F   UNL A   1      46.943  32.393  31.202  1.00  0.00    -0.206 F 
ATOM     70  C   UNL A   1      47.204  35.550  29.460  1.00  0.00     0.060 A 
BRANCH  70  71
ATOM     71  S   UNL A   1      47.747  37.244  29.767  1.00  0.00     0.124 S 
ATOM     72  O   UNL A   1      46.572  38.003  29.351  1.00  0.00    -0.237 OA
ATOM     73  O   UNL A   1      48.022  37.237  31.200  1.00  0.00    -0.237 OA
ATOM     74  O   UNL A   1      48.920  37.381  28.909  1.00  0.00    -0.744 OA
ENDBRANCH  70  71
ENDBRANCH  49  63
BRANCH  50  75
ATOM     75  C   UNL A   1      43.229  23.632  27.112  1.00  0.00     0.058 A 
ATOM     76  C   UNL A   1      42.938  23.238  25.799  1.00  0.00     0.135 A 
ATOM     77  C   UNL A   1      43.098  22.677  28.131  1.00  0.00     0.135 A 
ATOM     78  F   UNL A   1      43.044  24.121  24.795  1.00  0.00    -0.206 F 
ATOM     79  C   UNL A   1      42.532  21.941  25.504  1.00  0.00     0.059 A 
ATOM     80  C   UNL A   1      42.708  21.370  27.858  1.00  0.00     0.059 A 
ATOM     81  F   UNL A   1      43.378  23.006  29.401  1.00  0.00    -0.206 F 
ATOM     82  C   UNL A   1      42.423  21.012  26.540  1.00  0.00     0.060 A 
BRANCH  82  83
ATOM     83  S   UNL A   1      41.975  19.307  26.145  1.00  0.00     0.124 S 
ATOM     84  O   UNL A   1      40.540  19.426  25.922  1.00  0.00    -0.237 OA
ATOM     85  O   UNL A   1      42.786  19.037  24.961  1.00  0.00    -0.237 OA
ATOM     86  O   UNL A   1      42.372  18.574  27.344  1.00  0.00    -0.744 OA
ENDBRANCH  82  83
ENDBRANCH  50  75
BRANCH  62  87
ATOM     87  C   UNL A   1      49.408  26.804  26.546  1.00  0.00     0.058 A 
ATOM     88  C   UNL A   1      50.305  26.196  27.436  1.00  0.00     0.135 A 
ATOM     89  C   UNL A   1      49.785  26.914  25.199  1.00  0.00     0.135 A 
ATOM     90  F   UNL A   1      49.989  26.074  28.735  1.00  0.00    -0.206 F 
ATOM     91  C   UNL A   1      51.541  25.722  27.008  1.00  0.00     0.059 A 
ATOM     92  C   UNL A   1      51.009  26.435  24.746  1.00  0.00     0.059 A 
ATOM     93  F   UNL A   1      48.957  27.485  24.309  1.00  0.00    -0.206 F 
ATOM     94  C   UNL A   1      51.885  25.848  25.661  1.00  0.00     0.060 A 
BRANCH  94  95
ATOM     95  S   UNL A   1      53.476  25.201  25.102  1.00  0.00     0.124 S 
ATOM     96  O   UNL A   1      53.296  23.768  25.306  1.00  0.00    -0.237 OA
ATOM     97  O   UNL A   1      53.529  25.642  23.711  1.00  0.00    -0.237 OA
ATOM     98  O   UNL A   1      54.433  25.849  25.993  1.00  0.00    -0.744 OA
ENDBRANCH  94  95
ENDBRANCH  62  87
ENDBRANCH  36  37
ENDBRANCH  29  31
ENDBRANCH  28  29
ENDBRANCH  27  28
ENDBRANCH   1  27
TORSDOF 17
ENDMDL
MODEL 3
REMARK VINA RESULT:     -12.2      1.695      2.509
REMARK SMILES O=C(CCC(=O)OCCOC(=O)c1ccc(-c2c3nc(c(-c4c(F)cc(S(=O)(=O)[O-])cc4F)c4ccc([nH]4)c(-c4c(F)cc(S(=O)(=O)[O-])cc4F)c4nc(c(-c5c(F)cc(S(=O)(=O)[O-])cc5F)c5ccc2[nH]5)C=C4)C=C3)cc1)Nc1cccc2c1C(=O)c1ccccc1C2=O
REMARK SMILES IDX 8 1 7 2 5 3 6 4 4 5 3 6 2 7 1 8 79 9 80 11 81 12 85 13 82 14
REMARK SMILES IDX 84 15 86 16 83 17 94 18 87 19 88 20 93 21 95 22 89 23 92 24
REMARK SMILES IDX 90 25 91 26 9 27 10 28 11 29 12 30 13 31 14 32 78 33 15 34
REMARK SMILES IDX 77 35 16 36 17 37 18 38 71 39 19 40 76 41 70 42 72 43 20 44
REMARK SMILES IDX 75 45 69 46 68 47 21 49 55 50 34 51 54 52 35 53 38 54 53 55
REMARK SMILES IDX 73 56 36 57 37 58 52 60 74 61 39 62 22 63 23 64 32 65 24 66
REMARK SMILES IDX 25 67 31 68 33 69 26 70 27 71 28 72 29 73 30 74 56 75 57 76
REMARK SMILES IDX 66 77 58 78 59 79 65 80 67 81 60 82 61 83 62 84 63 85 64 86
REMARK SMILES IDX 40 87 41 88 50 89 42 90 43 91 49 92 51 93 44 94 45 95 46 96
REMARK SMILES IDX 47 97 48 98
REMARK H PARENT 79 10 72 48 38 59
REMARK Flexibility Score: inf
ROOT
ATOM      1  C   UNL A   1      38.230  23.106  26.109  1.00  0.00     0.274 C 
ENDROOT
BRANCH   1   2
ATOM      2  O   UNL A   1      37.401  22.120  25.451  1.00  0.00    -0.462 OA
BRANCH   2   3
ATOM      3  C   UNL A   1      36.053  22.297  25.528  1.00  0.00     0.306 C 
ATOM      4  O   UNL A   1      35.272  21.478  25.990  1.00  0.00    -0.252 OA
BRANCH   3   5
ATOM      5  C   UNL A   1      35.608  23.574  24.839  1.00  0.00     0.132 C 
BRANCH   5   6
ATOM      6  C   UNL A   1      34.850  23.372  23.532  1.00  0.00     0.112 C 
BRANCH   6   7
ATOM      7  C   UNL A   1      33.644  24.274  23.243  1.00  0.00     0.224 C 
ATOM      8  O   UNL A   1      32.580  23.773  22.883  1.00  0.00    -0.275 OA
ATOM      9  N   UNL A   1      33.796  25.589  23.649  1.00  0.00    -0.325 N 
ATOM     10  H   UNL A   1      34.647  26.045  23.455  1.00  0.00     0.169 HD
BRANCH   9  11
ATOM     11  C   UNL A   1      32.780  26.309  24.332  1.00  0.00     0.053 A 
ATOM     12  C   UNL A   1      32.841  26.175  25.726  1.00  0.00     0.027 A 
ATOM     13  C   UNL A   1      31.578  26.723  23.758  1.00  0.00     0.057 A 
ATOM     14  C   UNL A   1      31.666  26.109  26.475  1.00  0.00     0.003 A 
ATOM     15  C   UNL A   1      30.403  26.517  24.475  1.00  0.00     0.036 A 
ATOM     16  C   UNL A   1      31.561  27.834  22.756  1.00  0.00     0.196 C 
ATOM     17  C   UNL A   1      30.437  26.177  25.829  1.00  0.00     0.013 A 
ATOM     18  C   UNL A   1      29.115  26.835  23.854  1.00  0.00     0.194 C 
ATOM     19  O   UNL A   1      32.584  28.252  22.227  1.00  0.00    -0.288 OA
ATOM     20  C   UNL A   1      30.287  28.595  22.586  1.00  0.00     0.034 A 
ATOM     21  C   UNL A   1      29.083  28.055  23.041  1.00  0.00     0.034 A 
ATOM     22  O   UNL A   1      28.105  26.195  24.115  1.00  0.00    -0.289 OA
ATOM     23  C   UNL A   1      30.291  29.901  22.086  1.00  0.00     0.013 A 
ATOM     24  C   UNL A   1      27.879  28.757  22.928  1.00  0.00     0.013 A 
ATOM     25  C   UNL A   1      29.100  30.636  22.035  1.00  0.00     0.001 A 
ATOM     26  C   UNL A   1      27.893  30.057  22.434  1.00  0.00     0.001 A 
ENDBRANCH   9  11
ENDBRANCH   6   7
ENDBRANCH   5   6
ENDBRANCH   3   5
ENDBRANCH   2   3
ENDBRANCH   1   2
BRANCH   1  27
ATOM     27  C   UNL A   1      39.662  22.608  26.323  1.00  0.00     0.275 C 
BRANCH  27  28
ATOM     28  O   UNL A   1      40.314  23.339  27.373  1.00  0.00    -0.458 OA
BRANCH  28  29
ATOM     29  C   UNL A   1      40.975  24.452  26.975  1.00  0.00     0.338 C 
ATOM     30  O   UNL A   1      41.552  24.615  25.915  1.00  0.00    -0.246 OA
BRANCH  29  31
ATOM     31  C   UNL A   1      40.774  25.520  27.972  1.00  0.00     0.060 A 
ATOM     32  C   UNL A   1      41.838  26.397  28.210  1.00  0.00     0.016 A 
ATOM     33  C   UNL A   1      39.574  25.650  28.677  1.00  0.00     0.016 A 
ATOM     34  C   UNL A   1      41.705  27.407  29.158  1.00  0.00     0.010 A 
ATOM     35  C   UNL A   1      39.444  26.661  29.631  1.00  0.00     0.010 A 
ATOM     36  C   UNL A   1      40.513  27.539  29.881  1.00  0.00    -0.014 A 
BRANCH  36  37
ATOM     37  C   UNL A   1      40.396  28.581  30.924  1.00  0.00     0.031 A 
ATOM     38  C   UNL A   1      41.271  28.520  32.140  1.00  0.00     0.074 A 
ATOM     39  C   UNL A   1      39.509  29.580  30.771  1.00  0.00     0.049 A 
ATOM     40  N   UNL A   1      41.309  29.324  33.171  1.00  0.00    -0.248 NA
ATOM     41  C   UNL A   1      42.230  27.406  32.206  1.00  0.00     0.031 C 
ATOM     42  C   UNL A   1      38.616  29.746  29.624  1.00  0.00     0.029 A 
ATOM     43  N   UNL A   1      39.211  30.640  31.586  1.00  0.00    -0.354 N 
ATOM     44  C   UNL A   1      42.290  28.815  34.011  1.00  0.00     0.074 A 
ATOM     45  C   UNL A   1      42.812  27.621  33.377  1.00  0.00     0.031 C 
ATOM     46  C   UNL A   1      37.863  30.843  29.813  1.00  0.00     0.029 A 
ATOM     47  C   UNL A   1      38.208  31.443  31.101  1.00  0.00     0.049 A 
ATOM     48  H   UNL A   1      39.672  30.811  32.440  1.00  0.00     0.167 HD
ATOM     49  C   UNL A   1      42.720  29.303  35.199  1.00  0.00     0.037 A 
ATOM     50  C   UNL A   1      37.627  32.530  31.638  1.00  0.00     0.037 A 
ATOM     51  C   UNL A   1      42.197  30.488  35.826  1.00  0.00     0.049 A 
ATOM     52  C   UNL A   1      38.100  33.038  32.970  1.00  0.00     0.074 A 
ATOM     53  C   UNL A   1      42.579  31.070  37.022  1.00  0.00     0.029 A 
ATOM     54  N   UNL A   1      41.176  31.270  35.308  1.00  0.00    -0.354 N 
ATOM     55  N   UNL A   1      39.044  32.558  33.745  1.00  0.00    -0.248 NA
ATOM     56  C   UNL A   1      37.432  34.233  33.503  1.00  0.00     0.031 C 
ATOM     57  C   UNL A   1      41.769  32.193  37.239  1.00  0.00     0.029 A 
ATOM     58  C   UNL A   1      40.901  32.321  36.166  1.00  0.00     0.049 A 
ATOM     59  H   UNL A   1      40.714  31.102  34.454  1.00  0.00     0.167 HD
ATOM     60  C   UNL A   1      39.091  33.398  34.851  1.00  0.00     0.074 A 
ATOM     61  C   UNL A   1      38.087  34.421  34.642  1.00  0.00     0.031 C 
ATOM     62  C   UNL A   1      39.895  33.327  35.941  1.00  0.00     0.037 A 
BRANCH  49  63
ATOM     63  C   UNL A   1      43.797  28.530  35.901  1.00  0.00     0.058 A 
ATOM     64  C   UNL A   1      43.491  27.491  36.791  1.00  0.00     0.135 A 
ATOM     65  C   UNL A   1      45.149  28.837  35.686  1.00  0.00     0.135 A 
ATOM     66  F   UNL A   1      42.210  27.172  37.044  1.00  0.00    -0.206 F 
ATOM     67  C   UNL A   1      44.489  26.798  37.469  1.00  0.00     0.059 A 
ATOM     68  C   UNL A   1      46.164  28.147  36.340  1.00  0.00     0.059 A 
ATOM     69  F   UNL A   1      45.492  29.827  34.846  1.00  0.00    -0.206 F 
ATOM     70  C   UNL A   1      45.823  27.142  37.244  1.00  0.00     0.060 A 
BRANCH  70  71
ATOM     71  S   UNL A   1      47.115  26.259  38.144  1.00  0.00     0.124 S 
ATOM     72  O   UNL A   1      46.403  25.863  39.355  1.00  0.00    -0.237 OA
ATOM     73  O   UNL A   1      47.458  25.175  37.229  1.00  0.00    -0.237 OA
ATOM     74  O   UNL A   1      48.150  27.271  38.325  1.00  0.00    -0.744 OA
ENDBRANCH  70  71
ENDBRANCH  49  63
BRANCH  50  75
ATOM     75  C   UNL A   1      36.528  33.208  30.908  1.00  0.00     0.058 A 
ATOM     76  C   UNL A   1      35.200  33.105  31.344  1.00  0.00     0.135 A 
ATOM     77  C   UNL A   1      36.793  34.008  29.786  1.00  0.00     0.135 A 
ATOM     78  F   UNL A   1      34.901  32.345  32.409  1.00  0.00    -0.206 F 
ATOM     79  C   UNL A   1      34.169  33.775  30.694  1.00  0.00     0.059 A 
ATOM     80  C   UNL A   1      35.781  34.698  29.129  1.00  0.00     0.059 A 
ATOM     81  F   UNL A   1      38.051  34.145  29.340  1.00  0.00    -0.206 F 
ATOM     82  C   UNL A   1      34.470  34.572  29.589  1.00  0.00     0.060 A 
BRANCH  82  83
ATOM     83  S   UNL A   1      33.142  35.506  28.794  1.00  0.00     0.124 S 
ATOM     84  O   UNL A   1      33.894  36.499  28.040  1.00  0.00    -0.237 OA
ATOM     85  O   UNL A   1      32.467  34.479  28.005  1.00  0.00    -0.237 OA
ATOM     86  O   UNL A   1      32.374  36.016  29.927  1.00  0.00    -0.744 OA
ENDBRANCH  82  83
ENDBRANCH  50  75
BRANCH  62  87
ATOM     87  C   UNL A   1      39.724  34.392  36.986  1.00  0.00     0.058 A 
ATOM     88  C   UNL A   1      38.932  34.176  38.123  1.00  0.00     0.135 A 
ATOM     89  C   UNL A   1      40.396  35.619  36.869  1.00  0.00     0.135 A 
ATOM     90  F   UNL A   1      38.267  33.020  38.273  1.00  0.00    -0.206 F 
ATOM     91  C   UNL A   1      38.799  35.149  39.107  1.00  0.00     0.059 A 
ATOM     92  C   UNL A   1      40.288  36.600  37.849  1.00  0.00     0.059 A 
ATOM     93  F   UNL A   1      41.170  35.868  35.801  1.00  0.00    -0.206 F 
ATOM     94  C   UNL A   1      39.480  36.361  38.961  1.00  0.00     0.060 A 
BRANCH  94  95
ATOM     95  S   UNL A   1      39.332  37.608  40.258  1.00  0.00     0.124 S 
ATOM     96  O   UNL A   1      38.840  36.810  41.376  1.00  0.00    -0.237 OA
ATOM     97  O   UNL A   1      40.701  38.101  40.384  1.00  0.00    -0.237 OA
ATOM     98  O   UNL A   1      38.380  38.563  39.698  1.00  0.00    -0.744 OA
ENDBRANCH  94  95
ENDBRANCH  62  87
ENDBRANCH  36  37
ENDBRANCH  29  31
ENDBRANCH  28  29
ENDBRANCH  27  28
ENDBRANCH   1  27
TORSDOF 17
ENDMDL
