MODEL 1
REMARK VINA RESULT:     -12.6      0.000      0.000
REMARK SMILES Cc1ccc2nc(Cl)c([C@@H]3CC(c4cccs4)=NN3C(=O)CCCC(=O)OCCOC(=O)c3ccc(-c4c5nc(c(-c6c(F)cc(S(=O)(=O)[O-])cc6F)c6ccc([nH]6)c(-c6c(F)cc(S(=O)(=O)[O-])cc6F)c6nc(c(-c7c(F)cc(S(=O)(=O)[O-])cc7F)c7ccc4[nH]7)C=C6)C=C5)cc3)cc2c1
REMARK SMILES IDX 28 1 27 2 25 3 26 4 24 5 23 6 22 7 20 8 21 9 19 10 10 11
REMARK SMILES IDX 11 12 12 13 18 14 9 15 1 16 2 17 3 18 101 19 4 20 100 21
REMARK SMILES IDX 5 22 99 23 6 24 7 25 8 26 13 27 14 28 17 29 15 30 16 31
REMARK SMILES IDX 29 32 30 33 31 34 32 35 33 36 34 37 98 38 35 39 97 40 36 41
REMARK SMILES IDX 37 42 38 43 91 44 39 45 96 46 90 47 92 48 40 49 95 50 89 51
REMARK SMILES IDX 88 52 41 54 75 55 54 56 74 57 55 58 58 59 73 60 93 61 56 62
REMARK SMILES IDX 57 63 72 65 94 66 59 67 42 68 43 69 52 70 44 71 45 72 51 73
REMARK SMILES IDX 53 74 46 75 47 76 48 77 49 78 50 79 76 80 77 81 86 82 78 83
REMARK SMILES IDX 79 84 85 85 87 86 80 87 81 88 82 89 83 90 84 91 60 92 61 93
REMARK SMILES IDX 70 94 62 95 63 96 69 97 71 98 64 99 65 100 66 101 67 102
REMARK SMILES IDX 68 103
REMARK H PARENT 92 53 58 64
REMARK Flexibility Score: inf
ROOT
ATOM      1  C   UNL A   1      34.497  32.994  28.989  1.00  0.00     0.274 C 
ENDROOT
BRANCH   1   2
ATOM      2  O   UNL A   1      34.573  31.237  27.952  1.00  0.00    -0.462 OA
BRANCH   2   3
ATOM      3  C   UNL A   1      34.986  29.833  27.773  1.00  0.00     0.305 C 
ATOM      4  O   UNL A   1      35.883  29.248  28.379  1.00  0.00    -0.252 OA
BRANCH   3   5
ATOM      5  C   UNL A   1      34.340  29.133  26.581  1.00  0.00     0.123 C 
BRANCH   5   6
ATOM      6  C   UNL A   1      33.116  29.891  26.153  1.00  0.00     0.022 C 
BRANCH   6   7
ATOM      7  C   UNL A   1      31.915  29.376  26.903  1.00  0.00     0.103 C 
BRANCH   7   8
ATOM      8  C   UNL A   1      31.454  28.023  26.409  1.00  0.00     0.243 C 
ATOM      9  O   UNL A   1      31.565  27.087  27.217  1.00  0.00    -0.273 OA
BRANCH   8  10
ATOM     10  N   UNL A   1      30.795  27.864  25.194  1.00  0.00    -0.225 N 
ATOM     11  C   UNL A   1      30.218  26.720  24.359  1.00  0.00     0.150 C 
ATOM     12  C   UNL A   1      29.660  27.455  23.118  1.00  0.00     0.092 C 
ATOM     13  C   UNL A   1      29.834  28.887  23.530  1.00  0.00     0.081 C 
ATOM     14  N   UNL A   1      30.419  29.071  24.663  1.00  0.00    -0.173 NA
BRANCH  11  15
ATOM     15  C   UNL A   1      31.187  25.604  24.018  1.00  0.00     0.015 A 
ATOM     16  C   UNL A   1      34.174  19.210  24.694  1.00  0.00     0.044 C 
ATOM     17  C   UNL A   1      34.015  20.707  24.594  1.00  0.00    -0.050 A 
ATOM     18  C   UNL A   1      35.219  21.446  24.467  1.00  0.00     0.005 A 
ATOM     19  C   UNL A   1      32.709  21.303  24.622  1.00  0.00     0.013 A 
ATOM     20  C   UNL A   1      35.249  22.804  24.222  1.00  0.00     0.029 A 
ATOM     21  C   UNL A   1      32.502  22.695  24.399  1.00  0.00     0.001 A 
ATOM     22  C   UNL A   1      34.085  23.504  24.100  1.00  0.00     0.072 A 
ATOM     23  C   UNL A   1      31.000  23.823  24.379  1.00  0.00     0.019 A 
ATOM     24  N   UNL A   1      34.190  25.174  23.711  1.00  0.00    -0.236 NA
ATOM     25  C   UNL A   1      32.813  26.167  23.647  1.00  0.00     0.135 A 
ATOM     26  Cl  UNL A   1      33.142  27.715  22.973  1.00  0.00    -0.062 Cl
ENDBRANCH  11  15
BRANCH  13  27
ATOM     27  C   UNL A   1      29.439  30.042  22.771  1.00  0.00     0.050 A 
ATOM     28  C   UNL A   1      29.240  30.186  21.416  1.00  0.00     0.022 A 
ATOM     29  S   UNL A   1      28.961  31.451  23.633  1.00  0.00    -0.142 S 
ATOM     30  C   UNL A   1      28.617  31.434  21.095  1.00  0.00     0.012 A 
ATOM     31  C   UNL A   1      28.406  32.214  22.210  1.00  0.00     0.065 A 
ENDBRANCH  13  27
ENDBRANCH   8  10
ENDBRANCH   7   8
ENDBRANCH   6   7
ENDBRANCH   5   6
ENDBRANCH   3   5
ENDBRANCH   2   3
ENDBRANCH   1   2
BRANCH   1  32
ATOM     32  C   UNL A   1      35.397  33.537  30.358  1.00  0.00     0.275 C 
BRANCH  32  33
ATOM     33  O   UNL A   1      36.739  33.004  30.571  1.00  0.00    -0.458 OA
BRANCH  33  34
ATOM     34  C   UNL A   1      36.828  31.701  30.973  1.00  0.00     0.338 C 
ATOM     35  O   UNL A   1      35.949  31.096  31.570  1.00  0.00    -0.246 OA
BRANCH  34  36
ATOM     36  C   UNL A   1      38.085  31.016  30.506  1.00  0.00     0.060 A 
ATOM     37  C   UNL A   1      38.483  30.951  29.165  1.00  0.00     0.016 A 
ATOM     38  C   UNL A   1      38.893  30.378  31.463  1.00  0.00     0.016 A 
ATOM     39  C   UNL A   1      39.648  30.258  28.788  1.00  0.00     0.010 A 
ATOM     40  C   UNL A   1      40.101  29.760  31.097  1.00  0.00     0.010 A 
ATOM     41  C   UNL A   1      40.509  29.720  29.758  1.00  0.00    -0.014 A 
BRANCH  41  42
ATOM     42  C   UNL A   1      41.927  29.370  29.434  1.00  0.00     0.031 A 
ATOM     43  C   UNL A   1      43.016  30.407  29.341  1.00  0.00     0.074 A 
ATOM     44  C   UNL A   1      42.182  28.091  29.081  1.00  0.00     0.049 A 
ATOM     45  N   UNL A   1      44.213  30.303  28.818  1.00  0.00    -0.248 NA
ATOM     46  C   UNL A   1      42.724  31.733  29.904  1.00  0.00     0.031 C 
ATOM     47  C   UNL A   1      41.203  26.999  29.122  1.00  0.00     0.029 A 
ATOM     48  N   UNL A   1      43.313  27.494  28.580  1.00  0.00    -0.354 N 
ATOM     49  C   UNL A   1      44.814  31.550  28.965  1.00  0.00     0.074 A 
ATOM     50  C   UNL A   1      43.844  32.398  29.631  1.00  0.00     0.031 C 
ATOM     51  C   UNL A   1      41.764  25.878  28.653  1.00  0.00     0.029 A 
ATOM     52  C   UNL A   1      43.116  26.182  28.207  1.00  0.00     0.049 A 
ATOM     53  H   UNL A   1      44.178  27.956  28.496  1.00  0.00     0.167 HD
ATOM     54  C   UNL A   1      46.051  31.948  28.569  1.00  0.00     0.037 A 
ATOM     55  C   UNL A   1      43.899  25.327  27.523  1.00  0.00     0.037 A 
ATOM     56  C   UNL A   1      46.995  31.086  27.892  1.00  0.00     0.049 A 
ATOM     57  C   UNL A   1      45.246  25.795  27.065  1.00  0.00     0.074 A 
ATOM     58  C   UNL A   1      48.269  31.384  27.435  1.00  0.00     0.029 A 
ATOM     59  N   UNL A   1      46.763  29.754  27.570  1.00  0.00    -0.354 N 
ATOM     60  N   UNL A   1      45.785  26.985  27.195  1.00  0.00    -0.248 NA
ATOM     61  C   UNL A   1      46.089  24.817  26.370  1.00  0.00     0.031 C 
ATOM     62  C   UNL A   1      48.793  30.244  26.813  1.00  0.00     0.029 A 
ATOM     63  C   UNL A   1      47.863  29.221  26.918  1.00  0.00     0.049 A 
ATOM     64  H   UNL A   1      45.937  29.261  27.777  1.00  0.00     0.167 HD
ATOM     65  C   UNL A   1      47.035  26.897  26.601  1.00  0.00     0.074 A 
ATOM     66  C   UNL A   1      47.179  25.532  26.132  1.00  0.00     0.031 C 
ATOM     67  C   UNL A   1      47.979  27.860  26.455  1.00  0.00     0.037 A 
BRANCH  54  68
ATOM     68  C   UNL A   1      46.459  33.379  28.826  1.00  0.00     0.058 A 
ATOM     69  C   UNL A   1      47.119  33.761  30.005  1.00  0.00     0.135 A 
ATOM     70  C   UNL A   1      46.240  34.375  27.857  1.00  0.00     0.135 A 
ATOM     71  F   UNL A   1      47.355  32.856  30.969  1.00  0.00    -0.206 F 
ATOM     72  C   UNL A   1      47.520  35.078  30.228  1.00  0.00     0.059 A 
ATOM     73  C   UNL A   1      46.651  35.693  28.049  1.00  0.00     0.059 A 
ATOM     74  F   UNL A   1      45.626  34.070  26.703  1.00  0.00    -0.206 F 
ATOM     75  C   UNL A   1      47.275  36.040  29.246  1.00  0.00     0.060 A 
BRANCH  75  76
ATOM     76  S   UNL A   1      47.788  37.746  29.555  1.00  0.00     0.124 S 
ATOM     77  O   UNL A   1      49.238  37.639  29.435  1.00  0.00    -0.237 OA
ATOM     78  O   UNL A   1      47.116  38.475  28.484  1.00  0.00    -0.237 OA
ATOM     79  O   UNL A   1      47.287  38.013  30.901  1.00  0.00    -0.744 OA
ENDBRANCH  75  76
ENDBRANCH  54  68
BRANCH  55  80
ATOM     80  C   UNL A   1      43.395  23.963  27.210  1.00  0.00     0.058 A 
ATOM     81  C   UNL A   1      43.457  22.934  28.158  1.00  0.00     0.135 A 
ATOM     82  C   UNL A   1      42.769  23.685  25.983  1.00  0.00     0.135 A 
ATOM     83  F   UNL A   1      44.046  23.149  29.344  1.00  0.00    -0.206 F 
ATOM     84  C   UNL A   1      42.914  21.678  27.906  1.00  0.00     0.059 A 
ATOM     85  C   UNL A   1      42.195  22.446  25.717  1.00  0.00     0.059 A 
ATOM     86  F   UNL A   1      42.662  24.645  25.049  1.00  0.00    -0.206 F 
ATOM     87  C   UNL A   1      42.277  21.447  26.685  1.00  0.00     0.060 A 
BRANCH  87  88
ATOM     88  S   UNL A   1      41.492  19.843  26.402  1.00  0.00     0.124 S 
ATOM     89  O   UNL A   1      41.734  19.171  27.673  1.00  0.00    -0.237 OA
ATOM     90  O   UNL A   1      40.108  20.222  26.133  1.00  0.00    -0.237 OA
ATOM     91  O   UNL A   1      42.221  19.313  25.254  1.00  0.00    -0.744 OA
ENDBRANCH  87  88
ENDBRANCH  55  80
BRANCH  67  92
ATOM     92  C   UNL A   1      49.254  27.450  25.779  1.00  0.00     0.058 A 
ATOM     93  C   UNL A   1      50.367  27.015  26.515  1.00  0.00     0.135 A 
ATOM     94  C   UNL A   1      49.358  27.481  24.380  1.00  0.00     0.135 A 
ATOM     95  F   UNL A   1      50.320  26.981  27.856  1.00  0.00    -0.206 F 
ATOM     96  C   UNL A   1      51.552  26.648  25.886  1.00  0.00     0.059 A 
ATOM     97  C   UNL A   1      50.525  27.099  23.729  1.00  0.00     0.059 A 
ATOM     98  F   UNL A   1      48.319  27.889  23.635  1.00  0.00    -0.206 F 
ATOM     99  C   UNL A   1      51.622  26.697  24.492  1.00  0.00     0.060 A 
BRANCH  99 100
ATOM    100  S   UNL A   1      53.157  26.200  23.683  1.00  0.00     0.124 S 
ATOM    101  O   UNL A   1      54.014  27.350  23.952  1.00  0.00    -0.237 OA
ATOM    102  O   UNL A   1      53.503  24.972  24.390  1.00  0.00    -0.237 OA
ATOM    103  O   UNL A   1      52.762  26.023  22.289  1.00  0.00    -0.744 OA
ENDBRANCH  99 100
ENDBRANCH  67  92
ENDBRANCH  41  42
ENDBRANCH  34  36
ENDBRANCH  33  34
ENDBRANCH  32  33
ENDBRANCH   1  32
TORSDOF 20
ENDMDL
MODEL 2
REMARK VINA RESULT:     -12.4      0.941      7.950
REMARK SMILES Cc1ccc2nc(Cl)c([C@@H]3CC(c4cccs4)=NN3C(=O)CCCC(=O)OCCOC(=O)c3ccc(-c4c5nc(c(-c6c(F)cc(S(=O)(=O)[O-])cc6F)c6ccc([nH]6)c(-c6c(F)cc(S(=O)(=O)[O-])cc6F)c6nc(c(-c7c(F)cc(S(=O)(=O)[O-])cc7F)c7ccc4[nH]7)C=C6)C=C5)cc3)cc2c1
REMARK SMILES IDX 28 1 27 2 25 3 26 4 24 5 23 6 22 7 20 8 21 9 19 10 10 11
REMARK SMILES IDX 11 12 12 13 18 14 9 15 1 16 2 17 3 18 101 19 4 20 100 21
REMARK SMILES IDX 5 22 99 23 6 24 7 25 8 26 13 27 14 28 17 29 15 30 16 31
REMARK SMILES IDX 29 32 30 33 31 34 32 35 33 36 34 37 98 38 35 39 97 40 36 41
REMARK SMILES IDX 37 42 38 43 91 44 39 45 96 46 90 47 92 48 40 49 95 50 89 51
REMARK SMILES IDX 88 52 41 54 75 55 54 56 74 57 55 58 58 59 73 60 93 61 56 62
REMARK SMILES IDX 57 63 72 65 94 66 59 67 42 68 43 69 52 70 44 71 45 72 51 73
REMARK SMILES IDX 53 74 46 75 47 76 48 77 49 78 50 79 76 80 77 81 86 82 78 83
REMARK SMILES IDX 79 84 85 85 87 86 80 87 81 88 82 89 83 90 84 91 60 92 61 93
REMARK SMILES IDX 70 94 62 95 63 96 69 97 71 98 64 99 65 100 66 101 67 102
REMARK SMILES IDX 68 103
REMARK H PARENT 92 53 58 64
REMARK Flexibility Score: inf
ROOT
ATOM      1  C   UNL A   1      34.742  33.083  30.849  1.00  0.00     0.274 C 
ENDROOT
BRANCH   1   2
ATOM      2  O   UNL A   1      34.569  32.012  29.119  1.00  0.00    -0.462 OA
BRANCH   2   3
ATOM      3  C   UNL A   1      34.736  30.795  28.303  1.00  0.00     0.305 C 
ATOM      4  O   UNL A   1      35.527  29.876  28.509  1.00  0.00    -0.252 OA
BRANCH   3   5
ATOM      5  C   UNL A   1      33.968  30.809  26.985  1.00  0.00     0.123 C 
BRANCH   5   6
ATOM      6  C   UNL A   1      32.532  30.448  27.234  1.00  0.00     0.022 C 
BRANCH   6   7
ATOM      7  C   UNL A   1      32.356  28.957  27.108  1.00  0.00     0.103 C 
BRANCH   7   8
ATOM      8  C   UNL A   1      32.469  28.475  25.678  1.00  0.00     0.243 C 
ATOM      9  O   UNL A   1      33.611  28.166  25.302  1.00  0.00    -0.273 OA
BRANCH   8  10
ATOM     10  N   UNL A   1      31.350  28.233  24.888  1.00  0.00    -0.225 N 
ATOM     11  C   UNL A   1      30.342  27.104  24.666  1.00  0.00     0.150 C 
ATOM     12  C   UNL A   1      29.412  27.692  23.578  1.00  0.00     0.092 C 
ATOM     13  C   UNL A   1      29.916  29.102  23.499  1.00  0.00     0.081 C 
ATOM     14  N   UNL A   1      30.938  29.367  24.237  1.00  0.00    -0.173 NA
BRANCH  11  15
ATOM     15  C   UNL A   1      30.936  25.760  24.296  1.00  0.00     0.015 A 
ATOM     16  C   UNL A   1      32.944  19.053  25.421  1.00  0.00     0.044 C 
ATOM     17  C   UNL A   1      32.991  20.512  25.034  1.00  0.00    -0.050 A 
ATOM     18  C   UNL A   1      34.163  20.929  24.354  1.00  0.00     0.005 A 
ATOM     19  C   UNL A   1      31.894  21.382  25.348  1.00  0.00     0.013 A 
ATOM     20  C   UNL A   1      34.310  22.187  23.806  1.00  0.00     0.029 A 
ATOM     21  C   UNL A   1      31.836  22.730  24.889  1.00  0.00     0.001 A 
ATOM     22  C   UNL A   1      33.304  23.102  23.911  1.00  0.00     0.072 A 
ATOM     23  C   UNL A   1      30.622  24.149  25.100  1.00  0.00     0.019 A 
ATOM     24  N   UNL A   1      33.514  24.619  23.134  1.00  0.00    -0.236 NA
ATOM     25  C   UNL A   1      32.379  25.874  23.294  1.00  0.00     0.135 A 
ATOM     26  Cl  UNL A   1      32.672  27.177  22.211  1.00  0.00    -0.062 Cl
ENDBRANCH  11  15
BRANCH  13  27
ATOM     27  C   UNL A   1      29.386  30.147  22.667  1.00  0.00     0.050 A 
ATOM     28  C   UNL A   1      29.164  30.170  21.308  1.00  0.00     0.022 A 
ATOM     29  S   UNL A   1      28.755  31.551  23.435  1.00  0.00    -0.142 S 
ATOM     30  C   UNL A   1      28.399  31.313  20.909  1.00  0.00     0.012 A 
ATOM     31  C   UNL A   1      28.107  32.141  21.970  1.00  0.00     0.065 A 
ENDBRANCH  13  27
ENDBRANCH   8  10
ENDBRANCH   7   8
ENDBRANCH   6   7
ENDBRANCH   5   6
ENDBRANCH   3   5
ENDBRANCH   2   3
ENDBRANCH   1   2
BRANCH   1  32
ATOM     32  C   UNL A   1      36.018  33.154  32.009  1.00  0.00     0.275 C 
BRANCH  32  33
ATOM     33  O   UNL A   1      37.373  32.824  31.582  1.00  0.00    -0.458 OA
BRANCH  33  34
ATOM     34  C   UNL A   1      37.962  31.745  32.181  1.00  0.00     0.338 C 
ATOM     35  O   UNL A   1      37.676  31.324  33.292  1.00  0.00    -0.246 OA
BRANCH  34  36
ATOM     36  C   UNL A   1      38.937  31.025  31.288  1.00  0.00     0.060 A 
ATOM     37  C   UNL A   1      38.817  30.963  29.894  1.00  0.00     0.016 A 
ATOM     38  C   UNL A   1      40.016  30.350  31.884  1.00  0.00     0.016 A 
ATOM     39  C   UNL A   1      39.739  30.237  29.118  1.00  0.00     0.010 A 
ATOM     40  C   UNL A   1      40.985  29.697  31.103  1.00  0.00     0.010 A 
ATOM     41  C   UNL A   1      40.875  29.659  29.707  1.00  0.00    -0.014 A 
BRANCH  41  42
ATOM     42  C   UNL A   1      42.064  29.267  28.888  1.00  0.00     0.031 A 
ATOM     43  C   UNL A   1      42.288  27.858  28.408  1.00  0.00     0.074 A 
ATOM     44  C   UNL A   1      43.024  30.201  28.708  1.00  0.00     0.049 A 
ATOM     45  N   UNL A   1      43.378  27.311  27.929  1.00  0.00    -0.248 NA
ATOM     46  C   UNL A   1      41.142  26.939  28.477  1.00  0.00     0.031 C 
ATOM     47  C   UNL A   1      42.924  31.600  29.139  1.00  0.00     0.029 A 
ATOM     48  N   UNL A   1      44.282  30.120  28.161  1.00  0.00    -0.354 N 
ATOM     49  C   UNL A   1      43.064  25.982  27.658  1.00  0.00     0.074 A 
ATOM     50  C   UNL A   1      41.673  25.806  28.028  1.00  0.00     0.031 C 
ATOM     51  C   UNL A   1      44.067  32.237  28.859  1.00  0.00     0.029 A 
ATOM     52  C   UNL A   1      45.011  31.280  28.300  1.00  0.00     0.049 A 
ATOM     53  H   UNL A   1      44.628  29.313  27.716  1.00  0.00     0.167 HD
ATOM     54  C   UNL A   1      43.866  25.005  27.162  1.00  0.00     0.037 A 
ATOM     55  C   UNL A   1      46.311  31.544  28.070  1.00  0.00     0.037 A 
ATOM     56  C   UNL A   1      45.256  25.204  26.815  1.00  0.00     0.049 A 
ATOM     57  C   UNL A   1      47.187  30.443  27.555  1.00  0.00     0.074 A 
ATOM     58  C   UNL A   1      46.165  24.285  26.315  1.00  0.00     0.029 A 
ATOM     59  N   UNL A   1      45.939  26.407  26.937  1.00  0.00    -0.354 N 
ATOM     60  N   UNL A   1      46.875  29.189  27.328  1.00  0.00    -0.248 NA
ATOM     61  C   UNL A   1      48.584  30.785  27.268  1.00  0.00     0.031 C 
ATOM     62  C   UNL A   1      47.403  24.925  26.165  1.00  0.00     0.029 A 
ATOM     63  C   UNL A   1      47.255  26.254  26.530  1.00  0.00     0.049 A 
ATOM     64  H   UNL A   1      45.545  27.248  27.264  1.00  0.00     0.167 HD
ATOM     65  C   UNL A   1      48.038  28.591  26.865  1.00  0.00     0.074 A 
ATOM     66  C   UNL A   1      49.052  29.627  26.824  1.00  0.00     0.031 C 
ATOM     67  C   UNL A   1      48.248  27.300  26.506  1.00  0.00     0.037 A 
BRANCH  54  68
ATOM     68  C   UNL A   1      43.283  23.623  26.982  1.00  0.00     0.058 A 
ATOM     69  C   UNL A   1      42.917  23.131  25.719  1.00  0.00     0.135 A 
ATOM     70  C   UNL A   1      43.141  22.754  28.080  1.00  0.00     0.135 A 
ATOM     71  F   UNL A   1      43.028  23.913  24.633  1.00  0.00    -0.206 F 
ATOM     72  C   UNL A   1      42.406  21.845  25.553  1.00  0.00     0.059 A 
ATOM     73  C   UNL A   1      42.651  21.457  27.934  1.00  0.00     0.059 A 
ATOM     74  F   UNL A   1      43.486  23.161  29.312  1.00  0.00    -0.206 F 
ATOM     75  C   UNL A   1      42.270  21.016  26.668  1.00  0.00     0.060 A 
BRANCH  75  76
ATOM     76  S   UNL A   1      41.592  19.356  26.440  1.00  0.00     0.124 S 
ATOM     77  O   UNL A   1      42.451  18.835  25.382  1.00  0.00    -0.237 OA
ATOM     78  O   UNL A   1      41.777  18.756  27.758  1.00  0.00    -0.237 OA
ATOM     79  O   UNL A   1      40.204  19.604  26.057  1.00  0.00    -0.744 OA
ENDBRANCH  75  76
ENDBRANCH  54  68
BRANCH  55  80
ATOM     80  C   UNL A   1      46.847  32.898  28.368  1.00  0.00     0.058 A 
ATOM     81  C   UNL A   1      47.417  33.193  29.613  1.00  0.00     0.135 A 
ATOM     82  C   UNL A   1      46.871  33.901  27.383  1.00  0.00     0.135 A 
ATOM     83  F   UNL A   1      47.418  32.270  30.585  1.00  0.00    -0.206 F 
ATOM     84  C   UNL A   1      47.997  34.431  29.874  1.00  0.00     0.059 A 
ATOM     85  C   UNL A   1      47.468  35.137  27.611  1.00  0.00     0.059 A 
ATOM     86  F   UNL A   1      46.359  33.662  26.165  1.00  0.00    -0.206 F 
ATOM     87  C   UNL A   1      48.025  35.394  28.863  1.00  0.00     0.060 A 
BRANCH  87  88
ATOM     88  S   UNL A   1      48.863  36.964  29.179  1.00  0.00     0.124 S 
ATOM     89  O   UNL A   1      49.071  37.462  27.825  1.00  0.00    -0.237 OA
ATOM     90  O   UNL A   1      47.877  37.683  29.981  1.00  0.00    -0.237 OA
ATOM     91  O   UNL A   1      50.067  36.560  29.898  1.00  0.00    -0.744 OA
ENDBRANCH  87  88
ENDBRANCH  55  80
BRANCH  67  92
ATOM     92  C   UNL A   1      49.625  26.957  26.019  1.00  0.00     0.058 A 
ATOM     93  C   UNL A   1      49.977  27.081  24.667  1.00  0.00     0.135 A 
ATOM     94  C   UNL A   1      50.604  26.510  26.919  1.00  0.00     0.135 A 
ATOM     95  F   UNL A   1      49.069  27.491  23.767  1.00  0.00    -0.206 F 
ATOM     96  C   UNL A   1      51.250  26.748  24.217  1.00  0.00     0.059 A 
ATOM     97  C   UNL A   1      51.890  26.192  26.496  1.00  0.00     0.059 A 
ATOM     98  F   UNL A   1      50.314  26.376  28.223  1.00  0.00    -0.206 F 
ATOM     99  C   UNL A   1      52.199  26.303  25.140  1.00  0.00     0.060 A 
BRANCH  99 100
ATOM    100  S   UNL A   1      53.855  25.892  24.551  1.00  0.00     0.124 S 
ATOM    101  O   UNL A   1      54.691  26.656  25.470  1.00  0.00    -0.237 OA
ATOM    102  O   UNL A   1      53.896  24.442  24.712  1.00  0.00    -0.237 OA
ATOM    103  O   UNL A   1      53.848  26.362  23.169  1.00  0.00    -0.744 OA
ENDBRANCH  99 100
ENDBRANCH  67  92
ENDBRANCH  41  42
ENDBRANCH  34  36
ENDBRANCH  33  34
ENDBRANCH  32  33
ENDBRANCH   1  32
TORSDOF 20
ENDMDL
MODEL 3
REMARK VINA RESULT:     -12.1      5.849     11.444
REMARK SMILES Cc1ccc2nc(Cl)c([C@@H]3CC(c4cccs4)=NN3C(=O)CCCC(=O)OCCOC(=O)c3ccc(-c4c5nc(c(-c6c(F)cc(S(=O)(=O)[O-])cc6F)c6ccc([nH]6)c(-c6c(F)cc(S(=O)(=O)[O-])cc6F)c6nc(c(-c7c(F)cc(S(=O)(=O)[O-])cc7F)c7ccc4[nH]7)C=C6)C=C5)cc3)cc2c1
REMARK SMILES IDX 28 1 27 2 25 3 26 4 24 5 23 6 22 7 20 8 21 9 19 10 10 11
REMARK SMILES IDX 11 12 12 13 18 14 9 15 1 16 2 17 3 18 101 19 4 20 100 21
REMARK SMILES IDX 5 22 99 23 6 24 7 25 8 26 13 27 14 28 17 29 15 30 16 31
REMARK SMILES IDX 29 32 30 33 31 34 32 35 33 36 34 37 98 38 35 39 97 40 36 41
REMARK SMILES IDX 37 42 38 43 91 44 39 45 96 46 90 47 92 48 40 49 95 50 89 51
REMARK SMILES IDX 88 52 41 54 75 55 54 56 74 57 55 58 58 59 73 60 93 61 56 62
REMARK SMILES IDX 57 63 72 65 94 66 59 67 42 68 43 69 52 70 44 71 45 72 51 73
REMARK SMILES IDX 53 74 46 75 47 76 48 77 49 78 50 79 76 80 77 81 86 82 78 83
REMARK SMILES IDX 79 84 85 85 87 86 80 87 81 88 82 89 83 90 84 91 60 92 61 93
REMARK SMILES IDX 70 94 62 95 63 96 69 97 71 98 64 99 65 100 66 101 67 102
REMARK SMILES IDX 68 103
REMARK H PARENT 92 53 58 64
REMARK Flexibility Score: inf
ROOT
ATOM      1  C   UNL A   1      40.877  22.301  26.575  1.00  0.00     0.274 C 
ENDROOT
BRANCH   1   2
ATOM      2  O   UNL A   1      39.321  21.253  25.768  1.00  0.00    -0.462 OA
BRANCH   2   3
ATOM      3  C   UNL A   1      38.651  20.008  25.350  1.00  0.00     0.305 C 
ATOM      4  O   UNL A   1      39.114  18.870  25.405  1.00  0.00    -0.252 OA
BRANCH   3   5
ATOM      5  C   UNL A   1      37.333  20.219  24.610  1.00  0.00     0.123 C 
BRANCH   5   6
ATOM      6  C   UNL A   1      36.476  21.189  25.372  1.00  0.00     0.022 C 
BRANCH   6   7
ATOM      7  C   UNL A   1      36.321  22.459  24.577  1.00  0.00     0.103 C 
BRANCH   7   8
ATOM      8  C   UNL A   1      36.019  23.659  25.448  1.00  0.00     0.243 C 
ATOM      9  O   UNL A   1      37.002  24.331  25.800  1.00  0.00    -0.273 OA
BRANCH   8  10
ATOM     10  N   UNL A   1      34.718  24.081  25.701  1.00  0.00    -0.225 N 
ATOM     11  C   UNL A   1      33.458  23.531  26.372  1.00  0.00     0.150 C 
ATOM     12  C   UNL A   1      32.447  24.688  26.193  1.00  0.00     0.092 C 
ATOM     13  C   UNL A   1      33.334  25.760  25.632  1.00  0.00     0.081 C 
ATOM     14  N   UNL A   1      34.553  25.411  25.408  1.00  0.00    -0.173 NA
BRANCH  11  15
ATOM     15  C   UNL A   1      32.959  22.202  25.839  1.00  0.00     0.015 A 
ATOM     16  C   UNL A   1      32.760  15.138  25.260  1.00  0.00     0.044 C 
ATOM     17  C   UNL A   1      32.854  16.599  24.889  1.00  0.00    -0.050 A 
ATOM     18  C   UNL A   1      32.798  16.885  23.502  1.00  0.00     0.005 A 
ATOM     19  C   UNL A   1      32.983  17.600  25.910  1.00  0.00     0.013 A 
ATOM     20  C   UNL A   1      32.727  18.169  22.999  1.00  0.00     0.029 A 
ATOM     21  C   UNL A   1      32.942  18.994  25.618  1.00  0.00     0.001 A 
ATOM     22  C   UNL A   1      32.717  19.237  23.846  1.00  0.00     0.072 A 
ATOM     23  C   UNL A   1      33.095  20.565  26.638  1.00  0.00     0.019 A 
ATOM     24  N   UNL A   1      32.541  20.803  23.162  1.00  0.00    -0.236 NA
ATOM     25  C   UNL A   1      32.630  22.211  24.110  1.00  0.00     0.135 A 
ATOM     26  Cl  UNL A   1      32.152  23.621  23.250  1.00  0.00    -0.062 Cl
ENDBRANCH  11  15
BRANCH  13  27
ATOM     27  C   UNL A   1      32.938  27.103  25.305  1.00  0.00     0.050 A 
ATOM     28  C   UNL A   1      33.509  28.305  25.661  1.00  0.00     0.022 A 
ATOM     29  S   UNL A   1      31.671  27.318  24.164  1.00  0.00    -0.142 S 
ATOM     30  C   UNL A   1      32.951  29.401  24.928  1.00  0.00     0.012 A 
ATOM     31  C   UNL A   1      31.945  29.001  24.076  1.00  0.00     0.065 A 
ENDBRANCH  13  27
ENDBRANCH   8  10
ENDBRANCH   7   8
ENDBRANCH   6   7
ENDBRANCH   5   6
ENDBRANCH   3   5
ENDBRANCH   2   3
ENDBRANCH   1   2
BRANCH   1  32
ATOM     32  C   UNL A   1      42.288  22.971  25.840  1.00  0.00     0.275 C 
BRANCH  32  33
ATOM     33  O   UNL A   1      42.457  24.421  25.838  1.00  0.00    -0.458 OA
BRANCH  33  34
ATOM     34  C   UNL A   1      43.458  24.924  26.621  1.00  0.00     0.338 C 
ATOM     35  O   UNL A   1      44.643  24.647  26.499  1.00  0.00    -0.246 OA
BRANCH  34  36
ATOM     36  C   UNL A   1      42.984  25.967  27.598  1.00  0.00     0.060 A 
ATOM     37  C   UNL A   1      42.090  25.705  28.643  1.00  0.00     0.016 A 
ATOM     38  C   UNL A   1      43.438  27.287  27.438  1.00  0.00     0.016 A 
ATOM     39  C   UNL A   1      41.652  26.733  29.498  1.00  0.00     0.010 A 
ATOM     40  C   UNL A   1      43.068  28.298  28.342  1.00  0.00     0.010 A 
ATOM     41  C   UNL A   1      42.194  28.026  29.402  1.00  0.00    -0.014 A 
BRANCH  41  42
ATOM     42  C   UNL A   1      42.083  29.003  30.530  1.00  0.00     0.031 A 
ATOM     43  C   UNL A   1      42.941  28.915  31.765  1.00  0.00     0.074 A 
ATOM     44  C   UNL A   1      41.074  29.900  30.472  1.00  0.00     0.049 A 
ATOM     45  N   UNL A   1      42.786  29.510  32.922  1.00  0.00    -0.248 NA
ATOM     46  C   UNL A   1      44.124  28.045  31.696  1.00  0.00     0.031 C 
ATOM     47  C   UNL A   1      40.170  30.072  29.329  1.00  0.00     0.029 A 
ATOM     48  N   UNL A   1      40.607  30.804  31.394  1.00  0.00    -0.354 N 
ATOM     49  C   UNL A   1      43.834  29.075  33.730  1.00  0.00     0.074 A 
ATOM     50  C   UNL A   1      44.621  28.162  32.924  1.00  0.00     0.031 C 
ATOM     51  C   UNL A   1      39.253  31.002  29.621  1.00  0.00     0.029 A 
ATOM     52  C   UNL A   1      39.452  31.440  30.995  1.00  0.00     0.049 A 
ATOM     53  H   UNL A   1      41.050  30.979  32.255  1.00  0.00     0.167 HD
ATOM     54  C   UNL A   1      44.099  29.399  35.022  1.00  0.00     0.037 A 
ATOM     55  C   UNL A   1      38.600  32.237  31.667  1.00  0.00     0.037 A 
ATOM     56  C   UNL A   1      43.288  30.301  35.809  1.00  0.00     0.049 A 
ATOM     57  C   UNL A   1      38.893  32.555  33.101  1.00  0.00     0.074 A 
ATOM     58  C   UNL A   1      43.456  30.692  37.127  1.00  0.00     0.029 A 
ATOM     59  N   UNL A   1      42.150  30.950  35.347  1.00  0.00    -0.354 N 
ATOM     60  N   UNL A   1      39.875  32.115  33.851  1.00  0.00    -0.248 NA
ATOM     61  C   UNL A   1      37.969  33.468  33.781  1.00  0.00     0.031 C 
ATOM     62  C   UNL A   1      42.405  31.552  37.471  1.00  0.00     0.029 A 
ATOM     63  C   UNL A   1      41.604  31.731  36.353  1.00  0.00     0.049 A 
ATOM     64  H   UNL A   1      41.785  30.869  34.437  1.00  0.00     0.167 HD
ATOM     65  C   UNL A   1      39.692  32.703  35.093  1.00  0.00     0.074 A 
ATOM     66  C   UNL A   1      38.517  33.547  34.986  1.00  0.00     0.031 C 
ATOM     67  C   UNL A   1      40.429  32.558  36.223  1.00  0.00     0.037 A 
BRANCH  54  68
ATOM     68  C   UNL A   1      45.297  28.763  35.686  1.00  0.00     0.058 A 
ATOM     69  C   UNL A   1      45.211  27.524  36.342  1.00  0.00     0.135 A 
ATOM     70  C   UNL A   1      46.564  29.370  35.619  1.00  0.00     0.135 A 
ATOM     71  F   UNL A   1      44.029  26.895  36.441  1.00  0.00    -0.206 F 
ATOM     72  C   UNL A   1      46.325  26.926  36.929  1.00  0.00     0.059 A 
ATOM     73  C   UNL A   1      47.696  28.781  36.181  1.00  0.00     0.059 A 
ATOM     74  F   UNL A   1      46.715  30.549  34.994  1.00  0.00    -0.206 F 
ATOM     75  C   UNL A   1      47.563  27.565  36.850  1.00  0.00     0.060 A 
BRANCH  75  76
ATOM     76  S   UNL A   1      48.996  26.785  37.629  1.00  0.00     0.124 S 
ATOM     77  O   UNL A   1      49.958  27.881  37.629  1.00  0.00    -0.237 OA
ATOM     78  O   UNL A   1      48.474  26.401  38.937  1.00  0.00    -0.237 OA
ATOM     79  O   UNL A   1      49.308  25.675  36.732  1.00  0.00    -0.744 OA
ENDBRANCH  75  76
ENDBRANCH  54  68
BRANCH  55  80
ATOM     80  C   UNL A   1      37.381  32.746  30.984  1.00  0.00     0.058 A 
ATOM     81  C   UNL A   1      37.428  33.889  30.175  1.00  0.00     0.135 A 
ATOM     82  C   UNL A   1      36.161  32.053  31.066  1.00  0.00     0.135 A 
ATOM     83  F   UNL A   1      38.569  34.586  30.066  1.00  0.00    -0.206 F 
ATOM     84  C   UNL A   1      36.314  34.326  29.466  1.00  0.00     0.059 A 
ATOM     85  C   UNL A   1      35.040  32.455  30.345  1.00  0.00     0.059 A 
ATOM     86  F   UNL A   1      36.068  30.939  31.809  1.00  0.00    -0.206 F 
ATOM     87  C   UNL A   1      35.126  33.597  29.551  1.00  0.00     0.060 A 
BRANCH  87  88
ATOM     88  S   UNL A   1      33.711  34.117  28.554  1.00  0.00     0.124 S 
ATOM     89  O   UNL A   1      34.323  35.101  27.670  1.00  0.00    -0.237 OA
ATOM     90  O   UNL A   1      33.298  32.865  27.929  1.00  0.00    -0.237 OA
ATOM     91  O   UNL A   1      32.781  34.647  29.546  1.00  0.00    -0.744 OA
ENDBRANCH  87  88
ENDBRANCH  55  80
BRANCH  67  92
ATOM     92  C   UNL A   1      39.987  33.351  37.417  1.00  0.00     0.058 A 
ATOM     93  C   UNL A   1      38.898  32.948  38.204  1.00  0.00     0.135 A 
ATOM     94  C   UNL A   1      40.668  34.522  37.782  1.00  0.00     0.135 A 
ATOM     95  F   UNL A   1      38.206  31.842  37.885  1.00  0.00    -0.206 F 
ATOM     96  C   UNL A   1      38.482  33.693  39.302  1.00  0.00     0.059 A 
ATOM     97  C   UNL A   1      40.285  35.272  38.889  1.00  0.00     0.059 A 
ATOM     98  F   UNL A   1      41.717  34.947  37.060  1.00  0.00    -0.206 F 
ATOM     99  C   UNL A   1      39.181  34.856  39.634  1.00  0.00     0.060 A 
BRANCH  99 100
ATOM    100  S   UNL A   1      38.647  35.807  41.072  1.00  0.00     0.124 S 
ATOM    101  O   UNL A   1      38.398  37.117  40.481  1.00  0.00    -0.237 OA
ATOM    102  O   UNL A   1      37.464  35.075  41.512  1.00  0.00    -0.237 OA
ATOM    103  O   UNL A   1      39.794  35.731  41.972  1.00  0.00    -0.744 OA
ENDBRANCH  99 100
ENDBRANCH  67  92
ENDBRANCH  41  42
ENDBRANCH  34  36
ENDBRANCH  33  34
ENDBRANCH  32  33
ENDBRANCH   1  32
TORSDOF 20
ENDMDL
