MODEL 1
REMARK VINA RESULT:     -11.2      0.000      0.000
REMARK SMILES O=C(/C=C/C(=O)OCCOC(=O)c1ccc(-c2c3nc(c(-c4c(F)cc(S(=O)(=O)[O-])cc4F)c4ccc([nH]4)c(-c4c(F)cc(S(=O)(=O)[O-])cc4F)c4nc(c(-c5c(F)cc(S(=O)(=O)[O-])cc5F)c5ccc2[nH]5)C=C4)C=C3)cc1)NNC(=O)CSc1ccc2ccccc2n1
REMARK SMILES IDX 8 1 7 2 5 3 6 4 4 5 3 6 2 7 1 8 79 9 80 11 81 12 82 14 83 15
REMARK SMILES IDX 84 16 85 17 86 18 94 19 87 20 93 21 88 22 92 23 89 24 91 25
REMARK SMILES IDX 90 26 9 27 10 28 11 29 12 30 13 31 14 32 78 33 15 34 77 35
REMARK SMILES IDX 16 36 17 37 18 38 71 39 19 40 76 41 70 42 72 43 20 44 75 45
REMARK SMILES IDX 69 46 68 47 21 49 55 50 34 51 54 52 35 53 38 54 53 55 73 56
REMARK SMILES IDX 36 57 37 58 52 60 74 61 39 62 22 63 23 64 32 65 24 66 25 67
REMARK SMILES IDX 31 68 33 69 26 70 27 71 28 72 29 73 30 74 56 75 57 76 66 77
REMARK SMILES IDX 58 78 59 79 65 80 67 81 60 82 61 83 62 84 63 85 64 86 40 87
REMARK SMILES IDX 41 88 50 89 42 90 43 91 49 92 51 93 44 94 45 95 46 96 47 97
REMARK SMILES IDX 48 98
REMARK H PARENT 79 10 80 13 72 48 38 59
REMARK Flexibility Score: inf
ROOT
ATOM      1  C   UNL A   1      39.861  21.277  26.198  1.00  0.00     0.275 C 
ENDROOT
BRANCH   1   2
ATOM      2  O   UNL A   1      38.606  21.872  25.814  1.00  0.00    -0.459 OA
BRANCH   2   3
ATOM      3  C   UNL A   1      37.704  21.031  25.254  1.00  0.00     0.331 C 
ATOM      4  O   UNL A   1      37.946  19.947  24.747  1.00  0.00    -0.247 OA
BRANCH   3   5
ATOM      5  C   UNL A   1      36.316  21.512  25.385  1.00  0.00     0.099 C 
ATOM      6  C   UNL A   1      35.227  20.798  25.068  1.00  0.00     0.080 C 
BRANCH   6   7
ATOM      7  C   UNL A   1      33.869  21.383  25.148  1.00  0.00     0.262 C 
ATOM      8  O   UNL A   1      33.192  21.259  26.161  1.00  0.00    -0.268 OA
ATOM      9  N   UNL A   1      33.425  21.947  23.968  1.00  0.00    -0.264 N 
ATOM     10  H   UNL A   1      34.018  22.001  23.184  1.00  0.00     0.191 HD
BRANCH   9  11
ATOM     11  N   UNL A   1      32.122  22.437  23.909  1.00  0.00    -0.267 N 
ATOM     12  C   UNL A   1      31.787  23.766  23.793  1.00  0.00     0.248 C 
ATOM     13  H   UNL A   1      31.387  21.785  23.952  1.00  0.00     0.191 HD
ATOM     14  O   UNL A   1      30.598  24.092  23.777  1.00  0.00    -0.272 OA
BRANCH  12  15
ATOM     15  C   UNL A   1      32.900  24.797  23.686  1.00  0.00     0.178 C 
BRANCH  15  16
ATOM     16  S   UNL A   1      33.656  25.010  25.328  1.00  0.00    -0.096 SA
BRANCH  16  17
ATOM     17  C   UNL A   1      33.190  26.669  25.770  1.00  0.00     0.097 A 
ATOM     18  C   UNL A   1      31.944  27.229  25.522  1.00  0.00     0.036 A 
ATOM     19  N   UNL A   1      34.176  27.355  26.391  1.00  0.00    -0.241 NA
ATOM     20  C   UNL A   1      31.718  28.552  25.897  1.00  0.00     0.013 A 
ATOM     21  C   UNL A   1      33.951  28.624  26.775  1.00  0.00     0.072 A 
ATOM     22  C   UNL A   1      32.730  29.281  26.530  1.00  0.00     0.000 A 
ATOM     23  C   UNL A   1      34.953  29.323  27.437  1.00  0.00     0.029 A 
ATOM     24  C   UNL A   1      32.556  30.620  26.922  1.00  0.00     0.010 A 
ATOM     25  C   UNL A   1      34.783  30.652  27.833  1.00  0.00     0.002 A 
ATOM     26  C   UNL A   1      33.585  31.304  27.567  1.00  0.00     0.001 A 
ENDBRANCH  16  17
ENDBRANCH  15  16
ENDBRANCH  12  15
ENDBRANCH   9  11
ENDBRANCH   6   7
ENDBRANCH   3   5
ENDBRANCH   2   3
ENDBRANCH   1   2
BRANCH   1  27
ATOM     27  C   UNL A   1      40.888  22.336  26.613  1.00  0.00     0.275 C 
BRANCH  27  28
ATOM     28  O   UNL A   1      40.328  23.662  26.644  1.00  0.00    -0.458 OA
BRANCH  28  29
ATOM     29  C   UNL A   1      41.231  24.669  26.585  1.00  0.00     0.338 C 
ATOM     30  O   UNL A   1      42.104  24.825  25.743  1.00  0.00    -0.246 OA
BRANCH  29  31
ATOM     31  C   UNL A   1      40.938  25.682  27.613  1.00  0.00     0.060 A 
ATOM     32  C   UNL A   1      41.886  26.692  27.806  1.00  0.00     0.016 A 
ATOM     33  C   UNL A   1      39.802  25.613  28.422  1.00  0.00     0.016 A 
ATOM     34  C   UNL A   1      41.708  27.633  28.815  1.00  0.00     0.010 A 
ATOM     35  C   UNL A   1      39.623  26.562  29.437  1.00  0.00     0.010 A 
ATOM     36  C   UNL A   1      40.581  27.570  29.646  1.00  0.00    -0.014 A 
BRANCH  36  37
ATOM     37  C   UNL A   1      40.433  28.562  30.739  1.00  0.00     0.031 A 
ATOM     38  C   UNL A   1      41.318  28.494  31.951  1.00  0.00     0.074 A 
ATOM     39  C   UNL A   1      39.533  29.554  30.614  1.00  0.00     0.049 A 
ATOM     40  N   UNL A   1      41.354  29.287  32.990  1.00  0.00    -0.248 NA
ATOM     41  C   UNL A   1      42.290  27.391  31.998  1.00  0.00     0.031 C 
ATOM     42  C   UNL A   1      38.631  29.735  29.474  1.00  0.00     0.029 A 
ATOM     43  N   UNL A   1      39.230  30.599  31.449  1.00  0.00    -0.354 N 
ATOM     44  C   UNL A   1      42.346  28.780  33.821  1.00  0.00     0.074 A 
ATOM     45  C   UNL A   1      42.872  27.595  33.172  1.00  0.00     0.031 C 
ATOM     46  C   UNL A   1      37.880  30.829  29.682  1.00  0.00     0.029 A 
ATOM     47  C   UNL A   1      38.224  31.407  30.978  1.00  0.00     0.049 A 
ATOM     48  H   UNL A   1      39.689  30.754  32.306  1.00  0.00     0.167 HD
ATOM     49  C   UNL A   1      42.785  29.261  35.010  1.00  0.00     0.037 A 
ATOM     50  C   UNL A   1      37.636  32.483  31.535  1.00  0.00     0.037 A 
ATOM     51  C   UNL A   1      42.258  30.439  35.652  1.00  0.00     0.049 A 
ATOM     52  C   UNL A   1      38.105  32.970  32.877  1.00  0.00     0.074 A 
ATOM     53  C   UNL A   1      42.656  31.020  36.843  1.00  0.00     0.029 A 
ATOM     54  N   UNL A   1      41.214  31.210  35.162  1.00  0.00    -0.354 N 
ATOM     55  N   UNL A   1      39.063  32.496  33.635  1.00  0.00    -0.248 NA
ATOM     56  C   UNL A   1      37.413  34.138  33.438  1.00  0.00     0.031 C 
ATOM     57  C   UNL A   1      41.824  32.119  37.095  1.00  0.00     0.029 A 
ATOM     58  C   UNL A   1      40.936  32.247  36.038  1.00  0.00     0.049 A 
ATOM     59  H   UNL A   1      40.740  31.044  34.315  1.00  0.00     0.167 HD
ATOM     60  C   UNL A   1      39.100  33.315  34.758  1.00  0.00     0.074 A 
ATOM     61  C   UNL A   1      38.076  34.324  34.572  1.00  0.00     0.031 C 
ATOM     62  C   UNL A   1      39.908  33.239  35.845  1.00  0.00     0.037 A 
BRANCH  49  63
ATOM     63  C   UNL A   1      43.873  28.494  35.707  1.00  0.00     0.058 A 
ATOM     64  C   UNL A   1      45.231  28.743  35.453  1.00  0.00     0.135 A 
ATOM     65  C   UNL A   1      43.554  27.506  36.652  1.00  0.00     0.135 A 
ATOM     66  F   UNL A   1      45.590  29.667  34.546  1.00  0.00    -0.206 F 
ATOM     67  C   UNL A   1      46.235  28.018  36.087  1.00  0.00     0.059 A 
ATOM     68  C   UNL A   1      44.542  26.783  37.315  1.00  0.00     0.059 A 
ATOM     69  F   UNL A   1      42.271  27.228  36.932  1.00  0.00    -0.206 F 
ATOM     70  C   UNL A   1      45.879  27.034  37.011  1.00  0.00     0.060 A 
BRANCH  70  71
ATOM     71  S   UNL A   1      47.189  26.081  37.809  1.00  0.00     0.124 S 
ATOM     72  O   UNL A   1      46.937  24.745  37.278  1.00  0.00    -0.237 OA
ATOM     73  O   UNL A   1      48.397  26.739  37.322  1.00  0.00    -0.237 OA
ATOM     74  O   UNL A   1      46.915  26.254  39.232  1.00  0.00    -0.744 OA
ENDBRANCH  70  71
ENDBRANCH  49  63
BRANCH  50  75
ATOM     75  C   UNL A   1      36.534  33.169  30.813  1.00  0.00     0.058 A 
ATOM     76  C   UNL A   1      35.201  33.010  31.213  1.00  0.00     0.135 A 
ATOM     77  C   UNL A   1      36.801  34.026  29.735  1.00  0.00     0.135 A 
ATOM     78  F   UNL A   1      34.900  32.196  32.236  1.00  0.00    -0.206 F 
ATOM     79  C   UNL A   1      34.166  33.681  30.571  1.00  0.00     0.059 A 
ATOM     80  C   UNL A   1      35.786  34.726  29.091  1.00  0.00     0.059 A 
ATOM     81  F   UNL A   1      38.064  34.220  29.325  1.00  0.00    -0.206 F 
ATOM     82  C   UNL A   1      34.470  34.544  29.516  1.00  0.00     0.060 A 
BRANCH  82  83
ATOM     83  S   UNL A   1      33.131  35.484  28.754  1.00  0.00     0.124 S 
ATOM     84  O   UNL A   1      32.464  34.458  27.962  1.00  0.00    -0.237 OA
ATOM     85  O   UNL A   1      32.402  35.972  29.921  1.00  0.00    -0.237 OA
ATOM     86  O   UNL A   1      33.837  36.513  27.995  1.00  0.00    -0.744 OA
ENDBRANCH  82  83
ENDBRANCH  50  75
BRANCH  62  87
ATOM     87  C   UNL A   1      39.727  34.283  36.911  1.00  0.00     0.058 A 
ATOM     88  C   UNL A   1      38.863  34.080  37.998  1.00  0.00     0.135 A 
ATOM     89  C   UNL A   1      40.452  35.484  36.863  1.00  0.00     0.135 A 
ATOM     90  F   UNL A   1      38.141  32.951  38.085  1.00  0.00    -0.206 F 
ATOM     91  C   UNL A   1      38.706  35.042  38.991  1.00  0.00     0.059 A 
ATOM     92  C   UNL A   1      40.328  36.451  37.856  1.00  0.00     0.059 A 
ATOM     93  F   UNL A   1      41.298  35.723  35.849  1.00  0.00    -0.206 F 
ATOM     94  C   UNL A   1      39.442  36.226  38.910  1.00  0.00     0.060 A 
BRANCH  94  95
ATOM     95  S   UNL A   1      39.250  37.458  40.215  1.00  0.00     0.124 S 
ATOM     96  O   UNL A   1      40.614  37.958  40.350  1.00  0.00    -0.237 OA
ATOM     97  O   UNL A   1      38.289  38.389  39.631  1.00  0.00    -0.237 OA
ATOM     98  O   UNL A   1      38.750  36.680  41.345  1.00  0.00    -0.744 OA
ENDBRANCH  94  95
ENDBRANCH  62  87
ENDBRANCH  36  37
ENDBRANCH  29  31
ENDBRANCH  28  29
ENDBRANCH  27  28
ENDBRANCH   1  27
TORSDOF 19
ENDMDL
MODEL 2
REMARK VINA RESULT:     -11.1      4.588      9.872
REMARK SMILES O=C(/C=C/C(=O)OCCOC(=O)c1ccc(-c2c3nc(c(-c4c(F)cc(S(=O)(=O)[O-])cc4F)c4ccc([nH]4)c(-c4c(F)cc(S(=O)(=O)[O-])cc4F)c4nc(c(-c5c(F)cc(S(=O)(=O)[O-])cc5F)c5ccc2[nH]5)C=C4)C=C3)cc1)NNC(=O)CSc1ccc2ccccc2n1
REMARK SMILES IDX 8 1 7 2 5 3 6 4 4 5 3 6 2 7 1 8 79 9 80 11 81 12 82 14 83 15
REMARK SMILES IDX 84 16 85 17 86 18 94 19 87 20 93 21 88 22 92 23 89 24 91 25
REMARK SMILES IDX 90 26 9 27 10 28 11 29 12 30 13 31 14 32 78 33 15 34 77 35
REMARK SMILES IDX 16 36 17 37 18 38 71 39 19 40 76 41 70 42 72 43 20 44 75 45
REMARK SMILES IDX 69 46 68 47 21 49 55 50 34 51 54 52 35 53 38 54 53 55 73 56
REMARK SMILES IDX 36 57 37 58 52 60 74 61 39 62 22 63 23 64 32 65 24 66 25 67
REMARK SMILES IDX 31 68 33 69 26 70 27 71 28 72 29 73 30 74 56 75 57 76 66 77
REMARK SMILES IDX 58 78 59 79 65 80 67 81 60 82 61 83 62 84 63 85 64 86 40 87
REMARK SMILES IDX 41 88 50 89 42 90 43 91 49 92 51 93 44 94 45 95 46 96 47 97
REMARK SMILES IDX 48 98
REMARK H PARENT 79 10 80 13 72 48 38 59
REMARK Flexibility Score: inf
ROOT
ATOM      1  C   UNL A   1      31.767  28.194  26.243  1.00  0.00     0.275 C 
ENDROOT
BRANCH   1   2
ATOM      2  O   UNL A   1      31.547  28.771  24.941  1.00  0.00    -0.459 OA
BRANCH   2   3
ATOM      3  C   UNL A   1      32.556  28.616  24.052  1.00  0.00     0.331 C 
ATOM      4  O   UNL A   1      33.460  29.407  23.842  1.00  0.00    -0.247 OA
BRANCH   3   5
ATOM      5  C   UNL A   1      32.525  27.304  23.376  1.00  0.00     0.099 C 
ATOM      6  C   UNL A   1      33.303  26.960  22.341  1.00  0.00     0.080 C 
BRANCH   6   7
ATOM      7  C   UNL A   1      33.152  25.653  21.662  1.00  0.00     0.262 C 
ATOM      8  O   UNL A   1      33.070  25.587  20.441  1.00  0.00    -0.268 OA
ATOM      9  N   UNL A   1      32.996  24.583  22.520  1.00  0.00    -0.264 N 
ATOM     10  H   UNL A   1      33.058  24.709  23.495  1.00  0.00     0.191 HD
BRANCH   9  11
ATOM     11  N   UNL A   1      32.748  23.322  21.982  1.00  0.00    -0.267 N 
ATOM     12  C   UNL A   1      32.208  22.264  22.675  1.00  0.00     0.248 C 
ATOM     13  H   UNL A   1      32.975  23.178  21.036  1.00  0.00     0.191 HD
ATOM     14  O   UNL A   1      32.057  21.180  22.105  1.00  0.00    -0.272 OA
BRANCH  12  15
ATOM     15  C   UNL A   1      31.812  22.464  24.129  1.00  0.00     0.178 C 
BRANCH  15  16
ATOM     16  S   UNL A   1      32.257  20.968  25.065  1.00  0.00    -0.096 SA
BRANCH  16  17
ATOM     17  C   UNL A   1      34.031  21.066  25.155  1.00  0.00     0.097 A 
ATOM     18  C   UNL A   1      34.892  20.020  24.855  1.00  0.00     0.036 A 
ATOM     19  N   UNL A   1      34.482  22.280  25.545  1.00  0.00    -0.241 NA
ATOM     20  C   UNL A   1      36.265  20.222  24.993  1.00  0.00     0.013 A 
ATOM     21  C   UNL A   1      35.807  22.483  25.656  1.00  0.00     0.072 A 
ATOM     22  C   UNL A   1      36.749  21.467  25.407  1.00  0.00     0.000 A 
ATOM     23  C   UNL A   1      36.274  23.736  26.030  1.00  0.00     0.029 A 
ATOM     24  C   UNL A   1      38.122  21.721  25.568  1.00  0.00     0.010 A 
ATOM     25  C   UNL A   1      37.639  23.994  26.188  1.00  0.00     0.002 A 
ATOM     26  C   UNL A   1      38.563  22.982  25.965  1.00  0.00     0.001 A 
ENDBRANCH  16  17
ENDBRANCH  15  16
ENDBRANCH  12  15
ENDBRANCH   9  11
ENDBRANCH   6   7
ENDBRANCH   3   5
ENDBRANCH   2   3
ENDBRANCH   1   2
BRANCH   1  27
ATOM     27  C   UNL A   1      32.264  29.239  27.250  1.00  0.00     0.275 C 
BRANCH  27  28
ATOM     28  O   UNL A   1      33.622  29.003  27.662  1.00  0.00    -0.458 OA
BRANCH  28  29
ATOM     29  C   UNL A   1      34.368  30.116  27.850  1.00  0.00     0.338 C 
ATOM     30  O   UNL A   1      33.960  31.264  27.962  1.00  0.00    -0.246 OA
BRANCH  29  31
ATOM     31  C   UNL A   1      35.780  29.759  28.063  1.00  0.00     0.060 A 
ATOM     32  C   UNL A   1      36.169  29.426  29.365  1.00  0.00     0.016 A 
ATOM     33  C   UNL A   1      36.724  29.815  27.035  1.00  0.00     0.016 A 
ATOM     34  C   UNL A   1      37.504  29.157  29.648  1.00  0.00     0.010 A 
ATOM     35  C   UNL A   1      38.068  29.542  27.321  1.00  0.00     0.010 A 
ATOM     36  C   UNL A   1      38.467  29.223  28.631  1.00  0.00    -0.014 A 
BRANCH  36  37
ATOM     37  C   UNL A   1      39.890  28.969  28.966  1.00  0.00     0.031 A 
ATOM     38  C   UNL A   1      40.522  27.647  28.640  1.00  0.00     0.074 A 
ATOM     39  C   UNL A   1      40.623  29.952  29.519  1.00  0.00     0.049 A 
ATOM     40  N   UNL A   1      41.755  27.254  28.832  1.00  0.00    -0.248 NA
ATOM     41  C   UNL A   1      39.656  26.636  28.016  1.00  0.00     0.031 C 
ATOM     42  C   UNL A   1      40.124  31.285  29.864  1.00  0.00     0.029 A 
ATOM     43  N   UNL A   1      41.945  29.985  29.886  1.00  0.00    -0.354 N 
ATOM     44  C   UNL A   1      41.816  25.948  28.359  1.00  0.00     0.074 A 
ATOM     45  C   UNL A   1      40.486  25.609  27.892  1.00  0.00     0.031 C 
ATOM     46  C   UNL A   1      41.130  32.007  30.386  1.00  0.00     0.029 A 
ATOM     47  C   UNL A   1      42.332  31.179  30.443  1.00  0.00     0.049 A 
ATOM     48  H   UNL A   1      42.557  29.224  29.762  1.00  0.00     0.167 HD
ATOM     49  C   UNL A   1      42.882  25.113  28.310  1.00  0.00     0.037 A 
ATOM     50  C   UNL A   1      43.519  31.560  30.954  1.00  0.00     0.037 A 
ATOM     51  C   UNL A   1      44.201  25.454  28.777  1.00  0.00     0.049 A 
ATOM     52  C   UNL A   1      44.674  30.599  30.935  1.00  0.00     0.074 A 
ATOM     53  C   UNL A   1      45.352  24.684  28.745  1.00  0.00     0.029 A 
ATOM     54  N   UNL A   1      44.547  26.660  29.369  1.00  0.00    -0.354 N 
ATOM     55  N   UNL A   1      44.722  29.379  30.458  1.00  0.00    -0.248 NA
ATOM     56  C   UNL A   1      45.937  31.068  31.523  1.00  0.00     0.031 C 
ATOM     57  C   UNL A   1      46.383  25.410  29.356  1.00  0.00     0.029 A 
ATOM     58  C   UNL A   1      45.884  26.648  29.730  1.00  0.00     0.049 A 
ATOM     59  H   UNL A   1      43.930  27.415  29.512  1.00  0.00     0.167 HD
ATOM     60  C   UNL A   1      46.021  28.937  30.675  1.00  0.00     0.074 A 
ATOM     61  C   UNL A   1      46.732  30.027  31.313  1.00  0.00     0.031 C 
ATOM     62  C   UNL A   1      46.577  27.737  30.373  1.00  0.00     0.037 A 
BRANCH  49  63
ATOM     63  C   UNL A   1      42.655  23.735  27.756  1.00  0.00     0.058 A 
ATOM     64  C   UNL A   1      42.461  22.625  28.594  1.00  0.00     0.135 A 
ATOM     65  C   UNL A   1      42.616  23.522  26.368  1.00  0.00     0.135 A 
ATOM     66  F   UNL A   1      42.506  22.770  29.928  1.00  0.00    -0.206 F 
ATOM     67  C   UNL A   1      42.270  21.347  28.077  1.00  0.00     0.059 A 
ATOM     68  C   UNL A   1      42.403  22.257  25.829  1.00  0.00     0.059 A 
ATOM     69  F   UNL A   1      42.794  24.549  25.522  1.00  0.00    -0.206 F 
ATOM     70  C   UNL A   1      42.250  21.173  26.692  1.00  0.00     0.060 A 
BRANCH  70  71
ATOM     71  S   UNL A   1      42.026  19.507  26.032  1.00  0.00     0.124 S 
ATOM     72  O   UNL A   1      40.584  19.477  25.808  1.00  0.00    -0.237 OA
ATOM     73  O   UNL A   1      42.854  19.531  24.831  1.00  0.00    -0.237 OA
ATOM     74  O   UNL A   1      42.512  18.648  27.108  1.00  0.00    -0.744 OA
ENDBRANCH  70  71
ENDBRANCH  49  63
BRANCH  50  75
ATOM     75  C   UNL A   1      43.663  32.922  31.529  1.00  0.00     0.058 A 
ATOM     76  C   UNL A   1      44.154  33.983  30.755  1.00  0.00     0.135 A 
ATOM     77  C   UNL A   1      43.274  33.195  32.848  1.00  0.00     0.135 A 
ATOM     78  F   UNL A   1      44.543  33.766  29.490  1.00  0.00    -0.206 F 
ATOM     79  C   UNL A   1      44.253  35.270  31.270  1.00  0.00     0.059 A 
ATOM     80  C   UNL A   1      43.342  34.479  33.379  1.00  0.00     0.059 A 
ATOM     81  F   UNL A   1      42.784  32.214  33.622  1.00  0.00    -0.206 F 
ATOM     82  C   UNL A   1      43.835  35.510  32.580  1.00  0.00     0.060 A 
BRANCH  82  83
ATOM     83  S   UNL A   1      43.876  37.202  33.206  1.00  0.00     0.124 S 
ATOM     84  O   UNL A   1      45.160  37.231  33.897  1.00  0.00    -0.237 OA
ATOM     85  O   UNL A   1      43.791  37.982  31.974  1.00  0.00    -0.237 OA
ATOM     86  O   UNL A   1      42.694  37.271  34.059  1.00  0.00    -0.744 OA
ENDBRANCH  82  83
ENDBRANCH  50  75
BRANCH  62  87
ATOM     87  C   UNL A   1      48.027  27.545  30.717  1.00  0.00     0.058 A 
ATOM     88  C   UNL A   1      48.423  26.931  31.915  1.00  0.00     0.135 A 
ATOM     89  C   UNL A   1      49.032  27.946  29.822  1.00  0.00     0.135 A 
ATOM     90  F   UNL A   1      47.500  26.537  32.808  1.00  0.00    -0.206 F 
ATOM     91  C   UNL A   1      49.766  26.742  32.226  1.00  0.00     0.059 A 
ATOM     92  C   UNL A   1      50.380  27.747  30.102  1.00  0.00     0.059 A 
ATOM     93  F   UNL A   1      48.706  28.529  28.657  1.00  0.00    -0.206 F 
ATOM     94  C   UNL A   1      50.738  27.155  31.313  1.00  0.00     0.060 A 
BRANCH  94  95
ATOM     95  S   UNL A   1      52.477  26.885  31.715  1.00  0.00     0.124 S 
ATOM     96  O   UNL A   1      52.936  26.145  30.544  1.00  0.00    -0.237 OA
ATOM     97  O   UNL A   1      52.986  28.246  31.845  1.00  0.00    -0.237 OA
ATOM     98  O   UNL A   1      52.422  26.122  32.959  1.00  0.00    -0.744 OA
ENDBRANCH  94  95
ENDBRANCH  62  87
ENDBRANCH  36  37
ENDBRANCH  29  31
ENDBRANCH  28  29
ENDBRANCH  27  28
ENDBRANCH   1  27
TORSDOF 19
ENDMDL
MODEL 3
REMARK VINA RESULT:     -11.1      4.425     10.517
REMARK SMILES O=C(/C=C/C(=O)OCCOC(=O)c1ccc(-c2c3nc(c(-c4c(F)cc(S(=O)(=O)[O-])cc4F)c4ccc([nH]4)c(-c4c(F)cc(S(=O)(=O)[O-])cc4F)c4nc(c(-c5c(F)cc(S(=O)(=O)[O-])cc5F)c5ccc2[nH]5)C=C4)C=C3)cc1)NNC(=O)CSc1ccc2ccccc2n1
REMARK SMILES IDX 8 1 7 2 5 3 6 4 4 5 3 6 2 7 1 8 79 9 80 11 81 12 82 14 83 15
REMARK SMILES IDX 84 16 85 17 86 18 94 19 87 20 93 21 88 22 92 23 89 24 91 25
REMARK SMILES IDX 90 26 9 27 10 28 11 29 12 30 13 31 14 32 78 33 15 34 77 35
REMARK SMILES IDX 16 36 17 37 18 38 71 39 19 40 76 41 70 42 72 43 20 44 75 45
REMARK SMILES IDX 69 46 68 47 21 49 55 50 34 51 54 52 35 53 38 54 53 55 73 56
REMARK SMILES IDX 36 57 37 58 52 60 74 61 39 62 22 63 23 64 32 65 24 66 25 67
REMARK SMILES IDX 31 68 33 69 26 70 27 71 28 72 29 73 30 74 56 75 57 76 66 77
REMARK SMILES IDX 58 78 59 79 65 80 67 81 60 82 61 83 62 84 63 85 64 86 40 87
REMARK SMILES IDX 41 88 50 89 42 90 43 91 49 92 51 93 44 94 45 95 46 96 47 97
REMARK SMILES IDX 48 98
REMARK H PARENT 79 10 80 13 72 48 38 59
REMARK Flexibility Score: inf
ROOT
ATOM      1  C   UNL A   1      31.685  28.489  26.262  1.00  0.00     0.275 C 
ENDROOT
BRANCH   1   2
ATOM      2  O   UNL A   1      31.515  28.873  24.883  1.00  0.00    -0.459 OA
BRANCH   2   3
ATOM      3  C   UNL A   1      32.583  28.663  24.079  1.00  0.00     0.331 C 
ATOM      4  O   UNL A   1      33.543  29.404  23.947  1.00  0.00    -0.247 OA
BRANCH   3   5
ATOM      5  C   UNL A   1      32.538  27.354  23.398  1.00  0.00     0.099 C 
ATOM      6  C   UNL A   1      33.342  26.989  22.391  1.00  0.00     0.080 C 
BRANCH   6   7
ATOM      7  C   UNL A   1      33.177  25.689  21.702  1.00  0.00     0.262 C 
ATOM      8  O   UNL A   1      33.006  25.640  20.489  1.00  0.00    -0.268 OA
ATOM      9  N   UNL A   1      33.113  24.602  22.550  1.00  0.00    -0.264 N 
ATOM     10  H   UNL A   1      33.245  24.714  23.520  1.00  0.00     0.191 HD
BRANCH   9  11
ATOM     11  N   UNL A   1      32.860  23.343  22.009  1.00  0.00    -0.267 N 
ATOM     12  C   UNL A   1      32.269  22.302  22.685  1.00  0.00     0.248 C 
ATOM     13  H   UNL A   1      33.122  23.188  21.074  1.00  0.00     0.191 HD
ATOM     14  O   UNL A   1      32.118  21.218  22.116  1.00  0.00    -0.272 OA
BRANCH  12  15
ATOM     15  C   UNL A   1      31.818  22.520  24.120  1.00  0.00     0.178 C 
BRANCH  15  16
ATOM     16  S   UNL A   1      32.234  21.039  25.093  1.00  0.00    -0.096 SA
BRANCH  16  17
ATOM     17  C   UNL A   1      34.011  21.093  25.164  1.00  0.00     0.097 A 
ATOM     18  C   UNL A   1      34.843  20.031  24.841  1.00  0.00     0.036 A 
ATOM     19  N   UNL A   1      34.495  22.291  25.565  1.00  0.00    -0.241 NA
ATOM     20  C   UNL A   1      36.222  20.198  24.966  1.00  0.00     0.013 A 
ATOM     21  C   UNL A   1      35.825  22.461  25.663  1.00  0.00     0.072 A 
ATOM     22  C   UNL A   1      36.740  21.426  25.390  1.00  0.00     0.000 A 
ATOM     23  C   UNL A   1      36.326  23.698  26.048  1.00  0.00     0.029 A 
ATOM     24  C   UNL A   1      38.121  21.645  25.539  1.00  0.00     0.010 A 
ATOM     25  C   UNL A   1      37.698  23.922  26.193  1.00  0.00     0.002 A 
ATOM     26  C   UNL A   1      38.596  22.890  25.947  1.00  0.00     0.001 A 
ENDBRANCH  16  17
ENDBRANCH  15  16
ENDBRANCH  12  15
ENDBRANCH   9  11
ENDBRANCH   6   7
ENDBRANCH   3   5
ENDBRANCH   2   3
ENDBRANCH   1   2
BRANCH   1  27
ATOM     27  C   UNL A   1      32.268  29.633  27.101  1.00  0.00     0.275 C 
BRANCH  27  28
ATOM     28  O   UNL A   1      33.565  29.316  27.637  1.00  0.00    -0.458 OA
BRANCH  28  29
ATOM     29  C   UNL A   1      34.343  30.384  27.928  1.00  0.00     0.338 C 
ATOM     30  O   UNL A   1      33.970  31.530  28.139  1.00  0.00    -0.246 OA
BRANCH  29  31
ATOM     31  C   UNL A   1      35.742  29.965  28.116  1.00  0.00     0.060 A 
ATOM     32  C   UNL A   1      36.105  29.488  29.380  1.00  0.00     0.016 A 
ATOM     33  C   UNL A   1      36.700  30.099  27.109  1.00  0.00     0.016 A 
ATOM     34  C   UNL A   1      37.428  29.152  29.646  1.00  0.00     0.010 A 
ATOM     35  C   UNL A   1      38.032  29.758  27.377  1.00  0.00     0.010 A 
ATOM     36  C   UNL A   1      38.405  29.294  28.651  1.00  0.00    -0.014 A 
BRANCH  36  37
ATOM     37  C   UNL A   1      39.816  28.965  28.971  1.00  0.00     0.031 A 
ATOM     38  C   UNL A   1      40.683  29.959  29.688  1.00  0.00     0.074 A 
ATOM     39  C   UNL A   1      40.297  27.748  28.659  1.00  0.00     0.049 A 
ATOM     40  N   UNL A   1      41.927  29.839  30.076  1.00  0.00    -0.248 NA
ATOM     41  C   UNL A   1      40.072  31.256  30.013  1.00  0.00     0.031 C 
ATOM     42  C   UNL A   1      39.544  26.692  27.979  1.00  0.00     0.029 A 
ATOM     43  N   UNL A   1      41.533  27.192  28.874  1.00  0.00    -0.354 N 
ATOM     44  C   UNL A   1      42.253  31.044  30.686  1.00  0.00     0.074 A 
ATOM     45  C   UNL A   1      41.080  31.891  30.595  1.00  0.00     0.031 C 
ATOM     46  C   UNL A   1      40.333  25.614  27.839  1.00  0.00     0.029 A 
ATOM     47  C   UNL A   1      41.653  25.913  28.388  1.00  0.00     0.049 A 
ATOM     48  H   UNL A   1      42.264  27.665  29.332  1.00  0.00     0.167 HD
ATOM     49  C   UNL A   1      43.418  31.409  31.275  1.00  0.00     0.037 A 
ATOM     50  C   UNL A   1      42.712  25.080  28.374  1.00  0.00     0.037 A 
ATOM     51  C   UNL A   1      44.582  30.564  31.361  1.00  0.00     0.049 A 
ATOM     52  C   UNL A   1      44.010  25.524  28.988  1.00  0.00     0.074 A 
ATOM     53  C   UNL A   1      45.800  30.834  31.961  1.00  0.00     0.029 A 
ATOM     54  N   UNL A   1      44.678  29.288  30.824  1.00  0.00    -0.354 N 
ATOM     55  N   UNL A   1      44.292  26.656  29.586  1.00  0.00    -0.248 NA
ATOM     56  C   UNL A   1      45.131  24.577  28.927  1.00  0.00     0.031 C 
ATOM     57  C   UNL A   1      46.646  29.738  31.751  1.00  0.00     0.029 A 
ATOM     58  C   UNL A   1      45.941  28.768  31.057  1.00  0.00     0.049 A 
ATOM     59  H   UNL A   1      43.954  28.821  30.348  1.00  0.00     0.167 HD
ATOM     60  C   UNL A   1      45.619  26.554  29.984  1.00  0.00     0.074 A 
ATOM     61  C   UNL A   1      46.080  25.243  29.572  1.00  0.00     0.031 C 
ATOM     62  C   UNL A   1      46.389  27.464  30.634  1.00  0.00     0.037 A 
BRANCH  49  63
ATOM     63  C   UNL A   1      43.499  32.796  31.847  1.00  0.00     0.058 A 
ATOM     64  C   UNL A   1      43.235  33.052  33.202  1.00  0.00     0.135 A 
ATOM     65  C   UNL A   1      43.858  33.882  31.033  1.00  0.00     0.135 A 
ATOM     66  F   UNL A   1      42.871  32.050  34.020  1.00  0.00    -0.206 F 
ATOM     67  C   UNL A   1      43.292  34.340  33.724  1.00  0.00     0.059 A 
ATOM     68  C   UNL A   1      43.944  35.176  31.539  1.00  0.00     0.059 A 
ATOM     69  F   UNL A   1      44.121  33.693  29.731  1.00  0.00    -0.206 F 
ATOM     70  C   UNL A   1      43.641  35.397  32.882  1.00  0.00     0.060 A 
BRANCH  70  71
ATOM     71  S   UNL A   1      43.688  37.069  33.563  1.00  0.00     0.124 S 
ATOM     72  O   UNL A   1      43.783  37.872  32.349  1.00  0.00    -0.237 OA
ATOM     73  O   UNL A   1      42.420  37.151  34.280  1.00  0.00    -0.237 OA
ATOM     74  O   UNL A   1      44.881  37.059  34.404  1.00  0.00    -0.744 OA
ENDBRANCH  70  71
ENDBRANCH  49  63
BRANCH  50  75
ATOM     75  C   UNL A   1      42.578  23.739  27.751  1.00  0.00     0.058 A 
ATOM     76  C   UNL A   1      42.698  23.572  26.365  1.00  0.00     0.135 A 
ATOM     77  C   UNL A   1      42.368  22.595  28.536  1.00  0.00     0.135 A 
ATOM     78  F   UNL A   1      42.895  24.638  25.575  1.00  0.00    -0.206 F 
ATOM     79  C   UNL A   1      42.617  22.315  25.776  1.00  0.00     0.059 A 
ATOM     80  C   UNL A   1      42.306  21.325  27.973  1.00  0.00     0.059 A 
ATOM     81  F   UNL A   1      42.260  22.704  29.869  1.00  0.00    -0.206 F 
ATOM     82  C   UNL A   1      42.430  21.196  26.590  1.00  0.00     0.060 A 
BRANCH  82  83
ATOM     83  S   UNL A   1      42.424  19.561  25.826  1.00  0.00     0.124 S 
ATOM     84  O   UNL A   1      42.835  18.714  26.939  1.00  0.00    -0.237 OA
ATOM     85  O   UNL A   1      41.033  19.432  25.399  1.00  0.00    -0.237 OA
ATOM     86  O   UNL A   1      43.391  19.697  24.740  1.00  0.00    -0.744 OA
ENDBRANCH  82  83
ENDBRANCH  50  75
BRANCH  62  87
ATOM     87  C   UNL A   1      47.803  27.068  30.949  1.00  0.00     0.058 A 
ATOM     88  C   UNL A   1      48.852  27.305  30.047  1.00  0.00     0.135 A 
ATOM     89  C   UNL A   1      48.120  26.477  32.183  1.00  0.00     0.135 A 
ATOM     90  F   UNL A   1      48.600  27.860  28.851  1.00  0.00    -0.206 F 
ATOM     91  C   UNL A   1      50.163  26.949  30.347  1.00  0.00     0.059 A 
ATOM     92  C   UNL A   1      49.427  26.133  32.513  1.00  0.00     0.059 A 
ATOM     93  F   UNL A   1      47.154  26.237  33.085  1.00  0.00    -0.206 F 
ATOM     94  C   UNL A   1      50.440  26.361  31.583  1.00  0.00     0.060 A 
BRANCH  94  95
ATOM     95  S   UNL A   1      52.148  25.924  31.973  1.00  0.00     0.124 S 
ATOM     96  O   UNL A   1      52.874  26.592  30.897  1.00  0.00    -0.237 OA
ATOM     97  O   UNL A   1      52.324  26.494  33.305  1.00  0.00    -0.237 OA
ATOM     98  O   UNL A   1      52.145  24.465  31.917  1.00  0.00    -0.744 OA
ENDBRANCH  94  95
ENDBRANCH  62  87
ENDBRANCH  36  37
ENDBRANCH  29  31
ENDBRANCH  28  29
ENDBRANCH  27  28
ENDBRANCH   1  27
TORSDOF 19
ENDMDL
