MODEL 1
REMARK VINA RESULT:     -11.3      0.000      0.000
REMARK SMILES C[C@@H]1CCCN(c2cc(Br)ccc2/C=C/C(=O)OCCOC(=O)c2ccc(-c3c4nc(c(-c5c(F)cc(S(=O)(=O)[O-])cc5F)c5ccc([nH]5)c(-c5c(F)cc(S(=O)(=O)[O-])cc5F)c5nc(c(-c6c(F)cc(S(=O)(=O)[O-])cc6F)c6ccc3[nH]6)C=C5)C=C4)cc2)C1
REMARK SMILES IDX 20 1 19 2 18 3 16 4 17 5 15 6 14 7 13 8 7 9 8 10 9 11 12 12
REMARK SMILES IDX 10 13 11 14 6 15 1 16 2 17 3 18 90 19 4 20 5 21 21 22 22 23
REMARK SMILES IDX 23 24 24 25 25 26 89 27 26 28 88 29 27 30 28 31 29 32 82 33
REMARK SMILES IDX 30 34 87 35 81 36 83 37 31 38 86 39 80 40 79 41 32 43 66 44
REMARK SMILES IDX 45 45 65 46 46 47 49 48 64 49 84 50 47 51 48 52 63 54 85 55
REMARK SMILES IDX 50 56 33 57 34 58 43 59 35 60 36 61 42 62 44 63 37 64 38 65
REMARK SMILES IDX 39 66 40 67 41 68 67 69 68 70 77 71 69 72 70 73 76 74 78 75
REMARK SMILES IDX 71 76 72 77 73 78 74 79 75 80 51 81 52 82 61 83 53 84 54 85
REMARK SMILES IDX 60 86 62 87 55 88 56 89 57 90 58 91 59 92
REMARK H PARENT 83 42 49 53
REMARK Flexibility Score: inf
ROOT
ATOM      1  C   UNL A   1      38.041  23.842  26.088  1.00  0.00     0.275 C 
ENDROOT
BRANCH   1   2
ATOM      2  C   UNL A   1      37.850  22.487  25.401  1.00  0.00     0.275 C 
BRANCH   2   3
ATOM      3  O   UNL A   1      36.508  22.334  24.902  1.00  0.00    -0.459 OA
BRANCH   3   4
ATOM      4  C   UNL A   1      36.256  22.924  23.710  1.00  0.00     0.330 C 
ATOM      5  O   UNL A   1      37.016  22.967  22.753  1.00  0.00    -0.247 OA
BRANCH   4   6
ATOM      6  C   UNL A   1      34.913  23.531  23.642  1.00  0.00     0.094 C 
ATOM      7  C   UNL A   1      34.486  24.568  24.379  1.00  0.00     0.018 C 
BRANCH   7   8
ATOM      8  C   UNL A   1      33.105  25.088  24.297  1.00  0.00    -0.002 A 
ATOM      9  C   UNL A   1      32.019  24.426  24.916  1.00  0.00     0.045 A 
ATOM     10  C   UNL A   1      30.727  24.957  24.737  1.00  0.00     0.042 A 
ATOM     11  C   UNL A   1      30.507  26.097  23.967  1.00  0.00     0.020 A 
ATOM     12  C   UNL A   1      32.857  26.221  23.493  1.00  0.00     0.011 A 
ATOM     13  Br  UNL A   1      28.755  26.785  23.786  1.00  0.00    -0.051 Br
ATOM     14  C   UNL A   1      31.567  26.729  23.335  1.00  0.00     0.016 A 
BRANCH   9  15
ATOM     15  N   UNL A   1      32.150  23.291  25.699  1.00  0.00    -0.371 N 
ATOM     16  C   UNL A   1      32.698  19.596  25.048  1.00  0.00     0.009 C 
ATOM     17  C   UNL A   1      33.015  21.024  25.483  1.00  0.00     0.005 C 
ATOM     18  C   UNL A   1      33.392  21.067  26.973  1.00  0.00     0.007 C 
ATOM     19  C   UNL A   1      31.834  21.965  25.185  1.00  0.00     0.119 C 
ATOM     20  C   UNL A   1      33.665  22.500  27.432  1.00  0.00     0.022 C 
ATOM     21  C   UNL A   1      32.490  23.419  27.112  1.00  0.00     0.116 C 
ENDBRANCH   9  15
ENDBRANCH   7   8
ENDBRANCH   4   6
ENDBRANCH   3   4
ENDBRANCH   2   3
ENDBRANCH   1   2
BRANCH   1  22
ATOM     22  O   UNL A   1      39.247  23.884  26.871  1.00  0.00    -0.458 OA
BRANCH  22  23
ATOM     23  C   UNL A   1      40.113  24.873  26.541  1.00  0.00     0.338 C 
ATOM     24  O   UNL A   1      40.661  25.040  25.464  1.00  0.00    -0.246 OA
BRANCH  23  25
ATOM     25  C   UNL A   1      40.242  25.818  27.664  1.00  0.00     0.060 A 
ATOM     26  C   UNL A   1      39.318  25.733  28.710  1.00  0.00     0.016 A 
ATOM     27  C   UNL A   1      41.210  26.825  27.650  1.00  0.00     0.016 A 
ATOM     28  C   UNL A   1      39.349  26.669  29.744  1.00  0.00     0.010 A 
ATOM     29  C   UNL A   1      41.239  27.761  28.687  1.00  0.00     0.010 A 
ATOM     30  C   UNL A   1      40.299  27.700  29.731  1.00  0.00    -0.014 A 
BRANCH  30  31
ATOM     31  C   UNL A   1      40.272  28.760  30.769  1.00  0.00     0.031 A 
ATOM     32  C   UNL A   1      41.208  28.672  31.943  1.00  0.00     0.074 A 
ATOM     33  C   UNL A   1      39.409  29.786  30.666  1.00  0.00     0.049 A 
ATOM     34  N   UNL A   1      41.278  29.432  33.004  1.00  0.00    -0.248 NA
ATOM     35  C   UNL A   1      42.191  27.577  31.918  1.00  0.00     0.031 C 
ATOM     36  C   UNL A   1      38.478  29.997  29.557  1.00  0.00     0.029 A 
ATOM     37  N   UNL A   1      39.167  30.839  31.512  1.00  0.00    -0.354 N 
ATOM     38  C   UNL A   1      42.300  28.904  33.782  1.00  0.00     0.074 A 
ATOM     39  C   UNL A   1      42.809  27.745  33.080  1.00  0.00     0.031 C 
ATOM     40  C   UNL A   1      37.758  31.106  29.796  1.00  0.00     0.029 A 
ATOM     41  C   UNL A   1      38.149  31.662  31.091  1.00  0.00     0.049 A 
ATOM     42  H   UNL A   1      39.674  30.991  32.342  1.00  0.00     0.167 HD
ATOM     43  C   UNL A   1      42.774  29.347  34.972  1.00  0.00     0.037 A 
ATOM     44  C   UNL A   1      37.579  32.724  31.693  1.00  0.00     0.037 A 
ATOM     45  C   UNL A   1      42.266  30.505  35.663  1.00  0.00     0.049 A 
ATOM     46  C   UNL A   1      38.087  33.167  33.040  1.00  0.00     0.074 A 
ATOM     47  C   UNL A   1      42.682  31.039  36.869  1.00  0.00     0.029 A 
ATOM     48  N   UNL A   1      41.230  31.307  35.207  1.00  0.00    -0.354 N 
ATOM     49  N   UNL A   1      39.054  32.659  33.764  1.00  0.00    -0.248 NA
ATOM     50  C   UNL A   1      37.423  34.328  33.652  1.00  0.00     0.031 C 
ATOM     51  C   UNL A   1      41.873  32.143  37.161  1.00  0.00     0.029 A 
ATOM     52  C   UNL A   1      40.983  32.323  36.115  1.00  0.00     0.049 A 
ATOM     53  H   UNL A   1      40.741  31.174  34.362  1.00  0.00     0.167 HD
ATOM     54  C   UNL A   1      39.136  33.454  34.902  1.00  0.00     0.074 A 
ATOM     55  C   UNL A   1      38.122  34.480  34.769  1.00  0.00     0.031 C 
ATOM     56  C   UNL A   1      39.979  33.348  35.959  1.00  0.00     0.037 A 
BRANCH  43  57
ATOM     57  C   UNL A   1      43.882  28.562  35.615  1.00  0.00     0.058 A 
ATOM     58  C   UNL A   1      43.621  27.522  36.521  1.00  0.00     0.135 A 
ATOM     59  C   UNL A   1      45.223  28.836  35.302  1.00  0.00     0.135 A 
ATOM     60  F   UNL A   1      42.357  27.228  36.867  1.00  0.00    -0.206 F 
ATOM     61  C   UNL A   1      44.652  26.801  37.118  1.00  0.00     0.059 A 
ATOM     62  C   UNL A   1      46.270  28.113  35.868  1.00  0.00     0.059 A 
ATOM     63  F   UNL A   1      45.529  29.820  34.442  1.00  0.00    -0.206 F 
ATOM     64  C   UNL A   1      45.973  27.108  36.788  1.00  0.00     0.060 A 
BRANCH  64  65
ATOM     65  S   UNL A   1      47.301  26.172  37.576  1.00  0.00     0.124 S 
ATOM     66  O   UNL A   1      48.482  26.763  36.952  1.00  0.00    -0.237 OA
ATOM     67  O   UNL A   1      47.110  26.484  38.990  1.00  0.00    -0.237 OA
ATOM     68  O   UNL A   1      47.016  24.792  37.197  1.00  0.00    -0.744 OA
ENDBRANCH  64  65
ENDBRANCH  43  57
BRANCH  44  69
ATOM     69  C   UNL A   1      36.455  33.436  31.030  1.00  0.00     0.058 A 
ATOM     70  C   UNL A   1      35.152  33.362  31.540  1.00  0.00     0.135 A 
ATOM     71  C   UNL A   1      36.664  34.212  29.879  1.00  0.00     0.135 A 
ATOM     72  F   UNL A   1      34.900  32.624  32.632  1.00  0.00    -0.206 F 
ATOM     73  C   UNL A   1      34.090  34.022  30.928  1.00  0.00     0.059 A 
ATOM     74  C   UNL A   1      35.625  34.901  29.263  1.00  0.00     0.059 A 
ATOM     75  F   UNL A   1      37.896  34.323  29.357  1.00  0.00    -0.206 F 
ATOM     76  C   UNL A   1      34.338  34.792  29.790  1.00  0.00     0.060 A 
BRANCH  76  77
ATOM     77  S   UNL A   1      32.965  35.686  29.031  1.00  0.00     0.124 S 
ATOM     78  O   UNL A   1      32.377  34.655  28.184  1.00  0.00    -0.237 OA
ATOM     79  O   UNL A   1      32.176  36.083  30.193  1.00  0.00    -0.237 OA
ATOM     80  O   UNL A   1      33.626  36.781  28.327  1.00  0.00    -0.744 OA
ENDBRANCH  76  77
ENDBRANCH  44  69
BRANCH  56  81
ATOM     81  C   UNL A   1      39.880  34.391  37.037  1.00  0.00     0.058 A 
ATOM     82  C   UNL A   1      40.559  35.615  36.946  1.00  0.00     0.135 A 
ATOM     83  C   UNL A   1      39.040  34.185  38.143  1.00  0.00     0.135 A 
ATOM     84  F   UNL A   1      41.380  35.857  35.912  1.00  0.00    -0.206 F 
ATOM     85  C   UNL A   1      40.419  36.597  37.923  1.00  0.00     0.059 A 
ATOM     86  C   UNL A   1      38.867  35.162  39.119  1.00  0.00     0.059 A 
ATOM     87  F   UNL A   1      38.360  33.035  38.273  1.00  0.00    -0.206 F 
ATOM     88  C   UNL A   1      39.567  36.361  39.005  1.00  0.00     0.060 A 
BRANCH  88  89
ATOM     89  S   UNL A   1      39.356  37.661  40.241  1.00  0.00     0.124 S 
ATOM     90  O   UNL A   1      38.290  38.461  39.649  1.00  0.00    -0.237 OA
ATOM     91  O   UNL A   1      38.994  36.903  41.434  1.00  0.00    -0.237 OA
ATOM     92  O   UNL A   1      40.669  38.300  40.287  1.00  0.00    -0.744 OA
ENDBRANCH  88  89
ENDBRANCH  56  81
ENDBRANCH  30  31
ENDBRANCH  23  25
ENDBRANCH  22  23
ENDBRANCH   1  22
TORSDOF 16
ENDMDL
MODEL 2
REMARK VINA RESULT:     -11.3      6.836     12.281
REMARK SMILES C[C@@H]1CCCN(c2cc(Br)ccc2/C=C/C(=O)OCCOC(=O)c2ccc(-c3c4nc(c(-c5c(F)cc(S(=O)(=O)[O-])cc5F)c5ccc([nH]5)c(-c5c(F)cc(S(=O)(=O)[O-])cc5F)c5nc(c(-c6c(F)cc(S(=O)(=O)[O-])cc6F)c6ccc3[nH]6)C=C5)C=C4)cc2)C1
REMARK SMILES IDX 20 1 19 2 18 3 16 4 17 5 15 6 14 7 13 8 7 9 8 10 9 11 12 12
REMARK SMILES IDX 10 13 11 14 6 15 1 16 2 17 3 18 90 19 4 20 5 21 21 22 22 23
REMARK SMILES IDX 23 24 24 25 25 26 89 27 26 28 88 29 27 30 28 31 29 32 82 33
REMARK SMILES IDX 30 34 87 35 81 36 83 37 31 38 86 39 80 40 79 41 32 43 66 44
REMARK SMILES IDX 45 45 65 46 46 47 49 48 64 49 84 50 47 51 48 52 63 54 85 55
REMARK SMILES IDX 50 56 33 57 34 58 43 59 35 60 36 61 42 62 44 63 37 64 38 65
REMARK SMILES IDX 39 66 40 67 41 68 67 69 68 70 77 71 69 72 70 73 76 74 78 75
REMARK SMILES IDX 71 76 72 77 73 78 74 79 75 80 51 81 52 82 61 83 53 84 54 85
REMARK SMILES IDX 60 86 62 87 55 88 56 89 57 90 58 91 59 92
REMARK H PARENT 83 42 49 53
REMARK Flexibility Score: inf
ROOT
ATOM      1  C   UNL A   1      34.720  32.141  28.615  1.00  0.00     0.275 C 
ENDROOT
BRANCH   1   2
ATOM      2  C   UNL A   1      33.549  31.974  27.643  1.00  0.00     0.275 C 
BRANCH   2   3
ATOM      3  O   UNL A   1      33.603  30.705  26.967  1.00  0.00    -0.459 OA
BRANCH   3   4
ATOM      4  C   UNL A   1      32.454  30.308  26.373  1.00  0.00     0.330 C 
ATOM      5  O   UNL A   1      31.472  31.007  26.163  1.00  0.00    -0.247 OA
BRANCH   4   6
ATOM      6  C   UNL A   1      32.479  28.892  25.959  1.00  0.00     0.094 C 
ATOM      7  C   UNL A   1      31.434  28.049  25.992  1.00  0.00     0.018 C 
BRANCH   7   8
ATOM      8  C   UNL A   1      31.549  26.625  25.615  1.00  0.00    -0.002 A 
ATOM      9  C   UNL A   1      30.965  26.115  24.432  1.00  0.00     0.045 A 
ATOM     10  C   UNL A   1      31.071  24.733  24.180  1.00  0.00     0.042 A 
ATOM     11  C   UNL A   1      31.722  23.878  25.066  1.00  0.00     0.020 A 
ATOM     12  C   UNL A   1      32.173  25.737  26.517  1.00  0.00     0.011 A 
ATOM     13  Br  UNL A   1      31.862  22.036  24.662  1.00  0.00    -0.051 Br
ATOM     14  C   UNL A   1      32.268  24.372  26.241  1.00  0.00     0.016 A 
BRANCH   9  15
ATOM     15  N   UNL A   1      30.304  26.896  23.497  1.00  0.00    -0.371 N 
ATOM     16  C   UNL A   1      26.951  28.659  23.323  1.00  0.00     0.009 C 
ATOM     17  C   UNL A   1      28.464  28.491  23.438  1.00  0.00     0.005 C 
ATOM     18  C   UNL A   1      29.180  29.215  22.286  1.00  0.00     0.007 C 
ATOM     19  C   UNL A   1      28.850  27.002  23.479  1.00  0.00     0.119 C 
ATOM     20  C   UNL A   1      30.694  29.013  22.364  1.00  0.00     0.022 C 
ATOM     21  C   UNL A   1      31.054  27.531  22.421  1.00  0.00     0.116 C 
ENDBRANCH   9  15
ENDBRANCH   7   8
ENDBRANCH   4   6
ENDBRANCH   3   4
ENDBRANCH   2   3
ENDBRANCH   1   2
BRANCH   1  22
ATOM     22  O   UNL A   1      35.551  30.968  28.665  1.00  0.00    -0.458 OA
BRANCH  22  23
ATOM     23  C   UNL A   1      36.284  30.830  29.796  1.00  0.00     0.338 C 
ATOM     24  O   UNL A   1      35.930  31.082  30.936  1.00  0.00    -0.246 OA
BRANCH  23  25
ATOM     25  C   UNL A   1      37.588  30.223  29.475  1.00  0.00     0.060 A 
ATOM     26  C   UNL A   1      38.447  29.904  30.531  1.00  0.00     0.016 A 
ATOM     27  C   UNL A   1      37.992  30.044  28.150  1.00  0.00     0.016 A 
ATOM     28  C   UNL A   1      39.726  29.416  30.265  1.00  0.00     0.010 A 
ATOM     29  C   UNL A   1      39.274  29.555  27.886  1.00  0.00     0.010 A 
ATOM     30  C   UNL A   1      40.155  29.254  28.939  1.00  0.00    -0.014 A 
BRANCH  30  31
ATOM     31  C   UNL A   1      41.548  28.837  28.646  1.00  0.00     0.031 A 
ATOM     32  C   UNL A   1      42.649  29.861  28.665  1.00  0.00     0.074 A 
ATOM     33  C   UNL A   1      41.823  27.553  28.355  1.00  0.00     0.049 A 
ATOM     34  N   UNL A   1      43.909  29.728  28.343  1.00  0.00    -0.248 NA
ATOM     35  C   UNL A   1      42.277  31.217  29.101  1.00  0.00     0.031 C 
ATOM     36  C   UNL A   1      40.845  26.464  28.339  1.00  0.00     0.029 A 
ATOM     37  N   UNL A   1      43.004  26.948  28.005  1.00  0.00    -0.354 N 
ATOM     38  C   UNL A   1      44.481  30.982  28.521  1.00  0.00     0.074 A 
ATOM     39  C   UNL A   1      43.424  31.868  28.961  1.00  0.00     0.031 C 
ATOM     40  C   UNL A   1      41.466  25.325  27.988  1.00  0.00     0.029 A 
ATOM     41  C   UNL A   1      42.873  25.610  27.716  1.00  0.00     0.049 A 
ATOM     42  H   UNL A   1      43.863  27.427  27.965  1.00  0.00     0.167 HD
ATOM     43  C   UNL A   1      45.770  31.357  28.338  1.00  0.00     0.037 A 
ATOM     44  C   UNL A   1      43.779  24.724  27.257  1.00  0.00     0.037 A 
ATOM     45  C   UNL A   1      46.817  30.469  27.906  1.00  0.00     0.049 A 
ATOM     46  C   UNL A   1      45.194  25.177  27.011  1.00  0.00     0.074 A 
ATOM     47  C   UNL A   1      48.155  30.751  27.697  1.00  0.00     0.029 A 
ATOM     48  N   UNL A   1      46.643  29.123  27.616  1.00  0.00    -0.354 N 
ATOM     49  N   UNL A   1      45.721  26.365  27.184  1.00  0.00    -0.248 NA
ATOM     50  C   UNL A   1      46.137  24.168  26.505  1.00  0.00     0.031 C 
ATOM     51  C   UNL A   1      48.784  29.585  27.245  1.00  0.00     0.029 A 
ATOM     52  C   UNL A   1      47.846  28.566  27.216  1.00  0.00     0.049 A 
ATOM     53  H   UNL A   1      45.790  28.636  27.684  1.00  0.00     0.167 HD
ATOM     54  C   UNL A   1      47.062  26.241  26.838  1.00  0.00     0.074 A 
ATOM     55  C   UNL A   1      47.267  24.861  26.448  1.00  0.00     0.031 C 
ATOM     56  C   UNL A   1      48.037  27.184  26.847  1.00  0.00     0.037 A 
BRANCH  43  57
ATOM     57  C   UNL A   1      46.113  32.800  28.582  1.00  0.00     0.058 A 
ATOM     58  C   UNL A   1      46.543  33.256  29.838  1.00  0.00     0.135 A 
ATOM     59  C   UNL A   1      46.034  33.737  27.539  1.00  0.00     0.135 A 
ATOM     60  F   UNL A   1      46.622  32.406  30.875  1.00  0.00    -0.206 F 
ATOM     61  C   UNL A   1      46.855  34.594  30.059  1.00  0.00     0.059 A 
ATOM     62  C   UNL A   1      46.364  35.076  27.730  1.00  0.00     0.059 A 
ATOM     63  F   UNL A   1      45.629  33.355  26.318  1.00  0.00    -0.206 F 
ATOM     64  C   UNL A   1      46.757  35.497  29.000  1.00  0.00     0.060 A 
BRANCH  64  65
ATOM     65  S   UNL A   1      47.155  37.232  29.302  1.00  0.00     0.124 S 
ATOM     66  O   UNL A   1      45.940  37.894  28.836  1.00  0.00    -0.237 OA
ATOM     67  O   UNL A   1      47.376  37.258  30.745  1.00  0.00    -0.237 OA
ATOM     68  O   UNL A   1      48.344  37.456  28.485  1.00  0.00    -0.744 OA
ENDBRANCH  64  65
ENDBRANCH  43  57
BRANCH  44  69
ATOM     69  C   UNL A   1      43.371  23.320  26.991  1.00  0.00     0.058 A 
ATOM     70  C   UNL A   1      43.224  22.846  25.680  1.00  0.00     0.135 A 
ATOM     71  C   UNL A   1      43.130  22.421  28.042  1.00  0.00     0.135 A 
ATOM     72  F   UNL A   1      43.434  23.670  24.642  1.00  0.00    -0.206 F 
ATOM     73  C   UNL A   1      42.842  21.534  25.417  1.00  0.00     0.059 A 
ATOM     74  C   UNL A   1      42.770  21.098  27.806  1.00  0.00     0.059 A 
ATOM     75  F   UNL A   1      43.266  22.823  29.316  1.00  0.00    -0.206 F 
ATOM     76  C   UNL A   1      42.619  20.666  26.488  1.00  0.00     0.060 A 
BRANCH  76  77
ATOM     77  S   UNL A   1      42.171  18.953  26.139  1.00  0.00     0.124 S 
ATOM     78  O   UNL A   1      40.761  19.082  25.793  1.00  0.00    -0.237 OA
ATOM     79  O   UNL A   1      43.070  18.618  25.037  1.00  0.00    -0.237 OA
ATOM     80  O   UNL A   1      42.453  18.269  27.398  1.00  0.00    -0.744 OA
ENDBRANCH  76  77
ENDBRANCH  44  69
BRANCH  56  81
ATOM     81  C   UNL A   1      49.427  26.752  26.471  1.00  0.00     0.058 A 
ATOM     82  C   UNL A   1      50.309  26.199  27.411  1.00  0.00     0.135 A 
ATOM     83  C   UNL A   1      49.855  26.834  25.136  1.00  0.00     0.135 A 
ATOM     84  F   UNL A   1      49.950  26.105  28.702  1.00  0.00    -0.206 F 
ATOM     85  C   UNL A   1      51.575  25.752  27.043  1.00  0.00     0.059 A 
ATOM     86  C   UNL A   1      51.107  26.372  24.742  1.00  0.00     0.059 A 
ATOM     87  F   UNL A   1      49.046  27.347  24.196  1.00  0.00    -0.206 F 
ATOM     88  C   UNL A   1      51.964  25.841  25.704  1.00  0.00     0.060 A 
BRANCH  88  89
ATOM     89  S   UNL A   1      53.590  25.214  25.231  1.00  0.00     0.124 S 
ATOM     90  O   UNL A   1      54.451  25.849  26.222  1.00  0.00    -0.237 OA
ATOM     91  O   UNL A   1      53.422  23.771  25.366  1.00  0.00    -0.237 OA
ATOM     92  O   UNL A   1      53.751  25.693  23.860  1.00  0.00    -0.744 OA
ENDBRANCH  88  89
ENDBRANCH  56  81
ENDBRANCH  30  31
ENDBRANCH  23  25
ENDBRANCH  22  23
ENDBRANCH   1  22
TORSDOF 16
ENDMDL
MODEL 3
REMARK VINA RESULT:     -11.2      6.980     12.241
REMARK SMILES C[C@@H]1CCCN(c2cc(Br)ccc2/C=C/C(=O)OCCOC(=O)c2ccc(-c3c4nc(c(-c5c(F)cc(S(=O)(=O)[O-])cc5F)c5ccc([nH]5)c(-c5c(F)cc(S(=O)(=O)[O-])cc5F)c5nc(c(-c6c(F)cc(S(=O)(=O)[O-])cc6F)c6ccc3[nH]6)C=C5)C=C4)cc2)C1
REMARK SMILES IDX 20 1 19 2 18 3 16 4 17 5 15 6 14 7 13 8 7 9 8 10 9 11 12 12
REMARK SMILES IDX 10 13 11 14 6 15 1 16 2 17 3 18 90 19 4 20 5 21 21 22 22 23
REMARK SMILES IDX 23 24 24 25 25 26 89 27 26 28 88 29 27 30 28 31 29 32 82 33
REMARK SMILES IDX 30 34 87 35 81 36 83 37 31 38 86 39 80 40 79 41 32 43 66 44
REMARK SMILES IDX 45 45 65 46 46 47 49 48 64 49 84 50 47 51 48 52 63 54 85 55
REMARK SMILES IDX 50 56 33 57 34 58 43 59 35 60 36 61 42 62 44 63 37 64 38 65
REMARK SMILES IDX 39 66 40 67 41 68 67 69 68 70 77 71 69 72 70 73 76 74 78 75
REMARK SMILES IDX 71 76 72 77 73 78 74 79 75 80 51 81 52 82 61 83 53 84 54 85
REMARK SMILES IDX 60 86 62 87 55 88 56 89 57 90 58 91 59 92
REMARK H PARENT 83 42 49 53
REMARK Flexibility Score: inf
ROOT
ATOM      1  C   UNL A   1      34.461  30.850  28.224  1.00  0.00     0.275 C 
ENDROOT
BRANCH   1   2
ATOM      2  C   UNL A   1      34.451  29.718  27.193  1.00  0.00     0.275 C 
BRANCH   2   3
ATOM      3  O   UNL A   1      33.599  28.634  27.610  1.00  0.00    -0.459 OA
BRANCH   3   4
ATOM      4  C   UNL A   1      32.665  28.245  26.711  1.00  0.00     0.330 C 
ATOM      5  O   UNL A   1      31.843  28.968  26.166  1.00  0.00    -0.247 OA
BRANCH   4   6
ATOM      6  C   UNL A   1      32.725  26.802  26.408  1.00  0.00     0.094 C 
ATOM      7  C   UNL A   1      33.665  26.197  25.665  1.00  0.00     0.018 C 
BRANCH   7   8
ATOM      8  C   UNL A   1      33.628  24.753  25.356  1.00  0.00    -0.002 A 
ATOM      9  C   UNL A   1      32.783  24.224  24.353  1.00  0.00     0.045 A 
ATOM     10  C   UNL A   1      32.766  22.828  24.165  1.00  0.00     0.042 A 
ATOM     11  C   UNL A   1      33.548  21.978  24.943  1.00  0.00     0.020 A 
ATOM     12  C   UNL A   1      34.387  23.872  26.157  1.00  0.00     0.011 A 
ATOM     13  Br  UNL A   1      33.510  20.114  24.627  1.00  0.00    -0.051 Br
ATOM     14  C   UNL A   1      34.355  22.493  25.947  1.00  0.00     0.016 A 
BRANCH   9  15
ATOM     15  N   UNL A   1      31.977  24.998  23.534  1.00  0.00    -0.371 N 
ATOM     16  C   UNL A   1      28.607  26.703  23.876  1.00  0.00     0.009 C 
ATOM     17  C   UNL A   1      30.122  26.561  23.763  1.00  0.00     0.005 C 
ATOM     18  C   UNL A   1      30.647  27.305  22.523  1.00  0.00     0.007 C 
ATOM     19  C   UNL A   1      30.535  25.079  23.733  1.00  0.00     0.119 C 
ATOM     20  C   UNL A   1      32.159  27.129  22.373  1.00  0.00     0.022 C 
ATOM     21  C   UNL A   1      32.548  25.653  22.363  1.00  0.00     0.116 C 
ENDBRANCH   9  15
ENDBRANCH   7   8
ENDBRANCH   4   6
ENDBRANCH   3   4
ENDBRANCH   2   3
ENDBRANCH   1   2
BRANCH   1  22
ATOM     22  O   UNL A   1      35.795  31.175  28.654  1.00  0.00    -0.458 OA
BRANCH  22  23
ATOM     23  C   UNL A   1      36.311  30.348  29.596  1.00  0.00     0.338 C 
ATOM     24  O   UNL A   1      35.708  29.803  30.505  1.00  0.00    -0.246 OA
BRANCH  23  25
ATOM     25  C   UNL A   1      37.737  30.104  29.317  1.00  0.00     0.060 A 
ATOM     26  C   UNL A   1      38.109  29.774  28.010  1.00  0.00     0.016 A 
ATOM     27  C   UNL A   1      38.685  30.121  30.343  1.00  0.00     0.016 A 
ATOM     28  C   UNL A   1      39.433  29.443  27.725  1.00  0.00     0.010 A 
ATOM     29  C   UNL A   1      40.011  29.789  30.055  1.00  0.00     0.010 A 
ATOM     30  C   UNL A   1      40.391  29.431  28.750  1.00  0.00    -0.014 A 
BRANCH  30  31
ATOM     31  C   UNL A   1      41.778  28.979  28.477  1.00  0.00     0.031 A 
ATOM     32  C   UNL A   1      42.901  29.979  28.491  1.00  0.00     0.074 A 
ATOM     33  C   UNL A   1      42.027  27.685  28.209  1.00  0.00     0.049 A 
ATOM     34  N   UNL A   1      44.160  29.814  28.183  1.00  0.00    -0.248 NA
ATOM     35  C   UNL A   1      42.554  31.349  28.901  1.00  0.00     0.031 C 
ATOM     36  C   UNL A   1      41.026  26.617  28.200  1.00  0.00     0.029 A 
ATOM     37  N   UNL A   1      43.198  27.050  27.880  1.00  0.00    -0.354 N 
ATOM     38  C   UNL A   1      44.757  31.058  28.347  1.00  0.00     0.074 A 
ATOM     39  C   UNL A   1      43.716  31.973  28.762  1.00  0.00     0.031 C 
ATOM     40  C   UNL A   1      41.625  25.460  27.872  1.00  0.00     0.029 A 
ATOM     41  C   UNL A   1      43.041  25.711  27.610  1.00  0.00     0.049 A 
ATOM     42  H   UNL A   1      44.067  27.509  27.840  1.00  0.00     0.167 HD
ATOM     43  C   UNL A   1      46.056  31.403  28.171  1.00  0.00     0.037 A 
ATOM     44  C   UNL A   1      43.931  24.798  27.174  1.00  0.00     0.037 A 
ATOM     45  C   UNL A   1      47.088  30.485  27.763  1.00  0.00     0.049 A 
ATOM     46  C   UNL A   1      45.358  25.216  26.935  1.00  0.00     0.074 A 
ATOM     47  C   UNL A   1      48.434  30.734  27.562  1.00  0.00     0.029 A 
ATOM     48  N   UNL A   1      46.887  29.139  27.492  1.00  0.00    -0.354 N 
ATOM     49  N   UNL A   1      45.909  26.395  27.094  1.00  0.00    -0.248 NA
ATOM     50  C   UNL A   1      46.283  24.179  26.454  1.00  0.00     0.031 C 
ATOM     51  C   UNL A   1      49.041  29.548  27.135  1.00  0.00     0.029 A 
ATOM     52  C   UNL A   1      48.082  28.549  27.112  1.00  0.00     0.049 A 
ATOM     53  H   UNL A   1      46.023  28.671  27.560  1.00  0.00     0.167 HD
ATOM     54  C   UNL A   1      47.251  26.236  26.763  1.00  0.00     0.074 A 
ATOM     55  C   UNL A   1      47.429  24.847  26.397  1.00  0.00     0.031 C 
ATOM     56  C   UNL A   1      48.245  27.158  26.767  1.00  0.00     0.037 A 
BRANCH  43  57
ATOM     57  C   UNL A   1      46.429  32.841  28.395  1.00  0.00     0.058 A 
ATOM     58  C   UNL A   1      46.365  33.790  27.363  1.00  0.00     0.135 A 
ATOM     59  C   UNL A   1      46.832  33.282  29.666  1.00  0.00     0.135 A 
ATOM     60  F   UNL A   1      46.001  33.420  26.125  1.00  0.00    -0.206 F 
ATOM     61  C   UNL A   1      46.717  35.120  27.575  1.00  0.00     0.059 A 
ATOM     62  C   UNL A   1      47.166  34.612  29.907  1.00  0.00     0.059 A 
ATOM     63  F   UNL A   1      46.911  32.417  30.688  1.00  0.00    -0.206 F 
ATOM     64  C   UNL A   1      47.121  35.521  28.850  1.00  0.00     0.060 A 
BRANCH  64  65
ATOM     65  S   UNL A   1      47.584  37.246  29.110  1.00  0.00     0.124 S 
ATOM     66  O   UNL A   1      48.211  37.183  30.427  1.00  0.00    -0.237 OA
ATOM     67  O   UNL A   1      48.487  37.502  27.991  1.00  0.00    -0.237 OA
ATOM     68  O   UNL A   1      46.308  37.952  29.056  1.00  0.00    -0.744 OA
ENDBRANCH  64  65
ENDBRANCH  43  57
BRANCH  44  69
ATOM     69  C   UNL A   1      43.495  23.398  26.926  1.00  0.00     0.058 A 
ATOM     70  C   UNL A   1      43.307  22.920  25.621  1.00  0.00     0.135 A 
ATOM     71  C   UNL A   1      43.267  22.508  27.988  1.00  0.00     0.135 A 
ATOM     72  F   UNL A   1      43.502  23.736  24.574  1.00  0.00    -0.206 F 
ATOM     73  C   UNL A   1      42.898  21.613  25.375  1.00  0.00     0.059 A 
ATOM     74  C   UNL A   1      42.882  21.190  27.768  1.00  0.00     0.059 A 
ATOM     75  F   UNL A   1      43.443  22.914  29.255  1.00  0.00    -0.206 F 
ATOM     76  C   UNL A   1      42.690  20.754  26.456  1.00  0.00     0.060 A 
BRANCH  76  77
ATOM     77  S   UNL A   1      42.208  19.046  26.127  1.00  0.00     0.124 S 
ATOM     78  O   UNL A   1      40.807  19.203  25.753  1.00  0.00    -0.237 OA
ATOM     79  O   UNL A   1      43.118  18.671  25.049  1.00  0.00    -0.237 OA
ATOM     80  O   UNL A   1      42.449  18.378  27.403  1.00  0.00    -0.744 OA
ENDBRANCH  76  77
ENDBRANCH  44  69
BRANCH  56  81
ATOM     81  C   UNL A   1      49.629  26.690  26.411  1.00  0.00     0.058 A 
ATOM     82  C   UNL A   1      50.460  26.059  27.349  1.00  0.00     0.135 A 
ATOM     83  C   UNL A   1      50.101  26.818  25.095  1.00  0.00     0.135 A 
ATOM     84  F   UNL A   1      50.057  25.918  28.622  1.00  0.00    -0.206 F 
ATOM     85  C   UNL A   1      51.719  25.580  26.997  1.00  0.00     0.059 A 
ATOM     86  C   UNL A   1      51.347  26.327  24.716  1.00  0.00     0.059 A 
ATOM     87  F   UNL A   1      49.342  27.406  24.158  1.00  0.00    -0.206 F 
ATOM     88  C   UNL A   1      52.152  25.717  25.676  1.00  0.00     0.060 A 
BRANCH  88  89
ATOM     89  S   UNL A   1      53.768  25.051  25.220  1.00  0.00     0.124 S 
ATOM     90  O   UNL A   1      53.528  23.614  25.302  1.00  0.00    -0.237 OA
ATOM     91  O   UNL A   1      53.961  25.586  23.877  1.00  0.00    -0.237 OA
ATOM     92  O   UNL A   1      54.659  25.598  26.239  1.00  0.00    -0.744 OA
ENDBRANCH  88  89
ENDBRANCH  56  81
ENDBRANCH  30  31
ENDBRANCH  23  25
ENDBRANCH  22  23
ENDBRANCH   1  22
TORSDOF 16
ENDMDL
