MODEL 1
REMARK VINA RESULT:     -11.0      0.000      0.000
REMARK SMILES O=C(OCCOC(=O)[C@H]1CCC[N@@H+]1CCn1ccnc1)c1ccc(-c2c3nc(c(-c4c(F)cc(S(=O)(=O)[O-])cc4F)c4ccc([nH]4)c(-c4c(F)cc(S(=O)(=O)[O-])cc4F)c4nc(c(-c5c(F)cc(S(=O)(=O)[O-])cc5F)c5ccc2[nH]5)C=C4)C=C3)cc1
REMARK SMILES IDX 4 1 3 2 2 3 1 4 21 5 22 6 86 7 23 8 85 9 24 10 25 11 26 12
REMARK SMILES IDX 79 13 27 14 84 15 78 16 80 17 28 18 83 19 77 20 76 21 29 23
REMARK SMILES IDX 63 24 42 25 62 26 43 27 46 28 61 29 81 30 44 31 45 32 60 34
REMARK SMILES IDX 82 35 47 36 30 37 31 38 40 39 32 40 33 41 39 42 41 43 34 44
REMARK SMILES IDX 35 45 36 46 37 47 38 48 64 49 65 50 74 51 66 52 67 53 73 54
REMARK SMILES IDX 75 55 68 56 69 57 70 58 71 59 72 60 48 61 49 62 58 63 50 64
REMARK SMILES IDX 51 65 57 66 59 67 52 68 53 69 54 70 55 71 56 72 5 73 6 74
REMARK SMILES IDX 7 75 8 76 9 77 10 78 13 79 11 80 12 81 14 83 15 84 16 85
REMARK SMILES IDX 17 86 20 87 18 88 19 89
REMARK H PARENT 80 22 46 33 13 82
REMARK Flexibility Score: inf
ROOT
ATOM      1  C   UNL A   1      40.791  20.145  26.664  1.00  0.00     0.275 C 
ENDROOT
BRANCH   1   2
ATOM      2  O   UNL A   1      40.971  21.576  26.684  1.00  0.00    -0.458 OA
BRANCH   2   3
ATOM      3  C   UNL A   1      39.915  22.416  26.539  1.00  0.00     0.338 C 
ATOM      4  O   UNL A   1      38.820  22.039  26.179  1.00  0.00    -0.246 OA
BRANCH   3   5
ATOM      5  C   UNL A   1      40.146  23.763  27.138  1.00  0.00     0.060 A 
ATOM      6  C   UNL A   1      41.217  24.053  27.987  1.00  0.00     0.016 A 
ATOM      7  C   UNL A   1      39.233  24.777  26.821  1.00  0.00     0.016 A 
ATOM      8  C   UNL A   1      41.347  25.318  28.551  1.00  0.00     0.010 A 
ATOM      9  C   UNL A   1      39.369  26.049  27.373  1.00  0.00     0.010 A 
ATOM     10  C   UNL A   1      40.408  26.313  28.269  1.00  0.00    -0.014 A 
BRANCH  10  11
ATOM     11  C   UNL A   1      40.581  27.618  28.909  1.00  0.00     0.031 A 
ATOM     12  C   UNL A   1      41.701  28.472  28.410  1.00  0.00     0.074 A 
ATOM     13  C   UNL A   1      39.734  28.123  29.827  1.00  0.00     0.049 A 
ATOM     14  N   UNL A   1      42.790  28.828  29.016  1.00  0.00    -0.248 NA
ATOM     15  C   UNL A   1      41.624  28.935  27.018  1.00  0.00     0.031 C 
ATOM     16  C   UNL A   1      38.425  27.617  30.247  1.00  0.00     0.029 A 
ATOM     17  N   UNL A   1      39.855  29.283  30.531  1.00  0.00    -0.354 N 
ATOM     18  C   UNL A   1      43.452  29.708  28.155  1.00  0.00     0.074 A 
ATOM     19  C   UNL A   1      42.759  29.625  26.894  1.00  0.00     0.031 C 
ATOM     20  C   UNL A   1      37.786  28.570  30.965  1.00  0.00     0.029 A 
ATOM     21  C   UNL A   1      38.701  29.674  31.192  1.00  0.00     0.049 A 
ATOM     22  H   UNL A   1      40.692  29.801  30.568  1.00  0.00     0.167 HD
ATOM     23  C   UNL A   1      44.419  30.572  28.583  1.00  0.00     0.037 A 
ATOM     24  C   UNL A   1      38.501  30.840  31.853  1.00  0.00     0.037 A 
ATOM     25  C   UNL A   1      44.910  30.217  29.888  1.00  0.00     0.049 A 
ATOM     26  C   UNL A   1      39.836  31.383  32.211  1.00  0.00     0.074 A 
ATOM     27  C   UNL A   1      45.543  29.113  30.424  1.00  0.00     0.029 A 
ATOM     28  N   UNL A   1      44.473  30.945  30.968  1.00  0.00    -0.354 N 
ATOM     29  N   UNL A   1      40.653  30.818  33.056  1.00  0.00    -0.248 NA
ATOM     30  C   UNL A   1      40.445  32.349  31.309  1.00  0.00     0.031 C 
ATOM     31  C   UNL A   1      44.996  28.978  31.733  1.00  0.00     0.029 A 
ATOM     32  C   UNL A   1      44.107  30.036  31.928  1.00  0.00     0.049 A 
ATOM     33  H   UNL A   1      44.432  31.926  31.039  1.00  0.00     0.167 HD
ATOM     34  C   UNL A   1      41.920  31.039  32.536  1.00  0.00     0.074 A 
ATOM     35  C   UNL A   1      41.734  32.068  31.517  1.00  0.00     0.031 C 
ATOM     36  C   UNL A   1      42.956  30.186  32.792  1.00  0.00     0.037 A 
BRANCH  23  37
ATOM     37  C   UNL A   1      44.736  31.910  27.950  1.00  0.00     0.058 A 
ATOM     38  C   UNL A   1      45.997  32.129  27.352  1.00  0.00     0.135 A 
ATOM     39  C   UNL A   1      43.949  33.066  28.142  1.00  0.00     0.135 A 
ATOM     40  F   UNL A   1      46.837  31.106  27.133  1.00  0.00    -0.206 F 
ATOM     41  C   UNL A   1      46.463  33.405  27.026  1.00  0.00     0.059 A 
ATOM     42  C   UNL A   1      44.372  34.341  27.776  1.00  0.00     0.059 A 
ATOM     43  F   UNL A   1      42.772  33.024  28.779  1.00  0.00    -0.206 F 
ATOM     44  C   UNL A   1      45.647  34.508  27.259  1.00  0.00     0.060 A 
BRANCH  44  45
ATOM     45  S   UNL A   1      46.284  36.166  26.946  1.00  0.00     0.124 S 
ATOM     46  O   UNL A   1      45.102  36.982  27.201  1.00  0.00    -0.237 OA
ATOM     47  O   UNL A   1      47.357  36.270  27.929  1.00  0.00    -0.237 OA
ATOM     48  O   UNL A   1      46.719  36.099  25.554  1.00  0.00    -0.744 OA
ENDBRANCH  44  45
ENDBRANCH  23  37
BRANCH  24  49
ATOM     49  C   UNL A   1      37.262  31.654  31.883  1.00  0.00     0.058 A 
ATOM     50  C   UNL A   1      36.670  32.044  33.095  1.00  0.00     0.135 A 
ATOM     51  C   UNL A   1      36.795  32.304  30.721  1.00  0.00     0.135 A 
ATOM     52  F   UNL A   1      37.075  31.494  34.250  1.00  0.00    -0.206 F 
ATOM     53  C   UNL A   1      35.700  33.050  33.160  1.00  0.00     0.059 A 
ATOM     54  C   UNL A   1      35.824  33.302  30.759  1.00  0.00     0.059 A 
ATOM     55  F   UNL A   1      37.340  32.052  29.521  1.00  0.00    -0.206 F 
ATOM     56  C   UNL A   1      35.299  33.689  31.986  1.00  0.00     0.060 A 
BRANCH  56  57
ATOM     57  S   UNL A   1      34.184  35.109  32.086  1.00  0.00     0.124 S 
ATOM     58  O   UNL A   1      34.025  35.466  30.680  1.00  0.00    -0.237 OA
ATOM     59  O   UNL A   1      33.012  34.535  32.736  1.00  0.00    -0.237 OA
ATOM     60  O   UNL A   1      34.932  36.070  32.893  1.00  0.00    -0.744 OA
ENDBRANCH  56  57
ENDBRANCH  24  49
BRANCH  36  61
ATOM     61  C   UNL A   1      42.789  29.150  33.874  1.00  0.00     0.058 A 
ATOM     62  C   UNL A   1      42.980  29.403  35.244  1.00  0.00     0.135 A 
ATOM     63  C   UNL A   1      42.239  27.907  33.527  1.00  0.00     0.135 A 
ATOM     64  F   UNL A   1      43.402  30.602  35.672  1.00  0.00    -0.206 F 
ATOM     65  C   UNL A   1      42.668  28.455  36.221  1.00  0.00     0.059 A 
ATOM     66  C   UNL A   1      41.891  26.957  34.485  1.00  0.00     0.059 A 
ATOM     67  F   UNL A   1      41.973  27.626  32.241  1.00  0.00    -0.206 F 
ATOM     68  C   UNL A   1      42.116  27.235  35.831  1.00  0.00     0.060 A 
BRANCH  68  69
ATOM     69  S   UNL A   1      41.609  26.056  37.101  1.00  0.00     0.124 S 
ATOM     70  O   UNL A   1      41.387  24.842  36.324  1.00  0.00    -0.237 OA
ATOM     71  O   UNL A   1      42.763  26.035  37.996  1.00  0.00    -0.237 OA
ATOM     72  O   UNL A   1      40.406  26.662  37.670  1.00  0.00    -0.744 OA
ENDBRANCH  68  69
ENDBRANCH  36  61
ENDBRANCH  10  11
ENDBRANCH   3   5
ENDBRANCH   2   3
ENDBRANCH   1   2
BRANCH   1  73
ATOM     73  C   UNL A   1      42.024  19.284  26.414  1.00  0.00     0.274 C 
BRANCH  73  74
ATOM     74  O   UNL A   1      42.615  19.569  25.133  1.00  0.00    -0.458 OA
BRANCH  74  75
ATOM     75  C   UNL A   1      43.941  19.898  25.183  1.00  0.00     0.365 C 
ATOM     76  O   UNL A   1      44.850  19.112  24.936  1.00  0.00    -0.245 OA
BRANCH  75  77
ATOM     77  C   UNL A   1      44.152  21.357  25.644  1.00  0.00     0.295 C 
ATOM     78  C   UNL A   1      45.652  21.614  25.691  1.00  0.00     0.083 C 
ATOM     79  N   UNL A   1      43.656  22.304  24.629  1.00  0.00    -0.322 N 
ATOM     80  C   UNL A   1      46.007  21.988  24.256  1.00  0.00     0.068 C 
ATOM     81  C   UNL A   1      44.691  22.384  23.594  1.00  0.00     0.263 C 
ATOM     82  H   UNL A   1      42.785  21.942  24.242  1.00  0.00     0.348 HD
BRANCH  79  83
ATOM     83  C   UNL A   1      43.168  23.603  25.117  1.00  0.00     0.285 C 
BRANCH  83  84
ATOM     84  C   UNL A   1      43.983  24.912  25.002  1.00  0.00     0.184 C 
BRANCH  84  85
ATOM     85  N   UNL A   1      44.597  25.401  26.217  1.00  0.00    -0.332 N 
ATOM     86  C   UNL A   1      44.873  24.684  27.349  1.00  0.00     0.107 A 
ATOM     87  C   UNL A   1      45.036  26.678  26.429  1.00  0.00     0.199 A 
ATOM     88  C   UNL A   1      45.342  25.612  28.249  1.00  0.00     0.130 A 
ATOM     89  N   UNL A   1      45.447  26.849  27.664  1.00  0.00    -0.245 NA
ENDBRANCH  84  85
ENDBRANCH  83  84
ENDBRANCH  79  83
ENDBRANCH  75  77
ENDBRANCH  74  75
ENDBRANCH  73  74
ENDBRANCH   1  73
TORSDOF 17
ENDMDL
MODEL 2
REMARK VINA RESULT:     -10.6      3.306      5.246
REMARK SMILES O=C(OCCOC(=O)[C@H]1CCC[N@@H+]1CCn1ccnc1)c1ccc(-c2c3nc(c(-c4c(F)cc(S(=O)(=O)[O-])cc4F)c4ccc([nH]4)c(-c4c(F)cc(S(=O)(=O)[O-])cc4F)c4nc(c(-c5c(F)cc(S(=O)(=O)[O-])cc5F)c5ccc2[nH]5)C=C4)C=C3)cc1
REMARK SMILES IDX 4 1 3 2 2 3 1 4 21 5 22 6 86 7 23 8 85 9 24 10 25 11 26 12
REMARK SMILES IDX 79 13 27 14 84 15 78 16 80 17 28 18 83 19 77 20 76 21 29 23
REMARK SMILES IDX 63 24 42 25 62 26 43 27 46 28 61 29 81 30 44 31 45 32 60 34
REMARK SMILES IDX 82 35 47 36 30 37 31 38 40 39 32 40 33 41 39 42 41 43 34 44
REMARK SMILES IDX 35 45 36 46 37 47 38 48 64 49 65 50 74 51 66 52 67 53 73 54
REMARK SMILES IDX 75 55 68 56 69 57 70 58 71 59 72 60 48 61 49 62 58 63 50 64
REMARK SMILES IDX 51 65 57 66 59 67 52 68 53 69 54 70 55 71 56 72 5 73 6 74
REMARK SMILES IDX 7 75 8 76 9 77 10 78 13 79 11 80 12 81 14 83 15 84 16 85
REMARK SMILES IDX 17 86 20 87 18 88 19 89
REMARK H PARENT 80 22 46 33 13 82
REMARK Flexibility Score: inf
ROOT
ATOM      1  C   UNL A   1      38.658  20.907  25.659  1.00  0.00     0.275 C 
ENDROOT
BRANCH   1   2
ATOM      2  O   UNL A   1      39.038  22.110  26.360  1.00  0.00    -0.458 OA
BRANCH   2   3
ATOM      3  C   UNL A   1      40.343  22.453  26.504  1.00  0.00     0.338 C 
ATOM      4  O   UNL A   1      41.246  21.840  25.976  1.00  0.00    -0.246 OA
BRANCH   3   5
ATOM      5  C   UNL A   1      40.534  23.802  27.114  1.00  0.00     0.060 A 
ATOM      6  C   UNL A   1      41.605  24.123  27.951  1.00  0.00     0.016 A 
ATOM      7  C   UNL A   1      39.579  24.784  26.819  1.00  0.00     0.016 A 
ATOM      8  C   UNL A   1      41.696  25.386  28.525  1.00  0.00     0.010 A 
ATOM      9  C   UNL A   1      39.677  26.055  27.382  1.00  0.00     0.010 A 
ATOM     10  C   UNL A   1      40.717  26.349  28.266  1.00  0.00    -0.014 A 
BRANCH  10  11
ATOM     11  C   UNL A   1      40.852  27.653  28.917  1.00  0.00     0.031 A 
ATOM     12  C   UNL A   1      41.946  28.544  28.425  1.00  0.00     0.074 A 
ATOM     13  C   UNL A   1      39.989  28.126  29.838  1.00  0.00     0.049 A 
ATOM     14  N   UNL A   1      43.023  28.927  29.034  1.00  0.00    -0.248 NA
ATOM     15  C   UNL A   1      41.855  29.016  27.036  1.00  0.00     0.031 C 
ATOM     16  C   UNL A   1      38.696  27.577  30.253  1.00  0.00     0.029 A 
ATOM     17  N   UNL A   1      40.076  29.284  30.551  1.00  0.00    -0.354 N 
ATOM     18  C   UNL A   1      43.659  29.834  28.180  1.00  0.00     0.074 A 
ATOM     19  C   UNL A   1      42.969  29.740  26.919  1.00  0.00     0.031 C 
ATOM     20  C   UNL A   1      38.029  28.505  30.978  1.00  0.00     0.029 A 
ATOM     21  C   UNL A   1      38.911  29.634  31.215  1.00  0.00     0.049 A 
ATOM     22  H   UNL A   1      40.897  29.825  30.592  1.00  0.00     0.167 HD
ATOM     23  C   UNL A   1      44.599  30.723  28.616  1.00  0.00     0.037 A 
ATOM     24  C   UNL A   1      38.676  30.789  31.885  1.00  0.00     0.037 A 
ATOM     25  C   UNL A   1      45.101  30.373  29.918  1.00  0.00     0.049 A 
ATOM     26  C   UNL A   1      39.994  31.369  32.247  1.00  0.00     0.074 A 
ATOM     27  C   UNL A   1      45.767  29.283  30.445  1.00  0.00     0.029 A 
ATOM     28  N   UNL A   1      44.642  31.078  31.004  1.00  0.00    -0.354 N 
ATOM     29  N   UNL A   1      40.827  30.822  33.089  1.00  0.00    -0.248 NA
ATOM     30  C   UNL A   1      40.574  32.359  31.354  1.00  0.00     0.031 C 
ATOM     31  C   UNL A   1      45.223  29.121  31.753  1.00  0.00     0.029 A 
ATOM     32  C   UNL A   1      44.302  30.151  31.956  1.00  0.00     0.049 A 
ATOM     33  H   UNL A   1      44.571  32.057  31.082  1.00  0.00     0.167 HD
ATOM     34  C   UNL A   1      42.087  31.084  32.571  1.00  0.00     0.074 A 
ATOM     35  C   UNL A   1      41.870  32.115  31.560  1.00  0.00     0.031 C 
ATOM     36  C   UNL A   1      43.148  30.260  32.820  1.00  0.00     0.037 A 
BRANCH  23  37
ATOM     37  C   UNL A   1      44.877  32.074  27.993  1.00  0.00     0.058 A 
ATOM     38  C   UNL A   1      46.138  32.343  27.417  1.00  0.00     0.135 A 
ATOM     39  C   UNL A   1      44.045  33.199  28.177  1.00  0.00     0.135 A 
ATOM     40  F   UNL A   1      47.019  31.352  27.207  1.00  0.00    -0.206 F 
ATOM     41  C   UNL A   1      46.561  33.637  27.104  1.00  0.00     0.059 A 
ATOM     42  C   UNL A   1      44.426  34.491  27.823  1.00  0.00     0.059 A 
ATOM     43  F   UNL A   1      42.860  33.111  28.795  1.00  0.00    -0.206 F 
ATOM     44  C   UNL A   1      45.701  34.708  27.327  1.00  0.00     0.060 A 
BRANCH  44  45
ATOM     45  S   UNL A   1      46.282  36.389  27.032  1.00  0.00     0.124 S 
ATOM     46  O   UNL A   1      47.081  36.633  28.227  1.00  0.00    -0.237 OA
ATOM     47  O   UNL A   1      47.025  36.240  25.785  1.00  0.00    -0.237 OA
ATOM     48  O   UNL A   1      45.044  37.156  26.931  1.00  0.00    -0.744 OA
ENDBRANCH  44  45
ENDBRANCH  23  37
BRANCH  24  49
ATOM     49  C   UNL A   1      37.413  31.565  31.920  1.00  0.00     0.058 A 
ATOM     50  C   UNL A   1      36.796  31.905  33.135  1.00  0.00     0.135 A 
ATOM     51  C   UNL A   1      36.940  32.232  30.770  1.00  0.00     0.135 A 
ATOM     52  F   UNL A   1      37.204  31.338  34.280  1.00  0.00    -0.206 F 
ATOM     53  C   UNL A   1      35.796  32.881  33.214  1.00  0.00     0.059 A 
ATOM     54  C   UNL A   1      35.940  33.200  30.822  1.00  0.00     0.059 A 
ATOM     55  F   UNL A   1      37.506  32.027  29.570  1.00  0.00    -0.206 F 
ATOM     56  C   UNL A   1      35.390  33.538  32.052  1.00  0.00     0.060 A 
BRANCH  56  57
ATOM     57  S   UNL A   1      34.232  34.923  32.174  1.00  0.00     0.124 S 
ATOM     58  O   UNL A   1      35.014  35.903  32.920  1.00  0.00    -0.237 OA
ATOM     59  O   UNL A   1      33.982  35.239  30.773  1.00  0.00    -0.237 OA
ATOM     60  O   UNL A   1      33.097  34.351  32.893  1.00  0.00    -0.744 OA
ENDBRANCH  56  57
ENDBRANCH  24  49
BRANCH  36  61
ATOM     61  C   UNL A   1      43.011  29.211  33.894  1.00  0.00     0.058 A 
ATOM     62  C   UNL A   1      43.229  29.451  35.263  1.00  0.00     0.135 A 
ATOM     63  C   UNL A   1      42.463  27.968  33.545  1.00  0.00     0.135 A 
ATOM     64  F   UNL A   1      43.651  30.648  35.694  1.00  0.00    -0.206 F 
ATOM     65  C   UNL A   1      42.945  28.489  36.235  1.00  0.00     0.059 A 
ATOM     66  C   UNL A   1      42.143  27.005  34.499  1.00  0.00     0.059 A 
ATOM     67  F   UNL A   1      42.172  27.698  32.262  1.00  0.00    -0.206 F 
ATOM     68  C   UNL A   1      42.394  27.270  35.844  1.00  0.00     0.060 A 
BRANCH  68  69
ATOM     69  S   UNL A   1      41.923  26.073  37.111  1.00  0.00     0.124 S 
ATOM     70  O   UNL A   1      40.549  26.463  37.408  1.00  0.00    -0.237 OA
ATOM     71  O   UNL A   1      42.086  24.796  36.420  1.00  0.00    -0.237 OA
ATOM     72  O   UNL A   1      42.886  26.314  38.184  1.00  0.00    -0.744 OA
ENDBRANCH  68  69
ENDBRANCH  36  61
ENDBRANCH  10  11
ENDBRANCH   3   5
ENDBRANCH   2   3
ENDBRANCH   1   2
BRANCH   1  73
ATOM     73  C   UNL A   1      37.514  21.009  24.656  1.00  0.00     0.274 C 
BRANCH  73  74
ATOM     74  O   UNL A   1      36.893  22.306  24.693  1.00  0.00    -0.458 OA
BRANCH  74  75
ATOM     75  C   UNL A   1      35.594  22.324  24.272  1.00  0.00     0.365 C 
ATOM     76  O   UNL A   1      35.176  23.044  23.371  1.00  0.00    -0.245 OA
BRANCH  75  77
ATOM     77  C   UNL A   1      34.708  21.372  25.107  1.00  0.00     0.295 C 
ATOM     78  C   UNL A   1      34.774  21.833  26.557  1.00  0.00     0.083 C 
ATOM     79  N   UNL A   1      33.287  21.526  24.744  1.00  0.00    -0.322 N 
ATOM     80  C   UNL A   1      33.719  22.932  26.642  1.00  0.00     0.068 C 
ATOM     81  C   UNL A   1      32.809  22.726  25.436  1.00  0.00     0.263 C 
ATOM     82  H   UNL A   1      33.219  21.639  23.733  1.00  0.00     0.348 HD
BRANCH  79  83
ATOM     83  C   UNL A   1      32.432  20.339  24.901  1.00  0.00     0.285 C 
BRANCH  83  84
ATOM     84  C   UNL A   1      32.328  19.223  23.837  1.00  0.00     0.184 C 
BRANCH  84  85
ATOM     85  N   UNL A   1      32.886  17.937  24.193  1.00  0.00    -0.332 N 
ATOM     86  C   UNL A   1      32.759  17.283  25.388  1.00  0.00     0.107 A 
ATOM     87  C   UNL A   1      33.623  17.133  23.369  1.00  0.00     0.199 A 
ATOM     88  C   UNL A   1      33.556  16.169  25.268  1.00  0.00     0.130 A 
ATOM     89  N   UNL A   1      34.083  16.080  24.005  1.00  0.00    -0.245 NA
ENDBRANCH  84  85
ENDBRANCH  83  84
ENDBRANCH  79  83
ENDBRANCH  75  77
ENDBRANCH  74  75
ENDBRANCH  73  74
ENDBRANCH   1  73
TORSDOF 17
ENDMDL
MODEL 3
REMARK VINA RESULT:     -10.4      5.245     11.679
REMARK SMILES O=C(OCCOC(=O)[C@H]1CCC[N@@H+]1CCn1ccnc1)c1ccc(-c2c3nc(c(-c4c(F)cc(S(=O)(=O)[O-])cc4F)c4ccc([nH]4)c(-c4c(F)cc(S(=O)(=O)[O-])cc4F)c4nc(c(-c5c(F)cc(S(=O)(=O)[O-])cc5F)c5ccc2[nH]5)C=C4)C=C3)cc1
REMARK SMILES IDX 4 1 3 2 2 3 1 4 21 5 22 6 86 7 23 8 85 9 24 10 25 11 26 12
REMARK SMILES IDX 79 13 27 14 84 15 78 16 80 17 28 18 83 19 77 20 76 21 29 23
REMARK SMILES IDX 63 24 42 25 62 26 43 27 46 28 61 29 81 30 44 31 45 32 60 34
REMARK SMILES IDX 82 35 47 36 30 37 31 38 40 39 32 40 33 41 39 42 41 43 34 44
REMARK SMILES IDX 35 45 36 46 37 47 38 48 64 49 65 50 74 51 66 52 67 53 73 54
REMARK SMILES IDX 75 55 68 56 69 57 70 58 71 59 72 60 48 61 49 62 58 63 50 64
REMARK SMILES IDX 51 65 57 66 59 67 52 68 53 69 54 70 55 71 56 72 5 73 6 74
REMARK SMILES IDX 7 75 8 76 9 77 10 78 13 79 11 80 12 81 14 83 15 84 16 85
REMARK SMILES IDX 17 86 20 87 18 88 19 89
REMARK H PARENT 80 22 46 33 13 82
REMARK Flexibility Score: inf
ROOT
ATOM      1  C   UNL A   1      33.316  30.401  27.294  1.00  0.00     0.275 C 
ENDROOT
BRANCH   1   2
ATOM      2  O   UNL A   1      34.331  31.425  27.343  1.00  0.00    -0.458 OA
BRANCH   2   3
ATOM      3  C   UNL A   1      34.979  31.713  28.501  1.00  0.00     0.338 C 
ATOM      4  O   UNL A   1      34.436  32.254  29.441  1.00  0.00    -0.246 OA
BRANCH   3   5
ATOM      5  C   UNL A   1      36.308  31.043  28.614  1.00  0.00     0.060 A 
ATOM      6  C   UNL A   1      36.528  29.708  28.268  1.00  0.00     0.016 A 
ATOM      7  C   UNL A   1      37.378  31.810  29.092  1.00  0.00     0.016 A 
ATOM      8  C   UNL A   1      37.782  29.132  28.444  1.00  0.00     0.010 A 
ATOM      9  C   UNL A   1      38.639  31.239  29.256  1.00  0.00     0.010 A 
ATOM     10  C   UNL A   1      38.836  29.887  28.965  1.00  0.00    -0.014 A 
BRANCH  10  11
ATOM     11  C   UNL A   1      40.126  29.222  29.151  1.00  0.00     0.031 A 
ATOM     12  C   UNL A   1      40.601  29.049  30.558  1.00  0.00     0.074 A 
ATOM     13  C   UNL A   1      40.839  28.670  28.149  1.00  0.00     0.049 A 
ATOM     14  N   UNL A   1      41.607  29.605  31.154  1.00  0.00    -0.248 NA
ATOM     15  C   UNL A   1      39.797  28.189  31.437  1.00  0.00     0.031 C 
ATOM     16  C   UNL A   1      40.446  28.448  26.756  1.00  0.00     0.029 A 
ATOM     17  N   UNL A   1      42.077  28.106  28.214  1.00  0.00    -0.354 N 
ATOM     18  C   UNL A   1      41.679  29.031  32.427  1.00  0.00     0.074 A 
ATOM     19  C   UNL A   1      40.464  28.274  32.589  1.00  0.00     0.031 C 
ATOM     20  C   UNL A   1      41.333  27.611  26.169  1.00  0.00     0.029 A 
ATOM     21  C   UNL A   1      42.433  27.379  27.088  1.00  0.00     0.049 A 
ATOM     22  H   UNL A   1      42.670  28.205  28.994  1.00  0.00     0.167 HD
ATOM     23  C   UNL A   1      42.808  29.076  33.195  1.00  0.00     0.037 A 
ATOM     24  C   UNL A   1      43.540  26.613  26.935  1.00  0.00     0.037 A 
ATOM     25  C   UNL A   1      43.740  30.061  32.715  1.00  0.00     0.049 A 
ATOM     26  C   UNL A   1      44.547  27.084  27.920  1.00  0.00     0.074 A 
ATOM     27  C   UNL A   1      43.705  31.430  32.537  1.00  0.00     0.029 A 
ATOM     28  N   UNL A   1      44.833  29.630  32.003  1.00  0.00    -0.354 N 
ATOM     29  N   UNL A   1      45.116  28.258  27.880  1.00  0.00    -0.248 NA
ATOM     30  C   UNL A   1      44.621  26.401  29.202  1.00  0.00     0.031 C 
ATOM     31  C   UNL A   1      44.437  31.662  31.336  1.00  0.00     0.029 A 
ATOM     32  C   UNL A   1      44.913  30.427  30.890  1.00  0.00     0.049 A 
ATOM     33  H   UNL A   1      45.440  28.894  32.245  1.00  0.00     0.167 HD
ATOM     34  C   UNL A   1      45.255  28.636  29.206  1.00  0.00     0.074 A 
ATOM     35  C   UNL A   1      45.024  27.415  29.972  1.00  0.00     0.031 C 
ATOM     36  C   UNL A   1      45.283  29.952  29.575  1.00  0.00     0.037 A 
BRANCH  23  37
ATOM     37  C   UNL A   1      43.205  28.038  34.222  1.00  0.00     0.058 A 
ATOM     38  C   UNL A   1      43.430  28.420  35.564  1.00  0.00     0.135 A 
ATOM     39  C   UNL A   1      43.631  26.735  33.887  1.00  0.00     0.135 A 
ATOM     40  F   UNL A   1      43.077  29.642  35.995  1.00  0.00    -0.206 F 
ATOM     41  C   UNL A   1      44.080  27.594  36.483  1.00  0.00     0.059 A 
ATOM     42  C   UNL A   1      44.234  25.875  34.800  1.00  0.00     0.059 A 
ATOM     43  F   UNL A   1      43.568  26.271  32.632  1.00  0.00    -0.206 F 
ATOM     44  C   UNL A   1      44.495  26.327  36.084  1.00  0.00     0.060 A 
BRANCH  44  45
ATOM     45  S   UNL A   1      45.434  25.299  37.229  1.00  0.00     0.124 S 
ATOM     46  O   UNL A   1      44.489  25.155  38.331  1.00  0.00    -0.237 OA
ATOM     47  O   UNL A   1      45.677  24.099  36.434  1.00  0.00    -0.237 OA
ATOM     48  O   UNL A   1      46.616  26.107  37.511  1.00  0.00    -0.744 OA
ENDBRANCH  44  45
ENDBRANCH  23  37
BRANCH  24  49
ATOM     49  C   UNL A   1      43.639  25.307  26.239  1.00  0.00     0.058 A 
ATOM     50  C   UNL A   1      44.619  25.071  25.261  1.00  0.00     0.135 A 
ATOM     51  C   UNL A   1      42.954  24.174  26.723  1.00  0.00     0.135 A 
ATOM     52  F   UNL A   1      45.336  26.091  24.766  1.00  0.00    -0.206 F 
ATOM     53  C   UNL A   1      44.933  23.782  24.818  1.00  0.00     0.059 A 
ATOM     54  C   UNL A   1      43.241  22.881  26.292  1.00  0.00     0.059 A 
ATOM     55  F   UNL A   1      42.045  24.283  27.705  1.00  0.00    -0.206 F 
ATOM     56  C   UNL A   1      44.251  22.690  25.357  1.00  0.00     0.060 A 
BRANCH  56  57
ATOM     57  S   UNL A   1      44.776  21.014  24.924  1.00  0.00     0.124 S 
ATOM     58  O   UNL A   1      44.629  21.018  23.473  1.00  0.00    -0.237 OA
ATOM     59  O   UNL A   1      46.145  20.981  25.426  1.00  0.00    -0.237 OA
ATOM     60  O   UNL A   1      43.831  20.167  25.646  1.00  0.00    -0.744 OA
ENDBRANCH  56  57
ENDBRANCH  24  49
BRANCH  36  61
ATOM     61  C   UNL A   1      45.445  30.999  28.503  1.00  0.00     0.058 A 
ATOM     62  C   UNL A   1      44.375  31.575  27.795  1.00  0.00     0.135 A 
ATOM     63  C   UNL A   1      46.713  31.570  28.315  1.00  0.00     0.135 A 
ATOM     64  F   UNL A   1      43.115  31.161  27.993  1.00  0.00    -0.206 F 
ATOM     65  C   UNL A   1      44.561  32.647  26.920  1.00  0.00     0.059 A 
ATOM     66  C   UNL A   1      46.918  32.659  27.471  1.00  0.00     0.059 A 
ATOM     67  F   UNL A   1      47.767  31.108  29.008  1.00  0.00    -0.206 F 
ATOM     68  C   UNL A   1      45.837  33.189  26.770  1.00  0.00     0.060 A 
BRANCH  68  69
ATOM     69  S   UNL A   1      46.055  34.645  25.725  1.00  0.00     0.124 S 
ATOM     70  O   UNL A   1      45.341  34.264  24.511  1.00  0.00    -0.237 OA
ATOM     71  O   UNL A   1      45.437  35.703  26.520  1.00  0.00    -0.237 OA
ATOM     72  O   UNL A   1      47.506  34.753  25.588  1.00  0.00    -0.744 OA
ENDBRANCH  68  69
ENDBRANCH  36  61
ENDBRANCH  10  11
ENDBRANCH   3   5
ENDBRANCH   2   3
ENDBRANCH   1   2
BRANCH   1  73
ATOM     73  C   UNL A   1      33.487  29.291  26.262  1.00  0.00     0.274 C 
BRANCH  73  74
ATOM     74  O   UNL A   1      33.046  29.709  24.958  1.00  0.00    -0.458 OA
BRANCH  74  75
ATOM     75  C   UNL A   1      33.135  28.745  23.995  1.00  0.00     0.365 C 
ATOM     76  O   UNL A   1      34.103  28.004  23.856  1.00  0.00    -0.245 OA
BRANCH  75  77
ATOM     77  C   UNL A   1      31.898  28.742  23.070  1.00  0.00     0.295 C 
ATOM     78  C   UNL A   1      31.852  27.394  22.363  1.00  0.00     0.083 C 
ATOM     79  N   UNL A   1      30.653  28.776  23.860  1.00  0.00    -0.322 N 
ATOM     80  C   UNL A   1      31.144  26.480  23.358  1.00  0.00     0.068 C 
ATOM     81  C   UNL A   1      30.420  27.407  24.329  1.00  0.00     0.263 C 
ATOM     82  H   UNL A   1      30.784  29.411  24.648  1.00  0.00     0.348 HD
BRANCH  79  83
ATOM     83  C   UNL A   1      29.490  29.422  23.235  1.00  0.00     0.285 C 
BRANCH  83  84
ATOM     84  C   UNL A   1      29.509  29.997  21.800  1.00  0.00     0.184 C 
BRANCH  84  85
ATOM     85  N   UNL A   1      28.795  31.237  21.590  1.00  0.00    -0.332 N 
ATOM     86  C   UNL A   1      28.102  31.613  20.473  1.00  0.00     0.107 A 
ATOM     87  C   UNL A   1      28.669  32.248  22.503  1.00  0.00     0.199 A 
ATOM     88  C   UNL A   1      27.708  32.908  20.719  1.00  0.00     0.130 A 
ATOM     89  N   UNL A   1      28.059  33.291  21.989  1.00  0.00    -0.245 NA
ENDBRANCH  84  85
ENDBRANCH  83  84
ENDBRANCH  79  83
ENDBRANCH  75  77
ENDBRANCH  74  75
ENDBRANCH  73  74
ENDBRANCH   1  73
TORSDOF 17
ENDMDL
