MODEL 1
REMARK VINA RESULT:      -9.9      0.000      0.000
REMARK SMILES CCOc1cc(/C=C/C(=O)OCCOC(=O)c2ccc(-c3c4nc(c(-c5c(F)cc(S(=O)(=O)[O-])cc5F)c5ccc([nH]5)c(-c5c(F)cc(S(=O)(=O)[O-])cc5F)c5nc(c(-c6c(F)cc(S(=O)(=O)[O-])cc6F)c6ccc3[nH]6)C=C5)C=C4)cc2)c(Br)cc1OCC#N
REMARK SMILES IDX 12 1 11 2 9 3 10 4 8 5 7 6 6 7 4 8 5 9 86 10 85 11 83 12
REMARK SMILES IDX 84 13 3 14 2 15 1 16 87 17 88 18 89 19 90 20 13 21 14 22
REMARK SMILES IDX 15 23 16 24 17 25 18 26 82 27 19 28 81 29 20 30 21 31 22 32
REMARK SMILES IDX 75 33 23 34 80 35 74 36 76 37 24 38 79 39 73 40 72 41 25 43
REMARK SMILES IDX 59 44 38 45 58 46 39 47 42 48 57 49 77 50 40 51 41 52 56 54
REMARK SMILES IDX 78 55 43 56 26 57 27 58 36 59 28 60 29 61 35 62 37 63 30 64
REMARK SMILES IDX 31 65 32 66 33 67 34 68 60 69 61 70 70 71 62 72 63 73 69 74
REMARK SMILES IDX 71 75 64 76 65 77 66 78 67 79 68 80 44 81 45 82 54 83 46 84
REMARK SMILES IDX 47 85 53 86 55 87 48 88 49 89 50 90 51 91 52 92
REMARK H PARENT 76 42 42 53
REMARK Flexibility Score: inf
ROOT
ATOM      1  C   UNL A   1      34.143  30.060  27.519  1.00  0.00     0.275 C 
ENDROOT
BRANCH   1   2
ATOM      2  O   UNL A   1      32.748  30.133  27.173  1.00  0.00    -0.459 OA
BRANCH   2   3
ATOM      3  C   UNL A   1      32.406  29.573  25.989  1.00  0.00     0.330 C 
ATOM      4  O   UNL A   1      31.864  30.143  25.053  1.00  0.00    -0.247 OA
BRANCH   3   5
ATOM      5  C   UNL A   1      32.818  28.158  25.883  1.00  0.00     0.094 C 
ATOM      6  C   UNL A   1      32.403  27.279  24.956  1.00  0.00     0.017 C 
BRANCH   6   7
ATOM      7  C   UNL A   1      32.759  25.846  25.020  1.00  0.00    -0.007 A 
ATOM      8  C   UNL A   1      34.495  24.129  24.721  1.00  0.00     0.161 A 
ATOM      9  C   UNL A   1      34.071  25.466  24.690  1.00  0.00     0.059 A 
ATOM     10  C   UNL A   1      33.577  23.120  25.031  1.00  0.00     0.163 A 
ATOM     11  C   UNL A   1      32.281  23.495  25.420  1.00  0.00     0.066 A 
ATOM     12  C   UNL A   1      31.876  24.839  25.424  1.00  0.00     0.029 A 
ATOM     13  Br  UNL A   1      30.083  25.209  25.938  1.00  0.00    -0.050 Br
BRANCH   8  14
ATOM     14  O   UNL A   1      35.752  23.807  24.302  1.00  0.00    -0.490 OA
BRANCH  14  15
ATOM     15  C   UNL A   1      36.785  23.780  25.288  1.00  0.00     0.226 C 
ATOM     16  C   UNL A   1      37.222  22.362  25.598  1.00  0.00     0.049 C 
ENDBRANCH  14  15
ENDBRANCH   8  14
BRANCH  10  17
ATOM     17  O   UNL A   1      33.755  21.759  24.997  1.00  0.00    -0.475 OA
BRANCH  17  18
ATOM     18  C   UNL A   1      33.018  20.938  24.069  1.00  0.00     0.349 C 
BRANCH  18  19
ATOM     19  C   UNL A   1      32.592  19.606  24.664  1.00  0.00     0.104 C 
ATOM     20  N   UNL A   1      32.239  18.500  25.158  1.00  0.00    -0.195 NA
ENDBRANCH  18  19
ENDBRANCH  17  18
ENDBRANCH  10  17
ENDBRANCH   6   7
ENDBRANCH   3   5
ENDBRANCH   2   3
ENDBRANCH   1   2
BRANCH   1  21
ATOM     21  C   UNL A   1      34.633  31.370  28.144  1.00  0.00     0.275 C 
BRANCH  21  22
ATOM     22  O   UNL A   1      36.069  31.428  28.232  1.00  0.00    -0.458 OA
BRANCH  22  23
ATOM     23  C   UNL A   1      36.597  30.876  29.350  1.00  0.00     0.338 C 
ATOM     24  O   UNL A   1      36.075  30.797  30.449  1.00  0.00    -0.246 OA
BRANCH  23  25
ATOM     25  C   UNL A   1      37.900  30.260  29.043  1.00  0.00     0.060 A 
ATOM     26  C   UNL A   1      38.862  30.238  30.055  1.00  0.00     0.016 A 
ATOM     27  C   UNL A   1      38.209  29.791  27.763  1.00  0.00     0.016 A 
ATOM     28  C   UNL A   1      40.145  29.769  29.783  1.00  0.00     0.010 A 
ATOM     29  C   UNL A   1      39.501  29.319  27.496  1.00  0.00     0.010 A 
ATOM     30  C   UNL A   1      40.486  29.324  28.498  1.00  0.00    -0.014 A 
BRANCH  30  31
ATOM     31  C   UNL A   1      41.881  28.897  28.216  1.00  0.00     0.031 A 
ATOM     32  C   UNL A   1      43.001  29.901  28.229  1.00  0.00     0.074 A 
ATOM     33  C   UNL A   1      42.148  27.596  27.991  1.00  0.00     0.049 A 
ATOM     34  N   UNL A   1      44.273  29.724  27.970  1.00  0.00    -0.248 NA
ATOM     35  C   UNL A   1      42.647  31.285  28.578  1.00  0.00     0.031 C 
ATOM     36  C   UNL A   1      41.155  26.522  27.986  1.00  0.00     0.029 A 
ATOM     37  N   UNL A   1      43.333  26.958  27.720  1.00  0.00    -0.354 N 
ATOM     38  C   UNL A   1      44.870  30.971  28.115  1.00  0.00     0.074 A 
ATOM     39  C   UNL A   1      43.816  31.902  28.462  1.00  0.00     0.031 C 
ATOM     40  C   UNL A   1      41.771  25.357  27.724  1.00  0.00     0.029 A 
ATOM     41  C   UNL A   1      43.192  25.608  27.502  1.00  0.00     0.049 A 
ATOM     42  H   UNL A   1      44.200  27.423  27.687  1.00  0.00     0.167 HD
ATOM     43  C   UNL A   1      46.176  31.307  27.979  1.00  0.00     0.037 A 
ATOM     44  C   UNL A   1      44.099  24.681  27.138  1.00  0.00     0.037 A 
ATOM     45  C   UNL A   1      47.223  30.378  27.637  1.00  0.00     0.049 A 
ATOM     46  C   UNL A   1      45.535  25.086  26.944  1.00  0.00     0.074 A 
ATOM     47  C   UNL A   1      48.576  30.627  27.474  1.00  0.00     0.029 A 
ATOM     48  N   UNL A   1      47.037  29.023  27.405  1.00  0.00    -0.354 N 
ATOM     49  N   UNL A   1      46.081  26.272  27.081  1.00  0.00    -0.248 NA
ATOM     50  C   UNL A   1      46.477  24.031  26.548  1.00  0.00     0.031 C 
ATOM     51  C   UNL A   1      49.202  29.429  27.110  1.00  0.00     0.029 A 
ATOM     52  C   UNL A   1      48.247  28.426  27.088  1.00  0.00     0.049 A 
ATOM     53  H   UNL A   1      46.173  28.554  27.459  1.00  0.00     0.167 HD
ATOM     54  C   UNL A   1      47.432  26.101  26.803  1.00  0.00     0.074 A 
ATOM     55  C   UNL A   1      47.625  24.696  26.506  1.00  0.00     0.031 C 
ATOM     56  C   UNL A   1      48.425  27.025  26.794  1.00  0.00     0.037 A 
BRANCH  43  57
ATOM     57  C   UNL A   1      46.547  32.750  28.184  1.00  0.00     0.058 A 
ATOM     58  C   UNL A   1      47.001  33.224  29.425  1.00  0.00     0.135 A 
ATOM     59  C   UNL A   1      46.482  33.662  27.118  1.00  0.00     0.135 A 
ATOM     60  F   UNL A   1      47.067  32.399  30.481  1.00  0.00    -0.206 F 
ATOM     61  C   UNL A   1      47.352  34.559  29.609  1.00  0.00     0.059 A 
ATOM     62  C   UNL A   1      46.850  34.995  27.273  1.00  0.00     0.059 A 
ATOM     63  F   UNL A   1      46.056  33.261  25.909  1.00  0.00    -0.206 F 
ATOM     64  C   UNL A   1      47.271  35.437  28.527  1.00  0.00     0.060 A 
BRANCH  64  65
ATOM     65  S   UNL A   1      47.723  37.167  28.783  1.00  0.00     0.124 S 
ATOM     66  O   UNL A   1      46.597  37.855  28.158  1.00  0.00    -0.237 OA
ATOM     67  O   UNL A   1      47.792  37.261  30.238  1.00  0.00    -0.237 OA
ATOM     68  O   UNL A   1      49.000  37.291  28.088  1.00  0.00    -0.744 OA
ENDBRANCH  64  65
ENDBRANCH  43  57
BRANCH  44  69
ATOM     69  C   UNL A   1      43.665  23.279  26.903  1.00  0.00     0.058 A 
ATOM     70  C   UNL A   1      43.358  22.423  27.969  1.00  0.00     0.135 A 
ATOM     71  C   UNL A   1      43.539  22.773  25.599  1.00  0.00     0.135 A 
ATOM     72  F   UNL A   1      43.475  22.857  29.233  1.00  0.00    -0.206 F 
ATOM     73  C   UNL A   1      42.953  21.109  27.753  1.00  0.00     0.059 A 
ATOM     74  C   UNL A   1      43.112  21.473  25.357  1.00  0.00     0.059 A 
ATOM     75  F   UNL A   1      43.809  23.558  24.544  1.00  0.00    -0.206 F 
ATOM     76  C   UNL A   1      42.832  20.643  26.443  1.00  0.00     0.060 A 
BRANCH  76  77
ATOM     77  S   UNL A   1      42.261  18.952  26.167  1.00  0.00     0.124 S 
ATOM     78  O   UNL A   1      42.453  18.362  27.486  1.00  0.00    -0.237 OA
ATOM     79  O   UNL A   1      40.876  19.155  25.753  1.00  0.00    -0.237 OA
ATOM     80  O   UNL A   1      43.154  18.465  25.120  1.00  0.00    -0.744 OA
ENDBRANCH  76  77
ENDBRANCH  44  69
BRANCH  56  81
ATOM     81  C   UNL A   1      49.813  26.544  26.475  1.00  0.00     0.058 A 
ATOM     82  C   UNL A   1      50.685  26.099  27.480  1.00  0.00     0.135 A 
ATOM     83  C   UNL A   1      50.259  26.486  25.146  1.00  0.00     0.135 A 
ATOM     84  F   UNL A   1      50.309  26.140  28.768  1.00  0.00    -0.206 F 
ATOM     85  C   UNL A   1      51.960  25.630  27.181  1.00  0.00     0.059 A 
ATOM     86  C   UNL A   1      51.522  26.000  24.820  1.00  0.00     0.059 A 
ATOM     87  F   UNL A   1      49.461  26.891  24.146  1.00  0.00    -0.206 F 
ATOM     88  C   UNL A   1      52.370  25.585  25.846  1.00  0.00     0.060 A 
BRANCH  88  89
ATOM     89  S   UNL A   1      54.015  24.943  25.464  1.00  0.00     0.124 S 
ATOM     90  O   UNL A   1      53.696  23.637  24.898  1.00  0.00    -0.237 OA
ATOM     91  O   UNL A   1      54.529  25.935  24.524  1.00  0.00    -0.237 OA
ATOM     92  O   UNL A   1      54.678  24.920  26.765  1.00  0.00    -0.744 OA
ENDBRANCH  88  89
ENDBRANCH  56  81
ENDBRANCH  30  31
ENDBRANCH  23  25
ENDBRANCH  22  23
ENDBRANCH  21  22
ENDBRANCH   1  21
TORSDOF 20
ENDMDL
MODEL 2
REMARK VINA RESULT:      -9.8      6.869     12.361
REMARK SMILES CCOc1cc(/C=C/C(=O)OCCOC(=O)c2ccc(-c3c4nc(c(-c5c(F)cc(S(=O)(=O)[O-])cc5F)c5ccc([nH]5)c(-c5c(F)cc(S(=O)(=O)[O-])cc5F)c5nc(c(-c6c(F)cc(S(=O)(=O)[O-])cc6F)c6ccc3[nH]6)C=C5)C=C4)cc2)c(Br)cc1OCC#N
REMARK SMILES IDX 12 1 11 2 9 3 10 4 8 5 7 6 6 7 4 8 5 9 86 10 85 11 83 12
REMARK SMILES IDX 84 13 3 14 2 15 1 16 87 17 88 18 89 19 90 20 13 21 14 22
REMARK SMILES IDX 15 23 16 24 17 25 18 26 82 27 19 28 81 29 20 30 21 31 22 32
REMARK SMILES IDX 75 33 23 34 80 35 74 36 76 37 24 38 79 39 73 40 72 41 25 43
REMARK SMILES IDX 59 44 38 45 58 46 39 47 42 48 57 49 77 50 40 51 41 52 56 54
REMARK SMILES IDX 78 55 43 56 26 57 27 58 36 59 28 60 29 61 35 62 37 63 30 64
REMARK SMILES IDX 31 65 32 66 33 67 34 68 60 69 61 70 70 71 62 72 63 73 69 74
REMARK SMILES IDX 71 75 64 76 65 77 66 78 67 79 68 80 44 81 45 82 54 83 46 84
REMARK SMILES IDX 47 85 53 86 55 87 48 88 49 89 50 90 51 91 52 92
REMARK H PARENT 76 42 42 53
REMARK Flexibility Score: inf
ROOT
ATOM      1  C   UNL A   1      38.370  23.356  26.107  1.00  0.00     0.275 C 
ENDROOT
BRANCH   1   2
ATOM      2  O   UNL A   1      37.664  22.743  25.011  1.00  0.00    -0.459 OA
BRANCH   2   3
ATOM      3  C   UNL A   1      36.513  22.109  25.336  1.00  0.00     0.330 C 
ATOM      4  O   UNL A   1      36.422  21.027  25.897  1.00  0.00    -0.247 OA
BRANCH   3   5
ATOM      5  C   UNL A   1      35.309  22.897  25.002  1.00  0.00     0.094 C 
ATOM      6  C   UNL A   1      35.096  23.576  23.863  1.00  0.00     0.017 C 
BRANCH   6   7
ATOM      7  C   UNL A   1      33.921  24.454  23.682  1.00  0.00    -0.007 A 
ATOM      8  C   UNL A   1      32.918  26.671  24.043  1.00  0.00     0.161 A 
ATOM      9  C   UNL A   1      33.987  25.771  24.170  1.00  0.00     0.059 A 
ATOM     10  C   UNL A   1      31.717  26.242  23.469  1.00  0.00     0.163 A 
ATOM     11  C   UNL A   1      31.662  24.948  22.926  1.00  0.00     0.066 A 
ATOM     12  C   UNL A   1      32.750  24.066  23.022  1.00  0.00     0.029 A 
ATOM     13  Br  UNL A   1      32.536  22.331  22.276  1.00  0.00    -0.050 Br
BRANCH   8  14
ATOM     14  O   UNL A   1      33.001  27.906  24.617  1.00  0.00    -0.490 OA
BRANCH  14  15
ATOM     15  C   UNL A   1      33.362  27.965  25.997  1.00  0.00     0.226 C 
ATOM     16  C   UNL A   1      32.165  28.279  26.873  1.00  0.00     0.049 C 
ENDBRANCH  14  15
ENDBRANCH   8  14
BRANCH  10  17
ATOM     17  O   UNL A   1      30.527  26.919  23.365  1.00  0.00    -0.475 OA
BRANCH  17  18
ATOM     18  C   UNL A   1      29.403  26.573  24.198  1.00  0.00     0.349 C 
BRANCH  18  19
ATOM     19  C   UNL A   1      29.807  25.835  25.464  1.00  0.00     0.104 C 
ATOM     20  N   UNL A   1      30.142  25.223  26.515  1.00  0.00    -0.195 NA
ENDBRANCH  18  19
ENDBRANCH  17  18
ENDBRANCH  10  17
ENDBRANCH   6   7
ENDBRANCH   3   5
ENDBRANCH   2   3
ENDBRANCH   1   2
BRANCH   1  21
ATOM     21  C   UNL A   1      39.669  22.608  26.421  1.00  0.00     0.275 C 
BRANCH  21  22
ATOM     22  O   UNL A   1      40.462  23.287  27.414  1.00  0.00    -0.458 OA
BRANCH  22  23
ATOM     23  C   UNL A   1      41.082  24.410  26.982  1.00  0.00     0.338 C 
ATOM     24  O   UNL A   1      41.693  24.558  25.937  1.00  0.00    -0.246 OA
BRANCH  23  25
ATOM     25  C   UNL A   1      40.833  25.518  27.921  1.00  0.00     0.060 A 
ATOM     26  C   UNL A   1      41.833  26.480  28.069  1.00  0.00     0.016 A 
ATOM     27  C   UNL A   1      39.680  25.569  28.710  1.00  0.00     0.016 A 
ATOM     28  C   UNL A   1      41.695  27.484  29.026  1.00  0.00     0.010 A 
ATOM     29  C   UNL A   1      39.546  26.583  29.669  1.00  0.00     0.010 A 
ATOM     30  C   UNL A   1      40.562  27.535  29.849  1.00  0.00    -0.014 A 
BRANCH  30  31
ATOM     31  C   UNL A   1      40.473  28.574  30.909  1.00  0.00     0.031 A 
ATOM     32  C   UNL A   1      41.371  28.509  32.114  1.00  0.00     0.074 A 
ATOM     33  C   UNL A   1      39.613  29.600  30.767  1.00  0.00     0.049 A 
ATOM     34  N   UNL A   1      41.412  29.300  33.157  1.00  0.00    -0.248 NA
ATOM     35  C   UNL A   1      42.351  27.414  32.152  1.00  0.00     0.031 C 
ATOM     36  C   UNL A   1      38.713  29.793  29.629  1.00  0.00     0.029 A 
ATOM     37  N   UNL A   1      39.352  30.671  31.585  1.00  0.00    -0.354 N 
ATOM     38  C   UNL A   1      42.412  28.796  33.980  1.00  0.00     0.074 A 
ATOM     39  C   UNL A   1      42.938  27.616  33.326  1.00  0.00     0.031 C 
ATOM     40  C   UNL A   1      37.999  30.914  29.821  1.00  0.00     0.029 A 
ATOM     41  C   UNL A   1      38.358  31.495  31.111  1.00  0.00     0.049 A 
ATOM     42  H   UNL A   1      39.831  30.834  32.429  1.00  0.00     0.167 HD
ATOM     43  C   UNL A   1      42.857  29.276  35.167  1.00  0.00     0.037 A 
ATOM     44  C   UNL A   1      37.782  32.579  31.665  1.00  0.00     0.037 A 
ATOM     45  C   UNL A   1      42.334  30.453  35.815  1.00  0.00     0.049 A 
ATOM     46  C   UNL A   1      38.258  33.066  33.007  1.00  0.00     0.074 A 
ATOM     47  C   UNL A   1      42.719  31.015  37.020  1.00  0.00     0.029 A 
ATOM     48  N   UNL A   1      41.315  31.249  35.312  1.00  0.00    -0.354 N 
ATOM     49  N   UNL A   1      39.202  32.573  33.773  1.00  0.00    -0.248 NA
ATOM     50  C   UNL A   1      37.592  34.253  33.559  1.00  0.00     0.031 C 
ATOM     51  C   UNL A   1      41.910  32.131  37.264  1.00  0.00     0.029 A 
ATOM     52  C   UNL A   1      41.049  32.288  36.189  1.00  0.00     0.049 A 
ATOM     53  H   UNL A   1      40.850  31.097  34.458  1.00  0.00     0.167 HD
ATOM     54  C   UNL A   1      39.254  33.400  34.890  1.00  0.00     0.074 A 
ATOM     55  C   UNL A   1      38.257  34.433  34.692  1.00  0.00     0.031 C 
ATOM     56  C   UNL A   1      40.054  33.311  35.981  1.00  0.00     0.037 A 
BRANCH  43  57
ATOM     57  C   UNL A   1      43.956  28.516  35.857  1.00  0.00     0.058 A 
ATOM     58  C   UNL A   1      45.308  28.840  35.662  1.00  0.00     0.135 A 
ATOM     59  C   UNL A   1      43.654  27.475  36.749  1.00  0.00     0.135 A 
ATOM     60  F   UNL A   1      45.654  29.816  34.808  1.00  0.00    -0.206 F 
ATOM     61  C   UNL A   1      46.324  28.141  36.309  1.00  0.00     0.059 A 
ATOM     62  C   UNL A   1      44.652  26.778  37.424  1.00  0.00     0.059 A 
ATOM     63  F   UNL A   1      42.377  27.126  36.972  1.00  0.00    -0.206 F 
ATOM     64  C   UNL A   1      45.985  27.109  37.186  1.00  0.00     0.060 A 
BRANCH  64  65
ATOM     65  S   UNL A   1      47.313  26.206  38.011  1.00  0.00     0.124 S 
ATOM     66  O   UNL A   1      47.124  24.861  37.477  1.00  0.00    -0.237 OA
ATOM     67  O   UNL A   1      48.506  26.909  37.548  1.00  0.00    -0.237 OA
ATOM     68  O   UNL A   1      47.005  26.368  39.428  1.00  0.00    -0.744 OA
ENDBRANCH  64  65
ENDBRANCH  43  57
BRANCH  44  69
ATOM     69  C   UNL A   1      36.666  33.262  30.958  1.00  0.00     0.058 A 
ATOM     70  C   UNL A   1      36.907  34.143  29.896  1.00  0.00     0.135 A 
ATOM     71  C   UNL A   1      35.332  33.033  31.331  1.00  0.00     0.135 A 
ATOM     72  F   UNL A   1      38.166  34.403  29.512  1.00  0.00    -0.206 F 
ATOM     73  C   UNL A   1      35.865  34.785  29.234  1.00  0.00     0.059 A 
ATOM     74  C   UNL A   1      34.273  33.642  30.668  1.00  0.00     0.059 A 
ATOM     75  F   UNL A   1      35.049  32.187  32.334  1.00  0.00    -0.206 F 
ATOM     76  C   UNL A   1      34.551  34.527  29.627  1.00  0.00     0.060 A 
BRANCH  76  77
ATOM     77  S   UNL A   1      33.200  35.327  28.733  1.00  0.00     0.124 S 
ATOM     78  O   UNL A   1      33.931  36.190  27.813  1.00  0.00    -0.237 OA
ATOM     79  O   UNL A   1      32.510  34.191  28.131  1.00  0.00    -0.237 OA
ATOM     80  O   UNL A   1      32.460  36.011  29.789  1.00  0.00    -0.744 OA
ENDBRANCH  76  77
ENDBRANCH  44  69
BRANCH  56  81
ATOM     81  C   UNL A   1      39.903  34.371  37.036  1.00  0.00     0.058 A 
ATOM     82  C   UNL A   1      40.536  35.618  36.921  1.00  0.00     0.135 A 
ATOM     83  C   UNL A   1      39.080  34.154  38.152  1.00  0.00     0.135 A 
ATOM     84  F   UNL A   1      41.338  35.874  35.875  1.00  0.00    -0.206 F 
ATOM     85  C   UNL A   1      40.375  36.607  37.885  1.00  0.00     0.059 A 
ATOM     86  C   UNL A   1      38.886  35.136  39.119  1.00  0.00     0.059 A 
ATOM     87  F   UNL A   1      38.445  32.981  38.306  1.00  0.00    -0.206 F 
ATOM     88  C   UNL A   1      39.547  36.356  38.983  1.00  0.00     0.060 A 
BRANCH  88  89
ATOM     89  S   UNL A   1      39.317  37.659  40.213  1.00  0.00     0.124 S 
ATOM     90  O   UNL A   1      38.245  38.445  39.611  1.00  0.00    -0.237 OA
ATOM     91  O   UNL A   1      38.954  36.902  41.408  1.00  0.00    -0.237 OA
ATOM     92  O   UNL A   1      40.623  38.310  40.263  1.00  0.00    -0.744 OA
ENDBRANCH  88  89
ENDBRANCH  56  81
ENDBRANCH  30  31
ENDBRANCH  23  25
ENDBRANCH  22  23
ENDBRANCH  21  22
ENDBRANCH   1  21
TORSDOF 20
ENDMDL
MODEL 3
REMARK VINA RESULT:      -9.6      7.144     12.101
REMARK SMILES CCOc1cc(/C=C/C(=O)OCCOC(=O)c2ccc(-c3c4nc(c(-c5c(F)cc(S(=O)(=O)[O-])cc5F)c5ccc([nH]5)c(-c5c(F)cc(S(=O)(=O)[O-])cc5F)c5nc(c(-c6c(F)cc(S(=O)(=O)[O-])cc6F)c6ccc3[nH]6)C=C5)C=C4)cc2)c(Br)cc1OCC#N
REMARK SMILES IDX 12 1 11 2 9 3 10 4 8 5 7 6 6 7 4 8 5 9 86 10 85 11 83 12
REMARK SMILES IDX 84 13 3 14 2 15 1 16 87 17 88 18 89 19 90 20 13 21 14 22
REMARK SMILES IDX 15 23 16 24 17 25 18 26 82 27 19 28 81 29 20 30 21 31 22 32
REMARK SMILES IDX 75 33 23 34 80 35 74 36 76 37 24 38 79 39 73 40 72 41 25 43
REMARK SMILES IDX 59 44 38 45 58 46 39 47 42 48 57 49 77 50 40 51 41 52 56 54
REMARK SMILES IDX 78 55 43 56 26 57 27 58 36 59 28 60 29 61 35 62 37 63 30 64
REMARK SMILES IDX 31 65 32 66 33 67 34 68 60 69 61 70 70 71 62 72 63 73 69 74
REMARK SMILES IDX 71 75 64 76 65 77 66 78 67 79 68 80 44 81 45 82 54 83 46 84
REMARK SMILES IDX 47 85 53 86 55 87 48 88 49 89 50 90 51 91 52 92
REMARK H PARENT 76 42 42 53
REMARK Flexibility Score: inf
ROOT
ATOM      1  C   UNL A   1      37.724  24.085  26.365  1.00  0.00     0.275 C 
ENDROOT
BRANCH   1   2
ATOM      2  O   UNL A   1      36.803  23.804  25.294  1.00  0.00    -0.459 OA
BRANCH   2   3
ATOM      3  C   UNL A   1      35.528  23.550  25.670  1.00  0.00     0.330 C 
ATOM      4  O   UNL A   1      35.128  22.532  26.216  1.00  0.00    -0.247 OA
BRANCH   3   5
ATOM      5  C   UNL A   1      34.615  24.683  25.413  1.00  0.00     0.094 C 
ATOM      6  C   UNL A   1      33.987  24.949  24.256  1.00  0.00     0.017 C 
BRANCH   6   7
ATOM      7  C   UNL A   1      33.210  26.189  24.054  1.00  0.00    -0.007 A 
ATOM      8  C   UNL A   1      32.376  28.291  25.022  1.00  0.00     0.161 A 
ATOM      9  C   UNL A   1      33.097  27.092  25.125  1.00  0.00     0.059 A 
ATOM     10  C   UNL A   1      31.691  28.587  23.839  1.00  0.00     0.163 A 
ATOM     11  C   UNL A   1      31.847  27.721  22.745  1.00  0.00     0.066 A 
ATOM     12  C   UNL A   1      32.602  26.542  22.844  1.00  0.00     0.029 A 
ATOM     13  Br  UNL A   1      32.706  25.440  21.298  1.00  0.00    -0.050 Br
BRANCH   8  14
ATOM     14  O   UNL A   1      32.222  29.085  26.121  1.00  0.00    -0.490 OA
BRANCH  14  15
ATOM     15  C   UNL A   1      33.291  29.975  26.443  1.00  0.00     0.226 C 
ATOM     16  C   UNL A   1      34.363  29.285  27.263  1.00  0.00     0.049 C 
ENDBRANCH  14  15
ENDBRANCH   8  14
BRANCH  10  17
ATOM     17  O   UNL A   1      30.840  29.633  23.580  1.00  0.00    -0.475 OA
BRANCH  17  18
ATOM     18  C   UNL A   1      29.964  29.609  22.435  1.00  0.00     0.349 C 
BRANCH  18  19
ATOM     19  C   UNL A   1      28.493  29.669  22.812  1.00  0.00     0.104 C 
ATOM     20  N   UNL A   1      27.272  29.719  23.125  1.00  0.00    -0.195 NA
ENDBRANCH  18  19
ENDBRANCH  17  18
ENDBRANCH  10  17
ENDBRANCH   6   7
ENDBRANCH   3   5
ENDBRANCH   2   3
ENDBRANCH   1   2
BRANCH   1  21
ATOM     21  C   UNL A   1      39.083  23.422  26.120  1.00  0.00     0.275 C 
BRANCH  21  22
ATOM     22  O   UNL A   1      40.119  23.978  26.952  1.00  0.00    -0.458 OA
BRANCH  22  23
ATOM     23  C   UNL A   1      40.522  25.224  26.609  1.00  0.00     0.338 C 
ATOM     24  O   UNL A   1      40.725  25.648  25.484  1.00  0.00    -0.246 OA
BRANCH  23  25
ATOM     25  C   UNL A   1      40.593  26.080  27.806  1.00  0.00     0.060 A 
ATOM     26  C   UNL A   1      39.577  25.954  28.755  1.00  0.00     0.016 A 
ATOM     27  C   UNL A   1      41.586  27.052  27.958  1.00  0.00     0.016 A 
ATOM     28  C   UNL A   1      39.536  26.818  29.847  1.00  0.00     0.010 A 
ATOM     29  C   UNL A   1      41.541  27.917  29.060  1.00  0.00     0.010 A 
ATOM     30  C   UNL A   1      40.503  27.820  30.002  1.00  0.00    -0.014 A 
BRANCH  30  31
ATOM     31  C   UNL A   1      40.395  28.773  31.137  1.00  0.00     0.031 A 
ATOM     32  C   UNL A   1      39.390  29.892  31.098  1.00  0.00     0.074 A 
ATOM     33  C   UNL A   1      41.173  28.607  32.224  1.00  0.00     0.049 A 
ATOM     34  N   UNL A   1      39.177  30.842  31.974  1.00  0.00    -0.248 NA
ATOM     35  C   UNL A   1      38.510  29.952  29.922  1.00  0.00     0.031 C 
ATOM     36  C   UNL A   1      42.161  27.542  32.397  1.00  0.00     0.029 A 
ATOM     37  N   UNL A   1      41.256  29.333  33.386  1.00  0.00    -0.354 N 
ATOM     38  C   UNL A   1      38.147  31.617  31.454  1.00  0.00     0.074 A 
ATOM     39  C   UNL A   1      37.794  31.041  30.174  1.00  0.00     0.031 C 
ATOM     40  C   UNL A   1      42.753  27.684  33.595  1.00  0.00     0.029 A 
ATOM     41  C   UNL A   1      42.217  28.871  34.255  1.00  0.00     0.049 A 
ATOM     42  H   UNL A   1      40.683  30.110  33.579  1.00  0.00     0.167 HD
ATOM     43  C   UNL A   1      37.546  32.704  31.997  1.00  0.00     0.037 A 
ATOM     44  C   UNL A   1      42.639  29.362  35.436  1.00  0.00     0.037 A 
ATOM     45  C   UNL A   1      37.897  33.274  33.273  1.00  0.00     0.049 A 
ATOM     46  C   UNL A   1      41.991  30.599  35.996  1.00  0.00     0.074 A 
ATOM     47  C   UNL A   1      37.346  34.377  33.904  1.00  0.00     0.029 A 
ATOM     48  N   UNL A   1      38.888  32.789  34.114  1.00  0.00    -0.354 N 
ATOM     49  N   UNL A   1      41.021  31.322  35.488  1.00  0.00    -0.248 NA
ATOM     50  C   UNL A   1      42.492  31.087  37.288  1.00  0.00     0.031 C 
ATOM     51  C   UNL A   1      38.027  34.579  35.111  1.00  0.00     0.029 A 
ATOM     52  C   UNL A   1      38.974  33.577  35.250  1.00  0.00     0.049 A 
ATOM     53  H   UNL A   1      39.448  32.001  33.930  1.00  0.00     0.167 HD
ATOM     54  C   UNL A   1      40.786  32.341  36.405  1.00  0.00     0.074 A 
ATOM     55  C   UNL A   1      41.704  32.131  37.507  1.00  0.00     0.031 C 
ATOM     56  C   UNL A   1      39.892  33.358  36.341  1.00  0.00     0.037 A 
BRANCH  43  57
ATOM     57  C   UNL A   1      36.453  33.364  31.202  1.00  0.00     0.058 A 
ATOM     58  C   UNL A   1      36.735  34.140  30.067  1.00  0.00     0.135 A 
ATOM     59  C   UNL A   1      35.106  33.192  31.558  1.00  0.00     0.135 A 
ATOM     60  F   UNL A   1      38.006  34.351  29.690  1.00  0.00    -0.206 F 
ATOM     61  C   UNL A   1      35.721  34.743  29.328  1.00  0.00     0.059 A 
ATOM     62  C   UNL A   1      34.075  33.766  30.821  1.00  0.00     0.059 A 
ATOM     63  F   UNL A   1      34.781  32.458  32.635  1.00  0.00    -0.206 F 
ATOM     64  C   UNL A   1      34.394  34.553  29.715  1.00  0.00     0.060 A 
BRANCH  64  65
ATOM     65  S   UNL A   1      33.090  35.348  28.752  1.00  0.00     0.124 S 
ATOM     66  O   UNL A   1      33.856  36.313  27.969  1.00  0.00    -0.237 OA
ATOM     67  O   UNL A   1      32.528  34.229  28.002  1.00  0.00    -0.237 OA
ATOM     68  O   UNL A   1      32.214  35.918  29.770  1.00  0.00    -0.744 OA
ENDBRANCH  64  65
ENDBRANCH  43  57
BRANCH  44  69
ATOM     69  C   UNL A   1      43.755  28.695  36.155  1.00  0.00     0.058 A 
ATOM     70  C   UNL A   1      45.071  29.167  36.057  1.00  0.00     0.135 A 
ATOM     71  C   UNL A   1      43.520  27.574  36.966  1.00  0.00     0.135 A 
ATOM     72  F   UNL A   1      45.347  30.228  35.284  1.00  0.00    -0.206 F 
ATOM     73  C   UNL A   1      46.119  28.544  36.728  1.00  0.00     0.059 A 
ATOM     74  C   UNL A   1      44.546  26.950  37.667  1.00  0.00     0.059 A 
ATOM     75  F   UNL A   1      42.274  27.092  37.103  1.00  0.00    -0.206 F 
ATOM     76  C   UNL A   1      45.845  27.436  37.532  1.00  0.00     0.060 A 
BRANCH  76  77
ATOM     77  S   UNL A   1      47.202  26.659  38.437  1.00  0.00     0.124 S 
ATOM     78  O   UNL A   1      48.275  27.626  38.239  1.00  0.00    -0.237 OA
ATOM     79  O   UNL A   1      46.662  26.572  39.790  1.00  0.00    -0.237 OA
ATOM     80  O   UNL A   1      47.370  25.380  37.755  1.00  0.00    -0.744 OA
ENDBRANCH  76  77
ENDBRANCH  44  69
BRANCH  56  81
ATOM     81  C   UNL A   1      39.844  34.310  37.503  1.00  0.00     0.058 A 
ATOM     82  C   UNL A   1      39.043  34.057  38.627  1.00  0.00     0.135 A 
ATOM     83  C   UNL A   1      40.642  35.464  37.512  1.00  0.00     0.135 A 
ATOM     84  F   UNL A   1      38.256  32.970  38.665  1.00  0.00    -0.206 F 
ATOM     85  C   UNL A   1      39.019  34.926  39.713  1.00  0.00     0.059 A 
ATOM     86  C   UNL A   1      40.652  36.337  38.597  1.00  0.00     0.059 A 
ATOM     87  F   UNL A   1      41.433  35.748  36.466  1.00  0.00    -0.206 F 
ATOM     88  C   UNL A   1      39.828  36.065  39.688  1.00  0.00     0.060 A 
BRANCH  88  89
ATOM     89  S   UNL A   1      39.816  37.170  41.117  1.00  0.00     0.124 S 
ATOM     90  O   UNL A   1      41.241  37.308  41.394  1.00  0.00    -0.237 OA
ATOM     91  O   UNL A   1      39.154  38.360  40.589  1.00  0.00    -0.237 OA
ATOM     92  O   UNL A   1      39.050  36.425  42.113  1.00  0.00    -0.744 OA
ENDBRANCH  88  89
ENDBRANCH  56  81
ENDBRANCH  30  31
ENDBRANCH  23  25
ENDBRANCH  22  23
ENDBRANCH  21  22
ENDBRANCH   1  21
TORSDOF 20
ENDMDL
