MODEL 1
REMARK VINA RESULT:     -12.0      0.000      0.000
REMARK SMILES CC(C)CC(=O)Nc1ccc(NC(=O)[C@@H]2CCCC[C@@H]2C(=O)OCCOC(=O)c2ccc(-c3c4nc(c(-c5c(F)cc(S(=O)(=O)[O-])cc5F)c5ccc([nH]5)c(-c5c(F)cc(S(=O)(=O)[O-])cc5F)c5nc(c(-c6c(F)cc(S(=O)(=O)[O-])cc6F)c6ccc3[nH]6)C=C5)C=C4)cc2)cc1
REMARK SMILES IDX 24 1 23 2 21 3 22 4 20 5 15 6 16 7 17 8 19 9 18 10 13 11
REMARK SMILES IDX 12 12 14 14 11 15 8 16 9 17 96 18 10 19 95 20 7 21 5 22 6 23
REMARK SMILES IDX 4 25 2 26 1 27 3 28 25 29 26 30 27 31 28 32 29 33 30 34
REMARK SMILES IDX 94 35 31 36 93 37 32 38 33 39 34 40 87 41 35 42 92 43 86 44
REMARK SMILES IDX 88 45 36 46 91 47 85 48 84 49 37 51 71 52 50 53 70 54 51 55
REMARK SMILES IDX 54 56 69 57 89 58 52 59 53 60 68 62 90 63 55 64 38 65 39 66
REMARK SMILES IDX 48 67 40 68 41 69 47 70 49 71 42 72 43 73 44 74 45 75 46 76
REMARK SMILES IDX 72 77 73 78 82 79 74 80 75 81 81 82 83 83 76 84 77 85 78 86
REMARK SMILES IDX 79 87 80 88 56 89 57 90 66 91 58 92 59 93 65 94 67 95 60 96
REMARK SMILES IDX 61 97 62 98 63 99 64 100
REMARK H PARENT 12 13 7 24 88 50 54 61
REMARK Flexibility Score: inf
ROOT
ATOM      1  C   UNL A   1      31.438  30.158  26.081  1.00  0.00     0.274 C 
ENDROOT
BRANCH   1   2
ATOM      2  O   UNL A   1      31.466  30.018  24.590  1.00  0.00    -0.462 OA
BRANCH   2   3
ATOM      3  C   UNL A   1      30.794  28.986  23.946  1.00  0.00     0.309 C 
ATOM      4  O   UNL A   1      29.650  29.114  23.536  1.00  0.00    -0.252 OA
BRANCH   3   5
ATOM      5  C   UNL A   1      31.682  27.699  23.713  1.00  0.00     0.111 C 
ATOM      6  C   UNL A   1      31.529  26.510  24.701  1.00  0.00     0.093 C 
ATOM      7  C   UNL A   1      32.138  26.891  26.051  1.00  0.00     0.014 C 
ATOM      8  C   UNL A   1      33.651  27.000  25.871  1.00  0.00     0.001 C 
ATOM      9  C   UNL A   1      33.190  27.837  23.452  1.00  0.00     0.016 C 
ATOM     10  C   UNL A   1      34.068  27.904  24.702  1.00  0.00     0.001 C 
BRANCH   6  11
ATOM     11  C   UNL A   1      30.230  25.702  24.793  1.00  0.00     0.228 C 
ATOM     12  N   UNL A   1      30.334  24.426  25.379  1.00  0.00    -0.326 N 
ATOM     13  H   UNL A   1      29.806  24.180  26.172  1.00  0.00     0.169 HD
ATOM     14  O   UNL A   1      29.133  26.149  24.468  1.00  0.00    -0.274 OA
BRANCH  12  15
ATOM     15  C   UNL A   1      31.229  23.516  24.778  1.00  0.00     0.041 A 
ATOM     16  C   UNL A   1      32.096  20.919  23.737  1.00  0.00     0.041 A 
ATOM     17  C   UNL A   1      31.882  22.027  22.902  1.00  0.00     0.028 A 
ATOM     18  C   UNL A   1      31.939  21.295  25.048  1.00  0.00     0.028 A 
ATOM     19  C   UNL A   1      31.415  23.307  23.406  1.00  0.00     0.028 A 
ATOM     20  C   UNL A   1      31.624  22.529  25.621  1.00  0.00     0.028 A 
BRANCH  16  21
ATOM     21  N   UNL A   1      32.381  19.603  23.193  1.00  0.00    -0.326 N 
ATOM     22  C   UNL A   1      33.079  18.417  23.130  1.00  0.00     0.224 C 
ATOM     23  O   UNL A   1      32.539  17.728  22.219  1.00  0.00    -0.275 OA
ATOM     24  H   UNL A   1      31.708  19.506  22.481  1.00  0.00     0.169 HD
BRANCH  22  25
ATOM     25  C   UNL A   1      34.205  17.529  23.922  1.00  0.00     0.103 C 
BRANCH  25  26
ATOM     26  C   UNL A   1      34.316  16.082  24.640  1.00  0.00    -0.008 C 
ATOM     27  C   UNL A   1      35.570  15.628  25.385  1.00  0.00     0.008 C 
ATOM     28  C   UNL A   1      33.069  15.720  25.512  1.00  0.00     0.008 C 
ENDBRANCH  25  26
ENDBRANCH  22  25
ENDBRANCH  16  21
ENDBRANCH  12  15
ENDBRANCH   6  11
ENDBRANCH   3   5
ENDBRANCH   2   3
ENDBRANCH   1   2
BRANCH   1  29
ATOM     29  C   UNL A   1      32.734  30.802  26.908  1.00  0.00     0.275 C 
BRANCH  29  30
ATOM     30  O   UNL A   1      33.793  30.093  27.680  1.00  0.00    -0.458 OA
BRANCH  30  31
ATOM     31  C   UNL A   1      34.745  30.829  28.401  1.00  0.00     0.338 C 
ATOM     32  O   UNL A   1      34.606  31.882  29.011  1.00  0.00    -0.246 OA
BRANCH  31  33
ATOM     33  C   UNL A   1      35.982  30.061  28.521  1.00  0.00     0.060 A 
ATOM     34  C   UNL A   1      36.831  29.872  27.421  1.00  0.00     0.016 A 
ATOM     35  C   UNL A   1      36.354  29.672  29.793  1.00  0.00     0.016 A 
ATOM     36  C   UNL A   1      38.177  29.638  27.642  1.00  0.00     0.010 A 
ATOM     37  C   UNL A   1      37.668  29.310  30.000  1.00  0.00     0.010 A 
ATOM     38  C   UNL A   1      38.596  29.381  28.947  1.00  0.00    -0.014 A 
BRANCH  38  39
ATOM     39  C   UNL A   1      39.979  28.995  29.233  1.00  0.00     0.031 A 
ATOM     40  C   UNL A   1      40.916  30.084  29.628  1.00  0.00     0.074 A 
ATOM     41  C   UNL A   1      40.381  27.735  28.989  1.00  0.00     0.049 A 
ATOM     42  N   UNL A   1      42.215  30.063  29.690  1.00  0.00    -0.248 NA
ATOM     43  C   UNL A   1      40.306  31.378  29.984  1.00  0.00     0.031 C 
ATOM     44  C   UNL A   1      39.505  26.610  28.651  1.00  0.00     0.029 A 
ATOM     45  N   UNL A   1      41.643  27.206  28.937  1.00  0.00    -0.354 N 
ATOM     46  C   UNL A   1      42.580  31.340  30.087  1.00  0.00     0.074 A 
ATOM     47  C   UNL A   1      41.372  32.113  30.251  1.00  0.00     0.031 C 
ATOM     48  C   UNL A   1      40.265  25.535  28.372  1.00  0.00     0.029 A 
ATOM     49  C   UNL A   1      41.672  25.911  28.472  1.00  0.00     0.049 A 
ATOM     50  H   UNL A   1      42.449  27.703  29.204  1.00  0.00     0.167 HD
ATOM     51  C   UNL A   1      43.824  31.828  30.272  1.00  0.00     0.037 A 
ATOM     52  C   UNL A   1      42.728  25.149  28.125  1.00  0.00     0.037 A 
ATOM     53  C   UNL A   1      45.008  31.062  30.013  1.00  0.00     0.049 A 
ATOM     54  C   UNL A   1      44.108  25.749  28.249  1.00  0.00     0.074 A 
ATOM     55  C   UNL A   1      46.327  31.453  30.124  1.00  0.00     0.029 A 
ATOM     56  N   UNL A   1      45.008  29.749  29.559  1.00  0.00    -0.354 N 
ATOM     57  N   UNL A   1      44.452  26.954  28.647  1.00  0.00    -0.248 NA
ATOM     58  C   UNL A   1      45.241  24.895  27.872  1.00  0.00     0.031 C 
ATOM     59  C   UNL A   1      47.126  30.390  29.688  1.00  0.00     0.029 A 
ATOM     60  C   UNL A   1      46.306  29.318  29.365  1.00  0.00     0.049 A 
ATOM     61  H   UNL A   1      44.202  29.206  29.400  1.00  0.00     0.167 HD
ATOM     62  C   UNL A   1      45.841  26.990  28.601  1.00  0.00     0.074 A 
ATOM     63  C   UNL A   1      46.272  25.685  28.140  1.00  0.00     0.031 C 
ATOM     64  C   UNL A   1      46.689  28.003  28.913  1.00  0.00     0.037 A 
BRANCH  51  65
ATOM     65  C   UNL A   1      43.931  33.256  30.704  1.00  0.00     0.058 A 
ATOM     66  C   UNL A   1      44.078  34.296  29.772  1.00  0.00     0.135 A 
ATOM     67  C   UNL A   1      43.934  33.588  32.067  1.00  0.00     0.135 A 
ATOM     68  F   UNL A   1      44.129  34.025  28.457  1.00  0.00    -0.206 F 
ATOM     69  C   UNL A   1      44.241  35.615  30.177  1.00  0.00     0.059 A 
ATOM     70  C   UNL A   1      44.071  34.904  32.495  1.00  0.00     0.059 A 
ATOM     71  F   UNL A   1      43.829  32.627  32.998  1.00  0.00    -0.206 F 
ATOM     72  C   UNL A   1      44.235  35.909  31.542  1.00  0.00     0.060 A 
BRANCH  72  73
ATOM     73  S   UNL A   1      44.443  37.627  32.051  1.00  0.00     0.124 S 
ATOM     74  O   UNL A   1      45.896  37.728  32.148  1.00  0.00    -0.237 OA
ATOM     75  O   UNL A   1      43.830  38.354  30.944  1.00  0.00    -0.237 OA
ATOM     76  O   UNL A   1      43.723  37.695  33.318  1.00  0.00    -0.744 OA
ENDBRANCH  72  73
ENDBRANCH  51  65
BRANCH  52  77
ATOM     77  C   UNL A   1      42.532  23.764  27.614  1.00  0.00     0.058 A 
ATOM     78  C   UNL A   1      42.554  22.664  28.485  1.00  0.00     0.135 A 
ATOM     79  C   UNL A   1      42.330  23.505  26.248  1.00  0.00     0.135 A 
ATOM     80  F   UNL A   1      42.755  22.854  29.798  1.00  0.00    -0.206 F 
ATOM     81  C   UNL A   1      42.402  21.359  28.022  1.00  0.00     0.059 A 
ATOM     82  C   UNL A   1      42.150  22.212  25.764  1.00  0.00     0.059 A 
ATOM     83  F   UNL A   1      42.292  24.520  25.369  1.00  0.00    -0.206 F 
ATOM     84  C   UNL A   1      42.198  21.144  26.659  1.00  0.00     0.060 A 
BRANCH  84  85
ATOM     85  S   UNL A   1      41.964  19.449  26.076  1.00  0.00     0.124 S 
ATOM     86  O   UNL A   1      42.413  18.676  27.228  1.00  0.00    -0.237 OA
ATOM     87  O   UNL A   1      40.531  19.413  25.802  1.00  0.00    -0.237 OA
ATOM     88  O   UNL A   1      42.822  19.378  24.896  1.00  0.00    -0.744 OA
ENDBRANCH  84  85
ENDBRANCH  52  77
BRANCH  64  89
ATOM     89  C   UNL A   1      48.161  27.726  28.813  1.00  0.00     0.058 A 
ATOM     90  C   UNL A   1      48.885  27.978  27.639  1.00  0.00     0.135 A 
ATOM     91  C   UNL A   1      48.869  27.276  29.941  1.00  0.00     0.135 A 
ATOM     92  F   UNL A   1      48.253  28.407  26.534  1.00  0.00    -0.206 F 
ATOM     93  C   UNL A   1      50.259  27.774  27.578  1.00  0.00     0.059 A 
ATOM     94  C   UNL A   1      50.246  27.095  29.912  1.00  0.00     0.059 A 
ATOM     95  F   UNL A   1      48.223  27.037  31.093  1.00  0.00    -0.206 F 
ATOM     96  C   UNL A   1      50.931  27.336  28.722  1.00  0.00     0.060 A 
BRANCH  96  97
ATOM     97  S   UNL A   1      52.720  27.114  28.643  1.00  0.00     0.124 S 
ATOM     98  O   UNL A   1      52.834  25.976  27.738  1.00  0.00    -0.237 OA
ATOM     99  O   UNL A   1      53.170  28.397  28.111  1.00  0.00    -0.237 OA
ATOM    100  O   UNL A   1      53.091  26.852  30.030  1.00  0.00    -0.744 OA
ENDBRANCH  96  97
ENDBRANCH  64  89
ENDBRANCH  38  39
ENDBRANCH  31  33
ENDBRANCH  30  31
ENDBRANCH  29  30
ENDBRANCH   1  29
TORSDOF 19
ENDMDL
MODEL 2
REMARK VINA RESULT:     -11.8      4.251      7.367
REMARK SMILES CC(C)CC(=O)Nc1ccc(NC(=O)[C@@H]2CCCC[C@@H]2C(=O)OCCOC(=O)c2ccc(-c3c4nc(c(-c5c(F)cc(S(=O)(=O)[O-])cc5F)c5ccc([nH]5)c(-c5c(F)cc(S(=O)(=O)[O-])cc5F)c5nc(c(-c6c(F)cc(S(=O)(=O)[O-])cc6F)c6ccc3[nH]6)C=C5)C=C4)cc2)cc1
REMARK SMILES IDX 24 1 23 2 21 3 22 4 20 5 15 6 16 7 17 8 19 9 18 10 13 11
REMARK SMILES IDX 12 12 14 14 11 15 8 16 9 17 96 18 10 19 95 20 7 21 5 22 6 23
REMARK SMILES IDX 4 25 2 26 1 27 3 28 25 29 26 30 27 31 28 32 29 33 30 34
REMARK SMILES IDX 94 35 31 36 93 37 32 38 33 39 34 40 87 41 35 42 92 43 86 44
REMARK SMILES IDX 88 45 36 46 91 47 85 48 84 49 37 51 71 52 50 53 70 54 51 55
REMARK SMILES IDX 54 56 69 57 89 58 52 59 53 60 68 62 90 63 55 64 38 65 39 66
REMARK SMILES IDX 48 67 40 68 41 69 47 70 49 71 42 72 43 73 44 74 45 75 46 76
REMARK SMILES IDX 72 77 73 78 82 79 74 80 75 81 81 82 83 83 76 84 77 85 78 86
REMARK SMILES IDX 79 87 80 88 56 89 57 90 66 91 58 92 59 93 65 94 67 95 60 96
REMARK SMILES IDX 61 97 62 98 63 99 64 100
REMARK H PARENT 12 13 7 24 88 50 54 61
REMARK Flexibility Score: inf
ROOT
ATOM      1  C   UNL A   1      34.490  32.918  29.471  1.00  0.00     0.274 C 
ENDROOT
BRANCH   1   2
ATOM      2  O   UNL A   1      34.893  32.214  30.731  1.00  0.00    -0.462 OA
BRANCH   2   3
ATOM      3  C   UNL A   1      35.754  32.805  31.647  1.00  0.00     0.309 C 
ATOM      4  O   UNL A   1      35.342  33.466  32.590  1.00  0.00    -0.252 OA
BRANCH   3   5
ATOM      5  C   UNL A   1      37.275  32.452  31.409  1.00  0.00     0.111 C 
ATOM      6  C   UNL A   1      38.077  31.820  32.580  1.00  0.00     0.093 C 
ATOM      7  C   UNL A   1      38.317  32.877  33.659  1.00  0.00     0.014 C 
ATOM      8  C   UNL A   1      39.287  33.914  33.095  1.00  0.00     0.001 C 
ATOM      9  C   UNL A   1      38.217  33.483  30.764  1.00  0.00     0.016 C 
ATOM     10  C   UNL A   1      38.862  34.476  31.731  1.00  0.00     0.001 C 
BRANCH   6  11
ATOM     11  C   UNL A   1      37.750  30.423  33.118  1.00  0.00     0.228 C 
ATOM     12  N   UNL A   1      38.775  29.780  33.837  1.00  0.00    -0.326 N 
ATOM     13  H   UNL A   1      38.642  29.483  34.766  1.00  0.00     0.169 HD
ATOM     14  O   UNL A   1      36.639  29.907  33.023  1.00  0.00    -0.274 OA
BRANCH  12  15
ATOM     15  C   UNL A   1      40.000  29.580  33.168  1.00  0.00     0.041 A 
ATOM     16  C   UNL A   1      42.863  28.997  32.959  1.00  0.00     0.041 A 
ATOM     17  C   UNL A   1      41.882  28.119  32.470  1.00  0.00     0.028 A 
ATOM     18  C   UNL A   1      42.265  30.145  33.416  1.00  0.00     0.028 A 
ATOM     19  C   UNL A   1      40.461  28.382  32.605  1.00  0.00     0.028 A 
ATOM     20  C   UNL A   1      40.923  30.531  33.458  1.00  0.00     0.028 A 
BRANCH  16  21
ATOM     21  N   UNL A   1      44.267  28.629  32.982  1.00  0.00    -0.326 N 
ATOM     22  C   UNL A   1      45.308  27.731  33.079  1.00  0.00     0.224 C 
ATOM     23  O   UNL A   1      46.374  28.397  32.948  1.00  0.00    -0.275 OA
ATOM     24  H   UNL A   1      44.726  29.492  32.863  1.00  0.00     0.169 HD
BRANCH  22  25
ATOM     25  C   UNL A   1      45.641  26.127  33.111  1.00  0.00     0.103 C 
BRANCH  25  26
ATOM     26  C   UNL A   1      44.839  24.731  33.269  1.00  0.00    -0.008 C 
ATOM     27  C   UNL A   1      44.390  23.900  32.068  1.00  0.00     0.008 C 
ATOM     28  C   UNL A   1      45.466  23.765  34.327  1.00  0.00     0.008 C 
ENDBRANCH  25  26
ENDBRANCH  22  25
ENDBRANCH  16  21
ENDBRANCH  12  15
ENDBRANCH   6  11
ENDBRANCH   3   5
ENDBRANCH   2   3
ENDBRANCH   1   2
BRANCH   1  29
ATOM     29  C   UNL A   1      33.856  32.074  28.180  1.00  0.00     0.275 C 
BRANCH  29  30
ATOM     30  O   UNL A   1      34.531  31.094  27.285  1.00  0.00    -0.458 OA
BRANCH  30  31
ATOM     31  C   UNL A   1      34.885  29.827  27.772  1.00  0.00     0.338 C 
ATOM     32  O   UNL A   1      34.266  28.773  27.701  1.00  0.00    -0.246 OA
BRANCH  31  33
ATOM     33  C   UNL A   1      36.265  29.844  28.251  1.00  0.00     0.060 A 
ATOM     34  C   UNL A   1      36.585  29.462  29.562  1.00  0.00     0.016 A 
ATOM     35  C   UNL A   1      37.248  30.096  27.314  1.00  0.00     0.016 A 
ATOM     36  C   UNL A   1      37.853  28.979  29.831  1.00  0.00     0.010 A 
ATOM     37  C   UNL A   1      38.543  29.737  27.623  1.00  0.00     0.010 A 
ATOM     38  C   UNL A   1      38.828  29.097  28.841  1.00  0.00    -0.014 A 
BRANCH  38  39
ATOM     39  C   UNL A   1      40.221  28.730  29.105  1.00  0.00     0.031 A 
ATOM     40  C   UNL A   1      41.150  29.832  29.482  1.00  0.00     0.074 A 
ATOM     41  C   UNL A   1      40.635  27.475  28.856  1.00  0.00     0.049 A 
ATOM     42  N   UNL A   1      42.450  29.828  29.522  1.00  0.00    -0.248 NA
ATOM     43  C   UNL A   1      40.530  31.119  29.846  1.00  0.00     0.031 C 
ATOM     44  C   UNL A   1      39.768  26.338  28.535  1.00  0.00     0.029 A 
ATOM     45  N   UNL A   1      41.902  26.961  28.783  1.00  0.00    -0.354 N 
ATOM     46  C   UNL A   1      42.805  31.110  29.911  1.00  0.00     0.074 A 
ATOM     47  C   UNL A   1      41.591  31.867  30.094  1.00  0.00     0.031 C 
ATOM     48  C   UNL A   1      40.536  25.272  28.245  1.00  0.00     0.029 A 
ATOM     49  C   UNL A   1      41.940  25.667  28.320  1.00  0.00     0.049 A 
ATOM     50  H   UNL A   1      42.706  27.470  29.037  1.00  0.00     0.167 HD
ATOM     51  C   UNL A   1      44.046  31.613  30.074  1.00  0.00     0.037 A 
ATOM     52  C   UNL A   1      43.000  24.917  27.957  1.00  0.00     0.037 A 
ATOM     53  C   UNL A   1      45.235  30.862  29.797  1.00  0.00     0.049 A 
ATOM     54  C   UNL A   1      44.373  25.535  28.056  1.00  0.00     0.074 A 
ATOM     55  C   UNL A   1      46.551  31.270  29.885  1.00  0.00     0.029 A 
ATOM     56  N   UNL A   1      45.245  29.548  29.345  1.00  0.00    -0.354 N 
ATOM     57  N   UNL A   1      44.709  26.745  28.447  1.00  0.00    -0.248 NA
ATOM     58  C   UNL A   1      45.511  24.695  27.662  1.00  0.00     0.031 C 
ATOM     59  C   UNL A   1      47.356  30.217  29.437  1.00  0.00     0.029 A 
ATOM     60  C   UNL A   1      46.545  29.134  29.129  1.00  0.00     0.049 A 
ATOM     61  H   UNL A   1      44.443  28.995  29.200  1.00  0.00     0.167 HD
ATOM     62  C   UNL A   1      46.097  26.799  28.377  1.00  0.00     0.074 A 
ATOM     63  C   UNL A   1      46.536  25.499  27.911  1.00  0.00     0.031 C 
ATOM     64  C   UNL A   1      46.937  27.823  28.673  1.00  0.00     0.037 A 
BRANCH  51  65
ATOM     65  C   UNL A   1      44.142  33.044  30.503  1.00  0.00     0.058 A 
ATOM     66  C   UNL A   1      44.204  33.401  31.859  1.00  0.00     0.135 A 
ATOM     67  C   UNL A   1      44.124  34.074  29.551  1.00  0.00     0.135 A 
ATOM     68  F   UNL A   1      44.175  32.453  32.811  1.00  0.00    -0.206 F 
ATOM     69  C   UNL A   1      44.229  34.732  32.259  1.00  0.00     0.059 A 
ATOM     70  C   UNL A   1      44.175  35.412  29.926  1.00  0.00     0.059 A 
ATOM     71  F   UNL A   1      44.033  33.786  28.243  1.00  0.00    -0.206 F 
ATOM     72  C   UNL A   1      44.215  35.731  31.283  1.00  0.00     0.060 A 
BRANCH  72  73
ATOM     73  S   UNL A   1      44.254  37.452  31.817  1.00  0.00     0.124 S 
ATOM     74  O   UNL A   1      43.633  38.124  30.679  1.00  0.00    -0.237 OA
ATOM     75  O   UNL A   1      43.459  37.415  33.041  1.00  0.00    -0.237 OA
ATOM     76  O   UNL A   1      45.676  37.719  32.004  1.00  0.00    -0.744 OA
ENDBRANCH  72  73
ENDBRANCH  51  65
BRANCH  52  77
ATOM     77  C   UNL A   1      42.813  23.529  27.451  1.00  0.00     0.058 A 
ATOM     78  C   UNL A   1      42.651  22.454  28.338  1.00  0.00     0.135 A 
ATOM     79  C   UNL A   1      42.802  23.242  26.076  1.00  0.00     0.135 A 
ATOM     80  F   UNL A   1      42.666  22.672  29.662  1.00  0.00    -0.206 F 
ATOM     81  C   UNL A   1      42.504  21.145  27.886  1.00  0.00     0.059 A 
ATOM     82  C   UNL A   1      42.631  21.945  25.598  1.00  0.00     0.059 A 
ATOM     83  F   UNL A   1      42.944  24.232  25.181  1.00  0.00    -0.206 F 
ATOM     84  C   UNL A   1      42.494  20.901  26.512  1.00  0.00     0.060 A 
BRANCH  84  85
ATOM     85  S   UNL A   1      42.265  19.204  25.936  1.00  0.00     0.124 S 
ATOM     86  O   UNL A   1      40.818  19.144  25.762  1.00  0.00    -0.237 OA
ATOM     87  O   UNL A   1      43.056  19.186  24.709  1.00  0.00    -0.237 OA
ATOM     88  O   UNL A   1      42.801  18.401  27.031  1.00  0.00    -0.744 OA
ENDBRANCH  84  85
ENDBRANCH  52  77
BRANCH  64  89
ATOM     89  C   UNL A   1      48.410  27.564  28.549  1.00  0.00     0.058 A 
ATOM     90  C   UNL A   1      49.167  27.058  29.616  1.00  0.00     0.135 A 
ATOM     91  C   UNL A   1      49.054  27.751  27.313  1.00  0.00     0.135 A 
ATOM     92  F   UNL A   1      48.597  26.864  30.816  1.00  0.00    -0.206 F 
ATOM     93  C   UNL A   1      50.518  26.767  29.470  1.00  0.00     0.059 A 
ATOM     94  C   UNL A   1      50.395  27.437  27.136  1.00  0.00     0.059 A 
ATOM     95  F   UNL A   1      48.367  28.217  26.258  1.00  0.00    -0.206 F 
ATOM     96  C   UNL A   1      51.122  26.956  28.224  1.00  0.00     0.060 A 
BRANCH  96  97
ATOM     97  S   UNL A   1      52.867  26.535  28.036  1.00  0.00     0.124 S 
ATOM     98  O   UNL A   1      53.424  27.799  27.565  1.00  0.00    -0.237 OA
ATOM     99  O   UNL A   1      53.241  26.141  29.390  1.00  0.00    -0.237 OA
ATOM    100  O   UNL A   1      52.851  25.453  27.057  1.00  0.00    -0.744 OA
ENDBRANCH  96  97
ENDBRANCH  64  89
ENDBRANCH  38  39
ENDBRANCH  31  33
ENDBRANCH  30  31
ENDBRANCH  29  30
ENDBRANCH   1  29
TORSDOF 19
ENDMDL
MODEL 3
REMARK VINA RESULT:     -11.5      4.427      7.552
REMARK SMILES CC(C)CC(=O)Nc1ccc(NC(=O)[C@@H]2CCCC[C@@H]2C(=O)OCCOC(=O)c2ccc(-c3c4nc(c(-c5c(F)cc(S(=O)(=O)[O-])cc5F)c5ccc([nH]5)c(-c5c(F)cc(S(=O)(=O)[O-])cc5F)c5nc(c(-c6c(F)cc(S(=O)(=O)[O-])cc6F)c6ccc3[nH]6)C=C5)C=C4)cc2)cc1
REMARK SMILES IDX 24 1 23 2 21 3 22 4 20 5 15 6 16 7 17 8 19 9 18 10 13 11
REMARK SMILES IDX 12 12 14 14 11 15 8 16 9 17 96 18 10 19 95 20 7 21 5 22 6 23
REMARK SMILES IDX 4 25 2 26 1 27 3 28 25 29 26 30 27 31 28 32 29 33 30 34
REMARK SMILES IDX 94 35 31 36 93 37 32 38 33 39 34 40 87 41 35 42 92 43 86 44
REMARK SMILES IDX 88 45 36 46 91 47 85 48 84 49 37 51 71 52 50 53 70 54 51 55
REMARK SMILES IDX 54 56 69 57 89 58 52 59 53 60 68 62 90 63 55 64 38 65 39 66
REMARK SMILES IDX 48 67 40 68 41 69 47 70 49 71 42 72 43 73 44 74 45 75 46 76
REMARK SMILES IDX 72 77 73 78 82 79 74 80 75 81 81 82 83 83 76 84 77 85 78 86
REMARK SMILES IDX 79 87 80 88 56 89 57 90 66 91 58 92 59 93 65 94 67 95 60 96
REMARK SMILES IDX 61 97 62 98 63 99 64 100
REMARK H PARENT 12 13 7 24 88 50 54 61
REMARK Flexibility Score: inf
ROOT
ATOM      1  C   UNL A   1      35.328  33.962  30.554  1.00  0.00     0.274 C 
ENDROOT
BRANCH   1   2
ATOM      2  O   UNL A   1      36.762  34.196  30.919  1.00  0.00    -0.462 OA
BRANCH   2   3
ATOM      3  C   UNL A   1      37.138  34.501  32.221  1.00  0.00     0.309 C 
ATOM      4  O   UNL A   1      36.491  35.268  32.920  1.00  0.00    -0.252 OA
BRANCH   3   5
ATOM      5  C   UNL A   1      38.398  33.691  32.725  1.00  0.00     0.111 C 
ATOM      6  C   UNL A   1      38.196  32.640  33.852  1.00  0.00     0.093 C 
ATOM      7  C   UNL A   1      37.920  33.360  35.173  1.00  0.00     0.014 C 
ATOM      8  C   UNL A   1      39.202  34.078  35.594  1.00  0.00     0.001 C 
ATOM      9  C   UNL A   1      39.704  34.426  33.066  1.00  0.00     0.016 C 
ATOM     10  C   UNL A   1      39.799  34.966  34.493  1.00  0.00     0.001 C 
BRANCH   6  11
ATOM     11  C   UNL A   1      37.363  31.373  33.631  1.00  0.00     0.228 C 
ATOM     12  N   UNL A   1      37.958  30.163  34.032  1.00  0.00    -0.326 N 
ATOM     13  H   UNL A   1      37.529  29.573  34.694  1.00  0.00     0.169 HD
ATOM     14  O   UNL A   1      36.207  31.390  33.216  1.00  0.00    -0.274 OA
BRANCH  12  15
ATOM     15  C   UNL A   1      39.197  29.831  33.445  1.00  0.00     0.041 A 
ATOM     16  C   UNL A   1      41.961  28.861  33.412  1.00  0.00     0.041 A 
ATOM     17  C   UNL A   1      40.914  28.162  32.790  1.00  0.00     0.028 A 
ATOM     18  C   UNL A   1      41.488  30.052  33.905  1.00  0.00     0.028 A 
ATOM     19  C   UNL A   1      39.535  28.616  32.835  1.00  0.00     0.028 A 
ATOM     20  C   UNL A   1      40.214  30.622  33.872  1.00  0.00     0.028 A 
BRANCH  16  21
ATOM     21  N   UNL A   1      43.294  28.296  33.515  1.00  0.00    -0.326 N 
ATOM     22  C   UNL A   1      44.209  27.268  33.449  1.00  0.00     0.224 C 
ATOM     23  O   UNL A   1      45.337  27.770  33.717  1.00  0.00    -0.275 OA
ATOM     24  H   UNL A   1      43.845  29.070  33.772  1.00  0.00     0.169 HD
BRANCH  22  25
ATOM     25  C   UNL A   1      44.380  25.709  32.973  1.00  0.00     0.103 C 
BRANCH  25  26
ATOM     26  C   UNL A   1      45.440  24.500  33.158  1.00  0.00    -0.008 C 
ATOM     27  C   UNL A   1      46.525  24.515  34.232  1.00  0.00     0.008 C 
ATOM     28  C   UNL A   1      44.778  23.082  33.149  1.00  0.00     0.008 C 
ENDBRANCH  25  26
ENDBRANCH  22  25
ENDBRANCH  16  21
ENDBRANCH  12  15
ENDBRANCH   6  11
ENDBRANCH   3   5
ENDBRANCH   2   3
ENDBRANCH   1   2
BRANCH   1  29
ATOM     29  C   UNL A   1      34.919  33.087  29.195  1.00  0.00     0.275 C 
BRANCH  29  30
ATOM     30  O   UNL A   1      34.380  31.702  29.104  1.00  0.00    -0.458 OA
BRANCH  30  31
ATOM     31  C   UNL A   1      34.669  30.910  27.983  1.00  0.00     0.338 C 
ATOM     32  O   UNL A   1      34.137  30.911  26.880  1.00  0.00    -0.246 OA
BRANCH  31  33
ATOM     33  C   UNL A   1      35.891  30.143  28.215  1.00  0.00     0.060 A 
ATOM     34  C   UNL A   1      36.866  30.008  27.216  1.00  0.00     0.016 A 
ATOM     35  C   UNL A   1      36.114  29.699  29.503  1.00  0.00     0.016 A 
ATOM     36  C   UNL A   1      38.179  29.771  27.584  1.00  0.00     0.010 A 
ATOM     37  C   UNL A   1      37.398  29.334  29.848  1.00  0.00     0.010 A 
ATOM     38  C   UNL A   1      38.443  29.456  28.916  1.00  0.00    -0.014 A 
BRANCH  38  39
ATOM     39  C   UNL A   1      39.787  29.064  29.347  1.00  0.00     0.031 A 
ATOM     40  C   UNL A   1      40.668  30.144  29.874  1.00  0.00     0.074 A 
ATOM     41  C   UNL A   1      40.219  27.812  29.117  1.00  0.00     0.049 A 
ATOM     42  N   UNL A   1      41.951  30.123  30.083  1.00  0.00    -0.248 NA
ATOM     43  C   UNL A   1      40.016  31.427  30.193  1.00  0.00     0.031 C 
ATOM     44  C   UNL A   1      39.391  26.696  28.652  1.00  0.00     0.029 A 
ATOM     45  N   UNL A   1      41.480  27.286  29.194  1.00  0.00    -0.354 N 
ATOM     46  C   UNL A   1      42.264  31.389  30.552  1.00  0.00     0.074 A 
ATOM     47  C   UNL A   1      41.042  32.155  30.599  1.00  0.00     0.031 C 
ATOM     48  C   UNL A   1      40.182  25.629  28.432  1.00  0.00     0.029 A 
ATOM     49  C   UNL A   1      41.567  26.004  28.701  1.00  0.00     0.049 A 
ATOM     50  H   UNL A   1      42.249  27.777  29.564  1.00  0.00     0.167 HD
ATOM     51  C   UNL A   1      43.477  31.872  30.890  1.00  0.00     0.037 A 
ATOM     52  C   UNL A   1      42.659  25.253  28.456  1.00  0.00     0.037 A 
ATOM     53  C   UNL A   1      44.686  31.115  30.747  1.00  0.00     0.049 A 
ATOM     54  C   UNL A   1      44.013  25.851  28.751  1.00  0.00     0.074 A 
ATOM     55  C   UNL A   1      45.982  31.505  31.017  1.00  0.00     0.029 A 
ATOM     56  N   UNL A   1      44.743  29.815  30.261  1.00  0.00    -0.354 N 
ATOM     57  N   UNL A   1      44.305  27.044  29.218  1.00  0.00    -0.248 NA
ATOM     58  C   UNL A   1      45.185  25.008  28.483  1.00  0.00     0.031 C 
ATOM     59  C   UNL A   1      46.830  30.455  30.646  1.00  0.00     0.029 A 
ATOM     60  C   UNL A   1      46.056  29.391  30.203  1.00  0.00     0.049 A 
ATOM     61  H   UNL A   1      43.962  29.275  29.997  1.00  0.00     0.167 HD
ATOM     62  C   UNL A   1      45.690  27.084  29.331  1.00  0.00     0.074 A 
ATOM     63  C   UNL A   1      46.176  25.792  28.887  1.00  0.00     0.031 C 
ATOM     64  C   UNL A   1      46.493  28.088  29.763  1.00  0.00     0.037 A 
BRANCH  51  65
ATOM     65  C   UNL A   1      43.529  33.289  31.369  1.00  0.00     0.058 A 
ATOM     66  C   UNL A   1      43.659  34.362  30.474  1.00  0.00     0.135 A 
ATOM     67  C   UNL A   1      43.495  33.577  32.742  1.00  0.00     0.135 A 
ATOM     68  F   UNL A   1      43.745  34.136  29.152  1.00  0.00    -0.206 F 
ATOM     69  C   UNL A   1      43.771  35.673  30.924  1.00  0.00     0.059 A 
ATOM     70  C   UNL A   1      43.580  34.882  33.214  1.00  0.00     0.059 A 
ATOM     71  F   UNL A   1      43.404  32.583  33.640  1.00  0.00    -0.206 F 
ATOM     72  C   UNL A   1      43.729  35.922  32.297  1.00  0.00     0.060 A 
BRANCH  72  73
ATOM     73  S   UNL A   1      43.870  37.628  32.864  1.00  0.00     0.124 S 
ATOM     74  O   UNL A   1      42.744  37.721  33.788  1.00  0.00    -0.237 OA
ATOM     75  O   UNL A   1      45.195  37.642  33.477  1.00  0.00    -0.237 OA
ATOM     76  O   UNL A   1      43.741  38.407  31.637  1.00  0.00    -0.744 OA
ENDBRANCH  72  73
ENDBRANCH  51  65
BRANCH  52  77
ATOM     77  C   UNL A   1      42.528  23.882  27.889  1.00  0.00     0.058 A 
ATOM     78  C   UNL A   1      42.326  23.687  26.514  1.00  0.00     0.135 A 
ATOM     79  C   UNL A   1      42.589  22.739  28.703  1.00  0.00     0.135 A 
ATOM     80  F   UNL A   1      42.247  24.745  25.693  1.00  0.00    -0.206 F 
ATOM     81  C   UNL A   1      42.172  22.415  25.969  1.00  0.00     0.059 A 
ATOM     82  C   UNL A   1      42.464  21.455  28.179  1.00  0.00     0.059 A 
ATOM     83  F   UNL A   1      42.788  22.864  30.025  1.00  0.00    -0.206 F 
ATOM     84  C   UNL A   1      42.244  21.304  26.810  1.00  0.00     0.060 A 
BRANCH  84  85
ATOM     85  S   UNL A   1      42.081  19.656  26.085  1.00  0.00     0.124 S 
ATOM     86  O   UNL A   1      40.672  19.638  25.710  1.00  0.00    -0.237 OA
ATOM     87  O   UNL A   1      43.035  19.710  24.981  1.00  0.00    -0.237 OA
ATOM     88  O   UNL A   1      42.452  18.768  27.183  1.00  0.00    -0.744 OA
ENDBRANCH  84  85
ENDBRANCH  52  77
BRANCH  64  89
ATOM     89  C   UNL A   1      47.969  27.815  29.823  1.00  0.00     0.058 A 
ATOM     90  C   UNL A   1      48.836  28.199  28.790  1.00  0.00     0.135 A 
ATOM     91  C   UNL A   1      48.528  27.233  30.974  1.00  0.00     0.135 A 
ATOM     92  F   UNL A   1      48.349  28.758  27.671  1.00  0.00    -0.206 F 
ATOM     93  C   UNL A   1      50.208  27.995  28.885  1.00  0.00     0.059 A 
ATOM     94  C   UNL A   1      49.899  27.048  31.103  1.00  0.00     0.059 A 
ATOM     95  F   UNL A   1      47.740  26.866  31.997  1.00  0.00    -0.206 F 
ATOM     96  C   UNL A   1      50.730  27.422  30.048  1.00  0.00     0.060 A 
BRANCH  96  97
ATOM     97  S   UNL A   1      52.516  27.199  30.176  1.00  0.00     0.124 S 
ATOM     98  O   UNL A   1      52.623  26.375  31.374  1.00  0.00    -0.237 OA
ATOM     99  O   UNL A   1      52.839  26.535  28.917  1.00  0.00    -0.237 OA
ATOM    100  O   UNL A   1      53.019  28.563  30.305  1.00  0.00    -0.744 OA
ENDBRANCH  96  97
ENDBRANCH  64  89
ENDBRANCH  38  39
ENDBRANCH  31  33
ENDBRANCH  30  31
ENDBRANCH  29  30
ENDBRANCH   1  29
TORSDOF 19
ENDMDL
