MODEL 1
REMARK VINA RESULT:     -11.8      0.000      0.000
REMARK SMILES CCc1cc(C)c2c(c1)C=C(C(=O)OCCOC(=O)c1ccc(-c3c4nc(c(-c5c(F)cc(S(=O)(=O)[O-])cc5F)c5ccc([nH]5)c(-c5c(F)cc(S(=O)(=O)[O-])cc5F)c5nc(c(-c6c(F)cc(S(=O)(=O)[O-])cc6F)c6ccc3[nH]6)C=C5)C=C4)cc1)[C@@H](C(F)(F)F)O2
REMARK SMILES IDX 16 1 15 2 14 3 12 4 13 5 11 6 3 7 4 8 9 9 5 10 8 11 6 12
REMARK SMILES IDX 7 13 10 14 91 15 86 16 2 17 1 18 87 19 88 20 89 21 90 22
REMARK SMILES IDX 17 23 18 24 19 25 20 26 21 27 85 28 22 29 84 30 23 31 24 32
REMARK SMILES IDX 25 33 78 34 26 35 83 36 77 37 79 38 27 39 82 40 76 41 75 42
REMARK SMILES IDX 28 44 62 45 41 46 61 47 42 48 45 49 60 50 80 51 43 52 44 53
REMARK SMILES IDX 59 55 81 56 46 57 29 58 30 59 39 60 31 61 32 62 38 63 40 64
REMARK SMILES IDX 33 65 34 66 35 67 36 68 37 69 63 70 64 71 73 72 65 73 66 74
REMARK SMILES IDX 72 75 74 76 67 77 68 78 69 79 70 80 71 81 47 82 48 83 57 84
REMARK SMILES IDX 49 85 50 86 56 87 58 88 51 89 52 90 53 91 54 92 55 93
REMARK H PARENT 79 43 45 54
REMARK Flexibility Score: inf
ROOT
ATOM      1  C   UNL A   1      39.600  22.205  26.242  1.00  0.00     0.275 C 
ENDROOT
BRANCH   1   2
ATOM      2  C   UNL A   1      38.347  21.773  25.480  1.00  0.00     0.275 C 
BRANCH   2   3
ATOM      3  O   UNL A   1      37.453  22.884  25.265  1.00  0.00    -0.459 OA
BRANCH   3   4
ATOM      4  C   UNL A   1      36.614  22.750  24.211  1.00  0.00     0.338 C 
ATOM      5  O   UNL A   1      36.899  22.317  23.109  1.00  0.00    -0.246 OA
BRANCH   4   6
ATOM      6  C   UNL A   1      35.253  23.184  24.573  1.00  0.00     0.087 C 
ATOM      7  C   UNL A   1      32.410  26.683  26.292  1.00  0.00    -0.047 A 
ATOM      8  C   UNL A   1      31.376  25.747  26.443  1.00  0.00     0.011 A 
ATOM      9  C   UNL A   1      33.622  26.246  25.750  1.00  0.00     0.015 A 
ATOM     10  C   UNL A   1      31.532  24.406  26.042  1.00  0.00    -0.008 A 
ATOM     11  C   UNL A   1      33.793  24.912  25.357  1.00  0.00     0.018 A 
ATOM     12  C   UNL A   1      30.409  23.430  26.234  1.00  0.00     0.048 C 
ATOM     13  C   UNL A   1      32.754  23.994  25.491  1.00  0.00     0.130 A 
ATOM     14  C   UNL A   1      35.079  24.479  24.854  1.00  0.00     0.027 C 
ATOM     15  O   UNL A   1      32.863  22.685  25.101  1.00  0.00    -0.475 OA
ATOM     16  C   UNL A   1      34.172  22.159  24.742  1.00  0.00     0.316 C 
BRANCH   7  17
ATOM     17  C   UNL A   1      32.241  28.100  26.792  1.00  0.00     0.032 C 
ATOM     18  C   UNL A   1      33.524  28.767  27.276  1.00  0.00     0.009 C 
ENDBRANCH   7  17
BRANCH  16  19
ATOM     19  C   UNL A   1      34.573  21.088  25.768  1.00  0.00     0.430 C 
ATOM     20  F   UNL A   1      35.459  20.206  25.242  1.00  0.00    -0.167 F 
ATOM     21  F   UNL A   1      35.179  21.634  26.851  1.00  0.00    -0.167 F 
ATOM     22  F   UNL A   1      33.514  20.376  26.216  1.00  0.00    -0.167 F 
ENDBRANCH  16  19
ENDBRANCH   4   6
ENDBRANCH   3   4
ENDBRANCH   2   3
ENDBRANCH   1   2
BRANCH   1  23
ATOM     23  O   UNL A   1      39.419  23.509  26.821  1.00  0.00    -0.458 OA
BRANCH  23  24
ATOM     24  C   UNL A   1      40.547  24.247  26.927  1.00  0.00     0.338 C 
ATOM     25  O   UNL A   1      41.634  24.010  26.423  1.00  0.00    -0.246 OA
BRANCH  24  26
ATOM     26  C   UNL A   1      40.298  25.452  27.732  1.00  0.00     0.060 A 
ATOM     27  C   UNL A   1      41.199  26.510  27.673  1.00  0.00     0.016 A 
ATOM     28  C   UNL A   1      39.279  25.449  28.684  1.00  0.00     0.016 A 
ATOM     29  C   UNL A   1      41.185  27.488  28.664  1.00  0.00     0.010 A 
ATOM     30  C   UNL A   1      39.184  26.508  29.592  1.00  0.00     0.010 A 
ATOM     31  C   UNL A   1      40.169  27.510  29.630  1.00  0.00    -0.014 A 
BRANCH  31  32
ATOM     32  C   UNL A   1      40.148  28.562  30.688  1.00  0.00     0.031 A 
ATOM     33  C   UNL A   1      41.117  28.500  31.843  1.00  0.00     0.074 A 
ATOM     34  C   UNL A   1      39.269  29.582  30.605  1.00  0.00     0.049 A 
ATOM     35  N   UNL A   1      41.152  29.225  32.932  1.00  0.00    -0.248 NA
ATOM     36  C   UNL A   1      42.180  27.483  31.771  1.00  0.00     0.031 C 
ATOM     37  C   UNL A   1      38.312  29.789  29.515  1.00  0.00     0.029 A 
ATOM     38  N   UNL A   1      39.040  30.642  31.446  1.00  0.00    -0.354 N 
ATOM     39  C   UNL A   1      42.209  28.729  33.689  1.00  0.00     0.074 A 
ATOM     40  C   UNL A   1      42.778  27.627  32.946  1.00  0.00     0.031 C 
ATOM     41  C   UNL A   1      37.635  30.926  29.730  1.00  0.00     0.029 A 
ATOM     42  C   UNL A   1      38.036  31.480  31.016  1.00  0.00     0.049 A 
ATOM     43  H   UNL A   1      39.546  30.789  32.277  1.00  0.00     0.167 HD
ATOM     44  C   UNL A   1      42.666  29.162  34.889  1.00  0.00     0.037 A 
ATOM     45  C   UNL A   1      37.469  32.550  31.606  1.00  0.00     0.037 A 
ATOM     46  C   UNL A   1      42.115  30.287  35.602  1.00  0.00     0.049 A 
ATOM     47  C   UNL A   1      37.945  32.967  32.968  1.00  0.00     0.074 A 
ATOM     48  C   UNL A   1      42.507  30.807  36.823  1.00  0.00     0.029 A 
ATOM     49  N   UNL A   1      41.063  31.073  35.152  1.00  0.00    -0.354 N 
ATOM     50  N   UNL A   1      38.912  32.455  33.692  1.00  0.00    -0.248 NA
ATOM     51  C   UNL A   1      37.243  34.089  33.603  1.00  0.00     0.031 C 
ATOM     52  C   UNL A   1      41.666  31.881  37.132  1.00  0.00     0.029 A 
ATOM     53  C   UNL A   1      40.782  32.063  36.081  1.00  0.00     0.049 A 
ATOM     54  H   UNL A   1      40.588  30.947  34.300  1.00  0.00     0.167 HD
ATOM     55  C   UNL A   1      38.945  33.204  34.863  1.00  0.00     0.074 A 
ATOM     56  C   UNL A   1      37.912  34.212  34.742  1.00  0.00     0.031 C 
ATOM     57  C   UNL A   1      39.753  33.064  35.942  1.00  0.00     0.037 A 
BRANCH  44  58
ATOM     58  C   UNL A   1      43.811  28.415  35.523  1.00  0.00     0.058 A 
ATOM     59  C   UNL A   1      43.599  27.342  36.403  1.00  0.00     0.135 A 
ATOM     60  C   UNL A   1      45.140  28.738  35.197  1.00  0.00     0.135 A 
ATOM     61  F   UNL A   1      42.352  26.999  36.762  1.00  0.00    -0.206 F 
ATOM     62  C   UNL A   1      44.661  26.628  36.950  1.00  0.00     0.059 A 
ATOM     63  C   UNL A   1      46.216  28.020  35.711  1.00  0.00     0.059 A 
ATOM     64  F   UNL A   1      45.401  29.755  34.361  1.00  0.00    -0.206 F 
ATOM     65  C   UNL A   1      45.967  26.972  36.594  1.00  0.00     0.060 A 
BRANCH  65  66
ATOM     66  S   UNL A   1      47.331  26.021  37.299  1.00  0.00     0.124 S 
ATOM     67  O   UNL A   1      46.639  24.825  37.770  1.00  0.00    -0.237 OA
ATOM     68  O   UNL A   1      48.207  25.833  36.148  1.00  0.00    -0.237 OA
ATOM     69  O   UNL A   1      47.852  26.895  38.346  1.00  0.00    -0.744 OA
ENDBRANCH  65  66
ENDBRANCH  44  58
BRANCH  45  70
ATOM     70  C   UNL A   1      36.372  33.280  30.916  1.00  0.00     0.058 A 
ATOM     71  C   UNL A   1      35.053  33.211  31.388  1.00  0.00     0.135 A 
ATOM     72  C   UNL A   1      36.622  34.091  29.796  1.00  0.00     0.135 A 
ATOM     73  F   UNL A   1      34.760  32.442  32.448  1.00  0.00    -0.206 F 
ATOM     74  C   UNL A   1      34.022  33.916  30.776  1.00  0.00     0.059 A 
ATOM     75  C   UNL A   1      35.613  34.828  29.185  1.00  0.00     0.059 A 
ATOM     76  F   UNL A   1      37.868  34.203  29.310  1.00  0.00    -0.206 F 
ATOM     77  C   UNL A   1      34.313  34.729  29.679  1.00  0.00     0.060 A 
BRANCH  77  78
ATOM     78  S   UNL A   1      32.976  35.684  28.931  1.00  0.00     0.124 S 
ATOM     79  O   UNL A   1      32.406  34.714  28.004  1.00  0.00    -0.237 OA
ATOM     80  O   UNL A   1      32.156  36.018  30.091  1.00  0.00    -0.237 OA
ATOM     81  O   UNL A   1      33.670  36.812  28.318  1.00  0.00    -0.744 OA
ENDBRANCH  77  78
ENDBRANCH  45  70
BRANCH  57  82
ATOM     82  C   UNL A   1      39.573  34.035  37.074  1.00  0.00     0.058 A 
ATOM     83  C   UNL A   1      38.828  33.701  38.215  1.00  0.00     0.135 A 
ATOM     84  C   UNL A   1      40.217  35.283  37.050  1.00  0.00     0.135 A 
ATOM     85  F   UNL A   1      38.185  32.525  38.282  1.00  0.00    -0.206 F 
ATOM     86  C   UNL A   1      38.719  34.577  39.290  1.00  0.00     0.059 A 
ATOM     87  C   UNL A   1      40.143  36.162  38.124  1.00  0.00     0.059 A 
ATOM     88  F   UNL A   1      40.948  35.645  35.984  1.00  0.00    -0.206 F 
ATOM     89  C   UNL A   1      39.388  35.801  39.239  1.00  0.00     0.060 A 
BRANCH  89  90
ATOM     90  S   UNL A   1      39.281  36.899  40.667  1.00  0.00     0.124 S 
ATOM     91  O   UNL A   1      38.529  36.082  41.614  1.00  0.00    -0.237 OA
ATOM     92  O   UNL A   1      40.686  37.119  40.995  1.00  0.00    -0.237 OA
ATOM     93  O   UNL A   1      38.574  38.066  40.147  1.00  0.00    -0.744 OA
ENDBRANCH  89  90
ENDBRANCH  57  82
ENDBRANCH  31  32
ENDBRANCH  24  26
ENDBRANCH  23  24
ENDBRANCH   1  23
TORSDOF 16
ENDMDL
MODEL 2
REMARK VINA RESULT:     -11.8      5.073     10.674
REMARK SMILES CCc1cc(C)c2c(c1)C=C(C(=O)OCCOC(=O)c1ccc(-c3c4nc(c(-c5c(F)cc(S(=O)(=O)[O-])cc5F)c5ccc([nH]5)c(-c5c(F)cc(S(=O)(=O)[O-])cc5F)c5nc(c(-c6c(F)cc(S(=O)(=O)[O-])cc6F)c6ccc3[nH]6)C=C5)C=C4)cc1)[C@@H](C(F)(F)F)O2
REMARK SMILES IDX 16 1 15 2 14 3 12 4 13 5 11 6 3 7 4 8 9 9 5 10 8 11 6 12
REMARK SMILES IDX 7 13 10 14 91 15 86 16 2 17 1 18 87 19 88 20 89 21 90 22
REMARK SMILES IDX 17 23 18 24 19 25 20 26 21 27 85 28 22 29 84 30 23 31 24 32
REMARK SMILES IDX 25 33 78 34 26 35 83 36 77 37 79 38 27 39 82 40 76 41 75 42
REMARK SMILES IDX 28 44 62 45 41 46 61 47 42 48 45 49 60 50 80 51 43 52 44 53
REMARK SMILES IDX 59 55 81 56 46 57 29 58 30 59 39 60 31 61 32 62 38 63 40 64
REMARK SMILES IDX 33 65 34 66 35 67 36 68 37 69 63 70 64 71 73 72 65 73 66 74
REMARK SMILES IDX 72 75 74 76 67 77 68 78 69 79 70 80 71 81 47 82 48 83 57 84
REMARK SMILES IDX 49 85 50 86 56 87 58 88 51 89 52 90 53 91 54 92 55 93
REMARK H PARENT 79 43 45 54
REMARK Flexibility Score: inf
ROOT
ATOM      1  C   UNL A   1      33.242  30.154  26.293  1.00  0.00     0.275 C 
ENDROOT
BRANCH   1   2
ATOM      2  C   UNL A   1      31.872  29.556  25.970  1.00  0.00     0.275 C 
BRANCH   2   3
ATOM      3  O   UNL A   1      31.989  28.196  25.502  1.00  0.00    -0.459 OA
BRANCH   3   4
ATOM      4  C   UNL A   1      31.582  27.250  26.381  1.00  0.00     0.338 C 
ATOM      5  O   UNL A   1      30.921  27.433  27.387  1.00  0.00    -0.246 OA
BRANCH   4   6
ATOM      6  C   UNL A   1      32.029  25.914  25.947  1.00  0.00     0.087 C 
ATOM      7  C   UNL A   1      35.714  23.020  24.798  1.00  0.00    -0.047 A 
ATOM      8  C   UNL A   1      34.802  22.099  24.259  1.00  0.00     0.011 A 
ATOM      9  C   UNL A   1      35.208  24.186  25.380  1.00  0.00     0.015 A 
ATOM     10  C   UNL A   1      33.413  22.320  24.316  1.00  0.00    -0.008 A 
ATOM     11  C   UNL A   1      33.828  24.421  25.434  1.00  0.00     0.018 A 
ATOM     12  C   UNL A   1      32.469  21.321  23.714  1.00  0.00     0.048 C 
ATOM     13  C   UNL A   1      32.929  23.492  24.914  1.00  0.00     0.130 A 
ATOM     14  C   UNL A   1      33.341  25.665  25.990  1.00  0.00     0.027 C 
ATOM     15  O   UNL A   1      31.570  23.665  24.962  1.00  0.00    -0.475 OA
ATOM     16  C   UNL A   1      31.034  24.958  25.361  1.00  0.00     0.316 C 
BRANCH   7  17
ATOM     17  C   UNL A   1      37.202  22.793  24.664  1.00  0.00     0.032 C 
ATOM     18  C   UNL A   1      37.650  21.347  24.853  1.00  0.00     0.009 C 
ENDBRANCH   7  17
BRANCH  16  19
ATOM     19  C   UNL A   1      30.300  25.580  24.162  1.00  0.00     0.430 C 
ATOM     20  F   UNL A   1      29.786  24.625  23.348  1.00  0.00    -0.167 F 
ATOM     21  F   UNL A   1      29.253  26.345  24.558  1.00  0.00    -0.167 F 
ATOM     22  F   UNL A   1      31.107  26.361  23.408  1.00  0.00    -0.167 F 
ENDBRANCH  16  19
ENDBRANCH   4   6
ENDBRANCH   3   4
ENDBRANCH   2   3
ENDBRANCH   1   2
BRANCH   1  23
ATOM     23  O   UNL A   1      33.643  29.812  27.632  1.00  0.00    -0.458 OA
BRANCH  23  24
ATOM     24  C   UNL A   1      34.535  30.659  28.193  1.00  0.00     0.338 C 
ATOM     25  O   UNL A   1      34.324  31.795  28.592  1.00  0.00    -0.246 OA
BRANCH  24  26
ATOM     26  C   UNL A   1      35.851  30.016  28.311  1.00  0.00     0.060 A 
ATOM     27  C   UNL A   1      36.247  29.490  29.537  1.00  0.00     0.016 A 
ATOM     28  C   UNL A   1      36.762  30.108  27.259  1.00  0.00     0.016 A 
ATOM     29  C   UNL A   1      37.589  29.204  29.766  1.00  0.00     0.010 A 
ATOM     30  C   UNL A   1      38.081  29.688  27.454  1.00  0.00     0.010 A 
ATOM     31  C   UNL A   1      38.525  29.284  28.725  1.00  0.00    -0.014 A 
BRANCH  31  32
ATOM     32  C   UNL A   1      39.962  28.971  28.968  1.00  0.00     0.031 A 
ATOM     33  C   UNL A   1      40.875  30.006  29.581  1.00  0.00     0.074 A 
ATOM     34  C   UNL A   1      40.448  27.752  28.654  1.00  0.00     0.049 A 
ATOM     35  N   UNL A   1      42.176  29.979  29.725  1.00  0.00    -0.248 NA
ATOM     36  C   UNL A   1      40.246  31.236  30.088  1.00  0.00     0.031 C 
ATOM     37  C   UNL A   1      39.663  26.644  28.103  1.00  0.00     0.029 A 
ATOM     38  N   UNL A   1      41.715  27.234  28.758  1.00  0.00    -0.354 N 
ATOM     39  C   UNL A   1      42.523  31.197  30.300  1.00  0.00     0.074 A 
ATOM     40  C   UNL A   1      41.300  31.952  30.458  1.00  0.00     0.031 C 
ATOM     41  C   UNL A   1      40.452  25.569  27.963  1.00  0.00     0.029 A 
ATOM     42  C   UNL A   1      41.817  25.934  28.319  1.00  0.00     0.049 A 
ATOM     43  H   UNL A   1      42.478  27.744  29.113  1.00  0.00     0.167 HD
ATOM     44  C   UNL A   1      43.750  31.639  30.668  1.00  0.00     0.037 A 
ATOM     45  C   UNL A   1      42.891  25.134  28.175  1.00  0.00     0.037 A 
ATOM     46  C   UNL A   1      44.957  30.863  30.540  1.00  0.00     0.049 A 
ATOM     47  C   UNL A   1      44.249  25.672  28.524  1.00  0.00     0.074 A 
ATOM     48  C   UNL A   1      46.249  31.219  30.885  1.00  0.00     0.029 A 
ATOM     49  N   UNL A   1      45.020  29.570  30.040  1.00  0.00    -0.354 N 
ATOM     50  N   UNL A   1      44.566  26.846  29.017  1.00  0.00    -0.248 NA
ATOM     51  C   UNL A   1      45.398  24.791  28.276  1.00  0.00     0.031 C 
ATOM     52  C   UNL A   1      47.099  30.158  30.554  1.00  0.00     0.029 A 
ATOM     53  C   UNL A   1      46.331  29.121  30.050  1.00  0.00     0.049 A 
ATOM     54  H   UNL A   1      44.246  29.048  29.724  1.00  0.00     0.167 HD
ATOM     55  C   UNL A   1      45.949  26.837  29.155  1.00  0.00     0.074 A 
ATOM     56  C   UNL A   1      46.406  25.538  28.707  1.00  0.00     0.031 C 
ATOM     57  C   UNL A   1      46.767  27.820  29.606  1.00  0.00     0.037 A 
BRANCH  44  58
ATOM     58  C   UNL A   1      43.861  33.031  31.233  1.00  0.00     0.058 A 
ATOM     59  C   UNL A   1      44.062  34.152  30.411  1.00  0.00     0.135 A 
ATOM     60  C   UNL A   1      43.704  33.255  32.612  1.00  0.00     0.135 A 
ATOM     61  F   UNL A   1      44.234  33.997  29.088  1.00  0.00    -0.206 F 
ATOM     62  C   UNL A   1      44.118  35.439  30.936  1.00  0.00     0.059 A 
ATOM     63  C   UNL A   1      43.730  34.537  33.155  1.00  0.00     0.059 A 
ATOM     64  F   UNL A   1      43.510  32.221  33.446  1.00  0.00    -0.206 F 
ATOM     65  C   UNL A   1      43.947  35.623  32.309  1.00  0.00     0.060 A 
BRANCH  65  66
ATOM     66  S   UNL A   1      44.006  37.303  32.968  1.00  0.00     0.124 S 
ATOM     67  O   UNL A   1      42.826  37.321  33.828  1.00  0.00    -0.237 OA
ATOM     68  O   UNL A   1      45.292  37.322  33.657  1.00  0.00    -0.237 OA
ATOM     69  O   UNL A   1      43.923  38.141  31.776  1.00  0.00    -0.744 OA
ENDBRANCH  65  66
ENDBRANCH  44  58
BRANCH  45  70
ATOM     70  C   UNL A   1      42.720  23.751  27.655  1.00  0.00     0.058 A 
ATOM     71  C   UNL A   1      42.557  22.667  28.531  1.00  0.00     0.135 A 
ATOM     72  C   UNL A   1      42.677  23.487  26.276  1.00  0.00     0.135 A 
ATOM     73  F   UNL A   1      42.602  22.866  29.857  1.00  0.00    -0.206 F 
ATOM     74  C   UNL A   1      42.360  21.374  28.061  1.00  0.00     0.059 A 
ATOM     75  C   UNL A   1      42.452  22.206  25.782  1.00  0.00     0.059 A 
ATOM     76  F   UNL A   1      42.814  24.489  25.393  1.00  0.00    -0.206 F 
ATOM     77  C   UNL A   1      42.301  21.154  26.683  1.00  0.00     0.060 A 
BRANCH  77  78
ATOM     78  S   UNL A   1      41.986  19.478  26.088  1.00  0.00     0.124 S 
ATOM     79  O   UNL A   1      42.407  18.677  27.230  1.00  0.00    -0.237 OA
ATOM     80  O   UNL A   1      40.551  19.514  25.826  1.00  0.00    -0.237 OA
ATOM     81  O   UNL A   1      42.830  19.379  24.901  1.00  0.00    -0.744 OA
ENDBRANCH  77  78
ENDBRANCH  45  70
BRANCH  57  82
ATOM     82  C   UNL A   1      48.240  27.527  29.660  1.00  0.00     0.058 A 
ATOM     83  C   UNL A   1      49.082  27.798  28.571  1.00  0.00     0.135 A 
ATOM     84  C   UNL A   1      48.825  27.041  30.841  1.00  0.00     0.135 A 
ATOM     85  F   UNL A   1      48.569  28.253  27.417  1.00  0.00    -0.206 F 
ATOM     86  C   UNL A   1      50.455  27.588  28.648  1.00  0.00     0.059 A 
ATOM     87  C   UNL A   1      50.198  26.850  30.948  1.00  0.00     0.059 A 
ATOM     88  F   UNL A   1      48.063  26.774  31.913  1.00  0.00    -0.206 F 
ATOM     89  C   UNL A   1      51.005  27.123  29.844  1.00  0.00     0.060 A 
BRANCH  89  90
ATOM     90  S   UNL A   1      52.794  26.910  29.943  1.00  0.00     0.124 S 
ATOM     91  O   UNL A   1      53.125  26.546  28.568  1.00  0.00    -0.237 OA
ATOM     92  O   UNL A   1      53.240  28.232  30.372  1.00  0.00    -0.237 OA
ATOM     93  O   UNL A   1      52.957  25.847  30.930  1.00  0.00    -0.744 OA
ENDBRANCH  89  90
ENDBRANCH  57  82
ENDBRANCH  31  32
ENDBRANCH  24  26
ENDBRANCH  23  24
ENDBRANCH   1  23
TORSDOF 16
ENDMDL
MODEL 3
REMARK VINA RESULT:     -11.7      6.455     11.201
REMARK SMILES CCc1cc(C)c2c(c1)C=C(C(=O)OCCOC(=O)c1ccc(-c3c4nc(c(-c5c(F)cc(S(=O)(=O)[O-])cc5F)c5ccc([nH]5)c(-c5c(F)cc(S(=O)(=O)[O-])cc5F)c5nc(c(-c6c(F)cc(S(=O)(=O)[O-])cc6F)c6ccc3[nH]6)C=C5)C=C4)cc1)[C@@H](C(F)(F)F)O2
REMARK SMILES IDX 16 1 15 2 14 3 12 4 13 5 11 6 3 7 4 8 9 9 5 10 8 11 6 12
REMARK SMILES IDX 7 13 10 14 91 15 86 16 2 17 1 18 87 19 88 20 89 21 90 22
REMARK SMILES IDX 17 23 18 24 19 25 20 26 21 27 85 28 22 29 84 30 23 31 24 32
REMARK SMILES IDX 25 33 78 34 26 35 83 36 77 37 79 38 27 39 82 40 76 41 75 42
REMARK SMILES IDX 28 44 62 45 41 46 61 47 42 48 45 49 60 50 80 51 43 52 44 53
REMARK SMILES IDX 59 55 81 56 46 57 29 58 30 59 39 60 31 61 32 62 38 63 40 64
REMARK SMILES IDX 33 65 34 66 35 67 36 68 37 69 63 70 64 71 73 72 65 73 66 74
REMARK SMILES IDX 72 75 74 76 67 77 68 78 69 79 70 80 71 81 47 82 48 83 57 84
REMARK SMILES IDX 49 85 50 86 56 87 58 88 51 89 52 90 53 91 54 92 55 93
REMARK H PARENT 79 43 45 54
REMARK Flexibility Score: inf
ROOT
ATOM      1  C   UNL A   1      40.394  20.154  26.383  1.00  0.00     0.275 C 
ENDROOT
BRANCH   1   2
ATOM      2  C   UNL A   1      41.901  20.107  26.128  1.00  0.00     0.275 C 
BRANCH   2   3
ATOM      3  O   UNL A   1      42.458  21.434  26.024  1.00  0.00    -0.459 OA
BRANCH   3   4
ATOM      4  C   UNL A   1      43.729  21.487  25.558  1.00  0.00     0.338 C 
ATOM      5  O   UNL A   1      44.153  20.954  24.548  1.00  0.00    -0.246 OA
BRANCH   4   6
ATOM      6  C   UNL A   1      44.568  22.318  26.440  1.00  0.00     0.087 C 
ATOM      7  C   UNL A   1      44.832  25.161  30.328  1.00  0.00    -0.047 A 
ATOM      8  C   UNL A   1      46.109  25.576  29.920  1.00  0.00     0.011 A 
ATOM      9  C   UNL A   1      44.165  24.211  29.549  1.00  0.00     0.015 A 
ATOM     10  C   UNL A   1      46.723  25.041  28.771  1.00  0.00    -0.008 A 
ATOM     11  C   UNL A   1      44.762  23.679  28.399  1.00  0.00     0.018 A 
ATOM     12  C   UNL A   1      48.083  25.520  28.355  1.00  0.00     0.048 C 
ATOM     13  C   UNL A   1      46.039  24.081  28.012  1.00  0.00     0.130 A 
ATOM     14  C   UNL A   1      44.021  22.742  27.583  1.00  0.00     0.027 C 
ATOM     15  O   UNL A   1      46.675  23.575  26.909  1.00  0.00    -0.475 OA
ATOM     16  C   UNL A   1      45.922  22.757  25.968  1.00  0.00     0.316 C 
BRANCH   7  17
ATOM     17  C   UNL A   1      44.166  25.799  31.526  1.00  0.00     0.032 C 
ATOM     18  C   UNL A   1      43.399  27.083  31.225  1.00  0.00     0.009 C 
ENDBRANCH   7  17
BRANCH  16  19
ATOM     19  C   UNL A   1      45.833  23.501  24.627  1.00  0.00     0.430 C 
ATOM     20  F   UNL A   1      46.089  22.673  23.584  1.00  0.00    -0.167 F 
ATOM     21  F   UNL A   1      44.591  24.005  24.416  1.00  0.00    -0.167 F 
ATOM     22  F   UNL A   1      46.704  24.532  24.547  1.00  0.00    -0.167 F 
ENDBRANCH  16  19
ENDBRANCH   4   6
ENDBRANCH   3   4
ENDBRANCH   2   3
ENDBRANCH   1   2
BRANCH   1  23
ATOM     23  O   UNL A   1      40.052  21.282  27.208  1.00  0.00    -0.458 OA
BRANCH  23  24
ATOM     24  C   UNL A   1      39.308  22.230  26.597  1.00  0.00     0.338 C 
ATOM     25  O   UNL A   1      38.410  22.055  25.787  1.00  0.00    -0.246 OA
BRANCH  24  26
ATOM     26  C   UNL A   1      39.694  23.569  27.067  1.00  0.00     0.060 A 
ATOM     27  C   UNL A   1      39.432  24.675  26.265  1.00  0.00     0.016 A 
ATOM     28  C   UNL A   1      40.485  23.698  28.208  1.00  0.00     0.016 A 
ATOM     29  C   UNL A   1      40.088  25.878  26.511  1.00  0.00     0.010 A 
ATOM     30  C   UNL A   1      41.030  24.946  28.528  1.00  0.00     0.010 A 
ATOM     31  C   UNL A   1      40.885  26.037  27.653  1.00  0.00    -0.014 A 
BRANCH  31  32
ATOM     32  C   UNL A   1      41.582  27.328  27.921  1.00  0.00     0.031 A 
ATOM     33  C   UNL A   1      40.880  28.430  28.676  1.00  0.00     0.074 A 
ATOM     34  C   UNL A   1      42.851  27.508  27.500  1.00  0.00     0.049 A 
ATOM     35  N   UNL A   1      41.256  29.669  28.870  1.00  0.00    -0.248 NA
ATOM     36  C   UNL A   1      39.580  28.101  29.284  1.00  0.00     0.031 C 
ATOM     37  C   UNL A   1      43.662  26.506  26.803  1.00  0.00     0.029 A 
ATOM     38  N   UNL A   1      43.687  28.592  27.600  1.00  0.00    -0.354 N 
ATOM     39  C   UNL A   1      40.228  30.275  29.585  1.00  0.00     0.074 A 
ATOM     40  C   UNL A   1      39.200  29.275  29.772  1.00  0.00     0.031 C 
ATOM     41  C   UNL A   1      44.887  27.004  26.582  1.00  0.00     0.029 A 
ATOM     42  C   UNL A   1      44.923  28.389  27.031  1.00  0.00     0.049 A 
ATOM     43  H   UNL A   1      43.427  29.434  28.039  1.00  0.00     0.167 HD
ATOM     44  C   UNL A   1      40.155  31.546  30.048  1.00  0.00     0.037 A 
ATOM     45  C   UNL A   1      45.957  29.233  26.848  1.00  0.00     0.037 A 
ATOM     46  C   UNL A   1      41.203  32.522  29.889  1.00  0.00     0.049 A 
ATOM     47  C   UNL A   1      45.824  30.656  27.307  1.00  0.00     0.074 A 
ATOM     48  C   UNL A   1      41.227  33.836  30.322  1.00  0.00     0.029 A 
ATOM     49  N   UNL A   1      42.416  32.287  29.257  1.00  0.00    -0.354 N 
ATOM     50  N   UNL A   1      44.824  31.227  27.935  1.00  0.00    -0.248 NA
ATOM     51  C   UNL A   1      46.947  31.557  27.015  1.00  0.00     0.031 C 
ATOM     52  C   UNL A   1      42.437  34.409  29.916  1.00  0.00     0.029 A 
ATOM     53  C   UNL A   1      43.189  33.438  29.274  1.00  0.00     0.049 A 
ATOM     54  H   UNL A   1      42.688  31.430  28.856  1.00  0.00     0.167 HD
ATOM     55  C   UNL A   1      45.203  32.550  28.128  1.00  0.00     0.074 A 
ATOM     56  C   UNL A   1      46.530  32.690  27.564  1.00  0.00     0.031 C 
ATOM     57  C   UNL A   1      44.512  33.558  28.713  1.00  0.00     0.037 A 
BRANCH  44  58
ATOM     58  C   UNL A   1      38.897  31.969  30.761  1.00  0.00     0.058 A 
ATOM     59  C   UNL A   1      38.756  31.844  32.153  1.00  0.00     0.135 A 
ATOM     60  C   UNL A   1      37.841  32.565  30.051  1.00  0.00     0.135 A 
ATOM     61  F   UNL A   1      39.726  31.268  32.881  1.00  0.00    -0.206 F 
ATOM     62  C   UNL A   1      37.608  32.278  32.810  1.00  0.00     0.059 A 
ATOM     63  C   UNL A   1      36.696  33.031  30.691  1.00  0.00     0.059 A 
ATOM     64  F   UNL A   1      37.921  32.710  28.718  1.00  0.00    -0.206 F 
ATOM     65  C   UNL A   1      36.585  32.874  32.071  1.00  0.00     0.060 A 
BRANCH  65  66
ATOM     66  S   UNL A   1      35.113  33.447  32.946  1.00  0.00     0.124 S 
ATOM     67  O   UNL A   1      35.424  33.067  34.320  1.00  0.00    -0.237 OA
ATOM     68  O   UNL A   1      35.124  34.880  32.667  1.00  0.00    -0.237 OA
ATOM     69  O   UNL A   1      34.029  32.697  32.319  1.00  0.00    -0.744 OA
ENDBRANCH  65  66
ENDBRANCH  44  58
BRANCH  45  70
ATOM     70  C   UNL A   1      47.195  28.751  26.178  1.00  0.00     0.058 A 
ATOM     71  C   UNL A   1      48.407  28.664  26.879  1.00  0.00     0.135 A 
ATOM     72  C   UNL A   1      47.187  28.332  24.836  1.00  0.00     0.135 A 
ATOM     73  F   UNL A   1      48.469  29.063  28.159  1.00  0.00    -0.206 F 
ATOM     74  C   UNL A   1      49.564  28.183  26.277  1.00  0.00     0.059 A 
ATOM     75  C   UNL A   1      48.324  27.819  24.222  1.00  0.00     0.059 A 
ATOM     76  F   UNL A   1      46.051  28.381  24.122  1.00  0.00    -0.206 F 
ATOM     77  C   UNL A   1      49.512  27.754  24.950  1.00  0.00     0.060 A 
BRANCH  77  78
ATOM     78  S   UNL A   1      51.008  27.076  24.200  1.00  0.00     0.124 S 
ATOM     79  O   UNL A   1      51.977  28.130  24.474  1.00  0.00    -0.237 OA
ATOM     80  O   UNL A   1      51.185  25.834  24.945  1.00  0.00    -0.237 OA
ATOM     81  O   UNL A   1      50.636  26.910  22.798  1.00  0.00    -0.744 OA
ENDBRANCH  77  78
ENDBRANCH  45  70
BRANCH  57  82
ATOM     82  C   UNL A   1      45.181  34.901  28.796  1.00  0.00     0.058 A 
ATOM     83  C   UNL A   1      46.090  35.205  29.820  1.00  0.00     0.135 A 
ATOM     84  C   UNL A   1      44.967  35.865  27.797  1.00  0.00     0.135 A 
ATOM     85  F   UNL A   1      46.320  34.322  30.804  1.00  0.00    -0.206 F 
ATOM     86  C   UNL A   1      46.758  36.424  29.857  1.00  0.00     0.059 A 
ATOM     87  C   UNL A   1      45.645  37.079  27.800  1.00  0.00     0.059 A 
ATOM     88  F   UNL A   1      44.113  35.619  26.791  1.00  0.00    -0.206 F 
ATOM     89  C   UNL A   1      46.536  37.352  28.837  1.00  0.00     0.060 A 
BRANCH  89  90
ATOM     90  S   UNL A   1      47.454  38.905  28.871  1.00  0.00     0.124 S 
ATOM     91  O   UNL A   1      47.549  39.223  27.450  1.00  0.00    -0.237 OA
ATOM     92  O   UNL A   1      46.576  39.767  29.656  1.00  0.00    -0.237 OA
ATOM     93  O   UNL A   1      48.711  38.544  29.519  1.00  0.00    -0.744 OA
ENDBRANCH  89  90
ENDBRANCH  57  82
ENDBRANCH  31  32
ENDBRANCH  24  26
ENDBRANCH  23  24
ENDBRANCH   1  23
TORSDOF 16
ENDMDL
