MODEL 1
REMARK VINA RESULT:     -12.1      0.000      0.000
REMARK SMILES Cc1[nH]c2ccccc2c1/N=N\c1ccccc1C(=O)OCCOC(=O)c1ccc(-c2c3nc(c(-c4c(F)cc(S(=O)(=O)[O-])cc4F)c4ccc([nH]4)c(-c4c(F)cc(S(=O)(=O)[O-])cc4F)c4nc(c(-c5c(F)cc(S(=O)(=O)[O-])cc5F)c5ccc2[nH]5)C=C4)C=C3)cc1
REMARK SMILES IDX 23 1 22 2 21 3 19 4 20 5 18 6 13 7 14 8 15 9 17 10 16 11
REMARK SMILES IDX 12 12 11 13 10 14 1 15 2 16 3 17 4 18 9 20 5 21 8 22 6 23
REMARK SMILES IDX 7 24 24 25 25 26 26 27 27 28 28 29 92 30 29 31 91 32 30 33
REMARK SMILES IDX 31 34 32 35 85 36 33 37 90 38 84 39 86 40 34 41 89 42 83 43
REMARK SMILES IDX 82 44 35 46 69 47 48 48 68 49 49 50 52 51 67 52 87 53 50 54
REMARK SMILES IDX 51 55 66 57 88 58 53 59 36 60 37 61 46 62 38 63 39 64 45 65
REMARK SMILES IDX 47 66 40 67 41 68 42 69 43 70 44 71 70 72 71 73 80 74 72 75
REMARK SMILES IDX 73 76 79 77 81 78 74 79 75 80 76 81 77 82 78 83 54 84 55 85
REMARK SMILES IDX 64 86 56 87 57 88 63 89 65 90 58 91 59 92 60 93 61 94 62 95
REMARK H PARENT 3 19 86 45 52 56
REMARK Flexibility Score: inf
ROOT
ATOM      1  C   UNL A   1      32.591  30.200  27.250  1.00  0.00     0.275 C 
ENDROOT
BRANCH   1   2
ATOM      2  C   UNL A   1      32.658  28.680  27.071  1.00  0.00     0.275 C 
BRANCH   2   3
ATOM      3  O   UNL A   1      31.778  28.207  26.034  1.00  0.00    -0.458 OA
BRANCH   3   4
ATOM      4  C   UNL A   1      31.432  26.907  26.172  1.00  0.00     0.340 C 
ATOM      5  O   UNL A   1      30.449  26.482  26.757  1.00  0.00    -0.246 OA
BRANCH   4   6
ATOM      6  C   UNL A   1      32.399  26.000  25.537  1.00  0.00     0.087 A 
ATOM      7  C   UNL A   1      32.047  25.366  24.341  1.00  0.00     0.100 A 
ATOM      8  C   UNL A   1      33.054  24.685  23.635  1.00  0.00     0.031 A 
ATOM      9  C   UNL A   1      34.386  24.709  24.071  1.00  0.00     0.002 A 
ATOM     10  C   UNL A   1      33.727  25.995  25.993  1.00  0.00     0.018 A 
ATOM     11  C   UNL A   1      34.725  25.371  25.247  1.00  0.00     0.001 A 
BRANCH   7  12
ATOM     12  N   UNL A   1      30.727  25.459  23.829  1.00  0.00    -0.150 NA
ATOM     13  N   UNL A   1      30.675  26.047  22.720  1.00  0.00    -0.148 NA
BRANCH  13  14
ATOM     14  C   UNL A   1      30.686  27.455  22.795  1.00  0.00     0.114 A 
ATOM     15  C   UNL A   1      33.253  27.899  22.509  1.00  0.00     0.067 C 
ATOM     16  C   UNL A   1      31.819  28.233  22.676  1.00  0.00     0.041 A 
ATOM     17  N   UNL A   1      31.421  29.536  22.850  1.00  0.00    -0.357 N 
ATOM     18  C   UNL A   1      30.055  29.614  22.995  1.00  0.00     0.048 A 
ATOM     19  H   UNL A   1      32.030  30.309  22.867  1.00  0.00     0.166 HD
ATOM     20  C   UNL A   1      29.559  28.308  22.989  1.00  0.00     0.027 A 
ATOM     21  C   UNL A   1      29.244  30.744  23.153  1.00  0.00     0.027 A 
ATOM     22  C   UNL A   1      28.170  28.127  23.174  1.00  0.00     0.012 A 
ATOM     23  C   UNL A   1      27.873  30.539  23.306  1.00  0.00     0.002 A 
ATOM     24  C   UNL A   1      27.342  29.251  23.325  1.00  0.00     0.001 A 
ENDBRANCH  13  14
ENDBRANCH   7  12
ENDBRANCH   4   6
ENDBRANCH   3   4
ENDBRANCH   2   3
ENDBRANCH   1   2
BRANCH   1  25
ATOM     25  O   UNL A   1      33.878  30.831  27.090  1.00  0.00    -0.458 OA
BRANCH  25  26
ATOM     26  C   UNL A   1      34.544  31.043  28.246  1.00  0.00     0.338 C 
ATOM     27  O   UNL A   1      34.220  31.788  29.160  1.00  0.00    -0.246 OA
BRANCH  26  28
ATOM     28  C   UNL A   1      35.749  30.207  28.337  1.00  0.00     0.060 A 
ATOM     29  C   UNL A   1      36.213  29.829  29.596  1.00  0.00     0.016 A 
ATOM     30  C   UNL A   1      36.562  30.047  27.218  1.00  0.00     0.016 A 
ATOM     31  C   UNL A   1      37.527  29.431  29.773  1.00  0.00     0.010 A 
ATOM     32  C   UNL A   1      37.854  29.541  27.383  1.00  0.00     0.010 A 
ATOM     33  C   UNL A   1      38.365  29.285  28.669  1.00  0.00    -0.014 A 
BRANCH  33  34
ATOM     34  C   UNL A   1      39.797  28.959  28.875  1.00  0.00     0.031 A 
ATOM     35  C   UNL A   1      40.722  30.014  29.418  1.00  0.00     0.074 A 
ATOM     36  C   UNL A   1      40.255  27.721  28.612  1.00  0.00     0.049 A 
ATOM     37  N   UNL A   1      42.027  30.019  29.480  1.00  0.00    -0.248 NA
ATOM     38  C   UNL A   1      40.091  31.236  29.947  1.00  0.00     0.031 C 
ATOM     39  C   UNL A   1      39.437  26.588  28.168  1.00  0.00     0.029 A 
ATOM     40  N   UNL A   1      41.524  27.204  28.680  1.00  0.00    -0.354 N 
ATOM     41  C   UNL A   1      42.376  31.265  29.992  1.00  0.00     0.074 A 
ATOM     42  C   UNL A   1      41.145  31.993  30.212  1.00  0.00     0.031 C 
ATOM     43  C   UNL A   1      40.219  25.508  28.027  1.00  0.00     0.029 A 
ATOM     44  C   UNL A   1      41.603  25.895  28.268  1.00  0.00     0.049 A 
ATOM     45  H   UNL A   1      42.301  27.719  28.994  1.00  0.00     0.167 HD
ATOM     46  C   UNL A   1      43.614  31.750  30.248  1.00  0.00     0.037 A 
ATOM     47  C   UNL A   1      42.675  25.111  28.053  1.00  0.00     0.037 A 
ATOM     48  C   UNL A   1      44.820  30.986  30.057  1.00  0.00     0.049 A 
ATOM     49  C   UNL A   1      44.043  25.689  28.283  1.00  0.00     0.074 A 
ATOM     50  C   UNL A   1      46.130  31.370  30.278  1.00  0.00     0.029 A 
ATOM     51  N   UNL A   1      44.860  29.671  29.606  1.00  0.00    -0.354 N 
ATOM     52  N   UNL A   1      44.370  26.890  28.698  1.00  0.00    -0.248 NA
ATOM     53  C   UNL A   1      45.185  24.813  28.005  1.00  0.00     0.031 C 
ATOM     54  C   UNL A   1      46.964  30.305  29.917  1.00  0.00     0.029 A 
ATOM     55  C   UNL A   1      46.171  29.235  29.532  1.00  0.00     0.049 A 
ATOM     56  H   UNL A   1      44.071  29.131  29.376  1.00  0.00     0.167 HD
ATOM     57  C   UNL A   1      45.758  26.905  28.761  1.00  0.00     0.074 A 
ATOM     58  C   UNL A   1      46.204  25.589  28.349  1.00  0.00     0.031 C 
ATOM     59  C   UNL A   1      46.589  27.913  29.129  1.00  0.00     0.037 A 
BRANCH  46  60
ATOM     60  C   UNL A   1      43.723  33.180  30.711  1.00  0.00     0.058 A 
ATOM     61  C   UNL A   1      43.748  34.261  29.814  1.00  0.00     0.135 A 
ATOM     62  C   UNL A   1      43.802  33.473  32.084  1.00  0.00     0.135 A 
ATOM     63  F   UNL A   1      43.695  34.042  28.490  1.00  0.00    -0.206 F 
ATOM     64  C   UNL A   1      43.891  35.572  30.258  1.00  0.00     0.059 A 
ATOM     65  C   UNL A   1      43.910  34.780  32.550  1.00  0.00     0.059 A 
ATOM     66  F   UNL A   1      43.783  32.482  32.989  1.00  0.00    -0.206 F 
ATOM     67  C   UNL A   1      43.974  35.822  31.628  1.00  0.00     0.060 A 
BRANCH  67  68
ATOM     68  S   UNL A   1      44.175  37.527  32.186  1.00  0.00     0.124 S 
ATOM     69  O   UNL A   1      45.583  37.545  32.570  1.00  0.00    -0.237 OA
ATOM     70  O   UNL A   1      43.835  38.289  30.988  1.00  0.00    -0.237 OA
ATOM     71  O   UNL A   1      43.224  37.640  33.288  1.00  0.00    -0.744 OA
ENDBRANCH  67  68
ENDBRANCH  46  60
BRANCH  47  72
ATOM     72  C   UNL A   1      42.491  23.717  27.570  1.00  0.00     0.058 A 
ATOM     73  C   UNL A   1      42.392  23.437  26.201  1.00  0.00     0.135 A 
ATOM     74  C   UNL A   1      42.449  22.633  28.463  1.00  0.00     0.135 A 
ATOM     75  F   UNL A   1      42.419  24.438  25.307  1.00  0.00    -0.206 F 
ATOM     76  C   UNL A   1      42.249  22.135  25.731  1.00  0.00     0.059 A 
ATOM     77  C   UNL A   1      42.339  21.320  28.017  1.00  0.00     0.059 A 
ATOM     78  F   UNL A   1      42.556  22.843  29.784  1.00  0.00    -0.206 F 
ATOM     79  C   UNL A   1      42.232  21.081  26.648  1.00  0.00     0.060 A 
BRANCH  79  80
ATOM     80  S   UNL A   1      42.110  19.392  26.022  1.00  0.00     0.124 S 
ATOM     81  O   UNL A   1      42.970  19.453  24.847  1.00  0.00    -0.237 OA
ATOM     82  O   UNL A   1      42.618  18.614  27.149  1.00  0.00    -0.237 OA
ATOM     83  O   UNL A   1      40.684  19.235  25.755  1.00  0.00    -0.744 OA
ENDBRANCH  79  80
ENDBRANCH  47  72
BRANCH  59  84
ATOM     84  C   UNL A   1      48.061  27.608  29.163  1.00  0.00     0.058 A 
ATOM     85  C   UNL A   1      48.924  27.989  28.124  1.00  0.00     0.135 A 
ATOM     86  C   UNL A   1      48.617  26.957  30.275  1.00  0.00     0.135 A 
ATOM     87  F   UNL A   1      48.441  28.605  27.034  1.00  0.00    -0.206 F 
ATOM     88  C   UNL A   1      50.285  27.706  28.174  1.00  0.00     0.059 A 
ATOM     89  C   UNL A   1      49.980  26.695  30.362  1.00  0.00     0.059 A 
ATOM     90  F   UNL A   1      47.837  26.581  31.301  1.00  0.00    -0.206 F 
ATOM     91  C   UNL A   1      50.804  27.060  29.298  1.00  0.00     0.060 A 
BRANCH  91  92
ATOM     92  S   UNL A   1      52.575  26.724  29.362  1.00  0.00     0.124 S 
ATOM     93  O   UNL A   1      52.760  25.899  28.172  1.00  0.00    -0.237 OA
ATOM     94  O   UNL A   1      53.149  28.065  29.300  1.00  0.00    -0.237 OA
ATOM     95  O   UNL A   1      52.745  26.035  30.637  1.00  0.00    -0.744 OA
ENDBRANCH  91  92
ENDBRANCH  59  84
ENDBRANCH  33  34
ENDBRANCH  26  28
ENDBRANCH  25  26
ENDBRANCH   1  25
TORSDOF 16
ENDMDL
MODEL 2
REMARK VINA RESULT:     -12.1      4.241      8.676
REMARK SMILES Cc1[nH]c2ccccc2c1/N=N\c1ccccc1C(=O)OCCOC(=O)c1ccc(-c2c3nc(c(-c4c(F)cc(S(=O)(=O)[O-])cc4F)c4ccc([nH]4)c(-c4c(F)cc(S(=O)(=O)[O-])cc4F)c4nc(c(-c5c(F)cc(S(=O)(=O)[O-])cc5F)c5ccc2[nH]5)C=C4)C=C3)cc1
REMARK SMILES IDX 23 1 22 2 21 3 19 4 20 5 18 6 13 7 14 8 15 9 17 10 16 11
REMARK SMILES IDX 12 12 11 13 10 14 1 15 2 16 3 17 4 18 9 20 5 21 8 22 6 23
REMARK SMILES IDX 7 24 24 25 25 26 26 27 27 28 28 29 92 30 29 31 91 32 30 33
REMARK SMILES IDX 31 34 32 35 85 36 33 37 90 38 84 39 86 40 34 41 89 42 83 43
REMARK SMILES IDX 82 44 35 46 69 47 48 48 68 49 49 50 52 51 67 52 87 53 50 54
REMARK SMILES IDX 51 55 66 57 88 58 53 59 36 60 37 61 46 62 38 63 39 64 45 65
REMARK SMILES IDX 47 66 40 67 41 68 42 69 43 70 44 71 70 72 71 73 80 74 72 75
REMARK SMILES IDX 73 76 79 77 81 78 74 79 75 80 76 81 77 82 78 83 54 84 55 85
REMARK SMILES IDX 64 86 56 87 57 88 63 89 65 90 58 91 59 92 60 93 61 94 62 95
REMARK H PARENT 3 19 86 45 52 56
REMARK Flexibility Score: inf
ROOT
ATOM      1  C   UNL A   1      32.248  29.951  26.867  1.00  0.00     0.275 C 
ENDROOT
BRANCH   1   2
ATOM      2  C   UNL A   1      31.848  28.492  27.106  1.00  0.00     0.275 C 
BRANCH   2   3
ATOM      3  O   UNL A   1      31.217  27.897  25.956  1.00  0.00    -0.458 OA
BRANCH   3   4
ATOM      4  C   UNL A   1      31.025  26.564  26.076  1.00  0.00     0.340 C 
ATOM      5  O   UNL A   1      30.094  26.019  26.646  1.00  0.00    -0.246 OA
BRANCH   4   6
ATOM      6  C   UNL A   1      32.098  25.785  25.441  1.00  0.00     0.087 A 
ATOM      7  C   UNL A   1      31.928  25.349  24.122  1.00  0.00     0.100 A 
ATOM      8  C   UNL A   1      33.042  24.805  23.460  1.00  0.00     0.031 A 
ATOM      9  C   UNL A   1      34.304  24.775  24.070  1.00  0.00     0.002 A 
ATOM     10  C   UNL A   1      33.354  25.722  26.066  1.00  0.00     0.018 A 
ATOM     11  C   UNL A   1      34.462  25.241  25.372  1.00  0.00     0.001 A 
BRANCH   7  12
ATOM     12  N   UNL A   1      30.685  25.508  23.459  1.00  0.00    -0.150 NA
ATOM     13  N   UNL A   1      30.760  26.263  22.457  1.00  0.00    -0.148 NA
BRANCH  13  14
ATOM     14  C   UNL A   1      30.715  27.641  22.750  1.00  0.00     0.114 A 
ATOM     15  C   UNL A   1      33.280  28.181  22.751  1.00  0.00     0.067 C 
ATOM     16  C   UNL A   1      31.827  28.453  22.849  1.00  0.00     0.041 A 
ATOM     17  N   UNL A   1      31.371  29.703  23.189  1.00  0.00    -0.357 N 
ATOM     18  C   UNL A   1      29.996  29.728  23.231  1.00  0.00     0.048 A 
ATOM     19  H   UNL A   1      31.950  30.477  23.377  1.00  0.00     0.166 HD
ATOM     20  C   UNL A   1      29.547  28.428  22.980  1.00  0.00     0.027 A 
ATOM     21  C   UNL A   1      29.136  30.800  23.494  1.00  0.00     0.027 A 
ATOM     22  C   UNL A   1      28.156  28.189  23.019  1.00  0.00     0.012 A 
ATOM     23  C   UNL A   1      27.765  30.543  23.499  1.00  0.00     0.002 A 
ATOM     24  C   UNL A   1      27.279  29.256  23.273  1.00  0.00     0.001 A 
ENDBRANCH  13  14
ENDBRANCH   7  12
ENDBRANCH   4   6
ENDBRANCH   3   4
ENDBRANCH   2   3
ENDBRANCH   1   2
BRANCH   1  25
ATOM     25  O   UNL A   1      33.660  30.102  26.616  1.00  0.00    -0.458 OA
BRANCH  25  26
ATOM     26  C   UNL A   1      34.268  31.033  27.383  1.00  0.00     0.338 C 
ATOM     27  O   UNL A   1      33.781  32.069  27.813  1.00  0.00    -0.246 OA
BRANCH  26  28
ATOM     28  C   UNL A   1      35.644  30.642  27.720  1.00  0.00     0.060 A 
ATOM     29  C   UNL A   1      35.908  29.308  28.027  1.00  0.00     0.016 A 
ATOM     30  C   UNL A   1      36.587  31.624  28.008  1.00  0.00     0.016 A 
ATOM     31  C   UNL A   1      37.037  28.962  28.750  1.00  0.00     0.010 A 
ATOM     32  C   UNL A   1      37.779  31.258  28.640  1.00  0.00     0.010 A 
ATOM     33  C   UNL A   1      37.986  29.933  29.068  1.00  0.00    -0.014 A 
BRANCH  33  34
ATOM     34  C   UNL A   1      39.139  29.576  29.929  1.00  0.00     0.031 A 
ATOM     35  C   UNL A   1      40.183  28.628  29.406  1.00  0.00     0.074 A 
ATOM     36  C   UNL A   1      39.267  30.123  31.153  1.00  0.00     0.049 A 
ATOM     37  N   UNL A   1      41.147  28.021  30.047  1.00  0.00    -0.248 NA
ATOM     38  C   UNL A   1      40.122  28.306  27.970  1.00  0.00     0.031 C 
ATOM     39  C   UNL A   1      38.368  31.125  31.734  1.00  0.00     0.029 A 
ATOM     40  N   UNL A   1      40.205  29.916  32.131  1.00  0.00    -0.354 N 
ATOM     41  C   UNL A   1      41.764  27.198  29.111  1.00  0.00     0.074 A 
ATOM     42  C   UNL A   1      41.058  27.375  27.861  1.00  0.00     0.031 C 
ATOM     43  C   UNL A   1      38.810  31.460  32.955  1.00  0.00     0.029 A 
ATOM     44  C   UNL A   1      39.959  30.626  33.282  1.00  0.00     0.049 A 
ATOM     45  H   UNL A   1      40.979  29.319  32.019  1.00  0.00     0.167 HD
ATOM     46  C   UNL A   1      42.822  26.372  29.289  1.00  0.00     0.037 A 
ATOM     47  C   UNL A   1      40.557  30.569  34.486  1.00  0.00     0.037 A 
ATOM     48  C   UNL A   1      43.531  26.247  30.536  1.00  0.00     0.049 A 
ATOM     49  C   UNL A   1      41.688  29.599  34.680  1.00  0.00     0.074 A 
ATOM     50  C   UNL A   1      44.613  25.441  30.839  1.00  0.00     0.029 A 
ATOM     51  N   UNL A   1      43.230  26.961  31.690  1.00  0.00    -0.354 N 
ATOM     52  N   UNL A   1      42.221  28.772  33.812  1.00  0.00    -0.248 NA
ATOM     53  C   UNL A   1      42.289  29.545  36.017  1.00  0.00     0.031 C 
ATOM     54  C   UNL A   1      44.937  25.633  32.186  1.00  0.00     0.029 A 
ATOM     55  C   UNL A   1      44.098  26.606  32.708  1.00  0.00     0.049 A 
ATOM     56  H   UNL A   1      42.507  27.624  31.771  1.00  0.00     0.167 HD
ATOM     57  C   UNL A   1      43.244  28.119  34.489  1.00  0.00     0.074 A 
ATOM     58  C   UNL A   1      43.257  28.656  35.836  1.00  0.00     0.031 C 
ATOM     59  C   UNL A   1      44.097  27.165  34.039  1.00  0.00     0.037 A 
BRANCH  46  60
ATOM     60  C   UNL A   1      43.237  25.508  28.125  1.00  0.00     0.058 A 
ATOM     61  C   UNL A   1      42.627  24.273  27.851  1.00  0.00     0.135 A 
ATOM     62  C   UNL A   1      44.268  25.928  27.267  1.00  0.00     0.135 A 
ATOM     63  F   UNL A   1      41.649  23.810  28.646  1.00  0.00    -0.206 F 
ATOM     64  C   UNL A   1      43.051  23.469  26.796  1.00  0.00     0.059 A 
ATOM     65  C   UNL A   1      44.684  25.156  26.186  1.00  0.00     0.059 A 
ATOM     66  F   UNL A   1      44.889  27.099  27.479  1.00  0.00    -0.206 F 
ATOM     67  C   UNL A   1      44.083  23.917  25.971  1.00  0.00     0.060 A 
BRANCH  67  68
ATOM     68  S   UNL A   1      44.632  22.856  24.618  1.00  0.00     0.124 S 
ATOM     69  O   UNL A   1      45.592  23.721  23.939  1.00  0.00    -0.237 OA
ATOM     70  O   UNL A   1      45.199  21.714  25.328  1.00  0.00    -0.237 OA
ATOM     71  O   UNL A   1      43.403  22.584  23.879  1.00  0.00    -0.744 OA
ENDBRANCH  67  68
ENDBRANCH  46  60
BRANCH  47  72
ATOM     72  C   UNL A   1      40.075  31.434  35.596  1.00  0.00     0.058 A 
ATOM     73  C   UNL A   1      38.889  31.134  36.279  1.00  0.00     0.135 A 
ATOM     74  C   UNL A   1      40.808  32.554  36.022  1.00  0.00     0.135 A 
ATOM     75  F   UNL A   1      38.148  30.079  35.905  1.00  0.00    -0.206 F 
ATOM     76  C   UNL A   1      38.439  31.916  37.337  1.00  0.00     0.059 A 
ATOM     77  C   UNL A   1      40.397  33.333  37.099  1.00  0.00     0.059 A 
ATOM     78  F   UNL A   1      41.960  32.877  35.414  1.00  0.00    -0.206 F 
ATOM     79  C   UNL A   1      39.206  33.010  37.746  1.00  0.00     0.060 A 
BRANCH  79  80
ATOM     80  S   UNL A   1      38.644  33.978  39.163  1.00  0.00     0.124 S 
ATOM     81  O   UNL A   1      38.804  35.341  38.668  1.00  0.00    -0.237 OA
ATOM     82  O   UNL A   1      37.270  33.512  39.323  1.00  0.00    -0.237 OA
ATOM     83  O   UNL A   1      39.561  33.580  40.226  1.00  0.00    -0.744 OA
ENDBRANCH  79  80
ENDBRANCH  47  72
BRANCH  59  84
ATOM     84  C   UNL A   1      45.156  26.689  34.994  1.00  0.00     0.058 A 
ATOM     85  C   UNL A   1      46.398  27.332  35.110  1.00  0.00     0.135 A 
ATOM     86  C   UNL A   1      44.902  25.592  35.834  1.00  0.00     0.135 A 
ATOM     87  F   UNL A   1      46.694  28.379  34.324  1.00  0.00    -0.206 F 
ATOM     88  C   UNL A   1      47.365  26.884  36.004  1.00  0.00     0.059 A 
ATOM     89  C   UNL A   1      45.840  25.148  36.759  1.00  0.00     0.059 A 
ATOM     90  F   UNL A   1      43.726  24.948  35.770  1.00  0.00    -0.206 F 
ATOM     91  C   UNL A   1      47.075  25.791  36.826  1.00  0.00     0.060 A 
BRANCH  91  92
ATOM     92  S   UNL A   1      48.328  25.238  38.001  1.00  0.00     0.124 S 
ATOM     93  O   UNL A   1      47.555  25.157  39.236  1.00  0.00    -0.237 OA
ATOM     94  O   UNL A   1      48.748  23.962  37.430  1.00  0.00    -0.237 OA
ATOM     95  O   UNL A   1      49.330  26.298  37.955  1.00  0.00    -0.744 OA
ENDBRANCH  91  92
ENDBRANCH  59  84
ENDBRANCH  33  34
ENDBRANCH  26  28
ENDBRANCH  25  26
ENDBRANCH   1  25
TORSDOF 16
ENDMDL
MODEL 3
REMARK VINA RESULT:     -12.0      1.299      3.306
REMARK SMILES Cc1[nH]c2ccccc2c1/N=N\c1ccccc1C(=O)OCCOC(=O)c1ccc(-c2c3nc(c(-c4c(F)cc(S(=O)(=O)[O-])cc4F)c4ccc([nH]4)c(-c4c(F)cc(S(=O)(=O)[O-])cc4F)c4nc(c(-c5c(F)cc(S(=O)(=O)[O-])cc5F)c5ccc2[nH]5)C=C4)C=C3)cc1
REMARK SMILES IDX 23 1 22 2 21 3 19 4 20 5 18 6 13 7 14 8 15 9 17 10 16 11
REMARK SMILES IDX 12 12 11 13 10 14 1 15 2 16 3 17 4 18 9 20 5 21 8 22 6 23
REMARK SMILES IDX 7 24 24 25 25 26 26 27 27 28 28 29 92 30 29 31 91 32 30 33
REMARK SMILES IDX 31 34 32 35 85 36 33 37 90 38 84 39 86 40 34 41 89 42 83 43
REMARK SMILES IDX 82 44 35 46 69 47 48 48 68 49 49 50 52 51 67 52 87 53 50 54
REMARK SMILES IDX 51 55 66 57 88 58 53 59 36 60 37 61 46 62 38 63 39 64 45 65
REMARK SMILES IDX 47 66 40 67 41 68 42 69 43 70 44 71 70 72 71 73 80 74 72 75
REMARK SMILES IDX 73 76 79 77 81 78 74 79 75 80 76 81 77 82 78 83 54 84 55 85
REMARK SMILES IDX 64 86 56 87 57 88 63 89 65 90 58 91 59 92 60 93 61 94 62 95
REMARK H PARENT 3 19 86 45 52 56
REMARK Flexibility Score: inf
ROOT
ATOM      1  C   UNL A   1      32.954  30.822  26.891  1.00  0.00     0.275 C 
ENDROOT
BRANCH   1   2
ATOM      2  C   UNL A   1      31.829  29.940  26.341  1.00  0.00     0.275 C 
BRANCH   2   3
ATOM      3  O   UNL A   1      32.326  28.778  25.649  1.00  0.00    -0.458 OA
BRANCH   3   4
ATOM      4  C   UNL A   1      31.615  28.464  24.543  1.00  0.00     0.340 C 
ATOM      5  O   UNL A   1      30.584  29.001  24.173  1.00  0.00    -0.246 OA
BRANCH   4   6
ATOM      6  C   UNL A   1      32.213  27.351  23.792  1.00  0.00     0.087 A 
ATOM      7  C   UNL A   1      31.783  26.046  24.059  1.00  0.00     0.100 A 
ATOM      8  C   UNL A   1      32.196  25.025  23.186  1.00  0.00     0.031 A 
ATOM      9  C   UNL A   1      32.946  25.313  22.037  1.00  0.00     0.002 A 
ATOM     10  C   UNL A   1      32.994  27.635  22.660  1.00  0.00     0.018 A 
ATOM     11  C   UNL A   1      33.339  26.621  21.770  1.00  0.00     0.001 A 
BRANCH   7  12
ATOM     12  N   UNL A   1      30.909  25.776  25.143  1.00  0.00    -0.150 NA
ATOM     13  N   UNL A   1      31.520  25.570  26.222  1.00  0.00    -0.148 NA
BRANCH  13  14
ATOM     14  C   UNL A   1      32.023  24.262  26.376  1.00  0.00     0.114 A 
ATOM     15  C   UNL A   1      29.817  23.010  27.038  1.00  0.00     0.067 C 
ATOM     16  C   UNL A   1      31.254  23.166  26.709  1.00  0.00     0.041 A 
ATOM     17  N   UNL A   1      32.112  22.098  26.805  1.00  0.00    -0.357 N 
ATOM     18  C   UNL A   1      33.392  22.468  26.464  1.00  0.00     0.048 A 
ATOM     19  H   UNL A   1      31.847  21.191  27.080  1.00  0.00     0.166 HD
ATOM     20  C   UNL A   1      33.376  23.842  26.209  1.00  0.00     0.027 A 
ATOM     21  C   UNL A   1      34.551  21.686  26.390  1.00  0.00     0.027 A 
ATOM     22  C   UNL A   1      34.599  24.468  25.883  1.00  0.00     0.012 A 
ATOM     23  C   UNL A   1      35.740  22.325  26.038  1.00  0.00     0.002 A 
ATOM     24  C   UNL A   1      35.769  23.697  25.795  1.00  0.00     0.001 A 
ENDBRANCH  13  14
ENDBRANCH   7  12
ENDBRANCH   4   6
ENDBRANCH   3   4
ENDBRANCH   2   3
ENDBRANCH   1   2
BRANCH   1  25
ATOM     25  O   UNL A   1      33.570  30.261  28.068  1.00  0.00    -0.458 OA
BRANCH  25  26
ATOM     26  C   UNL A   1      34.636  30.952  28.525  1.00  0.00     0.338 C 
ATOM     27  O   UNL A   1      34.646  32.101  28.946  1.00  0.00    -0.246 OA
BRANCH  26  28
ATOM     28  C   UNL A   1      35.856  30.133  28.519  1.00  0.00     0.060 A 
ATOM     29  C   UNL A   1      36.361  29.669  29.733  1.00  0.00     0.016 A 
ATOM     30  C   UNL A   1      36.639  30.073  27.370  1.00  0.00     0.016 A 
ATOM     31  C   UNL A   1      37.686  29.282  29.843  1.00  0.00     0.010 A 
ATOM     32  C   UNL A   1      37.943  29.579  27.460  1.00  0.00     0.010 A 
ATOM     33  C   UNL A   1      38.495  29.235  28.709  1.00  0.00    -0.014 A 
BRANCH  33  34
ATOM     34  C   UNL A   1      39.937  28.920  28.850  1.00  0.00     0.031 A 
ATOM     35  C   UNL A   1      40.878  29.985  29.342  1.00  0.00     0.074 A 
ATOM     36  C   UNL A   1      40.390  27.683  28.576  1.00  0.00     0.049 A 
ATOM     37  N   UNL A   1      42.185  29.999  29.343  1.00  0.00    -0.248 NA
ATOM     38  C   UNL A   1      40.265  31.207  29.890  1.00  0.00     0.031 C 
ATOM     39  C   UNL A   1      39.561  26.541  28.179  1.00  0.00     0.029 A 
ATOM     40  N   UNL A   1      41.664  27.174  28.589  1.00  0.00    -0.354 N 
ATOM     41  C   UNL A   1      42.549  31.251  29.828  1.00  0.00     0.074 A 
ATOM     42  C   UNL A   1      41.325  31.973  30.100  1.00  0.00     0.031 C 
ATOM     43  C   UNL A   1      40.342  25.465  28.010  1.00  0.00     0.029 A 
ATOM     44  C   UNL A   1      41.733  25.863  28.183  1.00  0.00     0.049 A 
ATOM     45  H   UNL A   1      42.452  27.697  28.862  1.00  0.00     0.167 HD
ATOM     46  C   UNL A   1      43.795  31.746  30.023  1.00  0.00     0.037 A 
ATOM     47  C   UNL A   1      42.799  25.084  27.925  1.00  0.00     0.037 A 
ATOM     48  C   UNL A   1      44.996  30.988  29.781  1.00  0.00     0.049 A 
ATOM     49  C   UNL A   1      44.172  25.673  28.086  1.00  0.00     0.074 A 
ATOM     50  C   UNL A   1      46.312  31.382  29.938  1.00  0.00     0.029 A 
ATOM     51  N   UNL A   1      45.023  29.670  29.339  1.00  0.00    -0.354 N 
ATOM     52  N   UNL A   1      44.511  26.879  28.476  1.00  0.00    -0.248 NA
ATOM     53  C   UNL A   1      45.306  24.801  27.762  1.00  0.00     0.031 C 
ATOM     54  C   UNL A   1      47.135  30.320  29.547  1.00  0.00     0.029 A 
ATOM     55  C   UNL A   1      46.333  29.241  29.207  1.00  0.00     0.049 A 
ATOM     56  H   UNL A   1      44.228  29.123  29.150  1.00  0.00     0.167 HD
ATOM     57  C   UNL A   1      45.899  26.903  28.474  1.00  0.00     0.074 A 
ATOM     58  C   UNL A   1      46.335  25.586  28.052  1.00  0.00     0.031 C 
ATOM     59  C   UNL A   1      46.740  27.919  28.796  1.00  0.00     0.037 A 
BRANCH  46  60
ATOM     60  C   UNL A   1      43.915  33.180  30.469  1.00  0.00     0.058 A 
ATOM     61  C   UNL A   1      43.931  33.547  31.825  1.00  0.00     0.135 A 
ATOM     62  C   UNL A   1      44.017  34.209  29.517  1.00  0.00     0.135 A 
ATOM     63  F   UNL A   1      43.818  32.610  32.780  1.00  0.00    -0.206 F 
ATOM     64  C   UNL A   1      44.001  34.880  32.218  1.00  0.00     0.059 A 
ATOM     65  C   UNL A   1      44.122  35.546  29.889  1.00  0.00     0.059 A 
ATOM     66  F   UNL A   1      44.006  33.920  28.206  1.00  0.00    -0.206 F 
ATOM     67  C   UNL A   1      44.093  35.874  31.243  1.00  0.00     0.060 A 
BRANCH  67  68
ATOM     68  S   UNL A   1      44.166  37.599  31.769  1.00  0.00     0.124 S 
ATOM     69  O   UNL A   1      43.598  38.282  30.611  1.00  0.00    -0.237 OA
ATOM     70  O   UNL A   1      43.338  37.594  32.971  1.00  0.00    -0.237 OA
ATOM     71  O   UNL A   1      45.590  37.827  31.994  1.00  0.00    -0.744 OA
ENDBRANCH  67  68
ENDBRANCH  46  60
BRANCH  47  72
ATOM     72  C   UNL A   1      42.602  23.685  27.462  1.00  0.00     0.058 A 
ATOM     73  C   UNL A   1      42.589  23.374  26.095  1.00  0.00     0.135 A 
ATOM     74  C   UNL A   1      42.461  22.626  28.373  1.00  0.00     0.135 A 
ATOM     75  F   UNL A   1      42.713  24.351  25.184  1.00  0.00    -0.206 F 
ATOM     76  C   UNL A   1      42.435  22.067  25.647  1.00  0.00     0.059 A 
ATOM     77  C   UNL A   1      42.338  21.306  27.951  1.00  0.00     0.059 A 
ATOM     78  F   UNL A   1      42.482  22.865  29.694  1.00  0.00    -0.206 F 
ATOM     79  C   UNL A   1      42.319  21.037  26.583  1.00  0.00     0.060 A 
BRANCH  79  80
ATOM     80  S   UNL A   1      42.184  19.338  25.989  1.00  0.00     0.124 S 
ATOM     81  O   UNL A   1      43.020  19.378  24.795  1.00  0.00    -0.237 OA
ATOM     82  O   UNL A   1      42.715  18.579  27.117  1.00  0.00    -0.237 OA
ATOM     83  O   UNL A   1      40.752  19.177  25.753  1.00  0.00    -0.744 OA
ENDBRANCH  79  80
ENDBRANCH  47  72
BRANCH  59  84
ATOM     84  C   UNL A   1      48.214  27.624  28.763  1.00  0.00     0.058 A 
ATOM     85  C   UNL A   1      48.890  27.084  29.868  1.00  0.00     0.135 A 
ATOM     86  C   UNL A   1      48.949  27.852  27.589  1.00  0.00     0.135 A 
ATOM     87  F   UNL A   1      48.234  26.857  31.017  1.00  0.00    -0.206 F 
ATOM     88  C   UNL A   1      50.252  26.809  29.819  1.00  0.00     0.059 A 
ATOM     89  C   UNL A   1      50.304  27.552  27.506  1.00  0.00     0.059 A 
ATOM     90  F   UNL A   1      48.348  28.358  26.500  1.00  0.00    -0.206 F 
ATOM     91  C   UNL A   1      50.951  27.046  28.633  1.00  0.00     0.060 A 
BRANCH  91  92
ATOM     92  S   UNL A   1      52.712  26.659  28.575  1.00  0.00     0.124 S 
ATOM     93  O   UNL A   1      53.289  27.963  28.265  1.00  0.00    -0.237 OA
ATOM     94  O   UNL A   1      52.965  26.156  29.921  1.00  0.00    -0.237 OA
ATOM     95  O   UNL A   1      52.807  25.662  27.512  1.00  0.00    -0.744 OA
ENDBRANCH  91  92
ENDBRANCH  59  84
ENDBRANCH  33  34
ENDBRANCH  26  28
ENDBRANCH  25  26
ENDBRANCH   1  25
TORSDOF 16
ENDMDL
