MODEL 1
REMARK VINA RESULT:     -10.1      0.000      0.000
REMARK SMILES C=CCN(CC(=O)OCCOC(=O)c1ccc(-c2c3nc(c(-c4c(F)cc(S(=O)(=O)[O-])cc4F)c4ccc([nH]4)c(-c4c(F)cc(S(=O)(=O)[O-])cc4F)c4nc(c(-c5c(F)cc(S(=O)(=O)[O-])cc5F)c5ccc2[nH]5)C=C4)C=C3)cc1)C(=O)[C@@H]1[C@H](C)[C@H](C)O[C@@H]1C
REMARK SMILES IDX 9 1 8 2 6 3 7 4 5 5 4 6 3 7 2 8 1 9 80 10 81 11 82 12 83 13
REMARK SMILES IDX 88 14 84 15 85 16 87 17 89 18 86 19 10 20 11 21 12 22 13 23
REMARK SMILES IDX 14 24 15 25 79 26 16 27 78 28 17 29 18 30 19 31 72 32 20 33
REMARK SMILES IDX 77 34 71 35 73 36 21 37 76 38 70 39 69 40 22 42 56 43 35 44
REMARK SMILES IDX 55 45 36 46 39 47 54 48 74 49 37 50 38 51 53 53 75 54 40 55
REMARK SMILES IDX 23 56 24 57 33 58 25 59 26 60 32 61 34 62 27 63 28 64 29 65
REMARK SMILES IDX 30 66 31 67 57 68 58 69 67 70 59 71 60 72 66 73 68 74 61 75
REMARK SMILES IDX 62 76 63 77 64 78 65 79 41 80 42 81 51 82 43 83 44 84 50 85
REMARK SMILES IDX 52 86 45 87 46 88 47 89 48 90 49 91
REMARK H PARENT 73 41 39 52
REMARK Flexibility Score: inf
ROOT
ATOM      1  C   UNL A   1      34.099  31.778  27.645  1.00  0.00     0.274 C 
ENDROOT
BRANCH   1   2
ATOM      2  O   UNL A   1      33.168  30.671  27.608  1.00  0.00    -0.461 OA
BRANCH   2   3
ATOM      3  C   UNL A   1      33.670  29.496  27.152  1.00  0.00     0.325 C 
ATOM      4  O   UNL A   1      34.870  29.256  27.041  1.00  0.00    -0.250 OA
BRANCH   3   5
ATOM      5  C   UNL A   1      32.626  28.403  26.906  1.00  0.00     0.242 C 
BRANCH   5   6
ATOM      6  N   UNL A   1      32.027  28.180  25.586  1.00  0.00    -0.328 N 
BRANCH   6   7
ATOM      7  C   UNL A   1      32.462  29.089  24.531  1.00  0.00     0.147 C 
BRANCH   7   8
ATOM      8  C   UNL A   1      33.103  28.256  23.449  1.00  0.00    -0.014 C 
ATOM      9  C   UNL A   1      34.171  28.642  22.736  1.00  0.00     0.006 C 
ENDBRANCH   7   8
ENDBRANCH   6   7
BRANCH   6  10
ATOM     10  C   UNL A   1      31.147  27.168  25.209  1.00  0.00     0.229 C 
ATOM     11  O   UNL A   1      30.199  27.444  24.461  1.00  0.00    -0.274 OA
BRANCH  10  12
ATOM     12  C   UNL A   1      31.274  25.742  25.751  1.00  0.00     0.113 C 
ATOM     13  C   UNL A   1      32.598  25.103  26.156  1.00  0.00     0.030 C 
ATOM     14  C   UNL A   1      30.634  24.663  24.859  1.00  0.00     0.128 C 
ATOM     15  C   UNL A   1      33.795  25.443  25.276  1.00  0.00     0.011 C 
ATOM     16  C   UNL A   1      32.209  23.621  26.251  1.00  0.00     0.119 C 
ATOM     17  O   UNL A   1      31.089  23.399  25.386  1.00  0.00    -0.374 OA
ATOM     18  C   UNL A   1      30.978  24.627  23.373  1.00  0.00     0.039 C 
ATOM     19  C   UNL A   1      33.299  22.610  25.954  1.00  0.00     0.039 C 
ENDBRANCH  10  12
ENDBRANCH   6  10
ENDBRANCH   5   6
ENDBRANCH   3   5
ENDBRANCH   2   3
ENDBRANCH   1   2
BRANCH   1  20
ATOM     20  C   UNL A   1      34.595  32.083  29.065  1.00  0.00     0.275 C 
BRANCH  20  21
ATOM     21  O   UNL A   1      36.033  31.964  29.190  1.00  0.00    -0.458 OA
BRANCH  21  22
ATOM     22  C   UNL A   1      36.408  31.071  30.113  1.00  0.00     0.338 C 
ATOM     23  O   UNL A   1      35.852  30.873  31.187  1.00  0.00    -0.246 OA
BRANCH  22  24
ATOM     24  C   UNL A   1      37.585  30.277  29.744  1.00  0.00     0.060 A 
ATOM     25  C   UNL A   1      38.487  29.904  30.747  1.00  0.00     0.016 A 
ATOM     26  C   UNL A   1      37.953  30.181  28.395  1.00  0.00     0.016 A 
ATOM     27  C   UNL A   1      39.780  29.514  30.400  1.00  0.00     0.010 A 
ATOM     28  C   UNL A   1      39.236  29.740  28.054  1.00  0.00     0.010 A 
ATOM     29  C   UNL A   1      40.176  29.442  29.051  1.00  0.00    -0.014 A 
BRANCH  29  30
ATOM     30  C   UNL A   1      41.569  29.036  28.712  1.00  0.00     0.031 A 
ATOM     31  C   UNL A   1      42.725  30.000  28.805  1.00  0.00     0.074 A 
ATOM     32  C   UNL A   1      41.805  27.756  28.367  1.00  0.00     0.049 A 
ATOM     33  N   UNL A   1      44.000  29.772  28.609  1.00  0.00    -0.248 NA
ATOM     34  C   UNL A   1      42.418  31.388  29.183  1.00  0.00     0.031 C 
ATOM     35  C   UNL A   1      40.783  26.715  28.255  1.00  0.00     0.029 A 
ATOM     36  N   UNL A   1      42.976  27.109  28.060  1.00  0.00    -0.354 N 
ATOM     37  C   UNL A   1      44.652  30.972  28.874  1.00  0.00     0.074 A 
ATOM     38  C   UNL A   1      43.627  31.939  29.205  1.00  0.00     0.031 C 
ATOM     39  C   UNL A   1      41.372  25.555  27.929  1.00  0.00     0.029 A 
ATOM     40  C   UNL A   1      42.805  25.781  27.757  1.00  0.00     0.049 A 
ATOM     41  H   UNL A   1      43.854  27.555  28.057  1.00  0.00     0.167 HD
ATOM     42  C   UNL A   1      45.982  31.237  28.865  1.00  0.00     0.037 A 
ATOM     43  C   UNL A   1      43.689  24.847  27.357  1.00  0.00     0.037 A 
ATOM     44  C   UNL A   1      47.007  30.288  28.512  1.00  0.00     0.049 A 
ATOM     45  C   UNL A   1      45.132  25.210  27.192  1.00  0.00     0.074 A 
ATOM     46  C   UNL A   1      48.382  30.458  28.523  1.00  0.00     0.029 A 
ATOM     47  N   UNL A   1      46.771  28.999  28.061  1.00  0.00    -0.354 N 
ATOM     48  N   UNL A   1      45.729  26.343  27.471  1.00  0.00    -0.248 NA
ATOM     49  C   UNL A   1      46.018  24.179  26.636  1.00  0.00     0.031 C 
ATOM     50  C   UNL A   1      48.976  29.287  28.034  1.00  0.00     0.029 A 
ATOM     51  C   UNL A   1      47.971  28.380  27.745  1.00  0.00     0.049 A 
ATOM     52  H   UNL A   1      45.883  28.584  27.977  1.00  0.00     0.167 HD
ATOM     53  C   UNL A   1      47.059  26.167  27.116  1.00  0.00     0.074 A 
ATOM     54  C   UNL A   1      47.184  24.811  26.616  1.00  0.00     0.031 C 
ATOM     55  C   UNL A   1      48.083  27.050  27.201  1.00  0.00     0.037 A 
BRANCH  42  56
ATOM     56  C   UNL A   1      46.419  32.618  29.259  1.00  0.00     0.058 A 
ATOM     57  C   UNL A   1      46.547  33.637  28.301  1.00  0.00     0.135 A 
ATOM     58  C   UNL A   1      46.637  32.948  30.605  1.00  0.00     0.135 A 
ATOM     59  F   UNL A   1      46.354  33.368  27.001  1.00  0.00    -0.206 F 
ATOM     60  C   UNL A   1      46.880  34.939  28.666  1.00  0.00     0.059 A 
ATOM     61  C   UNL A   1      46.962  34.245  30.993  1.00  0.00     0.059 A 
ATOM     62  F   UNL A   1      46.527  32.008  31.557  1.00  0.00    -0.206 F 
ATOM     63  C   UNL A   1      47.086  35.233  30.015  1.00  0.00     0.060 A 
BRANCH  63  64
ATOM     64  S   UNL A   1      47.485  36.933  30.481  1.00  0.00     0.124 S 
ATOM     65  O   UNL A   1      46.678  37.694  29.532  1.00  0.00    -0.237 OA
ATOM     66  O   UNL A   1      47.047  36.989  31.872  1.00  0.00    -0.237 OA
ATOM     67  O   UNL A   1      48.929  37.009  30.280  1.00  0.00    -0.744 OA
ENDBRANCH  63  64
ENDBRANCH  42  56
BRANCH  43  68
ATOM     68  C   UNL A   1      43.195  23.487  27.036  1.00  0.00     0.058 A 
ATOM     69  C   UNL A   1      43.014  23.076  25.710  1.00  0.00     0.135 A 
ATOM     70  C   UNL A   1      42.984  22.548  28.057  1.00  0.00     0.135 A 
ATOM     71  F   UNL A   1      43.195  23.946  24.705  1.00  0.00    -0.206 F 
ATOM     72  C   UNL A   1      42.665  21.765  25.402  1.00  0.00     0.059 A 
ATOM     73  C   UNL A   1      42.653  21.229  27.773  1.00  0.00     0.059 A 
ATOM     74  F   UNL A   1      43.157  22.899  29.341  1.00  0.00    -0.206 F 
ATOM     75  C   UNL A   1      42.499  20.846  26.441  1.00  0.00     0.060 A 
BRANCH  75  76
ATOM     76  S   UNL A   1      42.182  19.111  26.049  1.00  0.00     0.124 S 
ATOM     77  O   UNL A   1      40.744  19.125  25.801  1.00  0.00    -0.237 OA
ATOM     78  O   UNL A   1      43.029  18.887  24.881  1.00  0.00    -0.237 OA
ATOM     79  O   UNL A   1      42.610  18.421  27.262  1.00  0.00    -0.744 OA
ENDBRANCH  75  76
ENDBRANCH  43  68
BRANCH  55  80
ATOM     80  C   UNL A   1      49.421  26.588  26.706  1.00  0.00     0.058 A 
ATOM     81  C   UNL A   1      49.814  26.810  25.377  1.00  0.00     0.135 A 
ATOM     82  C   UNL A   1      50.316  25.922  27.555  1.00  0.00     0.135 A 
ATOM     83  F   UNL A   1      48.986  27.435  24.524  1.00  0.00    -0.206 F 
ATOM     84  C   UNL A   1      51.042  26.366  24.899  1.00  0.00     0.059 A 
ATOM     85  C   UNL A   1      51.556  25.480  27.102  1.00  0.00     0.059 A 
ATOM     86  F   UNL A   1      49.987  25.688  28.835  1.00  0.00    -0.206 F 
ATOM     87  C   UNL A   1      51.904  25.693  25.768  1.00  0.00     0.060 A 
BRANCH  87  88
ATOM     88  S   UNL A   1      53.498  25.117  25.148  1.00  0.00     0.124 S 
ATOM     89  O   UNL A   1      54.423  25.775  26.065  1.00  0.00    -0.237 OA
ATOM     90  O   UNL A   1      53.393  23.667  25.287  1.00  0.00    -0.237 OA
ATOM     91  O   UNL A   1      53.519  25.607  23.773  1.00  0.00    -0.744 OA
ENDBRANCH  87  88
ENDBRANCH  55  80
ENDBRANCH  29  30
ENDBRANCH  22  24
ENDBRANCH  21  22
ENDBRANCH  20  21
ENDBRANCH   1  20
TORSDOF 19
ENDMDL
MODEL 2
REMARK VINA RESULT:     -10.0      6.414     11.879
REMARK SMILES C=CCN(CC(=O)OCCOC(=O)c1ccc(-c2c3nc(c(-c4c(F)cc(S(=O)(=O)[O-])cc4F)c4ccc([nH]4)c(-c4c(F)cc(S(=O)(=O)[O-])cc4F)c4nc(c(-c5c(F)cc(S(=O)(=O)[O-])cc5F)c5ccc2[nH]5)C=C4)C=C3)cc1)C(=O)[C@@H]1[C@H](C)[C@H](C)O[C@@H]1C
REMARK SMILES IDX 9 1 8 2 6 3 7 4 5 5 4 6 3 7 2 8 1 9 80 10 81 11 82 12 83 13
REMARK SMILES IDX 88 14 84 15 85 16 87 17 89 18 86 19 10 20 11 21 12 22 13 23
REMARK SMILES IDX 14 24 15 25 79 26 16 27 78 28 17 29 18 30 19 31 72 32 20 33
REMARK SMILES IDX 77 34 71 35 73 36 21 37 76 38 70 39 69 40 22 42 56 43 35 44
REMARK SMILES IDX 55 45 36 46 39 47 54 48 74 49 37 50 38 51 53 53 75 54 40 55
REMARK SMILES IDX 23 56 24 57 33 58 25 59 26 60 32 61 34 62 27 63 28 64 29 65
REMARK SMILES IDX 30 66 31 67 57 68 58 69 67 70 59 71 60 72 66 73 68 74 61 75
REMARK SMILES IDX 62 76 63 77 64 78 65 79 41 80 42 81 51 82 43 83 44 84 50 85
REMARK SMILES IDX 52 86 45 87 46 88 47 89 48 90 49 91
REMARK H PARENT 73 41 39 52
REMARK Flexibility Score: inf
ROOT
ATOM      1  C   UNL A   1      37.683  22.642  25.977  1.00  0.00     0.274 C 
ENDROOT
BRANCH   1   2
ATOM      2  O   UNL A   1      37.378  22.218  24.627  1.00  0.00    -0.461 OA
BRANCH   2   3
ATOM      3  C   UNL A   1      36.550  23.035  23.928  1.00  0.00     0.325 C 
ATOM      4  O   UNL A   1      36.364  22.954  22.717  1.00  0.00    -0.250 OA
BRANCH   3   5
ATOM      5  C   UNL A   1      35.731  24.005  24.784  1.00  0.00     0.242 C 
BRANCH   5   6
ATOM      6  N   UNL A   1      34.272  24.106  24.670  1.00  0.00    -0.328 N 
BRANCH   6   7
ATOM      7  C   UNL A   1      33.538  22.853  24.805  1.00  0.00     0.147 C 
BRANCH   7   8
ATOM      8  C   UNL A   1      32.722  22.939  26.070  1.00  0.00    -0.014 C 
ATOM      9  C   UNL A   1      33.101  22.420  27.247  1.00  0.00     0.006 C 
ENDBRANCH   7   8
ENDBRANCH   6   7
BRANCH   6  10
ATOM     10  C   UNL A   1      33.508  25.259  24.513  1.00  0.00     0.229 C 
ATOM     11  O   UNL A   1      32.749  25.350  23.538  1.00  0.00    -0.274 OA
BRANCH  10  12
ATOM     12  C   UNL A   1      33.632  26.450  25.468  1.00  0.00     0.113 C 
ATOM     13  C   UNL A   1      32.540  26.870  26.446  1.00  0.00     0.030 C 
ATOM     14  C   UNL A   1      34.006  27.778  24.785  1.00  0.00     0.128 C 
ATOM     15  C   UNL A   1      31.109  26.747  25.936  1.00  0.00     0.011 C 
ATOM     16  C   UNL A   1      33.013  28.273  26.852  1.00  0.00     0.119 C 
ATOM     17  O   UNL A   1      33.806  28.801  25.782  1.00  0.00    -0.374 OA
ATOM     18  C   UNL A   1      33.206  28.239  23.570  1.00  0.00     0.039 C 
ATOM     19  C   UNL A   1      31.936  29.269  27.235  1.00  0.00     0.039 C 
ENDBRANCH  10  12
ENDBRANCH   6  10
ENDBRANCH   5   6
ENDBRANCH   3   5
ENDBRANCH   2   3
ENDBRANCH   1   2
BRANCH   1  20
ATOM     20  C   UNL A   1      39.185  22.582  26.288  1.00  0.00     0.275 C 
BRANCH  20  21
ATOM     21  O   UNL A   1      39.844  23.858  26.101  1.00  0.00    -0.458 OA
BRANCH  21  22
ATOM     22  C   UNL A   1      40.748  24.126  27.050  1.00  0.00     0.338 C 
ATOM     23  O   UNL A   1      41.720  23.435  27.329  1.00  0.00    -0.246 OA
BRANCH  22  24
ATOM     24  C   UNL A   1      40.512  25.380  27.774  1.00  0.00     0.060 A 
ATOM     25  C   UNL A   1      41.579  26.269  27.947  1.00  0.00     0.016 A 
ATOM     26  C   UNL A   1      39.346  25.522  28.538  1.00  0.00     0.016 A 
ATOM     27  C   UNL A   1      41.506  27.244  28.940  1.00  0.00     0.010 A 
ATOM     28  C   UNL A   1      39.263  26.536  29.498  1.00  0.00     0.010 A 
ATOM     29  C   UNL A   1      40.356  27.381  29.739  1.00  0.00    -0.014 A 
BRANCH  29  30
ATOM     30  C   UNL A   1      40.314  28.424  30.802  1.00  0.00     0.031 A 
ATOM     31  C   UNL A   1      41.272  28.413  31.966  1.00  0.00     0.074 A 
ATOM     32  C   UNL A   1      39.431  29.434  30.685  1.00  0.00     0.049 A 
ATOM     33  N   UNL A   1      41.401  29.291  32.931  1.00  0.00    -0.248 NA
ATOM     34  C   UNL A   1      42.216  27.289  32.054  1.00  0.00     0.031 C 
ATOM     35  C   UNL A   1      38.460  29.578  29.600  1.00  0.00     0.029 A 
ATOM     36  N   UNL A   1      39.215  30.535  31.475  1.00  0.00    -0.354 N 
ATOM     37  C   UNL A   1      42.460  28.849  33.716  1.00  0.00     0.074 A 
ATOM     38  C   UNL A   1      42.913  27.600  33.141  1.00  0.00     0.031 C 
ATOM     39  C   UNL A   1      37.768  30.713  29.778  1.00  0.00     0.029 A 
ATOM     40  C   UNL A   1      38.211  31.351  31.016  1.00  0.00     0.049 A 
ATOM     41  H   UNL A   1      39.732  30.722  32.292  1.00  0.00     0.167 HD
ATOM     42  C   UNL A   1      43.018  29.440  34.802  1.00  0.00     0.037 A 
ATOM     43  C   UNL A   1      37.676  32.471  31.538  1.00  0.00     0.037 A 
ATOM     44  C   UNL A   1      42.557  30.670  35.396  1.00  0.00     0.049 A 
ATOM     45  C   UNL A   1      38.201  33.013  32.832  1.00  0.00     0.074 A 
ATOM     46  C   UNL A   1      43.094  31.364  36.468  1.00  0.00     0.029 A 
ATOM     47  N   UNL A   1      41.437  31.376  34.987  1.00  0.00    -0.354 N 
ATOM     48  N   UNL A   1      39.217  32.592  33.544  1.00  0.00    -0.248 NA
ATOM     49  C   UNL A   1      37.493  34.165  33.406  1.00  0.00     0.031 C 
ATOM     50  C   UNL A   1      42.270  32.466  36.736  1.00  0.00     0.029 A 
ATOM     51  C   UNL A   1      41.237  32.470  35.814  1.00  0.00     0.049 A 
ATOM     52  H   UNL A   1      40.866  31.135  34.223  1.00  0.00     0.167 HD
ATOM     53  C   UNL A   1      39.267  33.420  34.657  1.00  0.00     0.074 A 
ATOM     54  C   UNL A   1      38.187  34.379  34.517  1.00  0.00     0.031 C 
ATOM     55  C   UNL A   1      40.133  33.389  35.698  1.00  0.00     0.037 A 
BRANCH  42  56
ATOM     56  C   UNL A   1      44.207  28.769  35.426  1.00  0.00     0.058 A 
ATOM     57  C   UNL A   1      45.513  29.103  35.036  1.00  0.00     0.135 A 
ATOM     58  C   UNL A   1      44.047  27.846  36.471  1.00  0.00     0.135 A 
ATOM     59  F   UNL A   1      45.716  29.977  34.037  1.00  0.00    -0.206 F 
ATOM     60  C   UNL A   1      46.623  28.541  35.660  1.00  0.00     0.059 A 
ATOM     61  C   UNL A   1      45.143  27.279  37.115  1.00  0.00     0.059 A 
ATOM     62  F   UNL A   1      42.818  27.495  36.879  1.00  0.00    -0.206 F 
ATOM     63  C   UNL A   1      46.428  27.630  36.699  1.00  0.00     0.060 A 
BRANCH  63  64
ATOM     64  S   UNL A   1      47.876  26.932  37.525  1.00  0.00     0.124 S 
ATOM     65  O   UNL A   1      47.787  27.549  38.844  1.00  0.00    -0.237 OA
ATOM     66  O   UNL A   1      47.606  25.498  37.476  1.00  0.00    -0.237 OA
ATOM     67  O   UNL A   1      48.990  27.383  36.695  1.00  0.00    -0.744 OA
ENDBRANCH  63  64
ENDBRANCH  42  56
BRANCH  43  68
ATOM     68  C   UNL A   1      36.538  33.112  30.839  1.00  0.00     0.058 A 
ATOM     69  C   UNL A   1      35.221  32.922  31.274  1.00  0.00     0.135 A 
ATOM     70  C   UNL A   1      36.765  34.002  29.777  1.00  0.00     0.135 A 
ATOM     71  F   UNL A   1      34.960  32.073  32.279  1.00  0.00    -0.206 F 
ATOM     72  C   UNL A   1      34.162  33.615  30.695  1.00  0.00     0.059 A 
ATOM     73  C   UNL A   1      35.727  34.718  29.196  1.00  0.00     0.059 A 
ATOM     74  F   UNL A   1      38.014  34.220  29.338  1.00  0.00    -0.206 F 
ATOM     75  C   UNL A   1      34.428  34.521  29.665  1.00  0.00     0.060 A 
BRANCH  75  76
ATOM     76  S   UNL A   1      33.083  35.527  28.999  1.00  0.00     0.124 S 
ATOM     77  O   UNL A   1      32.375  35.911  30.215  1.00  0.00    -0.237 OA
ATOM     78  O   UNL A   1      33.797  36.598  28.310  1.00  0.00    -0.237 OA
ATOM     79  O   UNL A   1      32.381  34.592  28.124  1.00  0.00    -0.744 OA
ENDBRANCH  75  76
ENDBRANCH  43  68
BRANCH  55  80
ATOM     80  C   UNL A   1      39.923  34.398  36.788  1.00  0.00     0.058 A 
ATOM     81  C   UNL A   1      40.449  35.695  36.679  1.00  0.00     0.135 A 
ATOM     82  C   UNL A   1      39.197  34.075  37.943  1.00  0.00     0.135 A 
ATOM     83  F   UNL A   1      41.160  36.047  35.596  1.00  0.00    -0.206 F 
ATOM     84  C   UNL A   1      40.281  36.633  37.692  1.00  0.00     0.059 A 
ATOM     85  C   UNL A   1      39.005  35.002  38.964  1.00  0.00     0.059 A 
ATOM     86  F   UNL A   1      38.672  32.849  38.092  1.00  0.00    -0.206 F 
ATOM     87  C   UNL A   1      39.565  36.274  38.836  1.00  0.00     0.060 A 
BRANCH  87  88
ATOM     88  S   UNL A   1      39.347  37.492  40.151  1.00  0.00     0.124 S 
ATOM     89  O   UNL A   1      40.730  37.852  40.447  1.00  0.00    -0.237 OA
ATOM     90  O   UNL A   1      38.549  38.528  39.502  1.00  0.00    -0.237 OA
ATOM     91  O   UNL A   1      38.655  36.739  41.193  1.00  0.00    -0.744 OA
ENDBRANCH  87  88
ENDBRANCH  55  80
ENDBRANCH  29  30
ENDBRANCH  22  24
ENDBRANCH  21  22
ENDBRANCH  20  21
ENDBRANCH   1  20
TORSDOF 19
ENDMDL
MODEL 3
REMARK VINA RESULT:     -10.0      6.698     11.784
REMARK SMILES C=CCN(CC(=O)OCCOC(=O)c1ccc(-c2c3nc(c(-c4c(F)cc(S(=O)(=O)[O-])cc4F)c4ccc([nH]4)c(-c4c(F)cc(S(=O)(=O)[O-])cc4F)c4nc(c(-c5c(F)cc(S(=O)(=O)[O-])cc5F)c5ccc2[nH]5)C=C4)C=C3)cc1)C(=O)[C@@H]1[C@H](C)[C@H](C)O[C@@H]1C
REMARK SMILES IDX 9 1 8 2 6 3 7 4 5 5 4 6 3 7 2 8 1 9 80 10 81 11 82 12 83 13
REMARK SMILES IDX 88 14 84 15 85 16 87 17 89 18 86 19 10 20 11 21 12 22 13 23
REMARK SMILES IDX 14 24 15 25 79 26 16 27 78 28 17 29 18 30 19 31 72 32 20 33
REMARK SMILES IDX 77 34 71 35 73 36 21 37 76 38 70 39 69 40 22 42 56 43 35 44
REMARK SMILES IDX 55 45 36 46 39 47 54 48 74 49 37 50 38 51 53 53 75 54 40 55
REMARK SMILES IDX 23 56 24 57 33 58 25 59 26 60 32 61 34 62 27 63 28 64 29 65
REMARK SMILES IDX 30 66 31 67 57 68 58 69 67 70 59 71 60 72 66 73 68 74 61 75
REMARK SMILES IDX 62 76 63 77 64 78 65 79 41 80 42 81 51 82 43 83 44 84 50 85
REMARK SMILES IDX 52 86 45 87 46 88 47 89 48 90 49 91
REMARK H PARENT 73 41 39 52
REMARK Flexibility Score: inf
ROOT
ATOM      1  C   UNL A   1      38.178  22.459  26.020  1.00  0.00     0.274 C 
ENDROOT
BRANCH   1   2
ATOM      2  O   UNL A   1      36.740  22.373  25.875  1.00  0.00    -0.461 OA
BRANCH   2   3
ATOM      3  C   UNL A   1      36.297  21.883  24.690  1.00  0.00     0.325 C 
ATOM      4  O   UNL A   1      36.668  22.294  23.593  1.00  0.00    -0.250 OA
BRANCH   3   5
ATOM      5  C   UNL A   1      35.384  20.659  24.801  1.00  0.00     0.242 C 
BRANCH   5   6
ATOM      6  N   UNL A   1      33.923  20.767  24.723  1.00  0.00    -0.328 N 
BRANCH   6   7
ATOM      7  C   UNL A   1      33.177  19.607  25.197  1.00  0.00     0.147 C 
BRANCH   7   8
ATOM      8  C   UNL A   1      32.671  18.866  23.985  1.00  0.00    -0.014 C 
ATOM      9  C   UNL A   1      33.235  17.754  23.493  1.00  0.00     0.006 C 
ENDBRANCH   7   8
ENDBRANCH   6   7
BRANCH   6  10
ATOM     10  C   UNL A   1      33.170  21.864  24.313  1.00  0.00     0.229 C 
ATOM     11  O   UNL A   1      33.305  22.289  23.158  1.00  0.00    -0.274 OA
BRANCH  10  12
ATOM     12  C   UNL A   1      32.236  22.609  25.272  1.00  0.00     0.113 C 
ATOM     13  C   UNL A   1      31.010  23.396  24.820  1.00  0.00     0.030 C 
ATOM     14  C   UNL A   1      32.946  23.597  26.214  1.00  0.00     0.128 C 
ATOM     15  C   UNL A   1      31.163  24.173  23.518  1.00  0.00     0.011 C 
ATOM     16  C   UNL A   1      30.686  24.211  26.080  1.00  0.00     0.119 C 
ATOM     17  O   UNL A   1      31.898  24.378  26.825  1.00  0.00    -0.374 OA
ATOM     18  C   UNL A   1      33.917  24.618  25.626  1.00  0.00     0.039 C 
ATOM     19  C   UNL A   1      30.022  25.558  25.866  1.00  0.00     0.039 C 
ENDBRANCH  10  12
ENDBRANCH   6  10
ENDBRANCH   5   6
ENDBRANCH   3   5
ENDBRANCH   2   3
ENDBRANCH   1   2
BRANCH   1  20
ATOM     20  C   UNL A   1      38.649  23.872  26.388  1.00  0.00     0.275 C 
BRANCH  20  21
ATOM     21  O   UNL A   1      40.085  23.956  26.554  1.00  0.00    -0.458 OA
BRANCH  21  22
ATOM     22  C   UNL A   1      40.555  25.204  26.452  1.00  0.00     0.338 C 
ATOM     23  O   UNL A   1      40.833  25.781  25.407  1.00  0.00    -0.246 OA
BRANCH  22  24
ATOM     24  C   UNL A   1      40.715  25.897  27.734  1.00  0.00     0.060 A 
ATOM     25  C   UNL A   1      39.669  25.843  28.663  1.00  0.00     0.016 A 
ATOM     26  C   UNL A   1      41.740  26.841  27.882  1.00  0.00     0.016 A 
ATOM     27  C   UNL A   1      39.611  26.787  29.688  1.00  0.00     0.010 A 
ATOM     28  C   UNL A   1      41.700  27.751  28.943  1.00  0.00     0.010 A 
ATOM     29  C   UNL A   1      40.615  27.762  29.832  1.00  0.00    -0.014 A 
BRANCH  29  30
ATOM     30  C   UNL A   1      40.518  28.766  30.929  1.00  0.00     0.031 A 
ATOM     31  C   UNL A   1      39.544  29.916  30.871  1.00  0.00     0.074 A 
ATOM     32  C   UNL A   1      41.283  28.604  32.026  1.00  0.00     0.049 A 
ATOM     33  N   UNL A   1      39.298  30.828  31.780  1.00  0.00    -0.248 NA
ATOM     34  C   UNL A   1      38.732  30.053  29.653  1.00  0.00     0.031 C 
ATOM     35  C   UNL A   1      42.252  27.526  32.221  1.00  0.00     0.029 A 
ATOM     36  N   UNL A   1      41.357  29.335  33.185  1.00  0.00    -0.354 N 
ATOM     37  C   UNL A   1      38.280  31.623  31.263  1.00  0.00     0.074 A 
ATOM     38  C   UNL A   1      37.983  31.112  29.942  1.00  0.00     0.031 C 
ATOM     39  C   UNL A   1      42.808  27.650  33.435  1.00  0.00     0.029 A 
ATOM     40  C   UNL A   1      42.272  28.844  34.084  1.00  0.00     0.049 A 
ATOM     41  H   UNL A   1      40.807  30.133  33.356  1.00  0.00     0.167 HD
ATOM     42  C   UNL A   1      37.638  32.666  31.844  1.00  0.00     0.037 A 
ATOM     43  C   UNL A   1      42.666  29.311  35.284  1.00  0.00     0.037 A 
ATOM     44  C   UNL A   1      37.945  33.197  33.149  1.00  0.00     0.049 A 
ATOM     45  C   UNL A   1      42.058  30.565  35.831  1.00  0.00     0.074 A 
ATOM     46  C   UNL A   1      37.312  34.221  33.834  1.00  0.00     0.029 A 
ATOM     47  N   UNL A   1      38.986  32.765  33.955  1.00  0.00    -0.354 N 
ATOM     48  N   UNL A   1      41.082  31.286  35.337  1.00  0.00    -0.248 NA
ATOM     49  C   UNL A   1      42.619  31.083  37.086  1.00  0.00     0.031 C 
ATOM     50  C   UNL A   1      38.001  34.438  35.036  1.00  0.00     0.029 A 
ATOM     51  C   UNL A   1      39.044  33.532  35.108  1.00  0.00     0.049 A 
ATOM     52  H   UNL A   1      39.595  32.022  33.740  1.00  0.00     0.167 HD
ATOM     53  C   UNL A   1      40.917  32.350  36.213  1.00  0.00     0.074 A 
ATOM     54  C   UNL A   1      41.883  32.171  37.279  1.00  0.00     0.031 C 
ATOM     55  C   UNL A   1      40.039  33.379  36.138  1.00  0.00     0.037 A 
BRANCH  42  56
ATOM     56  C   UNL A   1      36.521  33.311  31.077  1.00  0.00     0.058 A 
ATOM     57  C   UNL A   1      35.183  33.138  31.466  1.00  0.00     0.135 A 
ATOM     58  C   UNL A   1      36.788  34.165  29.997  1.00  0.00     0.135 A 
ATOM     59  F   UNL A   1      34.877  32.326  32.490  1.00  0.00    -0.206 F 
ATOM     60  C   UNL A   1      34.145  33.791  30.806  1.00  0.00     0.059 A 
ATOM     61  C   UNL A   1      35.767  34.835  29.329  1.00  0.00     0.059 A 
ATOM     62  F   UNL A   1      38.051  34.361  29.587  1.00  0.00    -0.206 F 
ATOM     63  C   UNL A   1      34.447  34.638  29.738  1.00  0.00     0.060 A 
BRANCH  63  64
ATOM     64  S   UNL A   1      33.096  35.506  28.910  1.00  0.00     0.124 S 
ATOM     65  O   UNL A   1      32.478  34.426  28.146  1.00  0.00    -0.237 OA
ATOM     66  O   UNL A   1      32.314  36.015  30.032  1.00  0.00    -0.237 OA
ATOM     67  O   UNL A   1      33.781  36.523  28.118  1.00  0.00    -0.744 OA
ENDBRANCH  63  64
ENDBRANCH  42  56
BRANCH  43  68
ATOM     68  C   UNL A   1      43.738  28.592  36.012  1.00  0.00     0.058 A 
ATOM     69  C   UNL A   1      43.448  27.487  36.822  1.00  0.00     0.135 A 
ATOM     70  C   UNL A   1      45.083  28.949  35.834  1.00  0.00     0.135 A 
ATOM     71  F   UNL A   1      42.175  27.118  37.026  1.00  0.00    -0.206 F 
ATOM     72  C   UNL A   1      44.462  26.738  37.411  1.00  0.00     0.059 A 
ATOM     73  C   UNL A   1      46.113  28.207  36.397  1.00  0.00     0.059 A 
ATOM     74  F   UNL A   1      45.403  29.996  35.057  1.00  0.00    -0.206 F 
ATOM     75  C   UNL A   1      45.792  27.100  37.182  1.00  0.00     0.060 A 
BRANCH  75  76
ATOM     76  S   UNL A   1      47.119  26.057  37.828  1.00  0.00     0.124 S 
ATOM     77  O   UNL A   1      47.807  26.980  38.722  1.00  0.00    -0.237 OA
ATOM     78  O   UNL A   1      46.387  24.970  38.471  1.00  0.00    -0.237 OA
ATOM     79  O   UNL A   1      47.849  25.678  36.622  1.00  0.00    -0.744 OA
ENDBRANCH  75  76
ENDBRANCH  43  68
BRANCH  55  80
ATOM     80  C   UNL A   1      40.112  34.413  37.223  1.00  0.00     0.058 A 
ATOM     81  C   UNL A   1      39.347  34.287  38.392  1.00  0.00     0.135 A 
ATOM     82  C   UNL A   1      40.946  35.534  37.098  1.00  0.00     0.135 A 
ATOM     83  F   UNL A   1      38.526  33.236  38.551  1.00  0.00    -0.206 F 
ATOM     84  C   UNL A   1      39.388  35.250  39.394  1.00  0.00     0.059 A 
ATOM     85  C   UNL A   1      41.013  36.504  38.095  1.00  0.00     0.059 A 
ATOM     86  F   UNL A   1      41.699  35.699  36.000  1.00  0.00    -0.206 F 
ATOM     87  C   UNL A   1      40.218  36.361  39.233  1.00  0.00     0.060 A 
BRANCH  87  88
ATOM     88  S   UNL A   1      40.271  37.612  40.534  1.00  0.00     0.124 S 
ATOM     89  O   UNL A   1      38.854  37.911  40.709  1.00  0.00    -0.237 OA
ATOM     90  O   UNL A   1      40.908  36.901  41.638  1.00  0.00    -0.237 OA
ATOM     91  O   UNL A   1      41.072  38.678  39.940  1.00  0.00    -0.744 OA
ENDBRANCH  87  88
ENDBRANCH  55  80
ENDBRANCH  29  30
ENDBRANCH  22  24
ENDBRANCH  21  22
ENDBRANCH  20  21
ENDBRANCH   1  20
TORSDOF 19
ENDMDL
