MODEL 1
REMARK VINA RESULT:     -11.8      0.000      0.000
REMARK SMILES O=C(CCN/C(=[NH+]\S(=O)(=O)c1ccccc1)c1ccccc1)OCCOC(=O)c1ccc(-c2c3nc(c(-c4c(F)cc(S(=O)(=O)[O-])cc4F)c4ccc([nH]4)c(-c4c(F)cc(S(=O)(=O)[O-])cc4F)c4nc(c(-c5c(F)cc(S(=O)(=O)[O-])cc5F)c5ccc2[nH]5)C=C4)C=C3)cc1
REMARK SMILES IDX 24 1 23 2 2 3 1 4 3 5 4 6 5 7 6 8 7 10 17 12 18 13 22 14
REMARK SMILES IDX 19 15 21 16 20 17 8 18 9 19 10 20 11 21 12 22 16 23 13 24
REMARK SMILES IDX 15 25 14 26 25 27 26 28 27 29 28 30 29 31 30 32 94 33 31 34
REMARK SMILES IDX 93 35 32 36 33 37 34 38 87 39 35 40 92 41 86 42 88 43 36 44
REMARK SMILES IDX 91 45 85 46 84 47 37 49 71 50 50 51 70 52 51 53 54 54 69 55
REMARK SMILES IDX 89 56 52 57 53 58 68 60 90 61 55 62 38 63 39 64 48 65 40 66
REMARK SMILES IDX 41 67 47 68 49 69 42 70 43 71 44 72 45 73 46 74 72 75 73 76
REMARK SMILES IDX 82 77 74 78 75 79 81 80 83 81 76 82 77 83 78 84 79 85 80 86
REMARK SMILES IDX 56 87 57 88 66 89 58 90 59 91 65 92 67 93 60 94 61 95 62 96
REMARK SMILES IDX 63 97 64 98
REMARK H PARENT 5 9 7 11 88 48 54 59
REMARK Flexibility Score: inf
ROOT
ATOM      1  C   UNL A   1      39.410  21.564  26.131  1.00  0.00     0.274 C 
ENDROOT
BRANCH   1   2
ATOM      2  O   UNL A   1      38.148  22.227  25.934  1.00  0.00    -0.462 OA
BRANCH   2   3
ATOM      3  C   UNL A   1      37.228  21.812  25.033  1.00  0.00     0.309 C 
ATOM      4  O   UNL A   1      37.004  20.611  24.889  1.00  0.00    -0.252 OA
BRANCH   3   5
ATOM      5  C   UNL A   1      36.533  22.829  24.161  1.00  0.00     0.168 C 
BRANCH   5   6
ATOM      6  C   UNL A   1      35.141  22.358  23.771  1.00  0.00     0.245 C 
BRANCH   6   7
ATOM      7  N   UNL A   1      34.278  22.172  24.929  1.00  0.00    -0.273 N 
ATOM      8  C   UNL A   1      33.272  21.250  25.152  1.00  0.00     0.290 C 
ATOM      9  H   UNL A   1      34.437  22.801  25.669  1.00  0.00     0.305 HD
ATOM     10  N   UNL A   1      32.284  21.411  25.987  1.00  0.00    -0.162 N 
ATOM     11  H   UNL A   1      31.713  20.640  26.208  1.00  0.00     0.327 HD
BRANCH   8  12
ATOM     12  C   UNL A   1      33.251  19.956  24.381  1.00  0.00     0.064 A 
ATOM     13  C   UNL A   1      34.106  18.920  24.781  1.00  0.00     0.016 A 
ATOM     14  C   UNL A   1      32.385  19.755  23.302  1.00  0.00     0.016 A 
ATOM     15  C   UNL A   1      34.057  17.680  24.139  1.00  0.00     0.001 A 
ATOM     16  C   UNL A   1      32.324  18.507  22.675  1.00  0.00     0.001 A 
ATOM     17  C   UNL A   1      33.154  17.469  23.098  1.00  0.00     0.000 A 
ENDBRANCH   8  12
BRANCH  10  18
ATOM     18  S   UNL A   1      31.972  22.845  26.672  1.00  0.00     0.328 S 
ATOM     19  O   UNL A   1      30.815  22.755  27.545  1.00  0.00    -0.179 OA
ATOM     20  O   UNL A   1      33.231  23.352  27.194  1.00  0.00    -0.179 OA
BRANCH  18  21
ATOM     21  C   UNL A   1      31.517  23.989  25.396  1.00  0.00     0.109 A 
ATOM     22  C   UNL A   1      31.744  25.352  25.633  1.00  0.00     0.024 A 
ATOM     23  C   UNL A   1      30.935  23.556  24.207  1.00  0.00     0.024 A 
ATOM     24  C   UNL A   1      31.371  26.294  24.678  1.00  0.00     0.001 A 
ATOM     25  C   UNL A   1      30.561  24.507  23.255  1.00  0.00     0.001 A 
ATOM     26  C   UNL A   1      30.776  25.870  23.491  1.00  0.00     0.000 A 
ENDBRANCH  18  21
ENDBRANCH  10  18
ENDBRANCH   6   7
ENDBRANCH   5   6
ENDBRANCH   3   5
ENDBRANCH   2   3
ENDBRANCH   1   2
BRANCH   1  27
ATOM     27  C   UNL A   1      40.439  22.447  26.828  1.00  0.00     0.275 C 
BRANCH  27  28
ATOM     28  O   UNL A   1      40.100  23.831  26.648  1.00  0.00    -0.458 OA
BRANCH  28  29
ATOM     29  C   UNL A   1      41.169  24.660  26.542  1.00  0.00     0.338 C 
ATOM     30  O   UNL A   1      41.958  24.724  25.619  1.00  0.00    -0.246 OA
BRANCH  29  31
ATOM     31  C   UNL A   1      41.123  25.633  27.651  1.00  0.00     0.060 A 
ATOM     32  C   UNL A   1      39.960  25.675  28.430  1.00  0.00     0.016 A 
ATOM     33  C   UNL A   1      42.201  26.476  27.937  1.00  0.00     0.016 A 
ATOM     34  C   UNL A   1      39.865  26.579  29.488  1.00  0.00     0.010 A 
ATOM     35  C   UNL A   1      42.100  27.386  28.990  1.00  0.00     0.010 A 
ATOM     36  C   UNL A   1      40.926  27.453  29.759  1.00  0.00    -0.014 A 
BRANCH  36  37
ATOM     37  C   UNL A   1      40.782  28.502  30.794  1.00  0.00     0.031 A 
ATOM     38  C   UNL A   1      41.606  28.410  32.047  1.00  0.00     0.074 A 
ATOM     39  C   UNL A   1      39.905  29.508  30.625  1.00  0.00     0.049 A 
ATOM     40  N   UNL A   1      41.599  29.188  33.096  1.00  0.00    -0.248 NA
ATOM     41  C   UNL A   1      42.561  27.291  32.130  1.00  0.00     0.031 C 
ATOM     42  C   UNL A   1      39.059  29.702  29.448  1.00  0.00     0.029 A 
ATOM     43  N   UNL A   1      39.568  30.544  31.458  1.00  0.00    -0.354 N 
ATOM     44  C   UNL A   1      42.546  28.658  33.965  1.00  0.00     0.074 A 
ATOM     45  C   UNL A   1      43.093  27.480  33.330  1.00  0.00     0.031 C 
ATOM     46  C   UNL A   1      38.275  30.777  29.649  1.00  0.00     0.029 A 
ATOM     47  C   UNL A   1      38.551  31.331  30.974  1.00  0.00     0.049 A 
ATOM     48  H   UNL A   1      40.011  30.709  32.322  1.00  0.00     0.167 HD
ATOM     49  C   UNL A   1      42.926  29.121  35.178  1.00  0.00     0.037 A 
ATOM     50  C   UNL A   1      37.899  32.361  31.547  1.00  0.00     0.037 A 
ATOM     51  C   UNL A   1      42.382  30.296  35.805  1.00  0.00     0.049 A 
ATOM     52  C   UNL A   1      38.298  32.814  32.928  1.00  0.00     0.074 A 
ATOM     53  C   UNL A   1      42.754  30.881  37.002  1.00  0.00     0.029 A 
ATOM     54  N   UNL A   1      41.341  31.054  35.294  1.00  0.00    -0.354 N 
ATOM     55  N   UNL A   1      39.247  32.350  33.704  1.00  0.00    -0.248 NA
ATOM     56  C   UNL A   1      37.534  33.926  33.512  1.00  0.00     0.031 C 
ATOM     57  C   UNL A   1      41.905  31.966  37.241  1.00  0.00     0.029 A 
ATOM     58  C   UNL A   1      41.029  32.078  36.173  1.00  0.00     0.049 A 
ATOM     59  H   UNL A   1      40.890  30.890  34.434  1.00  0.00     0.167 HD
ATOM     60  C   UNL A   1      39.205  33.122  34.861  1.00  0.00     0.074 A 
ATOM     61  C   UNL A   1      38.146  34.094  34.677  1.00  0.00     0.031 C 
ATOM     62  C   UNL A   1      39.971  33.035  35.976  1.00  0.00     0.037 A 
BRANCH  49  63
ATOM     63  C   UNL A   1      43.978  28.353  35.923  1.00  0.00     0.058 A 
ATOM     64  C   UNL A   1      45.340  28.657  35.785  1.00  0.00     0.135 A 
ATOM     65  C   UNL A   1      43.613  27.356  36.841  1.00  0.00     0.135 A 
ATOM     66  F   UNL A   1      45.740  29.592  34.908  1.00  0.00    -0.206 F 
ATOM     67  C   UNL A   1      46.308  27.997  36.535  1.00  0.00     0.059 A 
ATOM     68  C   UNL A   1      44.563  26.694  37.611  1.00  0.00     0.059 A 
ATOM     69  F   UNL A   1      42.322  27.025  37.000  1.00  0.00    -0.206 F 
ATOM     70  C   UNL A   1      45.909  27.019  37.449  1.00  0.00     0.060 A 
BRANCH  70  71
ATOM     71  S   UNL A   1      47.173  26.199  38.443  1.00  0.00     0.124 S 
ATOM     72  O   UNL A   1      48.212  27.224  38.495  1.00  0.00    -0.237 OA
ATOM     73  O   UNL A   1      46.470  25.945  39.696  1.00  0.00    -0.237 OA
ATOM     74  O   UNL A   1      47.503  25.012  37.661  1.00  0.00    -0.744 OA
ENDBRANCH  70  71
ENDBRANCH  49  63
BRANCH  50  75
ATOM     75  C   UNL A   1      36.766  33.016  30.843  1.00  0.00     0.058 A 
ATOM     76  C   UNL A   1      36.986  33.933  29.806  1.00  0.00     0.135 A 
ATOM     77  C   UNL A   1      35.438  32.764  31.225  1.00  0.00     0.135 A 
ATOM     78  F   UNL A   1      38.238  34.214  29.415  1.00  0.00    -0.206 F 
ATOM     79  C   UNL A   1      35.932  34.600  29.188  1.00  0.00     0.059 A 
ATOM     80  C   UNL A   1      34.368  33.402  30.609  1.00  0.00     0.059 A 
ATOM     81  F   UNL A   1      35.175  31.884  32.203  1.00  0.00    -0.206 F 
ATOM     82  C   UNL A   1      34.626  34.331  29.602  1.00  0.00     0.060 A 
BRANCH  82  83
ATOM     83  S   UNL A   1      33.258  35.185  28.789  1.00  0.00     0.124 S 
ATOM     84  O   UNL A   1      32.689  34.116  27.977  1.00  0.00    -0.237 OA
ATOM     85  O   UNL A   1      32.452  35.627  29.922  1.00  0.00    -0.237 OA
ATOM     86  O   UNL A   1      33.927  36.254  28.052  1.00  0.00    -0.744 OA
ENDBRANCH  82  83
ENDBRANCH  50  75
BRANCH  62  87
ATOM     87  C   UNL A   1      39.701  34.013  37.083  1.00  0.00     0.058 A 
ATOM     88  C   UNL A   1      38.925  33.658  38.198  1.00  0.00     0.135 A 
ATOM     89  C   UNL A   1      40.279  35.293  37.065  1.00  0.00     0.135 A 
ATOM     90  F   UNL A   1      38.344  32.449  38.257  1.00  0.00    -0.206 F 
ATOM     91  C   UNL A   1      38.721  34.541  39.251  1.00  0.00     0.059 A 
ATOM     92  C   UNL A   1      40.107  36.184  38.119  1.00  0.00     0.059 A 
ATOM     93  F   UNL A   1      41.037  35.677  36.027  1.00  0.00    -0.206 F 
ATOM     94  C   UNL A   1      39.320  35.802  39.205  1.00  0.00     0.060 A 
BRANCH  94  95
ATOM     95  S   UNL A   1      39.090  36.923  40.603  1.00  0.00     0.124 S 
ATOM     96  O   UNL A   1      38.355  36.078  41.538  1.00  0.00    -0.237 OA
ATOM     97  O   UNL A   1      40.463  37.241  40.980  1.00  0.00    -0.237 OA
ATOM     98  O   UNL A   1      38.332  38.030  40.027  1.00  0.00    -0.744 OA
ENDBRANCH  94  95
ENDBRANCH  62  87
ENDBRANCH  36  37
ENDBRANCH  29  31
ENDBRANCH  28  29
ENDBRANCH  27  28
ENDBRANCH   1  27
TORSDOF 19
ENDMDL
MODEL 2
REMARK VINA RESULT:     -11.6      0.832      2.033
REMARK SMILES O=C(CCN/C(=[NH+]\S(=O)(=O)c1ccccc1)c1ccccc1)OCCOC(=O)c1ccc(-c2c3nc(c(-c4c(F)cc(S(=O)(=O)[O-])cc4F)c4ccc([nH]4)c(-c4c(F)cc(S(=O)(=O)[O-])cc4F)c4nc(c(-c5c(F)cc(S(=O)(=O)[O-])cc5F)c5ccc2[nH]5)C=C4)C=C3)cc1
REMARK SMILES IDX 24 1 23 2 2 3 1 4 3 5 4 6 5 7 6 8 7 10 17 12 18 13 22 14
REMARK SMILES IDX 19 15 21 16 20 17 8 18 9 19 10 20 11 21 12 22 16 23 13 24
REMARK SMILES IDX 15 25 14 26 25 27 26 28 27 29 28 30 29 31 30 32 94 33 31 34
REMARK SMILES IDX 93 35 32 36 33 37 34 38 87 39 35 40 92 41 86 42 88 43 36 44
REMARK SMILES IDX 91 45 85 46 84 47 37 49 71 50 50 51 70 52 51 53 54 54 69 55
REMARK SMILES IDX 89 56 52 57 53 58 68 60 90 61 55 62 38 63 39 64 48 65 40 66
REMARK SMILES IDX 41 67 47 68 49 69 42 70 43 71 44 72 45 73 46 74 72 75 73 76
REMARK SMILES IDX 82 77 74 78 75 79 81 80 83 81 76 82 77 83 78 84 79 85 80 86
REMARK SMILES IDX 56 87 57 88 66 89 58 90 59 91 65 92 67 93 60 94 61 95 62 96
REMARK SMILES IDX 63 97 64 98
REMARK H PARENT 5 9 7 11 88 48 54 59
REMARK Flexibility Score: inf
ROOT
ATOM      1  C   UNL A   1      39.881  21.857  26.772  1.00  0.00     0.274 C 
ENDROOT
BRANCH   1   2
ATOM      2  O   UNL A   1      38.786  21.810  25.840  1.00  0.00    -0.462 OA
BRANCH   2   3
ATOM      3  C   UNL A   1      37.917  22.833  25.670  1.00  0.00     0.309 C 
ATOM      4  O   UNL A   1      37.825  23.712  26.525  1.00  0.00    -0.252 OA
BRANCH   3   5
ATOM      5  C   UNL A   1      37.016  22.847  24.460  1.00  0.00     0.168 C 
BRANCH   5   6
ATOM      6  C   UNL A   1      36.169  21.587  24.390  1.00  0.00     0.245 C 
BRANCH   6   7
ATOM      7  N   UNL A   1      35.182  21.527  25.459  1.00  0.00    -0.273 N 
ATOM      8  C   UNL A   1      33.971  20.861  25.519  1.00  0.00     0.290 C 
ATOM      9  H   UNL A   1      35.414  22.041  26.266  1.00  0.00     0.305 HD
ATOM     10  N   UNL A   1      32.975  21.192  26.292  1.00  0.00    -0.162 N 
ATOM     11  H   UNL A   1      32.221  20.568  26.395  1.00  0.00     0.327 HD
BRANCH   8  12
ATOM     12  C   UNL A   1      33.719  19.673  24.627  1.00  0.00     0.064 A 
ATOM     13  C   UNL A   1      34.603  18.586  24.689  1.00  0.00     0.016 A 
ATOM     14  C   UNL A   1      32.619  19.617  23.767  1.00  0.00     0.016 A 
ATOM     15  C   UNL A   1      34.356  17.436  23.934  1.00  0.00     0.001 A 
ATOM     16  C   UNL A   1      32.363  18.457  23.029  1.00  0.00     0.001 A 
ATOM     17  C   UNL A   1      33.228  17.366  23.118  1.00  0.00     0.000 A 
ENDBRANCH   8  12
BRANCH  10  18
ATOM     18  S   UNL A   1      32.945  22.602  27.087  1.00  0.00     0.328 S 
ATOM     19  O   UNL A   1      31.687  22.766  27.793  1.00  0.00    -0.179 OA
ATOM     20  O   UNL A   1      34.200  22.709  27.814  1.00  0.00    -0.179 OA
BRANCH  18  21
ATOM     21  C   UNL A   1      32.998  23.917  25.899  1.00  0.00     0.109 A 
ATOM     22  C   UNL A   1      32.024  23.921  24.889  1.00  0.00     0.024 A 
ATOM     23  C   UNL A   1      33.981  24.903  25.949  1.00  0.00     0.024 A 
ATOM     24  C   UNL A   1      32.043  24.910  23.911  1.00  0.00     0.001 A 
ATOM     25  C   UNL A   1      33.994  25.891  24.963  1.00  0.00     0.001 A 
ATOM     26  C   UNL A   1      33.031  25.893  23.946  1.00  0.00     0.000 A 
ENDBRANCH  18  21
ENDBRANCH  10  18
ENDBRANCH   6   7
ENDBRANCH   5   6
ENDBRANCH   3   5
ENDBRANCH   2   3
ENDBRANCH   1   2
BRANCH   1  27
ATOM     27  C   UNL A   1      41.162  22.409  26.152  1.00  0.00     0.275 C 
BRANCH  27  28
ATOM     28  O   UNL A   1      41.791  23.323  27.062  1.00  0.00    -0.458 OA
BRANCH  28  29
ATOM     29  C   UNL A   1      42.059  24.544  26.532  1.00  0.00     0.338 C 
ATOM     30  O   UNL A   1      42.328  24.798  25.374  1.00  0.00    -0.246 OA
BRANCH  29  31
ATOM     31  C   UNL A   1      41.780  25.572  27.554  1.00  0.00     0.060 A 
ATOM     32  C   UNL A   1      42.703  26.616  27.693  1.00  0.00     0.016 A 
ATOM     33  C   UNL A   1      40.633  25.528  28.352  1.00  0.00     0.016 A 
ATOM     34  C   UNL A   1      42.489  27.611  28.647  1.00  0.00     0.010 A 
ATOM     35  C   UNL A   1      40.425  26.520  29.311  1.00  0.00     0.010 A 
ATOM     36  C   UNL A   1      41.361  27.556  29.475  1.00  0.00    -0.014 A 
BRANCH  36  37
ATOM     37  C   UNL A   1      41.194  28.533  30.574  1.00  0.00     0.031 A 
ATOM     38  C   UNL A   1      42.035  28.392  31.811  1.00  0.00     0.074 A 
ATOM     39  C   UNL A   1      40.282  29.517  30.476  1.00  0.00     0.049 A 
ATOM     40  N   UNL A   1      42.015  29.103  32.906  1.00  0.00    -0.248 NA
ATOM     41  C   UNL A   1      43.028  27.304  31.815  1.00  0.00     0.031 C 
ATOM     42  C   UNL A   1      39.415  29.754  29.321  1.00  0.00     0.029 A 
ATOM     43  N   UNL A   1      39.920  30.488  31.375  1.00  0.00    -0.354 N 
ATOM     44  C   UNL A   1      42.988  28.554  33.731  1.00  0.00     0.074 A 
ATOM     45  C   UNL A   1      43.568  27.436  33.019  1.00  0.00     0.031 C 
ATOM     46  C   UNL A   1      38.598  30.787  29.596  1.00  0.00     0.029 A 
ATOM     47  C   UNL A   1      38.871  31.268  30.949  1.00  0.00     0.049 A 
ATOM     48  H   UNL A   1      40.368  30.614  32.242  1.00  0.00     0.167 HD
ATOM     49  C   UNL A   1      43.367  28.954  34.967  1.00  0.00     0.037 A 
ATOM     50  C   UNL A   1      38.193  32.238  31.592  1.00  0.00     0.037 A 
ATOM     51  C   UNL A   1      42.792  30.069  35.670  1.00  0.00     0.049 A 
ATOM     52  C   UNL A   1      38.592  32.618  32.994  1.00  0.00     0.074 A 
ATOM     53  C   UNL A   1      43.158  30.592  36.898  1.00  0.00     0.029 A 
ATOM     54  N   UNL A   1      41.720  30.822  35.217  1.00  0.00    -0.354 N 
ATOM     55  N   UNL A   1      39.565  32.141  33.731  1.00  0.00    -0.248 NA
ATOM     56  C   UNL A   1      37.798  33.665  33.654  1.00  0.00     0.031 C 
ATOM     57  C   UNL A   1      42.275  31.631  37.211  1.00  0.00     0.029 A 
ATOM     58  C   UNL A   1      41.384  31.778  36.161  1.00  0.00     0.049 A 
ATOM     59  H   UNL A   1      41.264  30.695  34.354  1.00  0.00     0.167 HD
ATOM     60  C   UNL A   1      39.511  32.838  34.933  1.00  0.00     0.074 A 
ATOM     61  C   UNL A   1      38.418  33.782  34.821  1.00  0.00     0.031 C 
ATOM     62  C   UNL A   1      40.292  32.708  36.034  1.00  0.00     0.037 A 
BRANCH  49  63
ATOM     63  C   UNL A   1      44.453  28.178  35.653  1.00  0.00     0.058 A 
ATOM     64  C   UNL A   1      44.160  27.070  36.461  1.00  0.00     0.135 A 
ATOM     65  C   UNL A   1      45.801  28.501  35.438  1.00  0.00     0.135 A 
ATOM     66  F   UNL A   1      42.884  26.732  36.710  1.00  0.00    -0.206 F 
ATOM     67  C   UNL A   1      45.170  26.305  37.034  1.00  0.00     0.059 A 
ATOM     68  C   UNL A   1      46.828  27.741  35.988  1.00  0.00     0.059 A 
ATOM     69  F   UNL A   1      46.130  29.558  34.679  1.00  0.00    -0.206 F 
ATOM     70  C   UNL A   1      46.502  26.646  36.788  1.00  0.00     0.060 A 
BRANCH  70  71
ATOM     71  S   UNL A   1      47.803  25.619  37.505  1.00  0.00     0.124 S 
ATOM     72  O   UNL A   1      47.095  24.360  37.719  1.00  0.00    -0.237 OA
ATOM     73  O   UNL A   1      48.811  25.609  36.450  1.00  0.00    -0.237 OA
ATOM     74  O   UNL A   1      48.176  26.342  38.717  1.00  0.00    -0.744 OA
ENDBRANCH  70  71
ENDBRANCH  49  63
BRANCH  50  75
ATOM     75  C   UNL A   1      37.029  32.895  30.941  1.00  0.00     0.058 A 
ATOM     76  C   UNL A   1      35.714  32.525  31.257  1.00  0.00     0.135 A 
ATOM     77  C   UNL A   1      37.215  33.881  29.958  1.00  0.00     0.135 A 
ATOM     78  F   UNL A   1      35.488  31.580  32.182  1.00  0.00    -0.206 F 
ATOM     79  C   UNL A   1      34.622  33.089  30.604  1.00  0.00     0.059 A 
ATOM     80  C   UNL A   1      36.140  34.473  29.306  1.00  0.00     0.059 A 
ATOM     81  F   UNL A   1      38.454  34.279  29.630  1.00  0.00    -0.206 F 
ATOM     82  C   UNL A   1      34.847  34.058  29.625  1.00  0.00     0.060 A 
BRANCH  82  83
ATOM     83  S   UNL A   1      33.429  34.801  28.788  1.00  0.00     0.124 S 
ATOM     84  O   UNL A   1      32.507  35.003  29.899  1.00  0.00    -0.237 OA
ATOM     85  O   UNL A   1      34.009  36.007  28.208  1.00  0.00    -0.237 OA
ATOM     86  O   UNL A   1      33.043  33.776  27.822  1.00  0.00    -0.744 OA
ENDBRANCH  82  83
ENDBRANCH  50  75
BRANCH  62  87
ATOM     87  C   UNL A   1      40.003  33.607  37.202  1.00  0.00     0.058 A 
ATOM     88  C   UNL A   1      40.659  34.839  37.355  1.00  0.00     0.135 A 
ATOM     89  C   UNL A   1      39.014  33.268  38.139  1.00  0.00     0.135 A 
ATOM     90  F   UNL A   1      41.618  35.205  36.490  1.00  0.00    -0.206 F 
ATOM     91  C   UNL A   1      40.352  35.698  38.403  1.00  0.00     0.059 A 
ATOM     92  C   UNL A   1      38.675  34.123  39.182  1.00  0.00     0.059 A 
ATOM     93  F   UNL A   1      38.352  32.105  38.032  1.00  0.00    -0.206 F 
ATOM     94  C   UNL A   1      39.355  35.333  39.311  1.00  0.00     0.060 A 
BRANCH  94  95
ATOM     95  S   UNL A   1      38.929  36.481  40.639  1.00  0.00     0.124 S 
ATOM     96  O   UNL A   1      38.530  37.665  39.886  1.00  0.00    -0.237 OA
ATOM     97  O   UNL A   1      37.855  35.777  41.331  1.00  0.00    -0.237 OA
ATOM     98  O   UNL A   1      40.175  36.605  41.390  1.00  0.00    -0.744 OA
ENDBRANCH  94  95
ENDBRANCH  62  87
ENDBRANCH  36  37
ENDBRANCH  29  31
ENDBRANCH  28  29
ENDBRANCH  27  28
ENDBRANCH   1  27
TORSDOF 19
ENDMDL
MODEL 3
REMARK VINA RESULT:     -11.6      6.708     12.273
REMARK SMILES O=C(CCN/C(=[NH+]\S(=O)(=O)c1ccccc1)c1ccccc1)OCCOC(=O)c1ccc(-c2c3nc(c(-c4c(F)cc(S(=O)(=O)[O-])cc4F)c4ccc([nH]4)c(-c4c(F)cc(S(=O)(=O)[O-])cc4F)c4nc(c(-c5c(F)cc(S(=O)(=O)[O-])cc5F)c5ccc2[nH]5)C=C4)C=C3)cc1
REMARK SMILES IDX 24 1 23 2 2 3 1 4 3 5 4 6 5 7 6 8 7 10 17 12 18 13 22 14
REMARK SMILES IDX 19 15 21 16 20 17 8 18 9 19 10 20 11 21 12 22 16 23 13 24
REMARK SMILES IDX 15 25 14 26 25 27 26 28 27 29 28 30 29 31 30 32 94 33 31 34
REMARK SMILES IDX 93 35 32 36 33 37 34 38 87 39 35 40 92 41 86 42 88 43 36 44
REMARK SMILES IDX 91 45 85 46 84 47 37 49 71 50 50 51 70 52 51 53 54 54 69 55
REMARK SMILES IDX 89 56 52 57 53 58 68 60 90 61 55 62 38 63 39 64 48 65 40 66
REMARK SMILES IDX 41 67 47 68 49 69 42 70 43 71 44 72 45 73 46 74 72 75 73 76
REMARK SMILES IDX 82 77 74 78 75 79 81 80 83 81 76 82 77 83 78 84 79 85 80 86
REMARK SMILES IDX 56 87 57 88 66 89 58 90 59 91 65 92 67 93 60 94 61 95 62 96
REMARK SMILES IDX 63 97 64 98
REMARK H PARENT 5 9 7 11 88 48 54 59
REMARK Flexibility Score: inf
ROOT
ATOM      1  C   UNL A   1      33.753  31.470  27.708  1.00  0.00     0.274 C 
ENDROOT
BRANCH   1   2
ATOM      2  O   UNL A   1      33.631  30.052  27.494  1.00  0.00    -0.462 OA
BRANCH   2   3
ATOM      3  C   UNL A   1      32.599  29.493  26.822  1.00  0.00     0.309 C 
ATOM      4  O   UNL A   1      31.449  29.618  27.241  1.00  0.00    -0.252 OA
BRANCH   3   5
ATOM      5  C   UNL A   1      32.878  28.659  25.596  1.00  0.00     0.168 C 
BRANCH   5   6
ATOM      6  C   UNL A   1      32.346  29.331  24.341  1.00  0.00     0.245 C 
BRANCH   6   7
ATOM      7  N   UNL A   1      32.415  28.459  23.177  1.00  0.00    -0.273 N 
ATOM      8  C   UNL A   1      31.409  27.799  22.495  1.00  0.00     0.290 C 
ATOM      9  H   UNL A   1      33.321  28.318  22.819  1.00  0.00     0.305 HD
ATOM     10  N   UNL A   1      31.576  26.729  21.769  1.00  0.00    -0.162 N 
ATOM     11  H   UNL A   1      30.843  26.427  21.186  1.00  0.00     0.327 HD
BRANCH   8  12
ATOM     12  C   UNL A   1      29.988  28.294  22.584  1.00  0.00     0.064 A 
ATOM     13  C   UNL A   1      29.048  27.519  23.277  1.00  0.00     0.016 A 
ATOM     14  C   UNL A   1      29.595  29.512  22.021  1.00  0.00     0.016 A 
ATOM     15  C   UNL A   1      27.741  27.984  23.447  1.00  0.00     0.001 A 
ATOM     16  C   UNL A   1      28.294  29.984  22.210  1.00  0.00     0.001 A 
ATOM     17  C   UNL A   1      27.370  29.224  22.928  1.00  0.00     0.000 A 
ENDBRANCH   8  12
BRANCH  10  18
ATOM     18  S   UNL A   1      32.958  25.885  21.801  1.00  0.00     0.328 S 
ATOM     19  O   UNL A   1      32.896  24.766  20.877  1.00  0.00    -0.179 OA
ATOM     20  O   UNL A   1      34.046  26.844  21.701  1.00  0.00    -0.179 OA
BRANCH  18  21
ATOM     21  C   UNL A   1      33.137  25.163  23.411  1.00  0.00     0.109 A 
ATOM     22  C   UNL A   1      34.307  25.453  24.128  1.00  0.00     0.024 A 
ATOM     23  C   UNL A   1      32.163  24.320  23.940  1.00  0.00     0.024 A 
ATOM     24  C   UNL A   1      34.512  24.883  25.380  1.00  0.00     0.001 A 
ATOM     25  C   UNL A   1      32.378  23.749  25.197  1.00  0.00     0.001 A 
ATOM     26  C   UNL A   1      33.548  24.027  25.912  1.00  0.00     0.000 A 
ENDBRANCH  18  21
ENDBRANCH  10  18
ENDBRANCH   6   7
ENDBRANCH   5   6
ENDBRANCH   3   5
ENDBRANCH   2   3
ENDBRANCH   1   2
BRANCH   1  27
ATOM     27  C   UNL A   1      34.902  31.829  28.645  1.00  0.00     0.275 C 
BRANCH  27  28
ATOM     28  O   UNL A   1      35.682  30.659  28.934  1.00  0.00    -0.458 OA
BRANCH  28  29
ATOM     29  C   UNL A   1      36.408  30.739  30.078  1.00  0.00     0.338 C 
ATOM     30  O   UNL A   1      35.985  30.916  31.205  1.00  0.00    -0.246 OA
BRANCH  29  31
ATOM     31  C   UNL A   1      37.807  30.381  29.775  1.00  0.00     0.060 A 
ATOM     32  C   UNL A   1      38.124  30.067  28.448  1.00  0.00     0.016 A 
ATOM     33  C   UNL A   1      38.796  30.367  30.764  1.00  0.00     0.016 A 
ATOM     34  C   UNL A   1      39.431  29.718  28.109  1.00  0.00     0.010 A 
ATOM     35  C   UNL A   1      40.101  30.009  30.425  1.00  0.00     0.010 A 
ATOM     36  C   UNL A   1      40.421  29.666  29.100  1.00  0.00    -0.014 A 
BRANCH  36  37
ATOM     37  C   UNL A   1      41.777  29.171  28.773  1.00  0.00     0.031 A 
ATOM     38  C   UNL A   1      42.917  30.148  28.716  1.00  0.00     0.074 A 
ATOM     39  C   UNL A   1      41.979  27.868  28.506  1.00  0.00     0.049 A 
ATOM     40  N   UNL A   1      44.167  29.937  28.402  1.00  0.00    -0.248 NA
ATOM     41  C   UNL A   1      42.607  31.548  29.055  1.00  0.00     0.031 C 
ATOM     42  C   UNL A   1      40.949  26.829  28.538  1.00  0.00     0.029 A 
ATOM     43  N   UNL A   1      43.119  27.202  28.133  1.00  0.00    -0.354 N 
ATOM     44  C   UNL A   1      44.796  31.172  28.503  1.00  0.00     0.074 A 
ATOM     45  C   UNL A   1      43.785  32.133  28.889  1.00  0.00     0.031 C 
ATOM     46  C   UNL A   1      41.501  25.659  28.167  1.00  0.00     0.029 A 
ATOM     47  C   UNL A   1      42.913  25.872  27.853  1.00  0.00     0.049 A 
ATOM     48  H   UNL A   1      44.001  27.635  28.070  1.00  0.00     0.167 HD
ATOM     49  C   UNL A   1      46.099  31.472  28.301  1.00  0.00     0.037 A 
ATOM     50  C   UNL A   1      43.761  24.943  27.372  1.00  0.00     0.037 A 
ATOM     51  C   UNL A   1      47.102  30.513  27.922  1.00  0.00     0.049 A 
ATOM     52  C   UNL A   1      45.192  25.321  27.091  1.00  0.00     0.074 A 
ATOM     53  C   UNL A   1      48.462  30.711  27.762  1.00  0.00     0.029 A 
ATOM     54  N   UNL A   1      46.853  29.182  27.629  1.00  0.00    -0.354 N 
ATOM     55  N   UNL A   1      45.789  26.475  27.266  1.00  0.00    -0.248 NA
ATOM     56  C   UNL A   1      46.064  24.271  26.543  1.00  0.00     0.031 C 
ATOM     57  C   UNL A   1      49.030  29.510  27.322  1.00  0.00     0.029 A 
ATOM     58  C   UNL A   1      48.028  28.556  27.247  1.00  0.00     0.049 A 
ATOM     59  H   UNL A   1      45.972  28.745  27.684  1.00  0.00     0.167 HD
ATOM     60  C   UNL A   1      47.107  26.287  26.864  1.00  0.00     0.074 A 
ATOM     61  C   UNL A   1      47.226  24.904  26.451  1.00  0.00     0.031 C 
ATOM     62  C   UNL A   1      48.128  27.179  26.837  1.00  0.00     0.037 A 
BRANCH  49  63
ATOM     63  C   UNL A   1      46.526  32.900  28.474  1.00  0.00     0.058 A 
ATOM     64  C   UNL A   1      47.014  33.373  29.701  1.00  0.00     0.135 A 
ATOM     65  C   UNL A   1      46.517  33.781  27.382  1.00  0.00     0.135 A 
ATOM     66  F   UNL A   1      47.027  32.573  30.779  1.00  0.00    -0.206 F 
ATOM     67  C   UNL A   1      47.481  34.676  29.839  1.00  0.00     0.059 A 
ATOM     68  C   UNL A   1      46.993  35.083  27.494  1.00  0.00     0.059 A 
ATOM     69  F   UNL A   1      46.050  33.375  26.191  1.00  0.00    -0.206 F 
ATOM     70  C   UNL A   1      47.471  35.522  28.728  1.00  0.00     0.060 A 
BRANCH  70  71
ATOM     71  S   UNL A   1      48.118  37.197  28.913  1.00  0.00     0.124 S 
ATOM     72  O   UNL A   1      49.515  37.014  28.531  1.00  0.00    -0.237 OA
ATOM     73  O   UNL A   1      47.298  37.955  27.974  1.00  0.00    -0.237 OA
ATOM     74  O   UNL A   1      47.888  37.496  30.323  1.00  0.00    -0.744 OA
ENDBRANCH  70  71
ENDBRANCH  49  63
BRANCH  50  75
ATOM     75  C   UNL A   1      43.277  23.569  27.076  1.00  0.00     0.058 A 
ATOM     76  C   UNL A   1      43.047  22.643  28.103  1.00  0.00     0.135 A 
ATOM     77  C   UNL A   1      43.075  23.146  25.753  1.00  0.00     0.135 A 
ATOM     78  F   UNL A   1      43.237  22.999  29.382  1.00  0.00    -0.206 F 
ATOM     79  C   UNL A   1      42.659  21.334  27.829  1.00  0.00     0.059 A 
ATOM     80  C   UNL A   1      42.668  21.850  25.455  1.00  0.00     0.059 A 
ATOM     81  F   UNL A   1      43.269  23.999  24.736  1.00  0.00    -0.206 F 
ATOM     82  C   UNL A   1      42.478  20.947  26.501  1.00  0.00     0.060 A 
BRANCH  82  83
ATOM     83  S   UNL A   1      41.959  19.254  26.146  1.00  0.00     0.124 S 
ATOM     84  O   UNL A   1      40.529  19.427  25.921  1.00  0.00    -0.237 OA
ATOM     85  O   UNL A   1      42.758  18.924  24.971  1.00  0.00    -0.237 OA
ATOM     86  O   UNL A   1      42.327  18.535  27.363  1.00  0.00    -0.744 OA
ENDBRANCH  82  83
ENDBRANCH  50  75
BRANCH  62  87
ATOM     87  C   UNL A   1      49.463  26.692  26.351  1.00  0.00     0.058 A 
ATOM     88  C   UNL A   1      49.909  26.964  25.047  1.00  0.00     0.135 A 
ATOM     89  C   UNL A   1      50.335  26.009  27.215  1.00  0.00     0.135 A 
ATOM     90  F   UNL A   1      49.109  27.606  24.181  1.00  0.00    -0.206 F 
ATOM     91  C   UNL A   1      51.167  26.565  24.613  1.00  0.00     0.059 A 
ATOM     92  C   UNL A   1      51.608  25.621  26.808  1.00  0.00     0.059 A 
ATOM     93  F   UNL A   1      49.960  25.734  28.473  1.00  0.00    -0.206 F 
ATOM     94  C   UNL A   1      52.012  25.897  25.503  1.00  0.00     0.060 A 
BRANCH  94  95
ATOM     95  S   UNL A   1      53.665  25.429  24.943  1.00  0.00     0.124 S 
ATOM     96  O   UNL A   1      53.722  24.026  25.340  1.00  0.00    -0.237 OA
ATOM     97  O   UNL A   1      53.594  25.680  23.508  1.00  0.00    -0.237 OA
ATOM     98  O   UNL A   1      54.541  26.328  25.688  1.00  0.00    -0.744 OA
ENDBRANCH  94  95
ENDBRANCH  62  87
ENDBRANCH  36  37
ENDBRANCH  29  31
ENDBRANCH  28  29
ENDBRANCH  27  28
ENDBRANCH   1  27
TORSDOF 19
ENDMDL
