MODEL 1
REMARK VINA RESULT:     -11.1      0.000      0.000
REMARK SMILES COc1ccc(-c2noc(CC(=O)OCCOC(=O)c3ccc(-c4c5nc(c(-c6c(F)cc(S(=O)(=O)[O-])cc6F)c6ccc([nH]6)c(-c6c(F)cc(S(=O)(=O)[O-])cc6F)c6nc(c(-c7c(F)cc(S(=O)(=O)[O-])cc7F)c7ccc4[nH]7)C=C6)C=C5)cc3)c2-c2ccc(OC)cc2)cc1
REMARK SMILES IDX 15 1 14 2 12 3 13 4 11 5 10 6 7 7 8 8 86 9 9 10 6 11 3 12
REMARK SMILES IDX 4 13 96 14 5 15 95 16 2 17 1 18 87 19 88 20 94 21 89 22
REMARK SMILES IDX 93 23 90 24 91 25 92 26 16 27 17 28 18 29 19 30 20 31 21 32
REMARK SMILES IDX 85 33 22 34 84 35 23 36 24 37 25 38 78 39 26 40 83 41 77 42
REMARK SMILES IDX 79 43 27 44 82 45 76 46 75 47 28 49 62 50 41 51 61 52 42 53
REMARK SMILES IDX 45 54 60 55 80 56 43 57 44 58 59 60 81 61 46 62 29 63 30 64
REMARK SMILES IDX 39 65 31 66 32 67 38 68 40 69 33 70 34 71 35 72 36 73 37 74
REMARK SMILES IDX 63 75 64 76 73 77 65 78 66 79 72 80 74 81 67 82 68 83 69 84
REMARK SMILES IDX 70 85 71 86 47 87 48 88 57 89 49 90 50 91 56 92 58 93 51 94
REMARK SMILES IDX 52 95 53 96 54 97 55 98
REMARK H PARENT 79 48 45 59
REMARK Flexibility Score: inf
ROOT
ATOM      1  C   UNL A   1      31.753  28.161  26.226  1.00  0.00     0.274 C 
ENDROOT
BRANCH   1   2
ATOM      2  O   UNL A   1      31.248  26.905  26.715  1.00  0.00    -0.462 OA
BRANCH   2   3
ATOM      3  C   UNL A   1      30.612  26.134  25.795  1.00  0.00     0.313 C 
ATOM      4  O   UNL A   1      30.043  26.573  24.799  1.00  0.00    -0.252 OA
BRANCH   3   5
ATOM      5  C   UNL A   1      30.569  24.670  26.136  1.00  0.00     0.201 C 
BRANCH   5   6
ATOM      6  C   UNL A   1      31.885  24.029  26.370  1.00  0.00     0.156 A 
ATOM      7  C   UNL A   1      33.946  23.209  26.432  1.00  0.00     0.122 A 
ATOM      8  N   UNL A   1      33.359  22.855  27.585  1.00  0.00    -0.079 NA
ATOM      9  C   UNL A   1      33.045  23.967  25.632  1.00  0.00     0.053 A 
ATOM     10  O   UNL A   1      32.084  23.392  27.555  1.00  0.00    -0.359 OA
BRANCH   7  11
ATOM     11  C   UNL A   1      35.314  22.819  26.101  1.00  0.00     0.005 A 
ATOM     12  C   UNL A   1      37.978  22.011  25.676  1.00  0.00     0.118 A 
ATOM     13  C   UNL A   1      37.674  23.347  25.955  1.00  0.00     0.047 A 
ATOM     14  C   UNL A   1      36.941  21.084  25.582  1.00  0.00     0.047 A 
ATOM     15  C   UNL A   1      36.352  23.755  26.156  1.00  0.00     0.014 A 
ATOM     16  C   UNL A   1      35.617  21.487  25.792  1.00  0.00     0.014 A 
BRANCH  12  17
ATOM     17  O   UNL A   1      39.310  21.740  25.536  1.00  0.00    -0.497 OA
ATOM     18  C   UNL A   1      40.039  21.487  26.732  1.00  0.00     0.278 C 
ENDBRANCH  12  17
ENDBRANCH   7  11
BRANCH   9  19
ATOM     19  C   UNL A   1      33.171  24.527  24.307  1.00  0.00    -0.012 A 
ATOM     20  C   UNL A   1      32.818  23.769  23.190  1.00  0.00     0.013 A 
ATOM     21  C   UNL A   1      33.605  25.847  24.142  1.00  0.00     0.013 A 
ATOM     22  C   UNL A   1      32.862  24.344  21.920  1.00  0.00     0.047 A 
ATOM     23  C   UNL A   1      33.643  26.420  22.868  1.00  0.00     0.047 A 
ATOM     24  C   UNL A   1      33.254  25.675  21.754  1.00  0.00     0.118 A 
BRANCH  24  25
ATOM     25  O   UNL A   1      33.220  26.127  20.464  1.00  0.00    -0.497 OA
ATOM     26  C   UNL A   1      32.382  25.409  19.567  1.00  0.00     0.278 C 
ENDBRANCH  24  25
ENDBRANCH   9  19
ENDBRANCH   5   6
ENDBRANCH   3   5
ENDBRANCH   2   3
ENDBRANCH   1   2
BRANCH   1  27
ATOM     27  C   UNL A   1      32.517  28.913  27.316  1.00  0.00     0.275 C 
BRANCH  27  28
ATOM     28  O   UNL A   1      33.750  29.436  26.792  1.00  0.00    -0.458 OA
BRANCH  28  29
ATOM     29  C   UNL A   1      34.313  30.438  27.508  1.00  0.00     0.338 C 
ATOM     30  O   UNL A   1      33.862  31.548  27.716  1.00  0.00    -0.246 OA
BRANCH  29  31
ATOM     31  C   UNL A   1      35.604  29.979  28.041  1.00  0.00     0.060 A 
ATOM     32  C   UNL A   1      35.683  29.561  29.371  1.00  0.00     0.016 A 
ATOM     33  C   UNL A   1      36.752  30.064  27.253  1.00  0.00     0.016 A 
ATOM     34  C   UNL A   1      36.920  29.232  29.923  1.00  0.00     0.010 A 
ATOM     35  C   UNL A   1      37.990  29.722  27.804  1.00  0.00     0.010 A 
ATOM     36  C   UNL A   1      38.086  29.321  29.148  1.00  0.00    -0.014 A 
BRANCH  36  37
ATOM     37  C   UNL A   1      39.408  29.061  29.770  1.00  0.00     0.031 A 
ATOM     38  C   UNL A   1      39.861  29.883  30.945  1.00  0.00     0.074 A 
ATOM     39  C   UNL A   1      40.192  28.074  29.296  1.00  0.00     0.049 A 
ATOM     40  N   UNL A   1      40.996  29.845  31.595  1.00  0.00    -0.248 NA
ATOM     41  C   UNL A   1      38.909  30.883  31.454  1.00  0.00     0.031 C 
ATOM     42  C   UNL A   1      39.856  27.193  28.177  1.00  0.00     0.029 A 
ATOM     43  N   UNL A   1      41.431  27.646  29.699  1.00  0.00    -0.354 N 
ATOM     44  C   UNL A   1      40.908  30.827  32.573  1.00  0.00     0.074 A 
ATOM     45  C   UNL A   1      39.611  31.455  32.424  1.00  0.00     0.031 C 
ATOM     46  C   UNL A   1      40.863  26.323  27.988  1.00  0.00     0.029 A 
ATOM     47  C   UNL A   1      41.927  26.607  28.947  1.00  0.00     0.049 A 
ATOM     48  H   UNL A   1      41.920  28.045  30.455  1.00  0.00     0.167 HD
ATOM     49  C   UNL A   1      41.821  31.172  33.513  1.00  0.00     0.037 A 
ATOM     50  C   UNL A   1      43.110  25.967  29.015  1.00  0.00     0.037 A 
ATOM     51  C   UNL A   1      43.102  30.532  33.673  1.00  0.00     0.049 A 
ATOM     52  C   UNL A   1      44.113  26.375  30.058  1.00  0.00     0.074 A 
ATOM     53  C   UNL A   1      44.089  30.802  34.605  1.00  0.00     0.029 A 
ATOM     54  N   UNL A   1      43.571  29.491  32.887  1.00  0.00    -0.354 N 
ATOM     55  N   UNL A   1      44.017  27.313  30.971  1.00  0.00    -0.248 NA
ATOM     56  C   UNL A   1      45.386  25.641  30.079  1.00  0.00     0.031 C 
ATOM     57  C   UNL A   1      45.167  29.940  34.364  1.00  0.00     0.029 A 
ATOM     58  C   UNL A   1      44.837  29.114  33.304  1.00  0.00     0.049 A 
ATOM     59  H   UNL A   1      43.076  29.080  32.140  1.00  0.00     0.167 HD
ATOM     60  C   UNL A   1      45.211  27.275  31.681  1.00  0.00     0.074 A 
ATOM     61  C   UNL A   1      46.007  26.209  31.104  1.00  0.00     0.031 C 
ATOM     62  C   UNL A   1      45.617  28.055  32.713  1.00  0.00     0.037 A 
BRANCH  49  63
ATOM     63  C   UNL A   1      41.474  32.312  34.427  1.00  0.00     0.058 A 
ATOM     64  C   UNL A   1      40.796  32.107  35.639  1.00  0.00     0.135 A 
ATOM     65  C   UNL A   1      41.842  33.626  34.095  1.00  0.00     0.135 A 
ATOM     66  F   UNL A   1      40.407  30.872  35.994  1.00  0.00    -0.206 F 
ATOM     67  C   UNL A   1      40.473  33.169  36.479  1.00  0.00     0.059 A 
ATOM     68  C   UNL A   1      41.547  34.700  34.929  1.00  0.00     0.059 A 
ATOM     69  F   UNL A   1      42.489  33.876  32.946  1.00  0.00    -0.206 F 
ATOM     70  C   UNL A   1      40.849  34.462  36.114  1.00  0.00     0.060 A 
BRANCH  70  71
ATOM     71  S   UNL A   1      40.427  35.833  37.210  1.00  0.00     0.124 S 
ATOM     72  O   UNL A   1      41.746  36.261  37.664  1.00  0.00    -0.237 OA
ATOM     73  O   UNL A   1      39.736  36.754  36.313  1.00  0.00    -0.237 OA
ATOM     74  O   UNL A   1      39.585  35.207  38.226  1.00  0.00    -0.744 OA
ENDBRANCH  70  71
ENDBRANCH  49  63
BRANCH  50  75
ATOM     75  C   UNL A   1      43.413  24.874  28.055  1.00  0.00     0.058 A 
ATOM     76  C   UNL A   1      43.156  23.535  28.380  1.00  0.00     0.135 A 
ATOM     77  C   UNL A   1      43.949  25.150  26.788  1.00  0.00     0.135 A 
ATOM     78  F   UNL A   1      42.653  23.222  29.584  1.00  0.00    -0.206 F 
ATOM     79  C   UNL A   1      43.423  22.505  27.485  1.00  0.00     0.059 A 
ATOM     80  C   UNL A   1      44.205  24.140  25.868  1.00  0.00     0.059 A 
ATOM     81  F   UNL A   1      44.204  26.418  26.428  1.00  0.00    -0.206 F 
ATOM     82  C   UNL A   1      43.945  22.818  26.229  1.00  0.00     0.060 A 
BRANCH  82  83
ATOM     83  S   UNL A   1      44.228  21.484  25.045  1.00  0.00     0.124 S 
ATOM     84  O   UNL A   1      45.537  20.994  25.460  1.00  0.00    -0.237 OA
ATOM     85  O   UNL A   1      43.101  20.592  25.306  1.00  0.00    -0.237 OA
ATOM     86  O   UNL A   1      44.186  22.169  23.756  1.00  0.00    -0.744 OA
ENDBRANCH  82  83
ENDBRANCH  50  75
BRANCH  62  87
ATOM     87  C   UNL A   1      46.975  27.771  33.289  1.00  0.00     0.058 A 
ATOM     88  C   UNL A   1      47.151  26.848  34.331  1.00  0.00     0.135 A 
ATOM     89  C   UNL A   1      48.114  28.420  32.786  1.00  0.00     0.135 A 
ATOM     90  F   UNL A   1      46.091  26.206  34.850  1.00  0.00    -0.206 F 
ATOM     91  C   UNL A   1      48.405  26.600  34.878  1.00  0.00     0.059 A 
ATOM     92  C   UNL A   1      49.381  28.172  33.304  1.00  0.00     0.059 A 
ATOM     93  F   UNL A   1      48.001  29.304  31.782  1.00  0.00    -0.206 F 
ATOM     94  C   UNL A   1      49.514  27.274  34.362  1.00  0.00     0.060 A 
BRANCH  94  95
ATOM     95  S   UNL A   1      51.141  26.948  35.075  1.00  0.00     0.124 S 
ATOM     96  O   UNL A   1      51.191  25.490  35.033  1.00  0.00    -0.237 OA
ATOM     97  O   UNL A   1      52.037  27.639  34.153  1.00  0.00    -0.237 OA
ATOM     98  O   UNL A   1      51.048  27.536  36.407  1.00  0.00    -0.744 OA
ENDBRANCH  94  95
ENDBRANCH  62  87
ENDBRANCH  36  37
ENDBRANCH  29  31
ENDBRANCH  28  29
ENDBRANCH  27  28
ENDBRANCH   1  27
TORSDOF 19
ENDMDL
MODEL 2
REMARK VINA RESULT:     -10.9      4.742      6.271
REMARK SMILES COc1ccc(-c2noc(CC(=O)OCCOC(=O)c3ccc(-c4c5nc(c(-c6c(F)cc(S(=O)(=O)[O-])cc6F)c6ccc([nH]6)c(-c6c(F)cc(S(=O)(=O)[O-])cc6F)c6nc(c(-c7c(F)cc(S(=O)(=O)[O-])cc7F)c7ccc4[nH]7)C=C6)C=C5)cc3)c2-c2ccc(OC)cc2)cc1
REMARK SMILES IDX 15 1 14 2 12 3 13 4 11 5 10 6 7 7 8 8 86 9 9 10 6 11 3 12
REMARK SMILES IDX 4 13 96 14 5 15 95 16 2 17 1 18 87 19 88 20 94 21 89 22
REMARK SMILES IDX 93 23 90 24 91 25 92 26 16 27 17 28 18 29 19 30 20 31 21 32
REMARK SMILES IDX 85 33 22 34 84 35 23 36 24 37 25 38 78 39 26 40 83 41 77 42
REMARK SMILES IDX 79 43 27 44 82 45 76 46 75 47 28 49 62 50 41 51 61 52 42 53
REMARK SMILES IDX 45 54 60 55 80 56 43 57 44 58 59 60 81 61 46 62 29 63 30 64
REMARK SMILES IDX 39 65 31 66 32 67 38 68 40 69 33 70 34 71 35 72 36 73 37 74
REMARK SMILES IDX 63 75 64 76 73 77 65 78 66 79 72 80 74 81 67 82 68 83 69 84
REMARK SMILES IDX 70 85 71 86 47 87 48 88 57 89 49 90 50 91 56 92 58 93 51 94
REMARK SMILES IDX 52 95 53 96 54 97 55 98
REMARK H PARENT 79 48 45 59
REMARK Flexibility Score: inf
ROOT
ATOM      1  C   UNL A   1      34.312  31.790  27.621  1.00  0.00     0.274 C 
ENDROOT
BRANCH   1   2
ATOM      2  O   UNL A   1      32.906  31.484  27.578  1.00  0.00    -0.462 OA
BRANCH   2   3
ATOM      3  C   UNL A   1      32.587  30.276  27.044  1.00  0.00     0.313 C 
ATOM      4  O   UNL A   1      31.742  29.515  27.507  1.00  0.00    -0.252 OA
BRANCH   3   5
ATOM      5  C   UNL A   1      33.432  29.879  25.864  1.00  0.00     0.201 C 
BRANCH   5   6
ATOM      6  C   UNL A   1      33.497  28.424  25.586  1.00  0.00     0.156 A 
ATOM      7  C   UNL A   1      33.368  26.307  24.933  1.00  0.00     0.122 A 
ATOM      8  N   UNL A   1      34.336  26.362  25.861  1.00  0.00    -0.079 NA
ATOM      9  C   UNL A   1      32.814  27.601  24.720  1.00  0.00     0.053 A 
ATOM     10  O   UNL A   1      34.432  27.689  26.245  1.00  0.00    -0.359 OA
BRANCH   7  11
ATOM     11  C   UNL A   1      32.977  25.056  24.289  1.00  0.00     0.005 A 
ATOM     12  C   UNL A   1      32.417  22.560  23.112  1.00  0.00     0.118 A 
ATOM     13  C   UNL A   1      32.988  23.591  22.359  1.00  0.00     0.047 A 
ATOM     14  C   UNL A   1      32.100  22.791  24.449  1.00  0.00     0.047 A 
ATOM     15  C   UNL A   1      33.259  24.836  22.938  1.00  0.00     0.014 A 
ATOM     16  C   UNL A   1      32.377  24.032  25.034  1.00  0.00     0.014 A 
BRANCH  12  17
ATOM     17  O   UNL A   1      32.239  21.385  22.436  1.00  0.00    -0.497 OA
ATOM     18  C   UNL A   1      32.225  20.196  23.217  1.00  0.00     0.278 C 
ENDBRANCH  12  17
ENDBRANCH   7  11
BRANCH   9  19
ATOM     19  C   UNL A   1      31.733  28.058  23.879  1.00  0.00    -0.012 A 
ATOM     20  C   UNL A   1      30.419  27.685  24.166  1.00  0.00     0.013 A 
ATOM     21  C   UNL A   1      31.993  28.913  22.803  1.00  0.00     0.013 A 
ATOM     22  C   UNL A   1      29.371  28.197  23.401  1.00  0.00     0.047 A 
ATOM     23  C   UNL A   1      30.940  29.428  22.043  1.00  0.00     0.047 A 
ATOM     24  C   UNL A   1      29.623  29.085  22.352  1.00  0.00     0.118 A 
BRANCH  24  25
ATOM     25  O   UNL A   1      28.508  29.542  21.705  1.00  0.00    -0.497 OA
ATOM     26  C   UNL A   1      27.833  30.637  22.311  1.00  0.00     0.278 C 
ENDBRANCH  24  25
ENDBRANCH   9  19
ENDBRANCH   5   6
ENDBRANCH   3   5
ENDBRANCH   2   3
ENDBRANCH   1   2
BRANCH   1  27
ATOM     27  C   UNL A   1      34.884  31.571  29.021  1.00  0.00     0.275 C 
BRANCH  27  28
ATOM     28  O   UNL A   1      35.693  30.382  29.050  1.00  0.00    -0.458 OA
BRANCH  28  29
ATOM     29  C   UNL A   1      36.428  30.200  30.172  1.00  0.00     0.338 C 
ATOM     30  O   UNL A   1      36.037  30.189  31.324  1.00  0.00    -0.246 OA
BRANCH  29  31
ATOM     31  C   UNL A   1      37.834  29.992  29.795  1.00  0.00     0.060 A 
ATOM     32  C   UNL A   1      38.176  29.930  28.443  1.00  0.00     0.016 A 
ATOM     33  C   UNL A   1      38.790  29.752  30.782  1.00  0.00     0.016 A 
ATOM     34  C   UNL A   1      39.483  29.620  28.070  1.00  0.00     0.010 A 
ATOM     35  C   UNL A   1      40.104  29.453  30.407  1.00  0.00     0.010 A 
ATOM     36  C   UNL A   1      40.455  29.366  29.049  1.00  0.00    -0.014 A 
BRANCH  36  37
ATOM     37  C   UNL A   1      41.819  28.944  28.644  1.00  0.00     0.031 A 
ATOM     38  C   UNL A   1      42.947  29.939  28.656  1.00  0.00     0.074 A 
ATOM     39  C   UNL A   1      42.051  27.666  28.290  1.00  0.00     0.049 A 
ATOM     40  N   UNL A   1      44.194  29.782  28.293  1.00  0.00    -0.248 NA
ATOM     41  C   UNL A   1      42.627  31.292  29.137  1.00  0.00     0.031 C 
ATOM     42  C   UNL A   1      41.047  26.603  28.260  1.00  0.00     0.029 A 
ATOM     43  N   UNL A   1      43.207  27.046  27.889  1.00  0.00    -0.354 N 
ATOM     44  C   UNL A   1      44.804  31.016  28.478  1.00  0.00     0.074 A 
ATOM     45  C   UNL A   1      43.786  31.918  28.975  1.00  0.00     0.031 C 
ATOM     46  C   UNL A   1      41.632  25.459  27.869  1.00  0.00     0.029 A 
ATOM     47  C   UNL A   1      43.044  25.715  27.588  1.00  0.00     0.049 A 
ATOM     48  H   UNL A   1      44.073  27.510  27.823  1.00  0.00     0.167 HD
ATOM     49  C   UNL A   1      46.095  31.365  28.260  1.00  0.00     0.037 A 
ATOM     50  C   UNL A   1      43.925  24.809  27.126  1.00  0.00     0.037 A 
ATOM     51  C   UNL A   1      47.111  30.462  27.786  1.00  0.00     0.049 A 
ATOM     52  C   UNL A   1      45.350  25.223  26.878  1.00  0.00     0.074 A 
ATOM     53  C   UNL A   1      48.450  30.720  27.547  1.00  0.00     0.029 A 
ATOM     54  N   UNL A   1      46.903  29.124  27.484  1.00  0.00    -0.354 N 
ATOM     55  N   UNL A   1      45.908  26.398  27.052  1.00  0.00    -0.248 NA
ATOM     56  C   UNL A   1      46.263  24.190  26.371  1.00  0.00     0.031 C 
ATOM     57  C   UNL A   1      49.046  29.543  27.074  1.00  0.00     0.029 A 
ATOM     58  C   UNL A   1      48.085  28.546  27.050  1.00  0.00     0.049 A 
ATOM     59  H   UNL A   1      46.041  28.655  27.565  1.00  0.00     0.167 HD
ATOM     60  C   UNL A   1      47.240  26.243  26.684  1.00  0.00     0.074 A 
ATOM     61  C   UNL A   1      47.408  24.856  26.297  1.00  0.00     0.031 C 
ATOM     62  C   UNL A   1      48.233  27.166  26.662  1.00  0.00     0.037 A 
BRANCH  49  63
ATOM     63  C   UNL A   1      46.474  32.798  28.510  1.00  0.00     0.058 A 
ATOM     64  C   UNL A   1      46.386  33.771  27.502  1.00  0.00     0.135 A 
ATOM     65  C   UNL A   1      46.912  33.205  29.780  1.00  0.00     0.135 A 
ATOM     66  F   UNL A   1      45.988  33.430  26.266  1.00  0.00    -0.206 F 
ATOM     67  C   UNL A   1      46.742  35.095  27.740  1.00  0.00     0.059 A 
ATOM     68  C   UNL A   1      47.255  34.527  30.045  1.00  0.00     0.059 A 
ATOM     69  F   UNL A   1      47.015  32.312  30.777  1.00  0.00    -0.206 F 
ATOM     70  C   UNL A   1      47.180  35.463  29.013  1.00  0.00     0.060 A 
BRANCH  70  71
ATOM     71  S   UNL A   1      47.641  37.184  29.311  1.00  0.00     0.124 S 
ATOM     72  O   UNL A   1      47.897  37.656  27.954  1.00  0.00    -0.237 OA
ATOM     73  O   UNL A   1      46.447  37.723  29.955  1.00  0.00    -0.237 OA
ATOM     74  O   UNL A   1      48.816  37.075  30.171  1.00  0.00    -0.744 OA
ENDBRANCH  70  71
ENDBRANCH  49  63
BRANCH  50  75
ATOM     75  C   UNL A   1      43.481  23.417  26.856  1.00  0.00     0.058 A 
ATOM     76  C   UNL A   1      43.315  22.953  25.544  1.00  0.00     0.135 A 
ATOM     77  C   UNL A   1      43.231  22.520  27.906  1.00  0.00     0.135 A 
ATOM     78  F   UNL A   1      43.532  23.777  24.508  1.00  0.00    -0.206 F 
ATOM     79  C   UNL A   1      42.912  21.648  25.279  1.00  0.00     0.059 A 
ATOM     80  C   UNL A   1      42.848  21.205  27.667  1.00  0.00     0.059 A 
ATOM     81  F   UNL A   1      43.384  22.916  29.179  1.00  0.00    -0.206 F 
ATOM     82  C   UNL A   1      42.684  20.780  26.348  1.00  0.00     0.060 A 
BRANCH  82  83
ATOM     83  S   UNL A   1      42.227  19.068  26.000  1.00  0.00     0.124 S 
ATOM     84  O   UNL A   1      40.779  19.172  25.864  1.00  0.00    -0.237 OA
ATOM     85  O   UNL A   1      42.965  18.793  24.770  1.00  0.00    -0.237 OA
ATOM     86  O   UNL A   1      42.704  18.350  27.178  1.00  0.00    -0.744 OA
ENDBRANCH  82  83
ENDBRANCH  50  75
BRANCH  62  87
ATOM     87  C   UNL A   1      49.589  26.696  26.218  1.00  0.00     0.058 A 
ATOM     88  C   UNL A   1      50.453  26.021  27.092  1.00  0.00     0.135 A 
ATOM     89  C   UNL A   1      50.024  26.914  24.900  1.00  0.00     0.135 A 
ATOM     90  F   UNL A   1      50.085  25.794  28.364  1.00  0.00    -0.206 F 
ATOM     91  C   UNL A   1      51.716  25.604  26.687  1.00  0.00     0.059 A 
ATOM     92  C   UNL A   1      51.275  26.488  24.468  1.00  0.00     0.059 A 
ATOM     93  F   UNL A   1      49.230  27.547  24.022  1.00  0.00    -0.206 F 
ATOM     94  C   UNL A   1      52.122  25.850  25.374  1.00  0.00     0.060 A 
BRANCH  94  95
ATOM     95  S   UNL A   1      53.763  25.307  24.852  1.00  0.00     0.124 S 
ATOM     96  O   UNL A   1      53.607  23.856  24.862  1.00  0.00    -0.237 OA
ATOM     97  O   UNL A   1      53.898  25.920  23.534  1.00  0.00    -0.237 OA
ATOM     98  O   UNL A   1      54.641  25.853  25.882  1.00  0.00    -0.744 OA
ENDBRANCH  94  95
ENDBRANCH  62  87
ENDBRANCH  36  37
ENDBRANCH  29  31
ENDBRANCH  28  29
ENDBRANCH  27  28
ENDBRANCH   1  27
TORSDOF 19
ENDMDL
MODEL 3
REMARK VINA RESULT:     -10.5      1.770      3.207
REMARK SMILES COc1ccc(-c2noc(CC(=O)OCCOC(=O)c3ccc(-c4c5nc(c(-c6c(F)cc(S(=O)(=O)[O-])cc6F)c6ccc([nH]6)c(-c6c(F)cc(S(=O)(=O)[O-])cc6F)c6nc(c(-c7c(F)cc(S(=O)(=O)[O-])cc7F)c7ccc4[nH]7)C=C6)C=C5)cc3)c2-c2ccc(OC)cc2)cc1
REMARK SMILES IDX 15 1 14 2 12 3 13 4 11 5 10 6 7 7 8 8 86 9 9 10 6 11 3 12
REMARK SMILES IDX 4 13 96 14 5 15 95 16 2 17 1 18 87 19 88 20 94 21 89 22
REMARK SMILES IDX 93 23 90 24 91 25 92 26 16 27 17 28 18 29 19 30 20 31 21 32
REMARK SMILES IDX 85 33 22 34 84 35 23 36 24 37 25 38 78 39 26 40 83 41 77 42
REMARK SMILES IDX 79 43 27 44 82 45 76 46 75 47 28 49 62 50 41 51 61 52 42 53
REMARK SMILES IDX 45 54 60 55 80 56 43 57 44 58 59 60 81 61 46 62 29 63 30 64
REMARK SMILES IDX 39 65 31 66 32 67 38 68 40 69 33 70 34 71 35 72 36 73 37 74
REMARK SMILES IDX 63 75 64 76 73 77 65 78 66 79 72 80 74 81 67 82 68 83 69 84
REMARK SMILES IDX 70 85 71 86 47 87 48 88 57 89 49 90 50 91 56 92 58 93 51 94
REMARK SMILES IDX 52 95 53 96 54 97 55 98
REMARK H PARENT 79 48 45 59
REMARK Flexibility Score: inf
ROOT
ATOM      1  C   UNL A   1      32.354  28.705  25.506  1.00  0.00     0.274 C 
ENDROOT
BRANCH   1   2
ATOM      2  O   UNL A   1      32.948  28.432  24.223  1.00  0.00    -0.462 OA
BRANCH   2   3
ATOM      3  C   UNL A   1      33.111  27.117  23.924  1.00  0.00     0.313 C 
ATOM      4  O   UNL A   1      33.542  26.699  22.853  1.00  0.00    -0.252 OA
BRANCH   3   5
ATOM      5  C   UNL A   1      32.624  26.173  24.990  1.00  0.00     0.201 C 
BRANCH   5   6
ATOM      6  C   UNL A   1      32.269  24.811  24.525  1.00  0.00     0.156 A 
ATOM      7  C   UNL A   1      32.047  22.686  23.925  1.00  0.00     0.122 A 
ATOM      8  N   UNL A   1      30.854  23.267  23.725  1.00  0.00    -0.079 NA
ATOM      9  C   UNL A   1      32.975  23.632  24.444  1.00  0.00     0.053 A 
ATOM     10  O   UNL A   1      30.989  24.585  24.127  1.00  0.00    -0.359 OA
BRANCH   7  11
ATOM     11  C   UNL A   1      32.292  21.281  23.613  1.00  0.00     0.005 A 
ATOM     12  C   UNL A   1      32.550  18.534  23.052  1.00  0.00     0.118 A 
ATOM     13  C   UNL A   1      32.828  19.029  24.329  1.00  0.00     0.047 A 
ATOM     14  C   UNL A   1      32.169  19.421  22.047  1.00  0.00     0.047 A 
ATOM     15  C   UNL A   1      32.711  20.395  24.610  1.00  0.00     0.014 A 
ATOM     16  C   UNL A   1      32.042  20.786  22.326  1.00  0.00     0.014 A 
BRANCH  12  17
ATOM     17  O   UNL A   1      32.668  17.178  22.923  1.00  0.00    -0.497 OA
ATOM     18  C   UNL A   1      33.746  16.563  23.620  1.00  0.00     0.278 C 
ENDBRANCH  12  17
ENDBRANCH   7  11
BRANCH   9  19
ATOM     19  C   UNL A   1      34.377  23.524  24.773  1.00  0.00    -0.012 A 
ATOM     20  C   UNL A   1      34.777  23.445  26.108  1.00  0.00     0.013 A 
ATOM     21  C   UNL A   1      35.334  23.452  23.755  1.00  0.00     0.013 A 
ATOM     22  C   UNL A   1      36.124  23.255  26.417  1.00  0.00     0.047 A 
ATOM     23  C   UNL A   1      36.681  23.257  24.069  1.00  0.00     0.047 A 
ATOM     24  C   UNL A   1      37.078  23.140  25.402  1.00  0.00     0.118 A 
BRANCH  24  25
ATOM     25  O   UNL A   1      38.356  22.921  25.836  1.00  0.00    -0.497 OA
ATOM     26  C   UNL A   1      38.945  23.960  26.609  1.00  0.00     0.278 C 
ENDBRANCH  24  25
ENDBRANCH   9  19
ENDBRANCH   5   6
ENDBRANCH   3   5
ENDBRANCH   2   3
ENDBRANCH   1   2
BRANCH   1  27
ATOM     27  C   UNL A   1      32.789  30.070  26.038  1.00  0.00     0.275 C 
BRANCH  27  28
ATOM     28  O   UNL A   1      33.938  29.930  26.892  1.00  0.00    -0.458 OA
BRANCH  28  29
ATOM     29  C   UNL A   1      34.362  31.066  27.495  1.00  0.00     0.338 C 
ATOM     30  O   UNL A   1      33.859  32.172  27.436  1.00  0.00    -0.246 OA
BRANCH  29  31
ATOM     31  C   UNL A   1      35.566  30.768  28.283  1.00  0.00     0.060 A 
ATOM     32  C   UNL A   1      36.709  31.550  28.106  1.00  0.00     0.016 A 
ATOM     33  C   UNL A   1      35.593  29.650  29.117  1.00  0.00     0.016 A 
ATOM     34  C   UNL A   1      37.893  31.211  28.761  1.00  0.00     0.010 A 
ATOM     35  C   UNL A   1      36.777  29.318  29.783  1.00  0.00     0.010 A 
ATOM     36  C   UNL A   1      37.940  30.085  29.595  1.00  0.00    -0.014 A 
BRANCH  36  37
ATOM     37  C   UNL A   1      39.226  29.676  30.213  1.00  0.00     0.031 A 
ATOM     38  C   UNL A   1      39.712  30.364  31.459  1.00  0.00     0.074 A 
ATOM     39  C   UNL A   1      39.945  28.675  29.672  1.00  0.00     0.049 A 
ATOM     40  N   UNL A   1      40.827  30.189  32.121  1.00  0.00    -0.248 NA
ATOM     41  C   UNL A   1      38.826  31.389  32.034  1.00  0.00     0.031 C 
ATOM     42  C   UNL A   1      39.569  27.915  28.479  1.00  0.00     0.029 A 
ATOM     43  N   UNL A   1      41.141  28.124  30.057  1.00  0.00    -0.354 N 
ATOM     44  C   UNL A   1      40.790  31.092  33.175  1.00  0.00     0.074 A 
ATOM     45  C   UNL A   1      39.547  31.825  33.059  1.00  0.00     0.031 C 
ATOM     46  C   UNL A   1      40.513  26.991  28.234  1.00  0.00     0.029 A 
ATOM     47  C   UNL A   1      41.575  27.115  29.230  1.00  0.00     0.049 A 
ATOM     48  H   UNL A   1      41.641  28.423  30.851  1.00  0.00     0.167 HD
ATOM     49  C   UNL A   1      41.706  31.290  34.154  1.00  0.00     0.037 A 
ATOM     50  C   UNL A   1      42.705  26.385  29.263  1.00  0.00     0.037 A 
ATOM     51  C   UNL A   1      42.933  30.545  34.282  1.00  0.00     0.049 A 
ATOM     52  C   UNL A   1      43.713  26.631  30.352  1.00  0.00     0.074 A 
ATOM     53  C   UNL A   1      43.917  30.664  35.248  1.00  0.00     0.029 A 
ATOM     54  N   UNL A   1      43.340  29.538  33.419  1.00  0.00    -0.354 N 
ATOM     55  N   UNL A   1      43.666  27.496  31.337  1.00  0.00    -0.248 NA
ATOM     56  C   UNL A   1      44.927  25.804  30.332  1.00  0.00     0.031 C 
ATOM     57  C   UNL A   1      44.934  29.746  34.953  1.00  0.00     0.029 A 
ATOM     58  C   UNL A   1      44.566  29.035  33.823  1.00  0.00     0.049 A 
ATOM     59  H   UNL A   1      42.833  29.228  32.634  1.00  0.00     0.167 HD
ATOM     60  C   UNL A   1      44.839  27.311  32.060  1.00  0.00     0.074 A 
ATOM     61  C   UNL A   1      45.566  26.239  31.410  1.00  0.00     0.031 C 
ATOM     62  C   UNL A   1      45.279  27.972  33.160  1.00  0.00     0.037 A 
BRANCH  49  63
ATOM     63  C   UNL A   1      41.424  32.376  35.154  1.00  0.00     0.058 A 
ATOM     64  C   UNL A   1      41.895  33.686  34.973  1.00  0.00     0.135 A 
ATOM     65  C   UNL A   1      40.656  32.106  36.298  1.00  0.00     0.135 A 
ATOM     66  F   UNL A   1      42.647  33.992  33.904  1.00  0.00    -0.206 F 
ATOM     67  C   UNL A   1      41.633  34.686  35.905  1.00  0.00     0.059 A 
ATOM     68  C   UNL A   1      40.366  33.095  37.233  1.00  0.00     0.059 A 
ATOM     69  F   UNL A   1      40.185  30.869  36.518  1.00  0.00    -0.206 F 
ATOM     70  C   UNL A   1      40.872  34.380  37.034  1.00  0.00     0.060 A 
BRANCH  70  71
ATOM     71  S   UNL A   1      40.538  35.684  38.238  1.00  0.00     0.124 S 
ATOM     72  O   UNL A   1      41.870  35.921  38.786  1.00  0.00    -0.237 OA
ATOM     73  O   UNL A   1      39.996  36.752  37.405  1.00  0.00    -0.237 OA
ATOM     74  O   UNL A   1      39.584  35.063  39.152  1.00  0.00    -0.744 OA
ENDBRANCH  70  71
ENDBRANCH  49  63
BRANCH  50  75
ATOM     75  C   UNL A   1      42.948  25.354  28.221  1.00  0.00     0.058 A 
ATOM     76  C   UNL A   1      43.526  25.694  26.989  1.00  0.00     0.135 A 
ATOM     77  C   UNL A   1      42.625  24.007  28.445  1.00  0.00     0.135 A 
ATOM     78  F   UNL A   1      43.842  26.971  26.726  1.00  0.00    -0.206 F 
ATOM     79  C   UNL A   1      43.770  24.735  26.012  1.00  0.00     0.059 A 
ATOM     80  C   UNL A   1      42.878  23.028  27.492  1.00  0.00     0.059 A 
ATOM     81  F   UNL A   1      42.078  23.633  29.612  1.00  0.00    -0.206 F 
ATOM     82  C   UNL A   1      43.445  23.403  26.274  1.00  0.00     0.060 A 
BRANCH  82  83
ATOM     83  S   UNL A   1      43.827  22.151  25.029  1.00  0.00     0.124 S 
ATOM     84  O   UNL A   1      45.219  21.845  25.337  1.00  0.00    -0.237 OA
ATOM     85  O   UNL A   1      42.860  21.101  25.337  1.00  0.00    -0.237 OA
ATOM     86  O   UNL A   1      43.595  22.852  23.770  1.00  0.00    -0.744 OA
ENDBRANCH  82  83
ENDBRANCH  50  75
BRANCH  62  87
ATOM     87  C   UNL A   1      46.600  27.541  33.731  1.00  0.00     0.058 A 
ATOM     88  C   UNL A   1      47.803  28.138  33.324  1.00  0.00     0.135 A 
ATOM     89  C   UNL A   1      46.662  26.529  34.702  1.00  0.00     0.135 A 
ATOM     90  F   UNL A   1      47.797  29.106  32.393  1.00  0.00    -0.206 F 
ATOM     91  C   UNL A   1      49.028  27.724  33.838  1.00  0.00     0.059 A 
ATOM     92  C   UNL A   1      47.874  26.115  35.244  1.00  0.00     0.059 A 
ATOM     93  F   UNL A   1      45.538  25.935  35.131  1.00  0.00    -0.206 F 
ATOM     94  C   UNL A   1      49.054  26.706  34.792  1.00  0.00     0.060 A 
BRANCH  94  95
ATOM     95  S   UNL A   1      50.646  26.173  35.456  1.00  0.00     0.124 S 
ATOM     96  O   UNL A   1      50.805  24.869  34.823  1.00  0.00    -0.237 OA
ATOM     97  O   UNL A   1      51.552  27.219  34.990  1.00  0.00    -0.237 OA
ATOM     98  O   UNL A   1      50.418  26.149  36.898  1.00  0.00    -0.744 OA
ENDBRANCH  94  95
ENDBRANCH  62  87
ENDBRANCH  36  37
ENDBRANCH  29  31
ENDBRANCH  28  29
ENDBRANCH  27  28
ENDBRANCH   1  27
TORSDOF 19
ENDMDL
