MODEL 1
REMARK VINA RESULT:     -12.5      0.000      0.000
REMARK SMILES C[C@@H]1CCC[C@@H](C)[NH+]1Cc1cc2c(cc1Cl)C=C(C(=O)OCCOC(=O)c1ccc(-c3c4nc(c(-c5c(F)cc(S(=O)(=O)[O-])cc5F)c5ccc([nH]5)c(-c5c(F)cc(S(=O)(=O)[O-])cc5F)c5nc(c(-c6c(F)cc(S(=O)(=O)[O-])cc6F)c6ccc3[nH]6)C=C5)C=C4)cc1)[C@@H](C(F)(F)F)O2
REMARK SMILES IDX 23 1 22 2 21 3 19 4 20 5 18 6 10 7 11 8 15 9 12 10 14 11
REMARK SMILES IDX 16 12 13 13 98 14 17 15 93 16 9 17 8 18 1 19 2 20 3 21 4 22
REMARK SMILES IDX 6 23 5 25 7 26 94 27 95 28 96 29 97 30 24 31 25 32 26 33
REMARK SMILES IDX 27 34 28 35 92 36 29 37 91 38 30 39 31 40 32 41 85 42 33 43
REMARK SMILES IDX 90 44 84 45 86 46 34 47 89 48 83 49 82 50 35 52 69 53 48 54
REMARK SMILES IDX 68 55 49 56 52 57 67 58 87 59 50 60 51 61 66 63 88 64 53 65
REMARK SMILES IDX 36 66 37 67 46 68 38 69 39 70 45 71 47 72 40 73 41 74 42 75
REMARK SMILES IDX 43 76 44 77 70 78 71 79 80 80 72 81 73 82 79 83 81 84 74 85
REMARK SMILES IDX 75 86 76 87 77 88 78 89 54 90 55 91 64 92 56 93 57 94 63 95
REMARK SMILES IDX 65 96 58 97 59 98 60 99 61 100 62 101
REMARK H PARENT 8 24 86 51 52 62
REMARK Flexibility Score: inf
ROOT
ATOM      1  C   UNL A   1      34.823  31.967  29.536  1.00  0.00     0.275 C 
ENDROOT
BRANCH   1   2
ATOM      2  C   UNL A   1      34.680  31.829  28.019  1.00  0.00     0.275 C 
BRANCH   2   3
ATOM      3  O   UNL A   1      34.253  30.504  27.641  1.00  0.00    -0.459 OA
BRANCH   3   4
ATOM      4  C   UNL A   1      33.022  30.428  27.078  1.00  0.00     0.338 C 
ATOM      5  O   UNL A   1      32.230  31.344  26.956  1.00  0.00    -0.246 OA
BRANCH   4   6
ATOM      6  C   UNL A   1      32.772  29.066  26.554  1.00  0.00     0.087 C 
ATOM      7  C   UNL A   1      33.018  24.109  25.680  1.00  0.00     0.029 A 
ATOM      8  C   UNL A   1      31.983  25.066  25.698  1.00  0.00     0.058 A 
ATOM      9  C   UNL A   1      34.338  24.588  25.722  1.00  0.00     0.050 A 
ATOM     10  C   UNL A   1      32.247  26.421  25.908  1.00  0.00     0.128 A 
ATOM     11  C   UNL A   1      34.603  25.940  25.968  1.00  0.00     0.033 A 
ATOM     12  Cl  UNL A   1      35.712  23.573  25.458  1.00  0.00    -0.084 Cl
ATOM     13  C   UNL A   1      33.555  26.851  26.102  1.00  0.00     0.019 A 
ATOM     14  O   UNL A   1      31.163  27.253  25.983  1.00  0.00    -0.475 OA
ATOM     15  C   UNL A   1      33.809  28.218  26.520  1.00  0.00     0.027 C 
ATOM     16  C   UNL A   1      31.416  28.685  26.024  1.00  0.00     0.316 C 
BRANCH   7  17
ATOM     17  C   UNL A   1      32.663  22.633  25.630  1.00  0.00     0.301 C 
BRANCH  17  18
ATOM     18  N   UNL A   1      33.455  21.746  24.758  1.00  0.00    -0.327 N 
ATOM     19  C   UNL A   1      32.830  22.969  22.626  1.00  0.00     0.075 C 
ATOM     20  C   UNL A   1      33.147  21.645  23.324  1.00  0.00     0.181 C 
ATOM     21  C   UNL A   1      32.100  20.566  23.009  1.00  0.00     0.065 C 
ATOM     22  C   UNL A   1      32.511  19.209  23.577  1.00  0.00     0.012 C 
ATOM     23  C   UNL A   1      33.867  20.462  25.353  1.00  0.00     0.181 C 
ATOM     24  H   UNL A   1      34.280  22.345  24.722  1.00  0.00     0.348 HD
ATOM     25  C   UNL A   1      32.892  19.309  25.051  1.00  0.00     0.065 C 
ATOM     26  C   UNL A   1      35.292  20.094  24.902  1.00  0.00     0.075 C 
ENDBRANCH  17  18
ENDBRANCH   7  17
BRANCH  16  27
ATOM     27  C   UNL A   1      31.208  29.305  24.633  1.00  0.00     0.430 C 
ATOM     28  F   UNL A   1      30.605  28.436  23.786  1.00  0.00    -0.167 F 
ATOM     29  F   UNL A   1      30.410  30.400  24.696  1.00  0.00    -0.167 F 
ATOM     30  F   UNL A   1      32.369  29.689  24.057  1.00  0.00    -0.167 F 
ENDBRANCH  16  27
ENDBRANCH   4   6
ENDBRANCH   3   4
ENDBRANCH   2   3
ENDBRANCH   1   2
BRANCH   1  31
ATOM     31  O   UNL A   1      36.203  31.886  29.929  1.00  0.00    -0.458 OA
BRANCH  31  32
ATOM     32  C   UNL A   1      36.563  30.766  30.599  1.00  0.00     0.338 C 
ATOM     33  O   UNL A   1      35.933  30.184  31.464  1.00  0.00    -0.246 OA
BRANCH  32  34
ATOM     34  C   UNL A   1      37.836  30.273  30.055  1.00  0.00     0.060 A 
ATOM     35  C   UNL A   1      38.044  30.172  28.681  1.00  0.00     0.016 A 
ATOM     36  C   UNL A   1      38.871  29.997  30.948  1.00  0.00     0.016 A 
ATOM     37  C   UNL A   1      39.297  29.759  28.209  1.00  0.00     0.010 A 
ATOM     38  C   UNL A   1      40.128  29.625  30.476  1.00  0.00     0.010 A 
ATOM     39  C   UNL A   1      40.355  29.490  29.100  1.00  0.00    -0.014 A 
BRANCH  39  40
ATOM     40  C   UNL A   1      41.706  29.112  28.600  1.00  0.00     0.031 A 
ATOM     41  C   UNL A   1      42.827  30.118  28.549  1.00  0.00     0.074 A 
ATOM     42  C   UNL A   1      41.915  27.860  28.143  1.00  0.00     0.049 A 
ATOM     43  N   UNL A   1      44.068  29.951  28.161  1.00  0.00    -0.248 NA
ATOM     44  C   UNL A   1      42.510  31.496  28.953  1.00  0.00     0.031 C 
ATOM     45  C   UNL A   1      40.895  26.815  28.046  1.00  0.00     0.029 A 
ATOM     46  N   UNL A   1      43.057  27.250  27.684  1.00  0.00    -0.354 N 
ATOM     47  C   UNL A   1      44.671  31.200  28.259  1.00  0.00     0.074 A 
ATOM     48  C   UNL A   1      43.647  32.125  28.693  1.00  0.00     0.031 C 
ATOM     49  C   UNL A   1      41.467  25.679  27.618  1.00  0.00     0.029 A 
ATOM     50  C   UNL A   1      42.888  25.918  27.388  1.00  0.00     0.049 A 
ATOM     51  H   UNL A   1      43.915  27.722  27.577  1.00  0.00     0.167 HD
ATOM     52  C   UNL A   1      45.965  31.540  28.040  1.00  0.00     0.037 A 
ATOM     53  C   UNL A   1      43.781  24.986  27.001  1.00  0.00     0.037 A 
ATOM     54  C   UNL A   1      46.995  30.609  27.658  1.00  0.00     0.049 A 
ATOM     55  C   UNL A   1      45.225  25.367  26.836  1.00  0.00     0.074 A 
ATOM     56  C   UNL A   1      48.349  30.843  27.489  1.00  0.00     0.029 A 
ATOM     57  N   UNL A   1      46.789  29.263  27.398  1.00  0.00    -0.354 N 
ATOM     58  N   UNL A   1      45.791  26.539  27.002  1.00  0.00    -0.248 NA
ATOM     59  C   UNL A   1      46.155  24.300  26.438  1.00  0.00     0.031 C 
ATOM     60  C   UNL A   1      48.959  29.643  27.109  1.00  0.00     0.029 A 
ATOM     61  C   UNL A   1      47.989  28.655  27.068  1.00  0.00     0.049 A 
ATOM     62  H   UNL A   1      45.918  28.806  27.441  1.00  0.00     0.167 HD
ATOM     63  C   UNL A   1      47.141  26.348  26.737  1.00  0.00     0.074 A 
ATOM     64  C   UNL A   1      47.313  24.946  26.419  1.00  0.00     0.031 C 
ATOM     65  C   UNL A   1      48.147  27.257  26.751  1.00  0.00     0.037 A 
BRANCH  52  66
ATOM     66  C   UNL A   1      46.353  32.979  28.245  1.00  0.00     0.058 A 
ATOM     67  C   UNL A   1      46.818  33.438  29.488  1.00  0.00     0.135 A 
ATOM     68  C   UNL A   1      46.305  33.900  27.185  1.00  0.00     0.135 A 
ATOM     69  F   UNL A   1      46.875  32.602  30.537  1.00  0.00    -0.206 F 
ATOM     70  C   UNL A   1      47.191  34.763  29.683  1.00  0.00     0.059 A 
ATOM     71  C   UNL A   1      46.697  35.226  27.351  1.00  0.00     0.059 A 
ATOM     72  F   UNL A   1      45.873  33.514  25.973  1.00  0.00    -0.206 F 
ATOM     73  C   UNL A   1      47.125  35.651  28.609  1.00  0.00     0.060 A 
BRANCH  73  74
ATOM     74  S   UNL A   1      47.617  37.367  28.879  1.00  0.00     0.124 S 
ATOM     75  O   UNL A   1      49.054  37.227  29.090  1.00  0.00    -0.237 OA
ATOM     76  O   UNL A   1      47.220  38.009  27.629  1.00  0.00    -0.237 OA
ATOM     77  O   UNL A   1      46.845  37.761  30.054  1.00  0.00    -0.744 OA
ENDBRANCH  73  74
ENDBRANCH  52  66
BRANCH  53  78
ATOM     78  C   UNL A   1      43.339  23.580  26.819  1.00  0.00     0.058 A 
ATOM     79  C   UNL A   1      43.164  23.052  25.531  1.00  0.00     0.135 A 
ATOM     80  C   UNL A   1      43.131  22.727  27.912  1.00  0.00     0.135 A 
ATOM     81  F   UNL A   1      43.349  23.833  24.456  1.00  0.00    -0.206 F 
ATOM     82  C   UNL A   1      42.793  21.727  25.332  1.00  0.00     0.059 A 
ATOM     83  C   UNL A   1      42.776  21.392  27.738  1.00  0.00     0.059 A 
ATOM     84  F   UNL A   1      43.303  23.183  29.162  1.00  0.00    -0.206 F 
ATOM     85  C   UNL A   1      42.607  20.902  26.442  1.00  0.00     0.060 A 
BRANCH  85  86
ATOM     86  S   UNL A   1      42.200  19.164  26.169  1.00  0.00     0.124 S 
ATOM     87  O   UNL A   1      43.138  18.804  25.112  1.00  0.00    -0.237 OA
ATOM     88  O   UNL A   1      42.459  18.579  27.481  1.00  0.00    -0.237 OA
ATOM     89  O   UNL A   1      40.793  19.207  25.779  1.00  0.00    -0.744 OA
ENDBRANCH  85  86
ENDBRANCH  53  78
BRANCH  65  90
ATOM     90  C   UNL A   1      49.526  26.771  26.415  1.00  0.00     0.058 A 
ATOM     91  C   UNL A   1      50.319  26.116  27.369  1.00  0.00     0.135 A 
ATOM     92  C   UNL A   1      50.033  26.898  25.112  1.00  0.00     0.135 A 
ATOM     93  F   UNL A   1      49.882  25.976  28.631  1.00  0.00    -0.206 F 
ATOM     94  C   UNL A   1      51.574  25.610  27.046  1.00  0.00     0.059 A 
ATOM     95  C   UNL A   1      51.278  26.384  24.762  1.00  0.00     0.059 A 
ATOM     96  F   UNL A   1      49.310  27.511  24.162  1.00  0.00    -0.206 F 
ATOM     97  C   UNL A   1      52.043  25.746  25.738  1.00  0.00     0.060 A 
BRANCH  97  98
ATOM     98  S   UNL A   1      53.652  25.040  25.319  1.00  0.00     0.124 S 
ATOM     99  O   UNL A   1      53.906  25.641  24.014  1.00  0.00    -0.237 OA
ATOM    100  O   UNL A   1      54.496  25.516  26.410  1.00  0.00    -0.237 OA
ATOM    101  O   UNL A   1      53.401  23.602  25.311  1.00  0.00    -0.744 OA
ENDBRANCH  97  98
ENDBRANCH  65  90
ENDBRANCH  39  40
ENDBRANCH  32  34
ENDBRANCH  31  32
ENDBRANCH   1  31
TORSDOF 17
ENDMDL
MODEL 2
REMARK VINA RESULT:     -12.3      6.800     12.230
REMARK SMILES C[C@@H]1CCC[C@@H](C)[NH+]1Cc1cc2c(cc1Cl)C=C(C(=O)OCCOC(=O)c1ccc(-c3c4nc(c(-c5c(F)cc(S(=O)(=O)[O-])cc5F)c5ccc([nH]5)c(-c5c(F)cc(S(=O)(=O)[O-])cc5F)c5nc(c(-c6c(F)cc(S(=O)(=O)[O-])cc6F)c6ccc3[nH]6)C=C5)C=C4)cc1)[C@@H](C(F)(F)F)O2
REMARK SMILES IDX 23 1 22 2 21 3 19 4 20 5 18 6 10 7 11 8 15 9 12 10 14 11
REMARK SMILES IDX 16 12 13 13 98 14 17 15 93 16 9 17 8 18 1 19 2 20 3 21 4 22
REMARK SMILES IDX 6 23 5 25 7 26 94 27 95 28 96 29 97 30 24 31 25 32 26 33
REMARK SMILES IDX 27 34 28 35 92 36 29 37 91 38 30 39 31 40 32 41 85 42 33 43
REMARK SMILES IDX 90 44 84 45 86 46 34 47 89 48 83 49 82 50 35 52 69 53 48 54
REMARK SMILES IDX 68 55 49 56 52 57 67 58 87 59 50 60 51 61 66 63 88 64 53 65
REMARK SMILES IDX 36 66 37 67 46 68 38 69 39 70 45 71 47 72 40 73 41 74 42 75
REMARK SMILES IDX 43 76 44 77 70 78 71 79 80 80 72 81 73 82 79 83 81 84 74 85
REMARK SMILES IDX 75 86 76 87 77 88 78 89 54 90 55 91 64 92 56 93 57 94 63 95
REMARK SMILES IDX 65 96 58 97 59 98 60 99 61 100 62 101
REMARK H PARENT 8 24 86 51 52 62
REMARK Flexibility Score: inf
ROOT
ATOM      1  C   UNL A   1      39.365  22.710  26.490  1.00  0.00     0.275 C 
ENDROOT
BRANCH   1   2
ATOM      2  C   UNL A   1      38.355  22.089  25.524  1.00  0.00     0.275 C 
BRANCH   2   3
ATOM      3  O   UNL A   1      37.028  22.051  26.088  1.00  0.00    -0.459 OA
BRANCH   3   4
ATOM      4  C   UNL A   1      36.073  21.504  25.296  1.00  0.00     0.338 C 
ATOM      5  O   UNL A   1      36.076  20.373  24.846  1.00  0.00    -0.246 OA
BRANCH   4   6
ATOM      6  C   UNL A   1      34.960  22.457  25.087  1.00  0.00     0.087 C 
ATOM      7  C   UNL A   1      32.011  26.110  23.257  1.00  0.00     0.029 A 
ATOM      8  C   UNL A   1      31.784  24.882  23.912  1.00  0.00     0.058 A 
ATOM      9  C   UNL A   1      33.330  26.592  23.233  1.00  0.00     0.050 A 
ATOM     10  C   UNL A   1      32.842  24.098  24.378  1.00  0.00     0.128 A 
ATOM     11  C   UNL A   1      34.394  25.793  23.668  1.00  0.00     0.033 A 
ATOM     12  Cl  UNL A   1      33.737  28.184  22.697  1.00  0.00    -0.084 Cl
ATOM     13  C   UNL A   1      34.153  24.528  24.203  1.00  0.00     0.019 A 
ATOM     14  O   UNL A   1      32.513  22.890  24.929  1.00  0.00    -0.475 OA
ATOM     15  C   UNL A   1      35.251  23.626  24.502  1.00  0.00     0.027 C 
ATOM     16  C   UNL A   1      33.575  22.136  25.579  1.00  0.00     0.316 C 
BRANCH   7  17
ATOM     17  C   UNL A   1      30.842  26.833  22.611  1.00  0.00     0.301 C 
BRANCH  17  18
ATOM     18  N   UNL A   1      30.171  27.906  23.368  1.00  0.00    -0.327 N 
ATOM     19  C   UNL A   1      28.195  26.462  24.032  1.00  0.00     0.075 C 
ATOM     20  C   UNL A   1      28.726  27.839  23.629  1.00  0.00     0.181 C 
ATOM     21  C   UNL A   1      27.883  28.474  22.513  1.00  0.00     0.065 C 
ATOM     22  C   UNL A   1      28.322  29.910  22.233  1.00  0.00     0.012 C 
ATOM     23  C   UNL A   1      30.647  29.275  23.101  1.00  0.00     0.181 C 
ATOM     24  H   UNL A   1      30.531  27.630  24.282  1.00  0.00     0.348 HD
ATOM     25  C   UNL A   1      29.829  30.005  22.019  1.00  0.00     0.065 C 
ATOM     26  C   UNL A   1      30.675  30.098  24.401  1.00  0.00     0.075 C 
ENDBRANCH  17  18
ENDBRANCH   7  17
BRANCH  16  27
ATOM     27  C   UNL A   1      33.507  22.323  27.103  1.00  0.00     0.430 C 
ATOM     28  F   UNL A   1      32.260  22.663  27.508  1.00  0.00    -0.167 F 
ATOM     29  F   UNL A   1      33.826  21.177  27.755  1.00  0.00    -0.167 F 
ATOM     30  F   UNL A   1      34.350  23.283  27.547  1.00  0.00    -0.167 F 
ENDBRANCH  16  27
ENDBRANCH   4   6
ENDBRANCH   3   4
ENDBRANCH   2   3
ENDBRANCH   1   2
BRANCH   1  31
ATOM     31  O   UNL A   1      39.396  24.140  26.347  1.00  0.00    -0.458 OA
BRANCH  31  32
ATOM     32  C   UNL A   1      40.573  24.739  26.644  1.00  0.00     0.338 C 
ATOM     33  O   UNL A   1      41.650  24.572  26.098  1.00  0.00    -0.246 OA
BRANCH  32  34
ATOM     34  C   UNL A   1      40.350  25.730  27.707  1.00  0.00     0.060 A 
ATOM     35  C   UNL A   1      39.330  25.567  28.642  1.00  0.00     0.016 A 
ATOM     36  C   UNL A   1      41.245  26.793  27.815  1.00  0.00     0.016 A 
ATOM     37  C   UNL A   1      39.197  26.504  29.675  1.00  0.00     0.010 A 
ATOM     38  C   UNL A   1      41.137  27.700  28.867  1.00  0.00     0.010 A 
ATOM     39  C   UNL A   1      40.104  27.575  29.805  1.00  0.00    -0.014 A 
BRANCH  39  40
ATOM     40  C   UNL A   1      40.003  28.536  30.938  1.00  0.00     0.031 A 
ATOM     41  C   UNL A   1      40.911  28.425  32.137  1.00  0.00     0.074 A 
ATOM     42  C   UNL A   1      39.054  29.494  30.911  1.00  0.00     0.049 A 
ATOM     43  N   UNL A   1      40.972  29.189  33.199  1.00  0.00    -0.248 NA
ATOM     44  C   UNL A   1      41.851  27.293  32.162  1.00  0.00     0.031 C 
ATOM     45  C   UNL A   1      38.048  29.656  29.860  1.00  0.00     0.029 A 
ATOM     46  N   UNL A   1      38.784  30.517  31.786  1.00  0.00    -0.354 N 
ATOM     47  C   UNL A   1      41.939  28.624  34.023  1.00  0.00     0.074 A 
ATOM     48  C   UNL A   1      42.402  27.424  33.361  1.00  0.00     0.031 C 
ATOM     49  C   UNL A   1      37.313  30.749  30.118  1.00  0.00     0.029 A 
ATOM     50  C   UNL A   1      37.778  31.353  31.363  1.00  0.00     0.049 A 
ATOM     51  H   UNL A   1      39.267  30.641  32.636  1.00  0.00     0.167 HD
ATOM     52  C   UNL A   1      42.421  29.078  35.206  1.00  0.00     0.037 A 
ATOM     53  C   UNL A   1      37.299  32.492  31.901  1.00  0.00     0.037 A 
ATOM     54  C   UNL A   1      41.996  30.300  35.839  1.00  0.00     0.049 A 
ATOM     55  C   UNL A   1      37.899  33.018  33.174  1.00  0.00     0.074 A 
ATOM     56  C   UNL A   1      42.480  30.883  36.998  1.00  0.00     0.029 A 
ATOM     57  N   UNL A   1      40.996  31.133  35.362  1.00  0.00    -0.354 N 
ATOM     58  N   UNL A   1      38.862  32.507  33.902  1.00  0.00    -0.248 NA
ATOM     59  C   UNL A   1      37.353  34.279  33.696  1.00  0.00     0.031 C 
ATOM     60  C   UNL A   1      41.761  32.060  37.231  1.00  0.00     0.029 A 
ATOM     61  C   UNL A   1      40.847  32.224  36.204  1.00  0.00     0.049 A 
ATOM     62  H   UNL A   1      40.469  30.973  34.547  1.00  0.00     0.167 HD
ATOM     63  C   UNL A   1      39.043  33.387  34.963  1.00  0.00     0.074 A 
ATOM     64  C   UNL A   1      38.103  34.473  34.773  1.00  0.00     0.031 C 
ATOM     65  C   UNL A   1      39.906  33.298  36.004  1.00  0.00     0.037 A 
BRANCH  52  66
ATOM     66  C   UNL A   1      43.495  28.268  35.879  1.00  0.00     0.058 A 
ATOM     67  C   UNL A   1      44.855  28.538  35.661  1.00  0.00     0.135 A 
ATOM     68  C   UNL A   1      43.169  27.244  36.784  1.00  0.00     0.135 A 
ATOM     69  F   UNL A   1      45.223  29.500  34.800  1.00  0.00    -0.206 F 
ATOM     70  C   UNL A   1      45.854  27.803  36.290  1.00  0.00     0.059 A 
ATOM     71  C   UNL A   1      44.153  26.511  37.444  1.00  0.00     0.059 A 
ATOM     72  F   UNL A   1      41.884  26.947  37.034  1.00  0.00    -0.206 F 
ATOM     73  C   UNL A   1      45.493  26.789  37.178  1.00  0.00     0.060 A 
BRANCH  73  74
ATOM     74  S   UNL A   1      46.804  25.848  37.988  1.00  0.00     0.124 S 
ATOM     75  O   UNL A   1      47.176  26.745  39.077  1.00  0.00    -0.237 OA
ATOM     76  O   UNL A   1      46.114  24.624  38.383  1.00  0.00    -0.237 OA
ATOM     77  O   UNL A   1      47.805  25.687  36.938  1.00  0.00    -0.744 OA
ENDBRANCH  73  74
ENDBRANCH  52  66
BRANCH  53  78
ATOM     78  C   UNL A   1      36.241  33.251  31.186  1.00  0.00     0.058 A 
ATOM     79  C   UNL A   1      34.942  33.322  31.711  1.00  0.00     0.135 A 
ATOM     80  C   UNL A   1      36.512  33.953  30.003  1.00  0.00     0.135 A 
ATOM     81  F   UNL A   1      34.638  32.664  32.839  1.00  0.00    -0.206 F 
ATOM     82  C   UNL A   1      33.945  34.062  31.086  1.00  0.00     0.059 A 
ATOM     83  C   UNL A   1      35.534  34.714  29.368  1.00  0.00     0.059 A 
ATOM     84  F   UNL A   1      37.744  33.927  29.473  1.00  0.00    -0.206 F 
ATOM     85  C   UNL A   1      34.252  34.760  29.917  1.00  0.00     0.060 A 
BRANCH  85  86
ATOM     86  S   UNL A   1      32.968  35.777  29.155  1.00  0.00     0.124 S 
ATOM     87  O   UNL A   1      32.391  34.849  28.190  1.00  0.00    -0.237 OA
ATOM     88  O   UNL A   1      32.126  36.114  30.299  1.00  0.00    -0.237 OA
ATOM     89  O   UNL A   1      33.718  36.894  28.589  1.00  0.00    -0.744 OA
ENDBRANCH  85  86
ENDBRANCH  53  78
BRANCH  65  90
ATOM     90  C   UNL A   1      39.882  34.401  37.021  1.00  0.00     0.058 A 
ATOM     91  C   UNL A   1      40.655  35.560  36.855  1.00  0.00     0.135 A 
ATOM     92  C   UNL A   1      39.031  34.330  38.135  1.00  0.00     0.135 A 
ATOM     93  F   UNL A   1      41.490  35.672  35.810  1.00  0.00    -0.206 F 
ATOM     94  C   UNL A   1      40.590  36.611  37.764  1.00  0.00     0.059 A 
ATOM     95  C   UNL A   1      38.937  35.377  39.047  1.00  0.00     0.059 A 
ATOM     96  F   UNL A   1      38.268  33.244  38.335  1.00  0.00    -0.206 F 
ATOM     97  C   UNL A   1      39.726  36.511  38.855  1.00  0.00     0.060 A 
BRANCH  97  98
ATOM     98  S   UNL A   1      39.615  37.903  40.001  1.00  0.00     0.124 S 
ATOM     99  O   UNL A   1      38.447  38.613  39.490  1.00  0.00    -0.237 OA
ATOM    100  O   UNL A   1      39.438  37.237  41.287  1.00  0.00    -0.237 OA
ATOM    101  O   UNL A   1      40.892  38.588  39.828  1.00  0.00    -0.744 OA
ENDBRANCH  97  98
ENDBRANCH  65  90
ENDBRANCH  39  40
ENDBRANCH  32  34
ENDBRANCH  31  32
ENDBRANCH   1  31
TORSDOF 17
ENDMDL
MODEL 3
REMARK VINA RESULT:     -11.7      4.506     10.829
REMARK SMILES C[C@@H]1CCC[C@@H](C)[NH+]1Cc1cc2c(cc1Cl)C=C(C(=O)OCCOC(=O)c1ccc(-c3c4nc(c(-c5c(F)cc(S(=O)(=O)[O-])cc5F)c5ccc([nH]5)c(-c5c(F)cc(S(=O)(=O)[O-])cc5F)c5nc(c(-c6c(F)cc(S(=O)(=O)[O-])cc6F)c6ccc3[nH]6)C=C5)C=C4)cc1)[C@@H](C(F)(F)F)O2
REMARK SMILES IDX 23 1 22 2 21 3 19 4 20 5 18 6 10 7 11 8 15 9 12 10 14 11
REMARK SMILES IDX 16 12 13 13 98 14 17 15 93 16 9 17 8 18 1 19 2 20 3 21 4 22
REMARK SMILES IDX 6 23 5 25 7 26 94 27 95 28 96 29 97 30 24 31 25 32 26 33
REMARK SMILES IDX 27 34 28 35 92 36 29 37 91 38 30 39 31 40 32 41 85 42 33 43
REMARK SMILES IDX 90 44 84 45 86 46 34 47 89 48 83 49 82 50 35 52 69 53 48 54
REMARK SMILES IDX 68 55 49 56 52 57 67 58 87 59 50 60 51 61 66 63 88 64 53 65
REMARK SMILES IDX 36 66 37 67 46 68 38 69 39 70 45 71 47 72 40 73 41 74 42 75
REMARK SMILES IDX 43 76 44 77 70 78 71 79 80 80 72 81 73 82 79 83 81 84 74 85
REMARK SMILES IDX 75 86 76 87 77 88 78 89 54 90 55 91 64 92 56 93 57 94 63 95
REMARK SMILES IDX 65 96 58 97 59 98 60 99 61 100 62 101
REMARK H PARENT 8 24 86 51 52 62
REMARK Flexibility Score: inf
ROOT
ATOM      1  C   UNL A   1      34.606  32.533  28.016  1.00  0.00     0.275 C 
ENDROOT
BRANCH   1   2
ATOM      2  C   UNL A   1      34.009  33.669  28.848  1.00  0.00     0.275 C 
BRANCH   2   3
ATOM      3  O   UNL A   1      34.093  33.399  30.262  1.00  0.00    -0.459 OA
BRANCH   3   4
ATOM      4  C   UNL A   1      34.497  34.441  31.031  1.00  0.00     0.338 C 
ATOM      5  O   UNL A   1      33.995  35.549  31.058  1.00  0.00    -0.246 OA
BRANCH   4   6
ATOM      6  C   UNL A   1      35.620  34.037  31.906  1.00  0.00     0.087 C 
ATOM      7  C   UNL A   1      39.829  31.918  33.693  1.00  0.00     0.029 A 
ATOM      8  C   UNL A   1      39.161  33.141  33.908  1.00  0.00     0.058 A 
ATOM      9  C   UNL A   1      39.140  30.927  32.974  1.00  0.00     0.050 A 
ATOM     10  C   UNL A   1      37.935  33.419  33.301  1.00  0.00     0.128 A 
ATOM     11  C   UNL A   1      37.928  31.216  32.336  1.00  0.00     0.033 A 
ATOM     12  Cl  UNL A   1      39.708  29.300  32.838  1.00  0.00    -0.084 Cl
ATOM     13  C   UNL A   1      37.345  32.477  32.465  1.00  0.00     0.019 A 
ATOM     14  O   UNL A   1      37.413  34.666  33.517  1.00  0.00    -0.475 OA
ATOM     15  C   UNL A   1      36.180  32.842  31.679  1.00  0.00     0.027 C 
ATOM     16  C   UNL A   1      36.060  34.918  33.043  1.00  0.00     0.316 C 
BRANCH   7  17
ATOM     17  C   UNL A   1      41.238  31.738  34.228  1.00  0.00     0.301 C 
BRANCH  17  18
ATOM     18  N   UNL A   1      41.436  30.900  35.426  1.00  0.00    -0.327 N 
ATOM     19  C   UNL A   1      40.911  32.772  37.054  1.00  0.00     0.075 C 
ATOM     20  C   UNL A   1      41.728  31.520  36.726  1.00  0.00     0.181 C 
ATOM     21  C   UNL A   1      43.229  31.738  36.965  1.00  0.00     0.065 C 
ATOM     22  C   UNL A   1      44.014  30.439  36.792  1.00  0.00     0.012 C 
ATOM     23  C   UNL A   1      42.164  29.636  35.212  1.00  0.00     0.181 C 
ATOM     24  H   UNL A   1      40.451  30.668  35.554  1.00  0.00     0.348 HD
ATOM     25  C   UNL A   1      43.677  29.752  35.472  1.00  0.00     0.065 C 
ATOM     26  C   UNL A   1      41.554  28.514  36.072  1.00  0.00     0.075 C 
ENDBRANCH  17  18
ENDBRANCH   7  17
BRANCH  16  27
ATOM     27  C   UNL A   1      35.059  34.808  34.205  1.00  0.00     0.430 C 
ATOM     28  F   UNL A   1      35.685  34.568  35.382  1.00  0.00    -0.167 F 
ATOM     29  F   UNL A   1      34.362  35.962  34.365  1.00  0.00    -0.167 F 
ATOM     30  F   UNL A   1      34.156  33.819  34.020  1.00  0.00    -0.167 F 
ENDBRANCH  16  27
ENDBRANCH   4   6
ENDBRANCH   3   4
ENDBRANCH   2   3
ENDBRANCH   1   2
BRANCH   1  31
ATOM     31  O   UNL A   1      34.621  31.305  28.765  1.00  0.00    -0.458 OA
BRANCH  31  32
ATOM     32  C   UNL A   1      34.838  30.178  28.047  1.00  0.00     0.338 C 
ATOM     33  O   UNL A   1      34.048  29.590  27.328  1.00  0.00    -0.246 OA
BRANCH  32  34
ATOM     34  C   UNL A   1      36.247  29.786  28.189  1.00  0.00     0.060 A 
ATOM     35  C   UNL A   1      37.159  29.983  27.154  1.00  0.00     0.016 A 
ATOM     36  C   UNL A   1      36.675  29.297  29.422  1.00  0.00     0.016 A 
ATOM     37  C   UNL A   1      38.505  29.653  27.358  1.00  0.00     0.010 A 
ATOM     38  C   UNL A   1      38.021  29.009  29.638  1.00  0.00     0.010 A 
ATOM     39  C   UNL A   1      38.953  29.172  28.605  1.00  0.00    -0.014 A 
BRANCH  39  40
ATOM     40  C   UNL A   1      40.393  28.881  28.845  1.00  0.00     0.031 A 
ATOM     41  C   UNL A   1      40.987  27.541  28.490  1.00  0.00     0.074 A 
ATOM     42  C   UNL A   1      41.168  29.816  29.432  1.00  0.00     0.049 A 
ATOM     43  N   UNL A   1      42.225  27.129  28.613  1.00  0.00    -0.248 NA
ATOM     44  C   UNL A   1      40.070  26.522  27.958  1.00  0.00     0.031 C 
ATOM     45  C   UNL A   1      40.702  31.117  29.914  1.00  0.00     0.029 A 
ATOM     46  N   UNL A   1      42.512  29.821  29.715  1.00  0.00    -0.354 N 
ATOM     47  C   UNL A   1      42.231  25.804  28.191  1.00  0.00     0.074 A 
ATOM     48  C   UNL A   1      40.865  25.465  27.858  1.00  0.00     0.031 C 
ATOM     49  C   UNL A   1      41.750  31.818  30.375  1.00  0.00     0.029 A 
ATOM     50  C   UNL A   1      42.958  31.010  30.243  1.00  0.00     0.049 A 
ATOM     51  H   UNL A   1      43.100  29.048  29.554  1.00  0.00     0.167 HD
ATOM     52  C   UNL A   1      43.281  24.957  28.062  1.00  0.00     0.037 A 
ATOM     53  C   UNL A   1      44.204  31.415  30.562  1.00  0.00     0.037 A 
ATOM     54  C   UNL A   1      44.649  25.311  28.345  1.00  0.00     0.049 A 
ATOM     55  C   UNL A   1      45.363  30.486  30.341  1.00  0.00     0.074 A 
ATOM     56  C   UNL A   1      45.790  24.547  28.171  1.00  0.00     0.029 A 
ATOM     57  N   UNL A   1      45.062  26.534  28.849  1.00  0.00    -0.354 N 
ATOM     58  N   UNL A   1      45.359  29.261  29.874  1.00  0.00    -0.248 NA
ATOM     59  C   UNL A   1      46.700  30.996  30.682  1.00  0.00     0.031 C 
ATOM     60  C   UNL A   1      46.892  25.302  28.587  1.00  0.00     0.029 A 
ATOM     61  C   UNL A   1      46.440  26.545  28.994  1.00  0.00     0.049 A 
ATOM     62  H   UNL A   1      44.465  27.284  29.072  1.00  0.00     0.167 HD
ATOM     63  C   UNL A   1      46.688  28.856  29.859  1.00  0.00     0.074 A 
ATOM     64  C   UNL A   1      47.473  29.973  30.344  1.00  0.00     0.031 C 
ATOM     65  C   UNL A   1      47.209  27.664  29.481  1.00  0.00     0.037 A 
BRANCH  52  66
ATOM     66  C   UNL A   1      43.000  23.568  27.556  1.00  0.00     0.058 A 
ATOM     67  C   UNL A   1      43.146  23.246  26.197  1.00  0.00     0.135 A 
ATOM     68  C   UNL A   1      42.626  22.540  28.435  1.00  0.00     0.135 A 
ATOM     69  F   UNL A   1      43.493  24.193  25.312  1.00  0.00    -0.206 F 
ATOM     70  C   UNL A   1      42.901  21.962  25.722  1.00  0.00     0.059 A 
ATOM     71  C   UNL A   1      42.399  21.240  27.986  1.00  0.00     0.059 A 
ATOM     72  F   UNL A   1      42.477  22.791  29.746  1.00  0.00    -0.206 F 
ATOM     73  C   UNL A   1      42.525  20.966  26.625  1.00  0.00     0.060 A 
BRANCH  73  74
ATOM     74  S   UNL A   1      42.215  19.303  25.991  1.00  0.00     0.124 S 
ATOM     75  O   UNL A   1      43.016  19.303  24.772  1.00  0.00    -0.237 OA
ATOM     76  O   UNL A   1      42.709  18.457  27.073  1.00  0.00    -0.237 OA
ATOM     77  O   UNL A   1      40.769  19.280  25.792  1.00  0.00    -0.744 OA
ENDBRANCH  73  74
ENDBRANCH  52  66
BRANCH  53  78
ATOM     78  C   UNL A   1      44.419  32.800  31.053  1.00  0.00     0.058 A 
ATOM     79  C   UNL A   1      44.519  33.058  32.429  1.00  0.00     0.135 A 
ATOM     80  C   UNL A   1      44.576  33.877  30.170  1.00  0.00     0.135 A 
ATOM     81  F   UNL A   1      44.373  32.057  33.310  1.00  0.00    -0.206 F 
ATOM     82  C   UNL A   1      44.765  34.338  32.912  1.00  0.00     0.059 A 
ATOM     83  C   UNL A   1      44.840  35.165  30.630  1.00  0.00     0.059 A 
ATOM     84  F   UNL A   1      44.505  33.676  28.845  1.00  0.00    -0.206 F 
ATOM     85  C   UNL A   1      44.929  35.385  32.005  1.00  0.00     0.060 A 
BRANCH  85  86
ATOM     86  S   UNL A   1      45.322  37.028  32.643  1.00  0.00     0.124 S 
ATOM     87  O   UNL A   1      45.500  37.788  31.411  1.00  0.00    -0.237 OA
ATOM     88  O   UNL A   1      44.131  37.346  33.424  1.00  0.00    -0.237 OA
ATOM     89  O   UNL A   1      46.533  36.802  33.428  1.00  0.00    -0.744 OA
ENDBRANCH  85  86
ENDBRANCH  53  78
BRANCH  65  90
ATOM     90  C   UNL A   1      48.698  27.497  29.574  1.00  0.00     0.058 A 
ATOM     91  C   UNL A   1      49.308  27.064  30.761  1.00  0.00     0.135 A 
ATOM     92  C   UNL A   1      49.514  27.704  28.451  1.00  0.00     0.135 A 
ATOM     93  F   UNL A   1      48.571  26.859  31.864  1.00  0.00    -0.206 F 
ATOM     94  C   UNL A   1      50.680  26.850  30.835  1.00  0.00     0.059 A 
ATOM     95  C   UNL A   1      50.887  27.479  28.497  1.00  0.00     0.059 A 
ATOM     96  F   UNL A   1      48.977  28.112  27.291  1.00  0.00    -0.206 F 
ATOM     97  C   UNL A   1      51.461  27.057  29.696  1.00  0.00     0.060 A 
BRANCH  97  98
ATOM     98  S   UNL A   1      53.235  26.727  29.791  1.00  0.00     0.124 S 
ATOM     99  O   UNL A   1      53.514  26.230  28.449  1.00  0.00    -0.237 OA
ATOM    100  O   UNL A   1      53.781  28.043  30.106  1.00  0.00    -0.237 OA
ATOM    101  O   UNL A   1      53.339  25.740  30.862  1.00  0.00    -0.744 OA
ENDBRANCH  97  98
ENDBRANCH  65  90
ENDBRANCH  39  40
ENDBRANCH  32  34
ENDBRANCH  31  32
ENDBRANCH   1  31
TORSDOF 17
ENDMDL
