MODEL 1
REMARK VINA RESULT:     -12.5      0.000      0.000
REMARK SMILES O=C(COc1ccc(/C=N/NC(=O)c2cc3cc([N+](=O)[O-])ccc3o2)cc1)OCCOC(=O)c1ccc(-c2c3nc(c(-c4c(F)cc(S(=O)(=O)[O-])cc4F)c4ccc([nH]4)c(-c4c(F)cc(S(=O)(=O)[O-])cc4F)c4nc(c(-c5c(F)cc(S(=O)(=O)[O-])cc5F)c5ccc2[nH]5)C=C4)C=C3)cc1
REMARK SMILES IDX 28 1 2 2 1 3 3 4 4 5 5 6 6 7 27 8 7 9 26 10 8 11 9 12 10 13
REMARK SMILES IDX 11 14 12 15 13 17 14 18 15 19 25 20 16 21 24 22 17 23 23 24
REMARK SMILES IDX 18 25 22 26 19 27 20 28 21 29 29 30 30 31 31 32 32 33 33 34
REMARK SMILES IDX 34 35 35 36 99 37 36 38 98 39 37 40 38 41 39 42 92 43 40 44
REMARK SMILES IDX 97 45 91 46 93 47 41 48 96 49 90 50 89 51 42 53 76 54 55 55
REMARK SMILES IDX 75 56 56 57 59 58 74 59 94 60 57 61 58 62 73 64 95 65 60 66
REMARK SMILES IDX 43 67 44 68 53 69 45 70 46 71 52 72 54 73 47 74 48 75 49 76
REMARK SMILES IDX 50 77 51 78 77 79 78 80 87 81 79 82 80 83 86 84 88 85 81 86
REMARK SMILES IDX 82 87 83 88 84 89 85 90 61 91 62 92 71 93 63 94 64 95 70 96
REMARK SMILES IDX 72 97 65 98 66 99 67 100 68 101 69 102
REMARK H PARENT 11 16 93 52 59 63
REMARK Flexibility Score: inf
ROOT
ATOM      1  O   UNL A   1      34.305  33.267  30.533  1.00  0.00    -0.460 OA
ENDROOT
BRANCH   1   2
ATOM      2  C   UNL A   1      33.900  34.031  29.489  1.00  0.00     0.344 C 
ATOM      3  O   UNL A   1      33.491  35.175  29.682  1.00  0.00    -0.248 OA
BRANCH   2   4
ATOM      4  C   UNL A   1      34.036  33.461  28.081  1.00  0.00     0.351 C 
BRANCH   4   5
ATOM      5  O   UNL A   1      34.978  32.395  27.980  1.00  0.00    -0.482 OA
BRANCH   5   6
ATOM      6  C   UNL A   1      34.320  31.259  27.602  1.00  0.00     0.120 A 
ATOM      7  C   UNL A   1      32.982  31.364  27.235  1.00  0.00     0.047 A 
ATOM      8  C   UNL A   1      34.994  30.038  27.566  1.00  0.00     0.047 A 
ATOM      9  C   UNL A   1      32.320  30.233  26.768  1.00  0.00     0.013 A 
ATOM     10  C   UNL A   1      34.341  28.912  27.083  1.00  0.00     0.013 A 
ATOM     11  C   UNL A   1      33.008  29.016  26.685  1.00  0.00    -0.005 A 
BRANCH  11  12
ATOM     12  C   UNL A   1      32.318  27.786  26.268  1.00  0.00     0.141 C 
ATOM     13  N   UNL A   1      31.231  27.418  26.850  1.00  0.00    -0.180 NA
BRANCH  13  14
ATOM     14  N   UNL A   1      30.680  26.190  26.628  1.00  0.00    -0.240 N 
ATOM     15  C   UNL A   1      30.633  25.445  25.471  1.00  0.00     0.307 C 
ATOM     16  H   UNL A   1      30.251  25.774  27.412  1.00  0.00     0.194 HD
ATOM     17  O   UNL A   1      31.031  24.277  25.509  1.00  0.00    -0.264 OA
BRANCH  15  18
ATOM     18  C   UNL A   1      29.983  25.956  24.283  1.00  0.00     0.194 A 
ATOM     19  C   UNL A   1      28.676  26.391  24.117  1.00  0.00     0.065 A 
ATOM     20  O   UNL A   1      30.793  26.610  23.391  1.00  0.00    -0.451 OA
ATOM     21  C   UNL A   1      28.775  27.611  23.391  1.00  0.00     0.028 A 
ATOM     22  C   UNL A   1      30.093  27.692  22.962  1.00  0.00     0.135 A 
ATOM     23  C   UNL A   1      27.927  28.716  23.202  1.00  0.00     0.097 A 
ATOM     24  C   UNL A   1      30.653  28.797  22.325  1.00  0.00     0.055 A 
ATOM     25  C   UNL A   1      28.511  29.897  22.702  1.00  0.00     0.270 A 
ATOM     26  C   UNL A   1      29.842  29.935  22.252  1.00  0.00     0.089 A 
BRANCH  25  27
ATOM     27  N   UNL A   1      27.741  31.146  22.775  1.00  0.00     0.062 N 
ATOM     28  O   UNL A   1      27.843  31.943  21.830  1.00  0.00    -0.258 OA
ATOM     29  O   UNL A   1      27.011  31.317  23.762  1.00  0.00    -0.258 OA
ENDBRANCH  25  27
ENDBRANCH  15  18
ENDBRANCH  13  14
ENDBRANCH  11  12
ENDBRANCH   5   6
ENDBRANCH   4   5
ENDBRANCH   2   4
ENDBRANCH   1   2
BRANCH   1  30
ATOM     30  C   UNL A   1      35.296  33.692  31.490  1.00  0.00     0.274 C 
BRANCH  30  31
ATOM     31  C   UNL A   1      36.573  32.859  31.369  1.00  0.00     0.275 C 
BRANCH  31  32
ATOM     32  O   UNL A   1      36.313  31.648  30.634  1.00  0.00    -0.458 OA
BRANCH  32  33
ATOM     33  C   UNL A   1      36.876  30.518  31.144  1.00  0.00     0.338 C 
ATOM     34  O   UNL A   1      36.313  29.662  31.791  1.00  0.00    -0.246 OA
BRANCH  33  35
ATOM     35  C   UNL A   1      38.251  30.379  30.601  1.00  0.00     0.060 A 
ATOM     36  C   UNL A   1      38.404  30.272  29.213  1.00  0.00     0.016 A 
ATOM     37  C   UNL A   1      39.376  30.364  31.433  1.00  0.00     0.016 A 
ATOM     38  C   UNL A   1      39.673  30.081  28.659  1.00  0.00     0.010 A 
ATOM     39  C   UNL A   1      40.646  30.171  30.878  1.00  0.00     0.010 A 
ATOM     40  C   UNL A   1      40.795  29.978  29.492  1.00  0.00    -0.014 A 
BRANCH  40  41
ATOM     41  C   UNL A   1      42.064  29.434  28.947  1.00  0.00     0.031 A 
ATOM     42  C   UNL A   1      43.247  30.365  28.846  1.00  0.00     0.074 A 
ATOM     43  C   UNL A   1      42.190  28.148  28.575  1.00  0.00     0.049 A 
ATOM     44  N   UNL A   1      44.466  30.121  28.441  1.00  0.00    -0.248 NA
ATOM     45  C   UNL A   1      43.015  31.760  29.254  1.00  0.00     0.031 C 
ATOM     46  C   UNL A   1      41.136  27.138  28.638  1.00  0.00     0.029 A 
ATOM     47  N   UNL A   1      43.273  27.471  28.069  1.00  0.00    -0.354 N 
ATOM     48  C   UNL A   1      45.146  31.329  28.546  1.00  0.00     0.074 A 
ATOM     49  C   UNL A   1      44.193  32.314  29.009  1.00  0.00     0.031 C 
ATOM     50  C   UNL A   1      41.625  25.967  28.189  1.00  0.00     0.029 A 
ATOM     51  C   UNL A   1      43.023  26.148  27.794  1.00  0.00     0.049 A 
ATOM     52  H   UNL A   1      44.149  27.895  27.918  1.00  0.00     0.167 HD
ATOM     53  C   UNL A   1      46.450  31.598  28.296  1.00  0.00     0.037 A 
ATOM     54  C   UNL A   1      43.830  25.193  27.287  1.00  0.00     0.037 A 
ATOM     55  C   UNL A   1      47.401  30.623  27.834  1.00  0.00     0.049 A 
ATOM     56  C   UNL A   1      45.269  25.525  26.969  1.00  0.00     0.074 A 
ATOM     57  C   UNL A   1      48.749  30.792  27.576  1.00  0.00     0.029 A 
ATOM     58  N   UNL A   1      47.101  29.299  27.550  1.00  0.00    -0.354 N 
ATOM     59  N   UNL A   1      45.911  26.660  27.122  1.00  0.00    -0.248 NA
ATOM     60  C   UNL A   1      46.096  24.438  26.425  1.00  0.00     0.031 C 
ATOM     61  C   UNL A   1      49.256  29.581  27.089  1.00  0.00     0.029 A 
ATOM     62  C   UNL A   1      48.235  28.644  27.099  1.00  0.00     0.049 A 
ATOM     63  H   UNL A   1      46.214  28.884  27.655  1.00  0.00     0.167 HD
ATOM     64  C   UNL A   1      47.227  26.409  26.739  1.00  0.00     0.074 A 
ATOM     65  C   UNL A   1      47.287  25.017  26.344  1.00  0.00     0.031 C 
ATOM     66  C   UNL A   1      48.290  27.252  26.727  1.00  0.00     0.037 A 
BRANCH  53  67
ATOM     67  C   UNL A   1      46.910  33.015  28.493  1.00  0.00     0.058 A 
ATOM     68  C   UNL A   1      47.538  33.431  29.678  1.00  0.00     0.135 A 
ATOM     69  C   UNL A   1      46.716  33.970  27.483  1.00  0.00     0.135 A 
ATOM     70  F   UNL A   1      47.728  32.563  30.685  1.00  0.00    -0.206 F 
ATOM     71  C   UNL A   1      47.923  34.755  29.870  1.00  0.00     0.059 A 
ATOM     72  C   UNL A   1      47.120  35.292  27.643  1.00  0.00     0.059 A 
ATOM     73  F   UNL A   1      46.118  33.627  26.332  1.00  0.00    -0.206 F 
ATOM     74  C   UNL A   1      47.705  35.678  28.847  1.00  0.00     0.060 A 
BRANCH  74  75
ATOM     75  S   UNL A   1      48.188  37.396  29.117  1.00  0.00     0.124 S 
ATOM     76  O   UNL A   1      48.500  37.826  27.757  1.00  0.00    -0.237 OA
ATOM     77  O   UNL A   1      46.982  37.973  29.703  1.00  0.00    -0.237 OA
ATOM     78  O   UNL A   1      49.331  37.290  30.019  1.00  0.00    -0.744 OA
ENDBRANCH  74  75
ENDBRANCH  53  67
BRANCH  54  79
ATOM     79  C   UNL A   1      43.314  23.815  27.071  1.00  0.00     0.058 A 
ATOM     80  C   UNL A   1      42.966  23.366  25.788  1.00  0.00     0.135 A 
ATOM     81  C   UNL A   1      43.141  22.925  28.142  1.00  0.00     0.135 A 
ATOM     82  F   UNL A   1      43.100  24.183  24.733  1.00  0.00    -0.206 F 
ATOM     83  C   UNL A   1      42.449  22.092  25.575  1.00  0.00     0.059 A 
ATOM     84  C   UNL A   1      42.647  21.638  27.953  1.00  0.00     0.059 A 
ATOM     85  F   UNL A   1      43.465  23.302  29.389  1.00  0.00    -0.206 F 
ATOM     86  C   UNL A   1      42.295  21.233  26.665  1.00  0.00     0.060 A 
BRANCH  86  87
ATOM     87  S   UNL A   1      41.662  19.567  26.373  1.00  0.00     0.124 S 
ATOM     88  O   UNL A   1      41.976  18.907  27.636  1.00  0.00    -0.237 OA
ATOM     89  O   UNL A   1      40.247  19.818  26.119  1.00  0.00    -0.237 OA
ATOM     90  O   UNL A   1      42.429  19.115  25.217  1.00  0.00    -0.744 OA
ENDBRANCH  86  87
ENDBRANCH  54  79
BRANCH  66  91
ATOM     91  C   UNL A   1      49.629  26.684  26.339  1.00  0.00     0.058 A 
ATOM     92  C   UNL A   1      50.146  26.809  25.040  1.00  0.00     0.135 A 
ATOM     93  C   UNL A   1      50.429  26.046  27.303  1.00  0.00     0.135 A 
ATOM     94  F   UNL A   1      49.426  27.409  24.080  1.00  0.00    -0.206 F 
ATOM     95  C   UNL A   1      51.394  26.289  24.701  1.00  0.00     0.059 A 
ATOM     96  C   UNL A   1      51.691  25.546  26.993  1.00  0.00     0.059 A 
ATOM     97  F   UNL A   1      49.992  25.914  28.565  1.00  0.00    -0.206 F 
ATOM     98  C   UNL A   1      52.158  25.657  25.685  1.00  0.00     0.060 A 
BRANCH  98  99
ATOM     99  S   UNL A   1      53.780  25.002  25.239  1.00  0.00     0.124 S 
ATOM    100  O   UNL A   1      53.488  23.582  25.076  1.00  0.00    -0.237 OA
ATOM    101  O   UNL A   1      54.087  25.731  24.012  1.00  0.00    -0.237 OA
ATOM    102  O   UNL A   1      54.613  25.346  26.388  1.00  0.00    -0.744 OA
ENDBRANCH  98  99
ENDBRANCH  66  91
ENDBRANCH  40  41
ENDBRANCH  33  35
ENDBRANCH  32  33
ENDBRANCH  31  32
ENDBRANCH  30  31
ENDBRANCH   1  30
TORSDOF 20
ENDMDL
MODEL 2
REMARK VINA RESULT:     -12.0      6.566     12.572
REMARK SMILES O=C(COc1ccc(/C=N/NC(=O)c2cc3cc([N+](=O)[O-])ccc3o2)cc1)OCCOC(=O)c1ccc(-c2c3nc(c(-c4c(F)cc(S(=O)(=O)[O-])cc4F)c4ccc([nH]4)c(-c4c(F)cc(S(=O)(=O)[O-])cc4F)c4nc(c(-c5c(F)cc(S(=O)(=O)[O-])cc5F)c5ccc2[nH]5)C=C4)C=C3)cc1
REMARK SMILES IDX 28 1 2 2 1 3 3 4 4 5 5 6 6 7 27 8 7 9 26 10 8 11 9 12 10 13
REMARK SMILES IDX 11 14 12 15 13 17 14 18 15 19 25 20 16 21 24 22 17 23 23 24
REMARK SMILES IDX 18 25 22 26 19 27 20 28 21 29 29 30 30 31 31 32 32 33 33 34
REMARK SMILES IDX 34 35 35 36 99 37 36 38 98 39 37 40 38 41 39 42 92 43 40 44
REMARK SMILES IDX 97 45 91 46 93 47 41 48 96 49 90 50 89 51 42 53 76 54 55 55
REMARK SMILES IDX 75 56 56 57 59 58 74 59 94 60 57 61 58 62 73 64 95 65 60 66
REMARK SMILES IDX 43 67 44 68 53 69 45 70 46 71 52 72 54 73 47 74 48 75 49 76
REMARK SMILES IDX 50 77 51 78 77 79 78 80 87 81 79 82 80 83 86 84 88 85 81 86
REMARK SMILES IDX 82 87 83 88 84 89 85 90 61 91 62 92 71 93 63 94 64 95 70 96
REMARK SMILES IDX 72 97 65 98 66 99 67 100 68 101 69 102
REMARK H PARENT 11 16 93 52 59 63
REMARK Flexibility Score: inf
ROOT
ATOM      1  O   UNL A   1      42.718  20.852  25.400  1.00  0.00    -0.460 OA
ENDROOT
BRANCH   1   2
ATOM      2  C   UNL A   1      42.154  19.959  26.251  1.00  0.00     0.344 C 
ATOM      3  O   UNL A   1      42.778  18.957  26.598  1.00  0.00    -0.248 OA
BRANCH   2   4
ATOM      4  C   UNL A   1      40.770  20.270  26.813  1.00  0.00     0.351 C 
BRANCH   4   5
ATOM      5  O   UNL A   1      40.566  21.651  27.105  1.00  0.00    -0.482 OA
BRANCH   5   6
ATOM      6  C   UNL A   1      39.442  22.078  26.456  1.00  0.00     0.120 A 
ATOM      7  C   UNL A   1      38.721  21.152  25.709  1.00  0.00     0.047 A 
ATOM      8  C   UNL A   1      39.028  23.405  26.570  1.00  0.00     0.047 A 
ATOM      9  C   UNL A   1      37.531  21.549  25.110  1.00  0.00     0.013 A 
ATOM     10  C   UNL A   1      37.832  23.800  25.989  1.00  0.00     0.013 A 
ATOM     11  C   UNL A   1      37.088  22.869  25.263  1.00  0.00    -0.005 A 
BRANCH  11  12
ATOM     12  C   UNL A   1      35.874  23.342  24.580  1.00  0.00     0.141 C 
ATOM     13  N   UNL A   1      35.448  22.749  23.520  1.00  0.00    -0.180 NA
BRANCH  13  14
ATOM     14  N   UNL A   1      34.451  23.279  22.755  1.00  0.00    -0.240 N 
ATOM     15  C   UNL A   1      33.102  23.374  23.013  1.00  0.00     0.307 C 
ATOM     16  H   UNL A   1      34.739  23.649  21.888  1.00  0.00     0.194 HD
ATOM     17  O   UNL A   1      32.560  24.479  22.907  1.00  0.00    -0.264 OA
BRANCH  15  18
ATOM     18  C   UNL A   1      32.303  22.188  23.239  1.00  0.00     0.194 A 
ATOM     19  C   UNL A   1      32.050  21.125  22.385  1.00  0.00     0.065 A 
ATOM     20  O   UNL A   1      32.232  21.752  24.537  1.00  0.00    -0.451 OA
ATOM     21  C   UNL A   1      32.230  19.957  23.177  1.00  0.00     0.028 A 
ATOM     22  C   UNL A   1      32.329  20.398  24.490  1.00  0.00     0.135 A 
ATOM     23  C   UNL A   1      32.479  18.603  22.892  1.00  0.00     0.097 A 
ATOM     24  C   UNL A   1      32.642  19.587  25.577  1.00  0.00     0.055 A 
ATOM     25  C   UNL A   1      32.948  17.799  23.950  1.00  0.00     0.270 A 
ATOM     26  C   UNL A   1      33.010  18.272  25.272  1.00  0.00     0.089 A 
BRANCH  25  27
ATOM     27  N   UNL A   1      33.504  16.476  23.634  1.00  0.00     0.062 N 
ATOM     28  O   UNL A   1      34.140  16.355  22.575  1.00  0.00    -0.258 OA
ATOM     29  O   UNL A   1      33.334  15.566  24.458  1.00  0.00    -0.258 OA
ENDBRANCH  25  27
ENDBRANCH  15  18
ENDBRANCH  13  14
ENDBRANCH  11  12
ENDBRANCH   5   6
ENDBRANCH   4   5
ENDBRANCH   2   4
ENDBRANCH   1   2
BRANCH   1  30
ATOM     30  C   UNL A   1      43.517  21.969  25.838  1.00  0.00     0.274 C 
BRANCH  30  31
ATOM     31  C   UNL A   1      42.987  23.285  25.265  1.00  0.00     0.275 C 
BRANCH  31  32
ATOM     32  O   UNL A   1      42.694  24.212  26.327  1.00  0.00    -0.458 OA
BRANCH  32  33
ATOM     33  C   UNL A   1      43.196  25.468  26.167  1.00  0.00     0.338 C 
ATOM     34  O   UNL A   1      43.851  25.867  25.229  1.00  0.00    -0.246 OA
BRANCH  33  35
ATOM     35  C   UNL A   1      42.633  26.348  27.222  1.00  0.00     0.060 A 
ATOM     36  C   UNL A   1      43.007  27.699  27.222  1.00  0.00     0.016 A 
ATOM     37  C   UNL A   1      41.748  25.867  28.192  1.00  0.00     0.016 A 
ATOM     38  C   UNL A   1      42.551  28.553  28.229  1.00  0.00     0.010 A 
ATOM     39  C   UNL A   1      41.293  26.722  29.201  1.00  0.00     0.010 A 
ATOM     40  C   UNL A   1      41.732  28.058  29.254  1.00  0.00    -0.014 A 
BRANCH  40  41
ATOM     41  C   UNL A   1      41.540  28.858  30.490  1.00  0.00     0.031 A 
ATOM     42  C   UNL A   1      40.383  29.824  30.533  1.00  0.00     0.074 A 
ATOM     43  C   UNL A   1      42.342  28.724  31.560  1.00  0.00     0.049 A 
ATOM     44  N   UNL A   1      39.985  30.604  31.505  1.00  0.00    -0.248 NA
ATOM     45  C   UNL A   1      39.569  29.924  29.310  1.00  0.00     0.031 C 
ATOM     46  C   UNL A   1      43.483  27.816  31.660  1.00  0.00     0.029 A 
ATOM     47  N   UNL A   1      42.312  29.359  32.778  1.00  0.00    -0.354 N 
ATOM     48  C   UNL A   1      38.877  31.284  31.012  1.00  0.00     0.074 A 
ATOM     49  C   UNL A   1      38.694  30.860  29.641  1.00  0.00     0.031 C 
ATOM     50  C   UNL A   1      44.043  27.950  32.876  1.00  0.00     0.029 A 
ATOM     51  C   UNL A   1      43.310  28.964  33.636  1.00  0.00     0.049 A 
ATOM     52  H   UNL A   1      41.636  30.035  33.015  1.00  0.00     0.167 HD
ATOM     53  C   UNL A   1      38.073  32.172  31.643  1.00  0.00     0.037 A 
ATOM     54  C   UNL A   1      43.596  29.370  34.890  1.00  0.00     0.037 A 
ATOM     55  C   UNL A   1      38.252  32.599  33.005  1.00  0.00     0.049 A 
ATOM     56  C   UNL A   1      42.713  30.397  35.560  1.00  0.00     0.074 A 
ATOM     57  C   UNL A   1      37.475  33.475  33.741  1.00  0.00     0.029 A 
ATOM     58  N   UNL A   1      39.287  32.188  33.832  1.00  0.00    -0.354 N 
ATOM     59  N   UNL A   1      41.639  30.995  35.099  1.00  0.00    -0.248 NA
ATOM     60  C   UNL A   1      43.076  30.792  36.930  1.00  0.00     0.031 C 
ATOM     61  C   UNL A   1      38.068  33.633  34.999  1.00  0.00     0.029 A 
ATOM     62  C   UNL A   1      39.182  32.810  35.065  1.00  0.00     0.049 A 
ATOM     63  H   UNL A   1      39.992  31.549  33.581  1.00  0.00     0.167 HD
ATOM     64  C   UNL A   1      41.172  31.797  36.138  1.00  0.00     0.074 A 
ATOM     65  C   UNL A   1      42.082  31.611  37.248  1.00  0.00     0.031 C 
ATOM     66  C   UNL A   1      40.082  32.604  36.172  1.00  0.00     0.037 A 
BRANCH  53  67
ATOM     67  C   UNL A   1      36.941  32.760  30.848  1.00  0.00     0.058 A 
ATOM     68  C   UNL A   1      37.153  33.766  29.891  1.00  0.00     0.135 A 
ATOM     69  C   UNL A   1      35.626  32.313  31.048  1.00  0.00     0.135 A 
ATOM     70  F   UNL A   1      38.388  34.246  29.674  1.00  0.00    -0.206 F 
ATOM     71  C   UNL A   1      36.095  34.335  29.188  1.00  0.00     0.059 A 
ATOM     72  C   UNL A   1      34.557  32.847  30.336  1.00  0.00     0.059 A 
ATOM     73  F   UNL A   1      35.368  31.356  31.953  1.00  0.00    -0.206 F 
ATOM     74  C   UNL A   1      34.800  33.871  29.422  1.00  0.00     0.060 A 
BRANCH  74  75
ATOM     75  S   UNL A   1      33.433  34.632  28.521  1.00  0.00     0.124 S 
ATOM     76  O   UNL A   1      33.023  33.541  27.642  1.00  0.00    -0.237 OA
ATOM     77  O   UNL A   1      32.500  34.968  29.592  1.00  0.00    -0.237 OA
ATOM     78  O   UNL A   1      34.058  35.772  27.857  1.00  0.00    -0.744 OA
ENDBRANCH  74  75
ENDBRANCH  53  67
BRANCH  54  79
ATOM     79  C   UNL A   1      44.753  28.788  35.620  1.00  0.00     0.058 A 
ATOM     80  C   UNL A   1      46.040  29.332  35.487  1.00  0.00     0.135 A 
ATOM     81  C   UNL A   1      44.603  27.666  36.449  1.00  0.00     0.135 A 
ATOM     82  F   UNL A   1      46.239  30.396  34.695  1.00  0.00    -0.206 F 
ATOM     83  C   UNL A   1      47.139  28.776  36.135  1.00  0.00     0.059 A 
ATOM     84  C   UNL A   1      45.682  27.105  37.127  1.00  0.00     0.059 A 
ATOM     85  F   UNL A   1      43.392  27.111  36.617  1.00  0.00    -0.206 F 
ATOM     86  C   UNL A   1      46.949  27.663  36.955  1.00  0.00     0.060 A 
BRANCH  86  87
ATOM     87  S   UNL A   1      48.374  26.974  37.825  1.00  0.00     0.124 S 
ATOM     88  O   UNL A   1      49.094  28.182  38.214  1.00  0.00    -0.237 OA
ATOM     89  O   UNL A   1      47.740  26.232  38.910  1.00  0.00    -0.237 OA
ATOM     90  O   UNL A   1      49.022  26.152  36.808  1.00  0.00    -0.744 OA
ENDBRANCH  86  87
ENDBRANCH  54  79
BRANCH  66  91
ATOM     91  C   UNL A   1      39.766  33.299  37.469  1.00  0.00     0.058 A 
ATOM     92  C   UNL A   1      40.420  34.477  37.865  1.00  0.00     0.135 A 
ATOM     93  C   UNL A   1      38.753  32.801  38.307  1.00  0.00     0.135 A 
ATOM     94  F   UNL A   1      41.395  34.998  37.104  1.00  0.00    -0.206 F 
ATOM     95  C   UNL A   1      40.105  35.115  39.062  1.00  0.00     0.059 A 
ATOM     96  C   UNL A   1      38.403  33.439  39.493  1.00  0.00     0.059 A 
ATOM     97  F   UNL A   1      38.083  31.688  37.969  1.00  0.00    -0.206 F 
ATOM     98  C   UNL A   1      39.097  34.587  39.871  1.00  0.00     0.060 A 
BRANCH  98  99
ATOM     99  S   UNL A   1      38.686  35.432  41.413  1.00  0.00     0.124 S 
ATOM    100  O   UNL A   1      38.755  36.832  41.008  1.00  0.00    -0.237 OA
ATOM    101  O   UNL A   1      37.350  34.922  41.705  1.00  0.00    -0.237 OA
ATOM    102  O   UNL A   1      39.732  34.991  42.332  1.00  0.00    -0.744 OA
ENDBRANCH  98  99
ENDBRANCH  66  91
ENDBRANCH  40  41
ENDBRANCH  33  35
ENDBRANCH  32  33
ENDBRANCH  31  32
ENDBRANCH  30  31
ENDBRANCH   1  30
TORSDOF 20
ENDMDL
MODEL 3
REMARK VINA RESULT:     -12.0      6.592     12.654
REMARK SMILES O=C(COc1ccc(/C=N/NC(=O)c2cc3cc([N+](=O)[O-])ccc3o2)cc1)OCCOC(=O)c1ccc(-c2c3nc(c(-c4c(F)cc(S(=O)(=O)[O-])cc4F)c4ccc([nH]4)c(-c4c(F)cc(S(=O)(=O)[O-])cc4F)c4nc(c(-c5c(F)cc(S(=O)(=O)[O-])cc5F)c5ccc2[nH]5)C=C4)C=C3)cc1
REMARK SMILES IDX 28 1 2 2 1 3 3 4 4 5 5 6 6 7 27 8 7 9 26 10 8 11 9 12 10 13
REMARK SMILES IDX 11 14 12 15 13 17 14 18 15 19 25 20 16 21 24 22 17 23 23 24
REMARK SMILES IDX 18 25 22 26 19 27 20 28 21 29 29 30 30 31 31 32 32 33 33 34
REMARK SMILES IDX 34 35 35 36 99 37 36 38 98 39 37 40 38 41 39 42 92 43 40 44
REMARK SMILES IDX 97 45 91 46 93 47 41 48 96 49 90 50 89 51 42 53 76 54 55 55
REMARK SMILES IDX 75 56 56 57 59 58 74 59 94 60 57 61 58 62 73 64 95 65 60 66
REMARK SMILES IDX 43 67 44 68 53 69 45 70 46 71 52 72 54 73 47 74 48 75 49 76
REMARK SMILES IDX 50 77 51 78 77 79 78 80 87 81 79 82 80 83 86 84 88 85 81 86
REMARK SMILES IDX 82 87 83 88 84 89 85 90 61 91 62 92 71 93 63 94 64 95 70 96
REMARK SMILES IDX 72 97 65 98 66 99 67 100 68 101 69 102
REMARK H PARENT 11 16 93 52 59 63
REMARK Flexibility Score: inf
ROOT
ATOM      1  O   UNL A   1      43.684  22.197  26.165  1.00  0.00    -0.460 OA
ENDROOT
BRANCH   1   2
ATOM      2  C   UNL A   1      42.539  21.545  25.845  1.00  0.00     0.344 C 
ATOM      3  O   UNL A   1      42.584  20.405  25.385  1.00  0.00    -0.248 OA
BRANCH   2   4
ATOM      4  C   UNL A   1      41.209  22.234  26.138  1.00  0.00     0.351 C 
BRANCH   4   5
ATOM      5  O   UNL A   1      40.203  21.353  26.633  1.00  0.00    -0.482 OA
BRANCH   5   6
ATOM      6  C   UNL A   1      39.003  21.698  26.079  1.00  0.00     0.120 A 
ATOM      7  C   UNL A   1      38.582  23.019  26.191  1.00  0.00     0.047 A 
ATOM      8  C   UNL A   1      38.245  20.743  25.401  1.00  0.00     0.047 A 
ATOM      9  C   UNL A   1      37.403  23.405  25.562  1.00  0.00     0.013 A 
ATOM     10  C   UNL A   1      37.078  21.130  24.757  1.00  0.00     0.013 A 
ATOM     11  C   UNL A   1      36.663  22.460  24.839  1.00  0.00    -0.005 A 
BRANCH  11  12
ATOM     12  C   UNL A   1      35.375  22.818  24.226  1.00  0.00     0.141 C 
ATOM     13  N   UNL A   1      35.274  22.954  22.951  1.00  0.00    -0.180 NA
BRANCH  13  14
ATOM     14  N   UNL A   1      34.155  23.476  22.373  1.00  0.00    -0.240 N 
ATOM     15  C   UNL A   1      32.859  23.506  22.837  1.00  0.00     0.307 C 
ATOM     16  H   UNL A   1      34.294  23.895  21.491  1.00  0.00     0.194 HD
ATOM     17  O   UNL A   1      32.272  24.591  22.869  1.00  0.00    -0.264 OA
BRANCH  15  18
ATOM     18  C   UNL A   1      32.143  22.280  23.123  1.00  0.00     0.194 A 
ATOM     19  C   UNL A   1      31.913  21.187  22.300  1.00  0.00     0.065 A 
ATOM     20  O   UNL A   1      32.162  21.866  24.429  1.00  0.00    -0.451 OA
ATOM     21  C   UNL A   1      32.200  20.047  23.103  1.00  0.00     0.028 A 
ATOM     22  C   UNL A   1      32.337  20.520  24.401  1.00  0.00     0.135 A 
ATOM     23  C   UNL A   1      32.515  18.704  22.829  1.00  0.00     0.097 A 
ATOM     24  C   UNL A   1      32.750  19.750  25.485  1.00  0.00     0.055 A 
ATOM     25  C   UNL A   1      33.082  17.951  23.876  1.00  0.00     0.270 A 
ATOM     26  C   UNL A   1      33.179  18.452  25.185  1.00  0.00     0.089 A 
BRANCH  25  27
ATOM     27  N   UNL A   1      33.699  16.657  23.555  1.00  0.00     0.062 N 
ATOM     28  O   UNL A   1      34.289  16.552  22.469  1.00  0.00    -0.258 OA
ATOM     29  O   UNL A   1      33.622  15.755  24.401  1.00  0.00    -0.258 OA
ENDBRANCH  25  27
ENDBRANCH  15  18
ENDBRANCH  13  14
ENDBRANCH  11  12
ENDBRANCH   5   6
ENDBRANCH   4   5
ENDBRANCH   2   4
ENDBRANCH   1   2
BRANCH   1  30
ATOM     30  C   UNL A   1      43.748  23.618  26.404  1.00  0.00     0.274 C 
BRANCH  30  31
ATOM     31  C   UNL A   1      43.661  24.401  25.093  1.00  0.00     0.275 C 
BRANCH  31  32
ATOM     32  O   UNL A   1      43.307  25.773  25.351  1.00  0.00    -0.458 OA
BRANCH  32  33
ATOM     33  C   UNL A   1      42.000  25.994  25.665  1.00  0.00     0.338 C 
ATOM     34  O   UNL A   1      41.035  25.580  25.061  1.00  0.00    -0.246 OA
BRANCH  33  35
ATOM     35  C   UNL A   1      41.930  26.647  26.997  1.00  0.00     0.060 A 
ATOM     36  C   UNL A   1      40.938  26.221  27.889  1.00  0.00     0.016 A 
ATOM     37  C   UNL A   1      42.824  27.654  27.374  1.00  0.00     0.016 A 
ATOM     38  C   UNL A   1      40.795  26.845  29.131  1.00  0.00     0.010 A 
ATOM     39  C   UNL A   1      42.679  28.281  28.617  1.00  0.00     0.010 A 
ATOM     40  C   UNL A   1      41.632  27.913  29.481  1.00  0.00    -0.014 A 
BRANCH  40  41
ATOM     41  C   UNL A   1      41.263  28.790  30.621  1.00  0.00     0.031 A 
ATOM     42  C   UNL A   1      42.086  28.694  31.881  1.00  0.00     0.074 A 
ATOM     43  C   UNL A   1      40.249  29.670  30.547  1.00  0.00     0.049 A 
ATOM     44  N   UNL A   1      41.988  29.374  32.994  1.00  0.00    -0.248 NA
ATOM     45  C   UNL A   1      43.162  27.689  31.883  1.00  0.00     0.031 C 
ATOM     46  C   UNL A   1      39.387  29.879  29.386  1.00  0.00     0.029 A 
ATOM     47  N   UNL A   1      39.776  30.561  31.481  1.00  0.00    -0.354 N 
ATOM     48  C   UNL A   1      42.987  28.882  33.826  1.00  0.00     0.074 A 
ATOM     49  C   UNL A   1      43.649  27.815  33.108  1.00  0.00     0.031 C 
ATOM     50  C   UNL A   1      38.490  30.839  29.675  1.00  0.00     0.029 A 
ATOM     51  C   UNL A   1      38.705  31.304  31.046  1.00  0.00     0.049 A 
ATOM     52  H   UNL A   1      40.169  30.657  32.378  1.00  0.00     0.167 HD
ATOM     53  C   UNL A   1      43.335  29.287  35.070  1.00  0.00     0.037 A 
ATOM     54  C   UNL A   1      37.985  32.252  31.681  1.00  0.00     0.037 A 
ATOM     55  C   UNL A   1      42.678  30.345  35.789  1.00  0.00     0.049 A 
ATOM     56  C   UNL A   1      38.361  32.656  33.088  1.00  0.00     0.074 A 
ATOM     57  C   UNL A   1      42.974  30.845  37.044  1.00  0.00     0.029 A 
ATOM     58  N   UNL A   1      41.586  31.060  35.320  1.00  0.00    -0.354 N 
ATOM     59  N   UNL A   1      39.340  32.216  33.843  1.00  0.00    -0.248 NA
ATOM     60  C   UNL A   1      37.540  33.700  33.720  1.00  0.00     0.031 C 
ATOM     61  C   UNL A   1      42.030  31.830  37.356  1.00  0.00     0.029 A 
ATOM     62  C   UNL A   1      41.181  31.982  36.270  1.00  0.00     0.049 A 
ATOM     63  H   UNL A   1      41.161  30.931  34.441  1.00  0.00     0.167 HD
ATOM     64  C   UNL A   1      39.282  32.963  35.018  1.00  0.00     0.074 A 
ATOM     65  C   UNL A   1      38.169  33.878  34.874  1.00  0.00     0.031 C 
ATOM     66  C   UNL A   1      40.084  32.903  36.110  1.00  0.00     0.037 A 
BRANCH  53  67
ATOM     67  C   UNL A   1      44.465  28.555  35.740  1.00  0.00     0.058 A 
ATOM     68  C   UNL A   1      44.251  27.382  36.482  1.00  0.00     0.135 A 
ATOM     69  C   UNL A   1      45.779  29.037  35.639  1.00  0.00     0.135 A 
ATOM     70  F   UNL A   1      43.010  26.890  36.628  1.00  0.00    -0.206 F 
ATOM     71  C   UNL A   1      45.296  26.734  37.133  1.00  0.00     0.059 A 
ATOM     72  C   UNL A   1      46.843  28.389  36.258  1.00  0.00     0.059 A 
ATOM     73  F   UNL A   1      46.039  30.155  34.945  1.00  0.00    -0.206 F 
ATOM     74  C   UNL A   1      46.588  27.249  37.019  1.00  0.00     0.060 A 
BRANCH  74  75
ATOM     75  S   UNL A   1      47.931  26.412  37.887  1.00  0.00     0.124 S 
ATOM     76  O   UNL A   1      47.198  25.421  38.669  1.00  0.00    -0.237 OA
ATOM     77  O   UNL A   1      48.734  25.884  36.788  1.00  0.00    -0.237 OA
ATOM     78  O   UNL A   1      48.556  27.482  38.658  1.00  0.00    -0.744 OA
ENDBRANCH  74  75
ENDBRANCH  53  67
BRANCH  54  79
ATOM     79  C   UNL A   1      36.849  32.917  30.990  1.00  0.00     0.058 A 
ATOM     80  C   UNL A   1      35.522  32.544  31.256  1.00  0.00     0.135 A 
ATOM     81  C   UNL A   1      37.064  33.922  30.035  1.00  0.00     0.135 A 
ATOM     82  F   UNL A   1      35.264  31.578  32.150  1.00  0.00    -0.206 F 
ATOM     83  C   UNL A   1      34.451  33.132  30.591  1.00  0.00     0.059 A 
ATOM     84  C   UNL A   1      36.008  34.542  29.373  1.00  0.00     0.059 A 
ATOM     85  F   UNL A   1      38.313  34.321  29.748  1.00  0.00    -0.206 F 
ATOM     86  C   UNL A   1      34.704  34.132  29.651  1.00  0.00     0.060 A 
BRANCH  86  87
ATOM     87  S   UNL A   1      33.304  34.918  28.824  1.00  0.00     0.124 S 
ATOM     88  O   UNL A   1      32.495  35.349  29.958  1.00  0.00    -0.237 OA
ATOM     89  O   UNL A   1      33.956  35.981  28.065  1.00  0.00    -0.237 OA
ATOM     90  O   UNL A   1      32.741  33.838  28.019  1.00  0.00    -0.744 OA
ENDBRANCH  86  87
ENDBRANCH  54  79
BRANCH  66  91
ATOM     91  C   UNL A   1      39.839  33.897  37.215  1.00  0.00     0.058 A 
ATOM     92  C   UNL A   1      38.924  33.652  38.251  1.00  0.00     0.135 A 
ATOM     93  C   UNL A   1      40.570  35.097  37.259  1.00  0.00     0.135 A 
ATOM     94  F   UNL A   1      38.198  32.523  38.260  1.00  0.00    -0.206 F 
ATOM     95  C   UNL A   1      38.719  34.576  39.273  1.00  0.00     0.059 A 
ATOM     96  C   UNL A   1      40.402  36.020  38.286  1.00  0.00     0.059 A 
ATOM     97  F   UNL A   1      41.470  35.374  36.302  1.00  0.00    -0.206 F 
ATOM     98  C   UNL A   1      39.461  35.759  39.280  1.00  0.00     0.060 A 
BRANCH  98  99
ATOM     99  S   UNL A   1      39.200  36.943  40.618  1.00  0.00     0.124 S 
ATOM    100  O   UNL A   1      38.259  37.875  40.005  1.00  0.00    -0.237 OA
ATOM    101  O   UNL A   1      38.657  36.102  41.681  1.00  0.00    -0.237 OA
ATOM    102  O   UNL A   1      40.536  37.473  40.869  1.00  0.00    -0.744 OA
ENDBRANCH  98  99
ENDBRANCH  66  91
ENDBRANCH  40  41
ENDBRANCH  33  35
ENDBRANCH  32  33
ENDBRANCH  31  32
ENDBRANCH  30  31
ENDBRANCH   1  30
TORSDOF 20
ENDMDL
