MODEL 1
REMARK VINA RESULT:     -12.9      0.000      0.000
REMARK SMILES CC[C@@H](NS(=O)(=O)c1cc(C)ccc1C)C(=O)OCCOC(=O)c1ccc(-c2c3nc(c(-c4c(F)cc(S(=O)(=O)[O-])cc4F)c4ccc([nH]4)c(-c4c(F)cc(S(=O)(=O)[O-])cc4F)c4nc(c(-c5c(F)cc(S(=O)(=O)[O-])cc5F)c5ccc2[nH]5)C=C4)C=C3)cc1
REMARK SMILES IDX 19 1 18 2 16 3 17 4 3 5 2 6 1 7 4 8 5 10 6 11 7 12 8 13 9 14
REMARK SMILES IDX 14 15 10 16 13 17 15 18 11 19 12 20 20 21 21 22 22 23 23 24
REMARK SMILES IDX 24 25 25 26 89 27 26 28 88 29 27 30 28 31 29 32 82 33 30 34
REMARK SMILES IDX 87 35 81 36 83 37 31 38 86 39 80 40 79 41 32 43 66 44 45 45
REMARK SMILES IDX 65 46 46 47 49 48 64 49 84 50 47 51 48 52 63 54 85 55 50 56
REMARK SMILES IDX 33 57 34 58 43 59 35 60 36 61 42 62 44 63 37 64 38 65 39 66
REMARK SMILES IDX 40 67 41 68 67 69 68 70 77 71 69 72 70 73 76 74 78 75 71 76
REMARK SMILES IDX 72 77 73 78 74 79 75 80 51 81 52 82 61 83 53 84 54 85 60 86
REMARK SMILES IDX 62 87 55 88 56 89 57 90 58 91 59 92
REMARK H PARENT 4 9 83 42 49 53
REMARK Flexibility Score: inf
ROOT
ATOM      1  C   UNL A   1      38.020  21.026  25.072  1.00  0.00     0.274 C 
ENDROOT
BRANCH   1   2
ATOM      2  O   UNL A   1      36.674  21.056  25.588  1.00  0.00    -0.461 OA
BRANCH   2   3
ATOM      3  C   UNL A   1      35.699  21.403  24.592  1.00  0.00     0.324 C 
ATOM      4  O   UNL A   1      36.292  22.272  23.880  1.00  0.00    -0.250 OA
BRANCH   3   5
ATOM      5  C   UNL A   1      33.674  20.578  24.388  1.00  0.00     0.179 C 
BRANCH   5   6
ATOM      6  C   UNL A   1      32.769  19.341  25.285  1.00  0.00     0.028 C 
ATOM      7  C   UNL A   1      32.477  18.037  24.509  1.00  0.00     0.006 C 
ENDBRANCH   5   6
BRANCH   5   8
ATOM      8  N   UNL A   1      32.223  21.645  23.854  1.00  0.00    -0.197 NA
ATOM      9  H   UNL A   1      31.647  21.741  24.690  1.00  0.00     0.142 HD
BRANCH   8  10
ATOM     10  S   UNL A   1      32.288  23.385  23.110  1.00  0.00     0.241 S 
ATOM     11  O   UNL A   1      32.941  23.144  21.834  1.00  0.00    -0.207 OA
ATOM     12  O   UNL A   1      30.914  23.842  23.133  1.00  0.00    -0.207 OA
BRANCH  10  13
ATOM     13  C   UNL A   1      33.328  24.826  23.975  1.00  0.00     0.085 A 
ATOM     14  C   UNL A   1      33.645  25.988  23.271  1.00  0.00     0.025 A 
ATOM     15  C   UNL A   1      33.372  24.984  25.363  1.00  0.00    -0.031 A 
ATOM     16  C   UNL A   1      33.617  27.314  23.808  1.00  0.00    -0.050 A 
ATOM     17  C   UNL A   1      33.683  26.267  25.924  1.00  0.00     0.005 A 
ATOM     18  C   UNL A   1      33.219  23.863  26.332  1.00  0.00     0.046 C 
ATOM     19  C   UNL A   1      33.374  28.561  22.968  1.00  0.00     0.044 C 
ATOM     20  C   UNL A   1      33.741  27.434  25.165  1.00  0.00     0.004 A 
ENDBRANCH  10  13
ENDBRANCH   8  10
ENDBRANCH   5   8
ENDBRANCH   3   5
ENDBRANCH   2   3
ENDBRANCH   1   2
BRANCH   1  21
ATOM     21  C   UNL A   1      38.747  19.792  25.642  1.00  0.00     0.275 C 
BRANCH  21  22
ATOM     22  O   UNL A   1      40.195  19.887  25.795  1.00  0.00    -0.458 OA
BRANCH  22  23
ATOM     23  C   UNL A   1      40.732  20.676  26.773  1.00  0.00     0.338 C 
ATOM     24  O   UNL A   1      40.908  20.347  27.931  1.00  0.00    -0.246 OA
BRANCH  23  25
ATOM     25  C   UNL A   1      40.752  22.093  26.330  1.00  0.00     0.060 A 
ATOM     26  C   UNL A   1      42.361  22.660  25.911  1.00  0.00     0.016 A 
ATOM     27  C   UNL A   1      39.595  23.167  27.132  1.00  0.00     0.016 A 
ATOM     28  C   UNL A   1      42.845  24.335  26.459  1.00  0.00     0.010 A 
ATOM     29  C   UNL A   1      40.034  24.839  27.621  1.00  0.00     0.010 A 
ATOM     30  C   UNL A   1      41.698  25.457  27.420  1.00  0.00    -0.014 A 
BRANCH  30  31
ATOM     31  C   UNL A   1      41.776  26.964  28.024  1.00  0.00     0.031 A 
ATOM     32  C   UNL A   1      43.047  27.712  27.708  1.00  0.00     0.074 A 
ATOM     33  C   UNL A   1      40.954  27.748  28.826  1.00  0.00     0.049 A 
ATOM     34  N   UNL A   1      43.895  28.082  28.621  1.00  0.00    -0.248 NA
ATOM     35  C   UNL A   1      43.458  28.083  26.347  1.00  0.00     0.031 C 
ATOM     36  C   UNL A   1      39.814  27.305  29.613  1.00  0.00     0.029 A 
ATOM     37  N   UNL A   1      40.943  29.102  29.205  1.00  0.00    -0.354 N 
ATOM     38  C   UNL A   1      44.806  28.910  27.990  1.00  0.00     0.074 A 
ATOM     39  C   UNL A   1      44.588  28.760  26.575  1.00  0.00     0.031 C 
ATOM     40  C   UNL A   1      39.021  28.297  30.044  1.00  0.00     0.029 A 
ATOM     41  C   UNL A   1      39.729  29.533  29.787  1.00  0.00     0.049 A 
ATOM     42  H   UNL A   1      41.715  29.698  29.077  1.00  0.00     0.167 HD
ATOM     43  C   UNL A   1      45.432  29.906  28.672  1.00  0.00     0.037 A 
ATOM     44  C   UNL A   1      39.308  30.612  30.501  1.00  0.00     0.037 A 
ATOM     45  C   UNL A   1      45.465  29.688  30.090  1.00  0.00     0.049 A 
ATOM     46  C   UNL A   1      40.411  31.063  31.361  1.00  0.00     0.074 A 
ATOM     47  C   UNL A   1      46.177  28.897  30.964  1.00  0.00     0.029 A 
ATOM     48  N   UNL A   1      44.390  30.174  30.774  1.00  0.00    -0.354 N 
ATOM     49  N   UNL A   1      40.846  30.423  32.411  1.00  0.00    -0.248 NA
ATOM     50  C   UNL A   1      41.235  32.164  30.888  1.00  0.00     0.031 C 
ATOM     51  C   UNL A   1      45.455  28.883  32.193  1.00  0.00     0.029 A 
ATOM     52  C   UNL A   1      44.331  29.686  32.056  1.00  0.00     0.049 A 
ATOM     53  H   UNL A   1      43.733  30.801  30.394  1.00  0.00     0.167 HD
ATOM     54  C   UNL A   1      42.180  30.771  32.474  1.00  0.00     0.074 A 
ATOM     55  C   UNL A   1      42.330  31.935  31.610  1.00  0.00     0.031 C 
ATOM     56  C   UNL A   1      43.127  29.865  32.839  1.00  0.00     0.037 A 
BRANCH  43  57
ATOM     57  C   UNL A   1      45.578  31.286  28.079  1.00  0.00     0.058 A 
ATOM     58  C   UNL A   1      46.829  31.918  27.992  1.00  0.00     0.135 A 
ATOM     59  C   UNL A   1      44.453  32.107  27.828  1.00  0.00     0.135 A 
ATOM     60  F   UNL A   1      47.953  31.249  28.293  1.00  0.00    -0.206 F 
ATOM     61  C   UNL A   1      46.954  33.266  27.637  1.00  0.00     0.059 A 
ATOM     62  C   UNL A   1      44.555  33.430  27.422  1.00  0.00     0.059 A 
ATOM     63  F   UNL A   1      43.204  31.673  28.053  1.00  0.00    -0.206 F 
ATOM     64  C   UNL A   1      45.811  34.008  27.343  1.00  0.00     0.060 A 
BRANCH  64  65
ATOM     65  S   UNL A   1      45.960  35.742  26.870  1.00  0.00     0.124 S 
ATOM     66  O   UNL A   1      47.058  36.185  27.720  1.00  0.00    -0.237 OA
ATOM     67  O   UNL A   1      46.249  35.645  25.444  1.00  0.00    -0.237 OA
ATOM     68  O   UNL A   1      44.646  36.291  27.198  1.00  0.00    -0.744 OA
ENDBRANCH  64  65
ENDBRANCH  43  57
BRANCH  44  69
ATOM     69  C   UNL A   1      37.912  31.154  30.598  1.00  0.00     0.058 A 
ATOM     70  C   UNL A   1      37.059  30.840  31.675  1.00  0.00     0.135 A 
ATOM     71  C   UNL A   1      37.489  32.221  29.777  1.00  0.00     0.135 A 
ATOM     72  F   UNL A   1      37.336  29.807  32.486  1.00  0.00    -0.206 F 
ATOM     73  C   UNL A   1      35.949  31.628  32.006  1.00  0.00     0.059 A 
ATOM     74  C   UNL A   1      36.381  33.015  30.081  1.00  0.00     0.059 A 
ATOM     75  F   UNL A   1      38.193  32.584  28.694  1.00  0.00    -0.206 F 
ATOM     76  C   UNL A   1      35.653  32.749  31.233  1.00  0.00     0.060 A 
BRANCH  76  77
ATOM     77  S   UNL A   1      34.457  33.965  31.844  1.00  0.00     0.124 S 
ATOM     78  O   UNL A   1      33.726  34.315  30.632  1.00  0.00    -0.237 OA
ATOM     79  O   UNL A   1      33.716  33.195  32.837  1.00  0.00    -0.237 OA
ATOM     80  O   UNL A   1      35.304  35.023  32.391  1.00  0.00    -0.744 OA
ENDBRANCH  76  77
ENDBRANCH  44  69
BRANCH  56  81
ATOM     81  C   UNL A   1      42.887  28.991  34.028  1.00  0.00     0.058 A 
ATOM     82  C   UNL A   1      42.876  29.394  35.371  1.00  0.00     0.135 A 
ATOM     83  C   UNL A   1      42.562  27.648  33.753  1.00  0.00     0.135 A 
ATOM     84  F   UNL A   1      43.133  30.664  35.715  1.00  0.00    -0.206 F 
ATOM     85  C   UNL A   1      42.550  28.493  36.394  1.00  0.00     0.059 A 
ATOM     86  C   UNL A   1      42.212  26.746  34.749  1.00  0.00     0.059 A 
ATOM     87  F   UNL A   1      42.547  27.206  32.484  1.00  0.00    -0.206 F 
ATOM     88  C   UNL A   1      42.209  27.175  36.072  1.00  0.00     0.060 A 
BRANCH  88  89
ATOM     89  S   UNL A   1      41.705  26.036  37.381  1.00  0.00     0.124 S 
ATOM     90  O   UNL A   1      42.778  26.193  38.357  1.00  0.00    -0.237 OA
ATOM     91  O   UNL A   1      40.403  26.566  37.776  1.00  0.00    -0.237 OA
ATOM     92  O   UNL A   1      41.660  24.738  36.710  1.00  0.00    -0.744 OA
ENDBRANCH  88  89
ENDBRANCH  56  81
ENDBRANCH  30  31
ENDBRANCH  23  25
ENDBRANCH  22  23
ENDBRANCH  21  22
ENDBRANCH   1  21
TORSDOF 18
ENDMDL
MODEL 2
REMARK VINA RESULT:     -12.4      7.140     14.166
REMARK SMILES CC[C@@H](NS(=O)(=O)c1cc(C)ccc1C)C(=O)OCCOC(=O)c1ccc(-c2c3nc(c(-c4c(F)cc(S(=O)(=O)[O-])cc4F)c4ccc([nH]4)c(-c4c(F)cc(S(=O)(=O)[O-])cc4F)c4nc(c(-c5c(F)cc(S(=O)(=O)[O-])cc5F)c5ccc2[nH]5)C=C4)C=C3)cc1
REMARK SMILES IDX 19 1 18 2 16 3 17 4 3 5 2 6 1 7 4 8 5 10 6 11 7 12 8 13 9 14
REMARK SMILES IDX 14 15 10 16 13 17 15 18 11 19 12 20 20 21 21 22 22 23 23 24
REMARK SMILES IDX 24 25 25 26 89 27 26 28 88 29 27 30 28 31 29 32 82 33 30 34
REMARK SMILES IDX 87 35 81 36 83 37 31 38 86 39 80 40 79 41 32 43 66 44 45 45
REMARK SMILES IDX 65 46 46 47 49 48 64 49 84 50 47 51 48 52 63 54 85 55 50 56
REMARK SMILES IDX 33 57 34 58 43 59 35 60 36 61 42 62 44 63 37 64 38 65 39 66
REMARK SMILES IDX 40 67 41 68 67 69 68 70 77 71 69 72 70 73 76 74 78 75 71 76
REMARK SMILES IDX 72 77 73 78 74 79 75 80 51 81 52 82 61 83 53 84 54 85 60 86
REMARK SMILES IDX 62 87 55 88 56 89 57 90 58 91 59 92
REMARK H PARENT 4 9 83 42 49 53
REMARK Flexibility Score: inf
ROOT
ATOM      1  C   UNL A   1      46.884  41.533  23.905  1.00  0.00     0.274 C 
ENDROOT
BRANCH   1   2
ATOM      2  O   UNL A   1      46.610  40.854  22.663  1.00  0.00    -0.461 OA
BRANCH   2   3
ATOM      3  C   UNL A   1      46.662  41.726  21.523  1.00  0.00     0.324 C 
ATOM      4  O   UNL A   1      47.677  41.316  20.877  1.00  0.00    -0.250 OA
BRANCH   3   5
ATOM      5  C   UNL A   1      45.274  43.360  21.049  1.00  0.00     0.179 C 
BRANCH   5   6
ATOM      6  C   UNL A   1      43.578  43.677  21.475  1.00  0.00     0.028 C 
ATOM      7  C   UNL A   1      42.670  42.430  21.560  1.00  0.00     0.006 C 
ENDBRANCH   5   6
BRANCH   5   8
ATOM      8  N   UNL A   1      45.857  45.140  20.904  1.00  0.00    -0.197 NA
ATOM      9  H   UNL A   1      46.866  45.096  21.038  1.00  0.00     0.142 HD
BRANCH   8  10
ATOM     10  S   UNL A   1      45.614  46.313  19.438  1.00  0.00     0.241 S 
ATOM     11  O   UNL A   1      45.184  47.535  20.096  1.00  0.00    -0.207 OA
ATOM     12  O   UNL A   1      46.881  46.286  18.737  1.00  0.00    -0.207 OA
BRANCH  10  13
ATOM     13  C   UNL A   1      44.250  45.948  18.055  1.00  0.00     0.085 A 
ATOM     14  C   UNL A   1      43.339  44.904  18.219  1.00  0.00     0.025 A 
ATOM     15  C   UNL A   1      43.820  46.927  17.154  1.00  0.00    -0.031 A 
ATOM     16  C   UNL A   1      41.950  44.956  17.879  1.00  0.00    -0.050 A 
ATOM     17  C   UNL A   1      42.531  46.809  16.534  1.00  0.00     0.005 A 
ATOM     18  C   UNL A   1      44.668  48.063  16.695  1.00  0.00     0.046 C 
ATOM     19  C   UNL A   1      40.880  44.117  18.565  1.00  0.00     0.044 C 
ATOM     20  C   UNL A   1      41.579  45.875  16.936  1.00  0.00     0.004 A 
ENDBRANCH  10  13
ENDBRANCH   8  10
ENDBRANCH   5   8
ENDBRANCH   3   5
ENDBRANCH   2   3
ENDBRANCH   1   2
BRANCH   1  21
ATOM     21  C   UNL A   1      46.321  40.693  25.069  1.00  0.00     0.275 C 
BRANCH  21  22
ATOM     22  O   UNL A   1      47.090  39.521  25.474  1.00  0.00    -0.458 OA
BRANCH  22  23
ATOM     23  C   UNL A   1      47.064  39.096  26.772  1.00  0.00     0.338 C 
ATOM     24  O   UNL A   1      48.035  38.782  27.435  1.00  0.00    -0.246 OA
BRANCH  23  25
ATOM     25  C   UNL A   1      45.677  38.734  27.161  1.00  0.00     0.060 A 
ATOM     26  C   UNL A   1      45.120  39.584  28.594  1.00  0.00     0.016 A 
ATOM     27  C   UNL A   1      45.208  37.052  26.868  1.00  0.00     0.016 A 
ATOM     28  C   UNL A   1      44.173  38.635  29.835  1.00  0.00     0.010 A 
ATOM     29  C   UNL A   1      44.223  36.122  28.048  1.00  0.00     0.010 A 
ATOM     30  C   UNL A   1      43.764  36.822  29.626  1.00  0.00    -0.014 A 
BRANCH  30  31
ATOM     31  C   UNL A   1      42.945  35.705  30.479  1.00  0.00     0.031 A 
ATOM     32  C   UNL A   1      43.619  35.253  31.750  1.00  0.00     0.074 A 
ATOM     33  C   UNL A   1      41.757  35.005  30.299  1.00  0.00     0.049 A 
ATOM     34  N   UNL A   1      44.035  34.035  31.934  1.00  0.00    -0.248 NA
ATOM     35  C   UNL A   1      43.883  36.138  32.892  1.00  0.00     0.031 C 
ATOM     36  C   UNL A   1      40.981  34.893  29.075  1.00  0.00     0.029 A 
ATOM     37  N   UNL A   1      40.970  34.171  31.111  1.00  0.00    -0.354 N 
ATOM     38  C   UNL A   1      44.396  33.947  33.267  1.00  0.00     0.074 A 
ATOM     39  C   UNL A   1      44.428  35.294  33.774  1.00  0.00     0.031 C 
ATOM     40  C   UNL A   1      39.737  34.422  29.250  1.00  0.00     0.029 A 
ATOM     41  C   UNL A   1      39.671  33.929  30.609  1.00  0.00     0.049 A 
ATOM     42  H   UNL A   1      41.295  33.787  31.956  1.00  0.00     0.167 HD
ATOM     43  C   UNL A   1      44.306  32.768  33.937  1.00  0.00     0.037 A 
ATOM     44  C   UNL A   1      38.662  33.053  30.868  1.00  0.00     0.037 A 
ATOM     45  C   UNL A   1      44.321  31.623  33.073  1.00  0.00     0.049 A 
ATOM     46  C   UNL A   1      39.250  31.762  31.251  1.00  0.00     0.074 A 
ATOM     47  C   UNL A   1      45.266  30.925  32.353  1.00  0.00     0.029 A 
ATOM     48  N   UNL A   1      43.097  31.224  32.620  1.00  0.00    -0.354 N 
ATOM     49  N   UNL A   1      39.866  30.952  30.434  1.00  0.00    -0.248 NA
ATOM     50  C   UNL A   1      39.373  31.465  32.669  1.00  0.00     0.031 C 
ATOM     51  C   UNL A   1      44.559  30.126  31.407  1.00  0.00     0.029 A 
ATOM     52  C   UNL A   1      43.197  30.329  31.585  1.00  0.00     0.049 A 
ATOM     53  H   UNL A   1      42.243  31.540  32.993  1.00  0.00     0.167 HD
ATOM     54  C   UNL A   1      40.776  30.304  31.243  1.00  0.00     0.074 A 
ATOM     55  C   UNL A   1      40.342  30.553  32.612  1.00  0.00     0.031 C 
ATOM     56  C   UNL A   1      42.026  30.006  30.797  1.00  0.00     0.037 A 
BRANCH  43  57
ATOM     57  C   UNL A   1      43.723  32.703  35.328  1.00  0.00     0.058 A 
ATOM     58  C   UNL A   1      42.377  33.017  35.574  1.00  0.00     0.135 A 
ATOM     59  C   UNL A   1      44.548  32.583  36.471  1.00  0.00     0.135 A 
ATOM     60  F   UNL A   1      41.530  33.234  34.555  1.00  0.00    -0.206 F 
ATOM     61  C   UNL A   1      41.875  33.161  36.872  1.00  0.00     0.059 A 
ATOM     62  C   UNL A   1      44.062  32.668  37.769  1.00  0.00     0.059 A 
ATOM     63  F   UNL A   1      45.879  32.465  36.366  1.00  0.00    -0.206 F 
ATOM     64  C   UNL A   1      42.725  32.971  37.962  1.00  0.00     0.060 A 
BRANCH  64  65
ATOM     65  S   UNL A   1      42.087  33.139  39.640  1.00  0.00     0.124 S 
ATOM     66  O   UNL A   1      40.803  33.785  39.404  1.00  0.00    -0.237 OA
ATOM     67  O   UNL A   1      42.037  31.751  40.087  1.00  0.00    -0.237 OA
ATOM     68  O   UNL A   1      43.098  33.963  40.299  1.00  0.00    -0.744 OA
ENDBRANCH  64  65
ENDBRANCH  43  57
BRANCH  44  69
ATOM     69  C   UNL A   1      37.196  33.248  30.614  1.00  0.00     0.058 A 
ATOM     70  C   UNL A   1      36.359  33.915  31.531  1.00  0.00     0.135 A 
ATOM     71  C   UNL A   1      36.646  33.035  29.331  1.00  0.00     0.135 A 
ATOM     72  F   UNL A   1      36.759  34.121  32.796  1.00  0.00    -0.206 F 
ATOM     73  C   UNL A   1      35.127  34.468  31.156  1.00  0.00     0.059 A 
ATOM     74  C   UNL A   1      35.418  33.568  28.938  1.00  0.00     0.059 A 
ATOM     75  F   UNL A   1      37.330  32.371  28.387  1.00  0.00    -0.206 F 
ATOM     76  C   UNL A   1      34.693  34.337  29.838  1.00  0.00     0.060 A 
BRANCH  76  77
ATOM     77  S   UNL A   1      33.300  35.336  29.254  1.00  0.00     0.124 S 
ATOM     78  O   UNL A   1      32.580  34.394  28.403  1.00  0.00    -0.237 OA
ATOM     79  O   UNL A   1      32.639  35.703  30.502  1.00  0.00    -0.237 OA
ATOM     80  O   UNL A   1      33.950  36.442  28.553  1.00  0.00    -0.744 OA
ENDBRANCH  76  77
ENDBRANCH  44  69
BRANCH  56  81
ATOM     81  C   UNL A   1      42.197  29.400  29.441  1.00  0.00     0.058 A 
ATOM     82  C   UNL A   1      42.746  30.023  28.312  1.00  0.00     0.135 A 
ATOM     83  C   UNL A   1      41.841  28.042  29.321  1.00  0.00     0.135 A 
ATOM     84  F   UNL A   1      43.149  31.302  28.354  1.00  0.00    -0.206 F 
ATOM     85  C   UNL A   1      42.934  29.318  27.115  1.00  0.00     0.059 A 
ATOM     86  C   UNL A   1      42.042  27.319  28.153  1.00  0.00     0.059 A 
ATOM     87  F   UNL A   1      41.319  27.388  30.372  1.00  0.00    -0.206 F 
ATOM     88  C   UNL A   1      42.588  27.964  27.050  1.00  0.00     0.060 A 
BRANCH  88  89
ATOM     89  S   UNL A   1      42.911  27.032  25.536  1.00  0.00     0.124 S 
ATOM     90  O   UNL A   1      42.378  27.919  24.508  1.00  0.00    -0.237 OA
ATOM     91  O   UNL A   1      44.363  26.884  25.558  1.00  0.00    -0.237 OA
ATOM     92  O   UNL A   1      42.165  25.789  25.731  1.00  0.00    -0.744 OA
ENDBRANCH  88  89
ENDBRANCH  56  81
ENDBRANCH  30  31
ENDBRANCH  23  25
ENDBRANCH  22  23
ENDBRANCH  21  22
ENDBRANCH   1  21
TORSDOF 18
ENDMDL
MODEL 3
REMARK VINA RESULT:     -12.1      6.466     14.041
REMARK SMILES CC[C@@H](NS(=O)(=O)c1cc(C)ccc1C)C(=O)OCCOC(=O)c1ccc(-c2c3nc(c(-c4c(F)cc(S(=O)(=O)[O-])cc4F)c4ccc([nH]4)c(-c4c(F)cc(S(=O)(=O)[O-])cc4F)c4nc(c(-c5c(F)cc(S(=O)(=O)[O-])cc5F)c5ccc2[nH]5)C=C4)C=C3)cc1
REMARK SMILES IDX 19 1 18 2 16 3 17 4 3 5 2 6 1 7 4 8 5 10 6 11 7 12 8 13 9 14
REMARK SMILES IDX 14 15 10 16 13 17 15 18 11 19 12 20 20 21 21 22 22 23 23 24
REMARK SMILES IDX 24 25 25 26 89 27 26 28 88 29 27 30 28 31 29 32 82 33 30 34
REMARK SMILES IDX 87 35 81 36 83 37 31 38 86 39 80 40 79 41 32 43 66 44 45 45
REMARK SMILES IDX 65 46 46 47 49 48 64 49 84 50 47 51 48 52 63 54 85 55 50 56
REMARK SMILES IDX 33 57 34 58 43 59 35 60 36 61 42 62 44 63 37 64 38 65 39 66
REMARK SMILES IDX 40 67 41 68 67 69 68 70 77 71 69 72 70 73 76 74 78 75 71 76
REMARK SMILES IDX 72 77 73 78 74 79 75 80 51 81 52 82 61 83 53 84 54 85 60 86
REMARK SMILES IDX 62 87 55 88 56 89 57 90 58 91 59 92
REMARK H PARENT 4 9 83 42 49 53
REMARK Flexibility Score: inf
ROOT
ATOM      1  C   UNL A   1      46.716  40.689  24.600  1.00  0.00     0.274 C 
ENDROOT
BRANCH   1   2
ATOM      2  O   UNL A   1      46.762  40.796  23.163  1.00  0.00    -0.461 OA
BRANCH   2   3
ATOM      3  C   UNL A   1      46.288  42.062  22.678  1.00  0.00     0.324 C 
ATOM      4  O   UNL A   1      45.099  42.127  23.121  1.00  0.00    -0.250 OA
BRANCH   3   5
ATOM      5  C   UNL A   1      47.409  43.514  21.470  1.00  0.00     0.179 C 
BRANCH   5   6
ATOM      6  C   UNL A   1      48.557  43.347  20.124  1.00  0.00     0.028 C 
ATOM      7  C   UNL A   1      50.042  43.568  20.487  1.00  0.00     0.006 C 
ENDBRANCH   5   6
BRANCH   5   8
ATOM      8  N   UNL A   1      46.679  45.180  21.002  1.00  0.00    -0.197 NA
ATOM      9  H   UNL A   1      47.486  45.782  20.840  1.00  0.00     0.142 HD
BRANCH   8  10
ATOM     10  S   UNL A   1      45.500  45.556  19.569  1.00  0.00     0.241 S 
ATOM     11  O   UNL A   1      45.009  46.879  19.920  1.00  0.00    -0.207 OA
ATOM     12  O   UNL A   1      46.308  45.388  18.379  1.00  0.00    -0.207 OA
BRANCH  10  13
ATOM     13  C   UNL A   1      43.886  44.457  19.260  1.00  0.00     0.085 A 
ATOM     14  C   UNL A   1      43.502  43.490  20.189  1.00  0.00     0.025 A 
ATOM     15  C   UNL A   1      42.843  44.881  18.431  1.00  0.00    -0.031 A 
ATOM     16  C   UNL A   1      42.157  43.217  20.592  1.00  0.00    -0.050 A 
ATOM     17  C   UNL A   1      41.525  44.346  18.616  1.00  0.00     0.005 A 
ATOM     18  C   UNL A   1      43.025  45.793  17.267  1.00  0.00     0.046 C 
ATOM     19  C   UNL A   1      41.782  42.642  21.952  1.00  0.00     0.044 C 
ATOM     20  C   UNL A   1      41.166  43.575  19.720  1.00  0.00     0.004 A 
ENDBRANCH  10  13
ENDBRANCH   8  10
ENDBRANCH   5   8
ENDBRANCH   3   5
ENDBRANCH   2   3
ENDBRANCH   1   2
BRANCH   1  21
ATOM     21  C   UNL A   1      46.826  39.203  24.996  1.00  0.00     0.275 C 
BRANCH  21  22
ATOM     22  O   UNL A   1      45.988  38.747  26.100  1.00  0.00    -0.458 OA
BRANCH  22  23
ATOM     23  C   UNL A   1      46.093  37.465  26.558  1.00  0.00     0.338 C 
ATOM     24  O   UNL A   1      46.637  36.546  25.975  1.00  0.00    -0.246 OA
BRANCH  23  25
ATOM     25  C   UNL A   1      45.160  37.252  27.693  1.00  0.00     0.060 A 
ATOM     26  C   UNL A   1      45.982  37.063  29.234  1.00  0.00     0.016 A 
ATOM     27  C   UNL A   1      43.700  36.319  27.327  1.00  0.00     0.016 A 
ATOM     28  C   UNL A   1      45.370  35.773  30.375  1.00  0.00     0.010 A 
ATOM     29  C   UNL A   1      43.048  35.091  28.465  1.00  0.00     0.010 A 
ATOM     30  C   UNL A   1      43.909  34.677  29.974  1.00  0.00    -0.014 A 
BRANCH  30  31
ATOM     31  C   UNL A   1      43.099  33.490  30.733  1.00  0.00     0.031 A 
ATOM     32  C   UNL A   1      43.515  32.091  30.355  1.00  0.00     0.074 A 
ATOM     33  C   UNL A   1      42.049  33.440  31.644  1.00  0.00     0.049 A 
ATOM     34  N   UNL A   1      42.722  31.256  29.752  1.00  0.00    -0.248 NA
ATOM     35  C   UNL A   1      44.852  31.539  30.615  1.00  0.00     0.031 C 
ATOM     36  C   UNL A   1      41.151  34.523  32.009  1.00  0.00     0.029 A 
ATOM     37  N   UNL A   1      41.466  32.427  32.425  1.00  0.00    -0.354 N 
ATOM     38  C   UNL A   1      43.367  30.032  29.763  1.00  0.00     0.074 A 
ATOM     39  C   UNL A   1      44.725  30.286  30.165  1.00  0.00     0.031 C 
ATOM     40  C   UNL A   1      40.434  34.297  33.119  1.00  0.00     0.029 A 
ATOM     41  C   UNL A   1      40.615  32.900  33.450  1.00  0.00     0.049 A 
ATOM     42  H   UNL A   1      41.633  31.470  32.270  1.00  0.00     0.167 HD
ATOM     43  C   UNL A   1      42.659  28.871  29.776  1.00  0.00     0.037 A 
ATOM     44  C   UNL A   1      39.675  32.364  34.276  1.00  0.00     0.037 A 
ATOM     45  C   UNL A   1      41.323  29.016  29.275  1.00  0.00     0.049 A 
ATOM     46  C   UNL A   1      38.967  31.301  33.551  1.00  0.00     0.074 A 
ATOM     47  C   UNL A   1      40.726  29.147  28.040  1.00  0.00     0.029 A 
ATOM     48  N   UNL A   1      40.389  29.357  30.209  1.00  0.00    -0.354 N 
ATOM     49  N   UNL A   1      38.125  31.499  32.572  1.00  0.00    -0.248 NA
ATOM     50  C   UNL A   1      39.399  29.929  33.761  1.00  0.00     0.031 C 
ATOM     51  C   UNL A   1      39.406  29.633  28.267  1.00  0.00     0.029 A 
ATOM     52  C   UNL A   1      39.211  29.765  29.635  1.00  0.00     0.049 A 
ATOM     53  H   UNL A   1      40.542  29.315  31.180  1.00  0.00     0.167 HD
ATOM     54  C   UNL A   1      38.248  30.361  31.802  1.00  0.00     0.074 A 
ATOM     55  C   UNL A   1      38.931  29.383  32.641  1.00  0.00     0.031 C 
ATOM     56  C   UNL A   1      38.206  30.423  30.444  1.00  0.00     0.037 A 
BRANCH  43  57
ATOM     57  C   UNL A   1      43.043  27.734  30.691  1.00  0.00     0.058 A 
ATOM     58  C   UNL A   1      43.048  27.886  32.087  1.00  0.00     0.135 A 
ATOM     59  C   UNL A   1      43.660  26.561  30.196  1.00  0.00     0.135 A 
ATOM     60  F   UNL A   1      42.561  29.002  32.653  1.00  0.00    -0.206 F 
ATOM     61  C   UNL A   1      43.593  26.916  32.936  1.00  0.00     0.059 A 
ATOM     62  C   UNL A   1      44.158  25.561  31.020  1.00  0.00     0.059 A 
ATOM     63  F   UNL A   1      43.880  26.385  28.885  1.00  0.00    -0.206 F 
ATOM     64  C   UNL A   1      44.134  25.752  32.391  1.00  0.00     0.060 A 
BRANCH  64  65
ATOM     65  S   UNL A   1      44.826  24.488  33.475  1.00  0.00     0.124 S 
ATOM     66  O   UNL A   1      44.904  23.342  32.578  1.00  0.00    -0.237 OA
ATOM     67  O   UNL A   1      46.098  25.086  33.866  1.00  0.00    -0.237 OA
ATOM     68  O   UNL A   1      43.836  24.388  34.545  1.00  0.00    -0.744 OA
ENDBRANCH  64  65
ENDBRANCH  43  57
BRANCH  44  69
ATOM     69  C   UNL A   1      39.246  32.873  35.621  1.00  0.00     0.058 A 
ATOM     70  C   UNL A   1      37.919  33.267  35.884  1.00  0.00     0.135 A 
ATOM     71  C   UNL A   1      40.069  32.709  36.756  1.00  0.00     0.135 A 
ATOM     72  F   UNL A   1      37.065  33.506  34.876  1.00  0.00    -0.206 F 
ATOM     73  C   UNL A   1      37.404  33.343  37.185  1.00  0.00     0.059 A 
ATOM     74  C   UNL A   1      39.581  32.788  38.061  1.00  0.00     0.059 A 
ATOM     75  F   UNL A   1      41.364  32.380  36.631  1.00  0.00    -0.206 F 
ATOM     76  C   UNL A   1      38.232  33.044  38.265  1.00  0.00     0.060 A 
BRANCH  76  77
ATOM     77  S   UNL A   1      37.504  32.789  39.904  1.00  0.00     0.124 S 
ATOM     78  O   UNL A   1      36.081  32.700  39.600  1.00  0.00    -0.237 OA
ATOM     79  O   UNL A   1      38.143  31.550  40.336  1.00  0.00    -0.237 OA
ATOM     80  O   UNL A   1      37.913  33.982  40.643  1.00  0.00    -0.744 OA
ENDBRANCH  76  77
ENDBRANCH  44  69
BRANCH  56  81
ATOM     81  C   UNL A   1      37.147  31.241  29.779  1.00  0.00     0.058 A 
ATOM     82  C   UNL A   1      35.903  30.784  29.322  1.00  0.00     0.135 A 
ATOM     83  C   UNL A   1      37.403  32.623  29.680  1.00  0.00     0.135 A 
ATOM     84  F   UNL A   1      35.564  29.489  29.418  1.00  0.00    -0.206 F 
ATOM     85  C   UNL A   1      34.956  31.670  28.793  1.00  0.00     0.059 A 
ATOM     86  C   UNL A   1      36.470  33.522  29.182  1.00  0.00     0.059 A 
ATOM     87  F   UNL A   1      38.575  33.122  30.110  1.00  0.00    -0.206 F 
ATOM     88  C   UNL A   1      35.245  33.038  28.737  1.00  0.00     0.060 A 
BRANCH  88  89
ATOM     89  S   UNL A   1      33.992  34.192  28.135  1.00  0.00     0.124 S 
ATOM     90  O   UNL A   1      32.965  33.293  27.621  1.00  0.00    -0.237 OA
ATOM     91  O   UNL A   1      33.640  34.935  29.342  1.00  0.00    -0.237 OA
ATOM     92  O   UNL A   1      34.699  34.971  27.120  1.00  0.00    -0.744 OA
ENDBRANCH  88  89
ENDBRANCH  56  81
ENDBRANCH  30  31
ENDBRANCH  23  25
ENDBRANCH  22  23
ENDBRANCH  21  22
ENDBRANCH   1  21
TORSDOF 18
ENDMDL
