MODEL 1
REMARK VINA RESULT:     -12.0      0.000      0.000
REMARK SMILES O=C(OCCOC(=O)c1cc(Cl)ccc1N1C(=O)CC2(CCCC2)C1=O)c1ccc(-c2c3nc(c(-c4c(F)cc(S(=O)(=O)[O-])cc4F)c4ccc([nH]4)c(-c4c(F)cc(S(=O)(=O)[O-])cc4F)c4nc(c(-c5c(F)cc(S(=O)(=O)[O-])cc5F)c5ccc2[nH]5)C=C4)C=C3)cc1
REMARK SMILES IDX 4 1 3 2 2 3 1 4 27 5 28 6 92 7 29 8 91 9 30 10 31 11 32 12
REMARK SMILES IDX 85 13 33 14 90 15 84 16 86 17 34 18 89 19 83 20 82 21 35 23
REMARK SMILES IDX 69 24 48 25 68 26 49 27 52 28 67 29 87 30 50 31 51 32 66 34
REMARK SMILES IDX 88 35 53 36 36 37 37 38 46 39 38 40 39 41 45 42 47 43 40 44
REMARK SMILES IDX 41 45 42 46 43 47 44 48 70 49 71 50 80 51 72 52 73 53 79 54
REMARK SMILES IDX 81 55 74 56 75 57 76 58 77 59 78 60 54 61 55 62 64 63 56 64
REMARK SMILES IDX 57 65 63 66 65 67 58 68 59 69 60 70 61 71 62 72 5 73 6 74
REMARK SMILES IDX 7 75 8 76 9 77 10 78 15 79 11 80 14 81 12 82 13 83 16 84
REMARK SMILES IDX 17 85 25 86 18 87 19 88 20 89 26 90 21 91 24 92 22 93 23 94
REMARK H PARENT 86 22 52 33
REMARK Flexibility Score: inf
ROOT
ATOM      1  C   UNL A   1      32.975  28.492  27.495  1.00  0.00     0.275 C 
ENDROOT
BRANCH   1   2
ATOM      2  O   UNL A   1      34.345  28.867  27.310  1.00  0.00    -0.458 OA
BRANCH   2   3
ATOM      3  C   UNL A   1      34.781  29.962  27.945  1.00  0.00     0.338 C 
ATOM      4  O   UNL A   1      34.141  30.987  28.074  1.00  0.00    -0.246 OA
BRANCH   3   5
ATOM      5  C   UNL A   1      36.201  29.800  28.325  1.00  0.00     0.060 A 
ATOM      6  C   UNL A   1      36.594  29.369  29.594  1.00  0.00     0.016 A 
ATOM      7  C   UNL A   1      37.148  29.953  27.315  1.00  0.00     0.016 A 
ATOM      8  C   UNL A   1      37.931  29.088  29.829  1.00  0.00     0.010 A 
ATOM      9  C   UNL A   1      38.471  29.621  27.519  1.00  0.00     0.010 A 
ATOM     10  C   UNL A   1      38.860  29.216  28.788  1.00  0.00    -0.014 A 
BRANCH  10  11
ATOM     11  C   UNL A   1      40.280  29.007  29.058  1.00  0.00     0.031 A 
ATOM     12  C   UNL A   1      40.839  27.645  28.813  1.00  0.00     0.074 A 
ATOM     13  C   UNL A   1      41.000  30.051  29.494  1.00  0.00     0.049 A 
ATOM     14  N   UNL A   1      42.085  27.276  28.740  1.00  0.00    -0.248 NA
ATOM     15  C   UNL A   1      39.872  26.547  28.612  1.00  0.00     0.031 C 
ATOM     16  C   UNL A   1      40.450  31.365  29.846  1.00  0.00     0.029 A 
ATOM     17  N   UNL A   1      42.336  30.177  29.718  1.00  0.00    -0.354 N 
ATOM     18  C   UNL A   1      42.051  25.929  28.406  1.00  0.00     0.074 A 
ATOM     19  C   UNL A   1      40.671  25.512  28.404  1.00  0.00     0.031 C 
ATOM     20  C   UNL A   1      41.450  32.164  30.253  1.00  0.00     0.029 A 
ATOM     21  C   UNL A   1      42.702  31.427  30.152  1.00  0.00     0.049 A 
ATOM     22  H   UNL A   1      42.978  29.443  29.582  1.00  0.00     0.167 HD
ATOM     23  C   UNL A   1      43.097  25.143  28.069  1.00  0.00     0.037 A 
ATOM     24  C   UNL A   1      43.932  31.910  30.399  1.00  0.00     0.037 A 
ATOM     25  C   UNL A   1      44.452  25.616  28.144  1.00  0.00     0.049 A 
ATOM     26  C   UNL A   1      45.087  31.016  30.035  1.00  0.00     0.074 A 
ATOM     27  C   UNL A   1      45.627  24.957  27.846  1.00  0.00     0.029 A 
ATOM     28  N   UNL A   1      44.801  26.897  28.567  1.00  0.00    -0.354 N 
ATOM     29  N   UNL A   1      45.057  29.774  29.601  1.00  0.00    -0.248 NA
ATOM     30  C   UNL A   1      46.428  31.594  30.128  1.00  0.00     0.031 C 
ATOM     31  C   UNL A   1      46.688  25.833  28.118  1.00  0.00     0.029 A 
ATOM     32  C   UNL A   1      46.172  27.050  28.546  1.00  0.00     0.049 A 
ATOM     33  H   UNL A   1      44.161  27.592  28.843  1.00  0.00     0.167 HD
ATOM     34  C   UNL A   1      46.374  29.426  29.342  1.00  0.00     0.074 A 
ATOM     35  C   UNL A   1      47.170  30.602  29.654  1.00  0.00     0.031 C 
ATOM     36  C   UNL A   1      46.890  28.254  28.887  1.00  0.00     0.037 A 
BRANCH  23  37
ATOM     37  C   UNL A   1      42.788  23.756  27.575  1.00  0.00     0.058 A 
ATOM     38  C   UNL A   1      42.734  22.668  28.466  1.00  0.00     0.135 A 
ATOM     39  C   UNL A   1      42.566  23.491  26.216  1.00  0.00     0.135 A 
ATOM     40  F   UNL A   1      42.965  22.854  29.776  1.00  0.00    -0.206 F 
ATOM     41  C   UNL A   1      42.494  21.370  28.026  1.00  0.00     0.059 A 
ATOM     42  C   UNL A   1      42.302  22.202  25.755  1.00  0.00     0.059 A 
ATOM     43  F   UNL A   1      42.622  24.485  25.316  1.00  0.00    -0.206 F 
ATOM     44  C   UNL A   1      42.280  21.146  26.666  1.00  0.00     0.060 A 
BRANCH  44  45
ATOM     45  S   UNL A   1      41.963  19.455  26.115  1.00  0.00     0.124 S 
ATOM     46  O   UNL A   1      42.897  19.329  25.000  1.00  0.00    -0.237 OA
ATOM     47  O   UNL A   1      42.289  18.673  27.304  1.00  0.00    -0.237 OA
ATOM     48  O   UNL A   1      40.550  19.476  25.750  1.00  0.00    -0.744 OA
ENDBRANCH  44  45
ENDBRANCH  23  37
BRANCH  24  49
ATOM     49  C   UNL A   1      44.101  33.290  30.925  1.00  0.00     0.058 A 
ATOM     50  C   UNL A   1      44.152  34.405  30.077  1.00  0.00     0.135 A 
ATOM     51  C   UNL A   1      44.162  33.525  32.309  1.00  0.00     0.135 A 
ATOM     52  F   UNL A   1      44.075  34.240  28.747  1.00  0.00    -0.206 F 
ATOM     53  C   UNL A   1      44.287  35.699  30.576  1.00  0.00     0.059 A 
ATOM     54  C   UNL A   1      44.276  34.810  32.833  1.00  0.00     0.059 A 
ATOM     55  F   UNL A   1      44.086  32.497  33.169  1.00  0.00    -0.206 F 
ATOM     56  C   UNL A   1      44.352  35.891  31.957  1.00  0.00     0.060 A 
BRANCH  56  57
ATOM     57  S   UNL A   1      44.509  37.575  32.593  1.00  0.00     0.124 S 
ATOM     58  O   UNL A   1      45.880  37.576  33.088  1.00  0.00    -0.237 OA
ATOM     59  O   UNL A   1      44.261  38.378  31.399  1.00  0.00    -0.237 OA
ATOM     60  O   UNL A   1      43.469  37.649  33.615  1.00  0.00    -0.744 OA
ENDBRANCH  56  57
ENDBRANCH  24  49
BRANCH  36  61
ATOM     61  C   UNL A   1      48.377  28.224  28.709  1.00  0.00     0.058 A 
ATOM     62  C   UNL A   1      49.226  27.834  29.754  1.00  0.00     0.135 A 
ATOM     63  C   UNL A   1      48.947  28.559  27.472  1.00  0.00     0.135 A 
ATOM     64  F   UNL A   1      48.718  27.511  30.954  1.00  0.00    -0.206 F 
ATOM     65  C   UNL A   1      50.602  27.812  29.589  1.00  0.00     0.059 A 
ATOM     66  C   UNL A   1      50.320  28.515  27.276  1.00  0.00     0.059 A 
ATOM     67  F   UNL A   1      48.168  28.924  26.441  1.00  0.00    -0.206 F 
ATOM     68  C   UNL A   1      51.140  28.157  28.347  1.00  0.00     0.060 A 
BRANCH  68  69
ATOM     69  S   UNL A   1      52.929  28.114  28.142  1.00  0.00     0.124 S 
ATOM     70  O   UNL A   1      53.233  26.737  28.519  1.00  0.00    -0.237 OA
ATOM     71  O   UNL A   1      53.091  28.436  26.727  1.00  0.00    -0.237 OA
ATOM     72  O   UNL A   1      53.400  29.139  29.069  1.00  0.00    -0.744 OA
ENDBRANCH  68  69
ENDBRANCH  36  61
ENDBRANCH  10  11
ENDBRANCH   3   5
ENDBRANCH   2   3
ENDBRANCH   1   2
BRANCH   1  73
ATOM     73  C   UNL A   1      31.799  29.182  26.759  1.00  0.00     0.275 C 
BRANCH  73  74
ATOM     74  O   UNL A   1      32.090  29.907  25.554  1.00  0.00    -0.458 OA
BRANCH  74  75
ATOM     75  C   UNL A   1      32.141  29.167  24.403  1.00  0.00     0.340 C 
ATOM     76  O   UNL A   1      33.146  28.781  23.831  1.00  0.00    -0.246 OA
BRANCH  75  77
ATOM     77  C   UNL A   1      30.766  28.875  23.931  1.00  0.00     0.085 A 
ATOM     78  C   UNL A   1      29.949  29.968  23.588  1.00  0.00     0.038 A 
ATOM     79  C   UNL A   1      30.262  27.557  23.847  1.00  0.00     0.066 A 
ATOM     80  C   UNL A   1      28.638  29.754  23.172  1.00  0.00     0.042 A 
ATOM     81  C   UNL A   1      28.926  27.373  23.448  1.00  0.00     0.029 A 
ATOM     82  Cl  UNL A   1      27.652  31.089  22.724  1.00  0.00    -0.084 Cl
ATOM     83  C   UNL A   1      28.121  28.464  23.109  1.00  0.00     0.023 A 
BRANCH  79  84
ATOM     84  N   UNL A   1      31.018  26.420  24.241  1.00  0.00    -0.249 N 
ATOM     85  C   UNL A   1      31.476  25.510  23.318  1.00  0.00     0.234 C 
ATOM     86  C   UNL A   1      30.827  25.761  25.432  1.00  0.00     0.240 C 
ATOM     87  O   UNL A   1      31.394  25.577  22.098  1.00  0.00    -0.274 OA
ATOM     88  C   UNL A   1      31.892  24.245  24.047  1.00  0.00     0.118 C 
ATOM     89  C   UNL A   1      31.843  24.645  25.518  1.00  0.00     0.059 C 
ATOM     90  O   UNL A   1      29.908  25.915  26.227  1.00  0.00    -0.273 OA
ATOM     91  C   UNL A   1      31.436  23.551  26.512  1.00  0.00     0.017 C 
ATOM     92  C   UNL A   1      33.214  25.080  26.042  1.00  0.00     0.017 C 
ATOM     93  C   UNL A   1      32.728  22.976  27.095  1.00  0.00     0.001 C 
ATOM     94  C   UNL A   1      33.869  23.787  26.501  1.00  0.00     0.001 C 
ENDBRANCH  79  84
ENDBRANCH  75  77
ENDBRANCH  74  75
ENDBRANCH  73  74
ENDBRANCH   1  73
TORSDOF 15
ENDMDL
MODEL 2
REMARK VINA RESULT:     -12.0      3.608      7.991
REMARK SMILES O=C(OCCOC(=O)c1cc(Cl)ccc1N1C(=O)CC2(CCCC2)C1=O)c1ccc(-c2c3nc(c(-c4c(F)cc(S(=O)(=O)[O-])cc4F)c4ccc([nH]4)c(-c4c(F)cc(S(=O)(=O)[O-])cc4F)c4nc(c(-c5c(F)cc(S(=O)(=O)[O-])cc5F)c5ccc2[nH]5)C=C4)C=C3)cc1
REMARK SMILES IDX 4 1 3 2 2 3 1 4 27 5 28 6 92 7 29 8 91 9 30 10 31 11 32 12
REMARK SMILES IDX 85 13 33 14 90 15 84 16 86 17 34 18 89 19 83 20 82 21 35 23
REMARK SMILES IDX 69 24 48 25 68 26 49 27 52 28 67 29 87 30 50 31 51 32 66 34
REMARK SMILES IDX 88 35 53 36 36 37 37 38 46 39 38 40 39 41 45 42 47 43 40 44
REMARK SMILES IDX 41 45 42 46 43 47 44 48 70 49 71 50 80 51 72 52 73 53 79 54
REMARK SMILES IDX 81 55 74 56 75 57 76 58 77 59 78 60 54 61 55 62 64 63 56 64
REMARK SMILES IDX 57 65 63 66 65 67 58 68 59 69 60 70 61 71 62 72 5 73 6 74
REMARK SMILES IDX 7 75 8 76 9 77 10 78 15 79 11 80 14 81 12 82 13 83 16 84
REMARK SMILES IDX 17 85 25 86 18 87 19 88 20 89 26 90 21 91 24 92 22 93 23 94
REMARK H PARENT 86 22 52 33
REMARK Flexibility Score: inf
ROOT
ATOM      1  C   UNL A   1      36.986  23.349  24.757  1.00  0.00     0.275 C 
ENDROOT
BRANCH   1   2
ATOM      2  O   UNL A   1      37.418  23.479  26.117  1.00  0.00    -0.458 OA
BRANCH   2   3
ATOM      3  C   UNL A   1      38.684  23.149  26.401  1.00  0.00     0.338 C 
ATOM      4  O   UNL A   1      39.127  22.018  26.370  1.00  0.00    -0.246 OA
BRANCH   3   5
ATOM      5  C   UNL A   1      39.419  24.330  26.905  1.00  0.00     0.060 A 
ATOM      6  C   UNL A   1      40.106  25.203  26.059  1.00  0.00     0.016 A 
ATOM      7  C   UNL A   1      39.278  24.632  28.257  1.00  0.00     0.016 A 
ATOM      8  C   UNL A   1      40.636  26.373  26.582  1.00  0.00     0.010 A 
ATOM      9  C   UNL A   1      39.749  25.819  28.777  1.00  0.00     0.010 A 
ATOM     10  C   UNL A   1      40.453  26.672  27.938  1.00  0.00    -0.014 A 
BRANCH  10  11
ATOM     11  C   UNL A   1      41.086  27.859  28.507  1.00  0.00     0.031 A 
ATOM     12  C   UNL A   1      42.578  27.912  28.515  1.00  0.00     0.074 A 
ATOM     13  C   UNL A   1      40.294  28.836  28.972  1.00  0.00     0.049 A 
ATOM     14  N   UNL A   1      43.356  28.933  28.731  1.00  0.00    -0.248 NA
ATOM     15  C   UNL A   1      43.297  26.654  28.235  1.00  0.00     0.031 C 
ATOM     16  C   UNL A   1      38.832  28.757  29.074  1.00  0.00     0.029 A 
ATOM     17  N   UNL A   1      40.596  30.075  29.446  1.00  0.00    -0.354 N 
ATOM     18  C   UNL A   1      44.646  28.460  28.532  1.00  0.00     0.074 A 
ATOM     19  C   UNL A   1      44.561  27.040  28.294  1.00  0.00     0.031 C 
ATOM     20  C   UNL A   1      38.366  29.906  29.593  1.00  0.00     0.029 A 
ATOM     21  C   UNL A   1      39.492  30.802  29.819  1.00  0.00     0.049 A 
ATOM     22  H   UNL A   1      41.517  30.416  29.515  1.00  0.00     0.167 HD
ATOM     23  C   UNL A   1      45.786  29.184  28.492  1.00  0.00     0.037 A 
ATOM     24  C   UNL A   1      39.424  32.070  30.258  1.00  0.00     0.037 A 
ATOM     25  C   UNL A   1      45.798  30.591  28.790  1.00  0.00     0.049 A 
ATOM     26  C   UNL A   1      40.704  32.859  30.224  1.00  0.00     0.074 A 
ATOM     27  C   UNL A   1      46.857  31.474  28.801  1.00  0.00     0.029 A 
ATOM     28  N   UNL A   1      44.662  31.315  29.146  1.00  0.00    -0.354 N 
ATOM     29  N   UNL A   1      41.916  32.444  29.919  1.00  0.00    -0.248 NA
ATOM     30  C   UNL A   1      40.612  34.288  30.526  1.00  0.00     0.031 C 
ATOM     31  C   UNL A   1      46.363  32.727  29.192  1.00  0.00     0.029 A 
ATOM     32  C   UNL A   1      44.991  32.633  29.384  1.00  0.00     0.049 A 
ATOM     33  H   UNL A   1      43.754  30.939  29.216  1.00  0.00     0.167 HD
ATOM     34  C   UNL A   1      42.730  33.566  29.965  1.00  0.00     0.074 A 
ATOM     35  C   UNL A   1      41.861  34.679  30.312  1.00  0.00     0.031 C 
ATOM     36  C   UNL A   1      44.065  33.681  29.742  1.00  0.00     0.037 A 
BRANCH  23  37
ATOM     37  C   UNL A   1      47.045  28.469  28.086  1.00  0.00     0.058 A 
ATOM     38  C   UNL A   1      47.405  28.356  26.730  1.00  0.00     0.135 A 
ATOM     39  C   UNL A   1      47.891  27.874  29.032  1.00  0.00     0.135 A 
ATOM     40  F   UNL A   1      46.620  28.881  25.775  1.00  0.00    -0.206 F 
ATOM     41  C   UNL A   1      48.541  27.660  26.328  1.00  0.00     0.059 A 
ATOM     42  C   UNL A   1      49.047  27.192  28.654  1.00  0.00     0.059 A 
ATOM     43  F   UNL A   1      47.591  27.934  30.339  1.00  0.00    -0.206 F 
ATOM     44  C   UNL A   1      49.357  27.080  27.299  1.00  0.00     0.060 A 
BRANCH  44  45
ATOM     45  S   UNL A   1      50.832  26.187  26.758  1.00  0.00     0.124 S 
ATOM     46  O   UNL A   1      50.556  24.839  27.244  1.00  0.00    -0.237 OA
ATOM     47  O   UNL A   1      50.786  26.359  25.309  1.00  0.00    -0.237 OA
ATOM     48  O   UNL A   1      51.920  26.887  27.434  1.00  0.00    -0.744 OA
ENDBRANCH  44  45
ENDBRANCH  23  37
BRANCH  24  49
ATOM     49  C   UNL A   1      38.118  32.650  30.667  1.00  0.00     0.058 A 
ATOM     50  C   UNL A   1      37.697  32.658  32.004  1.00  0.00     0.135 A 
ATOM     51  C   UNL A   1      37.280  33.264  29.720  1.00  0.00     0.135 A 
ATOM     52  F   UNL A   1      38.468  32.106  32.953  1.00  0.00    -0.206 F 
ATOM     53  C   UNL A   1      36.482  33.224  32.386  1.00  0.00     0.059 A 
ATOM     54  C   UNL A   1      36.072  33.855  30.079  1.00  0.00     0.059 A 
ATOM     55  F   UNL A   1      37.649  33.314  28.430  1.00  0.00    -0.206 F 
ATOM     56  C   UNL A   1      35.673  33.817  31.414  1.00  0.00     0.060 A 
BRANCH  56  57
ATOM     57  S   UNL A   1      34.109  34.564  31.924  1.00  0.00     0.124 S 
ATOM     58  O   UNL A   1      33.610  33.579  32.877  1.00  0.00    -0.237 OA
ATOM     59  O   UNL A   1      34.547  35.836  32.491  1.00  0.00    -0.237 OA
ATOM     60  O   UNL A   1      33.361  34.668  30.675  1.00  0.00    -0.744 OA
ENDBRANCH  56  57
ENDBRANCH  24  49
BRANCH  36  61
ATOM     61  C   UNL A   1      44.629  35.062  29.869  1.00  0.00     0.058 A 
ATOM     62  C   UNL A   1      44.711  35.918  28.763  1.00  0.00     0.135 A 
ATOM     63  C   UNL A   1      45.060  35.537  31.117  1.00  0.00     0.135 A 
ATOM     64  F   UNL A   1      44.313  35.498  27.551  1.00  0.00    -0.206 F 
ATOM     65  C   UNL A   1      45.239  37.195  28.881  1.00  0.00     0.059 A 
ATOM     66  C   UNL A   1      45.564  36.822  31.264  1.00  0.00     0.059 A 
ATOM     67  F   UNL A   1      44.985  34.754  32.205  1.00  0.00    -0.206 F 
ATOM     68  C   UNL A   1      45.665  37.636  30.135  1.00  0.00     0.060 A 
BRANCH  68  69
ATOM     69  S   UNL A   1      46.340  39.301  30.278  1.00  0.00     0.124 S 
ATOM     70  O   UNL A   1      45.129  40.112  30.208  1.00  0.00    -0.237 OA
ATOM     71  O   UNL A   1      47.004  39.260  31.578  1.00  0.00    -0.237 OA
ATOM     72  O   UNL A   1      47.234  39.403  29.129  1.00  0.00    -0.744 OA
ENDBRANCH  68  69
ENDBRANCH  36  61
ENDBRANCH  10  11
ENDBRANCH   3   5
ENDBRANCH   2   3
ENDBRANCH   1   2
BRANCH   1  73
ATOM     73  C   UNL A   1      36.502  22.012  24.143  1.00  0.00     0.275 C 
BRANCH  73  74
ATOM     74  O   UNL A   1      36.225  20.921  25.035  1.00  0.00    -0.458 OA
BRANCH  74  75
ATOM     75  C   UNL A   1      34.983  20.917  25.613  1.00  0.00     0.340 C 
ATOM     76  O   UNL A   1      34.667  21.453  26.661  1.00  0.00    -0.246 OA
BRANCH  75  77
ATOM     77  C   UNL A   1      34.036  20.158  24.761  1.00  0.00     0.085 A 
ATOM     78  C   UNL A   1      34.246  18.774  24.626  1.00  0.00     0.038 A 
ATOM     79  C   UNL A   1      32.968  20.785  24.078  1.00  0.00     0.066 A 
ATOM     80  C   UNL A   1      33.406  18.018  23.811  1.00  0.00     0.042 A 
ATOM     81  C   UNL A   1      32.153  20.001  23.241  1.00  0.00     0.029 A 
ATOM     82  Cl  UNL A   1      33.647  16.321  23.672  1.00  0.00    -0.084 Cl
ATOM     83  C   UNL A   1      32.368  18.626  23.113  1.00  0.00     0.023 A 
BRANCH  79  84
ATOM     84  N   UNL A   1      32.746  22.188  24.125  1.00  0.00    -0.249 N 
ATOM     85  C   UNL A   1      31.773  22.732  24.928  1.00  0.00     0.234 C 
ATOM     86  C   UNL A   1      32.918  23.017  23.042  1.00  0.00     0.240 C 
ATOM     87  O   UNL A   1      31.062  22.151  25.739  1.00  0.00    -0.274 OA
ATOM     88  C   UNL A   1      31.515  24.160  24.483  1.00  0.00     0.118 C 
ATOM     89  C   UNL A   1      32.640  24.434  23.489  1.00  0.00     0.059 C 
ATOM     90  O   UNL A   1      33.103  22.689  21.876  1.00  0.00    -0.273 OA
ATOM     91  C   UNL A   1      32.306  25.367  22.318  1.00  0.00     0.017 C 
ATOM     92  C   UNL A   1      33.832  25.135  24.145  1.00  0.00     0.017 C 
ATOM     93  C   UNL A   1      32.809  26.759  22.702  1.00  0.00     0.001 C 
ATOM     94  C   UNL A   1      33.498  26.614  24.049  1.00  0.00     0.001 C 
ENDBRANCH  79  84
ENDBRANCH  75  77
ENDBRANCH  74  75
ENDBRANCH  73  74
ENDBRANCH   1  73
TORSDOF 15
ENDMDL
MODEL 3
REMARK VINA RESULT:     -11.9      3.840      8.905
REMARK SMILES O=C(OCCOC(=O)c1cc(Cl)ccc1N1C(=O)CC2(CCCC2)C1=O)c1ccc(-c2c3nc(c(-c4c(F)cc(S(=O)(=O)[O-])cc4F)c4ccc([nH]4)c(-c4c(F)cc(S(=O)(=O)[O-])cc4F)c4nc(c(-c5c(F)cc(S(=O)(=O)[O-])cc5F)c5ccc2[nH]5)C=C4)C=C3)cc1
REMARK SMILES IDX 4 1 3 2 2 3 1 4 27 5 28 6 92 7 29 8 91 9 30 10 31 11 32 12
REMARK SMILES IDX 85 13 33 14 90 15 84 16 86 17 34 18 89 19 83 20 82 21 35 23
REMARK SMILES IDX 69 24 48 25 68 26 49 27 52 28 67 29 87 30 50 31 51 32 66 34
REMARK SMILES IDX 88 35 53 36 36 37 37 38 46 39 38 40 39 41 45 42 47 43 40 44
REMARK SMILES IDX 41 45 42 46 43 47 44 48 70 49 71 50 80 51 72 52 73 53 79 54
REMARK SMILES IDX 81 55 74 56 75 57 76 58 77 59 78 60 54 61 55 62 64 63 56 64
REMARK SMILES IDX 57 65 63 66 65 67 58 68 59 69 60 70 61 71 62 72 5 73 6 74
REMARK SMILES IDX 7 75 8 76 9 77 10 78 15 79 11 80 14 81 12 82 13 83 16 84
REMARK SMILES IDX 17 85 25 86 18 87 19 88 20 89 26 90 21 91 24 92 22 93 23 94
REMARK H PARENT 86 22 52 33
REMARK Flexibility Score: inf
ROOT
ATOM      1  C   UNL A   1      33.224  28.500  27.290  1.00  0.00     0.275 C 
ENDROOT
BRANCH   1   2
ATOM      2  O   UNL A   1      34.444  29.136  26.893  1.00  0.00    -0.458 OA
BRANCH   2   3
ATOM      3  C   UNL A   1      34.810  30.244  27.551  1.00  0.00     0.338 C 
ATOM      4  O   UNL A   1      34.248  31.318  27.462  1.00  0.00    -0.246 OA
BRANCH   3   5
ATOM      5  C   UNL A   1      36.079  30.012  28.274  1.00  0.00     0.060 A 
ATOM      6  C   UNL A   1      36.128  29.393  29.523  1.00  0.00     0.016 A 
ATOM      7  C   UNL A   1      37.258  30.304  27.591  1.00  0.00     0.016 A 
ATOM      8  C   UNL A   1      37.361  29.067  30.068  1.00  0.00     0.010 A 
ATOM      9  C   UNL A   1      38.486  29.932  28.094  1.00  0.00     0.010 A 
ATOM     10  C   UNL A   1      38.531  29.338  29.349  1.00  0.00    -0.014 A 
BRANCH  10  11
ATOM     11  C   UNL A   1      39.832  29.076  29.959  1.00  0.00     0.031 A 
ATOM     12  C   UNL A   1      40.241  29.930  31.114  1.00  0.00     0.074 A 
ATOM     13  C   UNL A   1      40.573  28.077  29.460  1.00  0.00     0.049 A 
ATOM     14  N   UNL A   1      41.209  29.743  31.964  1.00  0.00    -0.248 NA
ATOM     15  C   UNL A   1      39.453  31.155  31.356  1.00  0.00     0.031 C 
ATOM     16  C   UNL A   1      40.241  27.299  28.261  1.00  0.00     0.029 A 
ATOM     17  N   UNL A   1      41.751  27.545  29.888  1.00  0.00    -0.354 N 
ATOM     18  C   UNL A   1      41.095  30.776  32.883  1.00  0.00     0.074 A 
ATOM     19  C   UNL A   1      40.044  31.654  32.430  1.00  0.00     0.031 C 
ATOM     20  C   UNL A   1      41.208  26.391  28.046  1.00  0.00     0.029 A 
ATOM     21  C   UNL A   1      42.195  26.504  29.110  1.00  0.00     0.049 A 
ATOM     22  H   UNL A   1      42.237  27.875  30.678  1.00  0.00     0.167 HD
ATOM     23  C   UNL A   1      41.780  30.923  34.038  1.00  0.00     0.037 A 
ATOM     24  C   UNL A   1      43.272  25.718  29.284  1.00  0.00     0.037 A 
ATOM     25  C   UNL A   1      42.851  30.034  34.399  1.00  0.00     0.049 A 
ATOM     26  C   UNL A   1      44.036  25.905  30.566  1.00  0.00     0.074 A 
ATOM     27  C   UNL A   1      43.651  30.039  35.523  1.00  0.00     0.029 A 
ATOM     28  N   UNL A   1      43.273  28.971  33.604  1.00  0.00    -0.354 N 
ATOM     29  N   UNL A   1      43.855  26.811  31.504  1.00  0.00    -0.248 NA
ATOM     30  C   UNL A   1      45.097  24.939  30.853  1.00  0.00     0.031 C 
ATOM     31  C   UNL A   1      44.575  28.992  35.392  1.00  0.00     0.029 A 
ATOM     32  C   UNL A   1      44.324  28.312  34.206  1.00  0.00     0.049 A 
ATOM     33  H   UNL A   1      42.877  28.725  32.737  1.00  0.00     0.167 HD
ATOM     34  C   UNL A   1      44.763  26.511  32.508  1.00  0.00     0.074 A 
ATOM     35  C   UNL A   1      45.478  25.325  32.064  1.00  0.00     0.031 C 
ATOM     36  C   UNL A   1      44.994  27.142  33.689  1.00  0.00     0.037 A 
BRANCH  23  37
ATOM     37  C   UNL A   1      41.356  32.035  34.957  1.00  0.00     0.058 A 
ATOM     38  C   UNL A   1      41.980  33.296  34.900  1.00  0.00     0.135 A 
ATOM     39  C   UNL A   1      40.346  31.856  35.913  1.00  0.00     0.135 A 
ATOM     40  F   UNL A   1      42.973  33.521  34.024  1.00  0.00    -0.206 F 
ATOM     41  C   UNL A   1      41.636  34.326  35.770  1.00  0.00     0.059 A 
ATOM     42  C   UNL A   1      39.969  32.881  36.780  1.00  0.00     0.059 A 
ATOM     43  F   UNL A   1      39.727  30.671  36.027  1.00  0.00    -0.206 F 
ATOM     44  C   UNL A   1      40.628  34.108  36.709  1.00  0.00     0.060 A 
BRANCH  44  45
ATOM     45  S   UNL A   1      40.189  35.460  37.825  1.00  0.00     0.124 S 
ATOM     46  O   UNL A   1      41.377  35.543  38.669  1.00  0.00    -0.237 OA
ATOM     47  O   UNL A   1      39.990  36.573  36.902  1.00  0.00    -0.237 OA
ATOM     48  O   UNL A   1      38.981  34.976  38.487  1.00  0.00    -0.744 OA
ENDBRANCH  44  45
ENDBRANCH  23  37
BRANCH  24  49
ATOM     49  C   UNL A   1      43.606  24.676  28.279  1.00  0.00     0.058 A 
ATOM     50  C   UNL A   1      43.072  23.382  28.347  1.00  0.00     0.135 A 
ATOM     51  C   UNL A   1      44.435  24.977  27.185  1.00  0.00     0.135 A 
ATOM     52  F   UNL A   1      42.256  23.046  29.358  1.00  0.00    -0.206 F 
ATOM     53  C   UNL A   1      43.369  22.415  27.389  1.00  0.00     0.059 A 
ATOM     54  C   UNL A   1      44.731  24.035  26.203  1.00  0.00     0.059 A 
ATOM     55  F   UNL A   1      44.948  26.210  27.051  1.00  0.00    -0.206 F 
ATOM     56  C   UNL A   1      44.204  22.750  26.321  1.00  0.00     0.060 A 
BRANCH  56  57
ATOM     57  S   UNL A   1      44.568  21.494  25.075  1.00  0.00     0.124 S 
ATOM     58  O   UNL A   1      43.516  20.517  25.326  1.00  0.00    -0.237 OA
ATOM     59  O   UNL A   1      44.452  22.251  23.832  1.00  0.00    -0.237 OA
ATOM     60  O   UNL A   1      45.922  21.064  25.413  1.00  0.00    -0.744 OA
ENDBRANCH  56  57
ENDBRANCH  24  49
BRANCH  36  61
ATOM     61  C   UNL A   1      46.057  26.538  34.553  1.00  0.00     0.058 A 
ATOM     62  C   UNL A   1      45.749  25.552  35.500  1.00  0.00     0.135 A 
ATOM     63  C   UNL A   1      47.395  26.930  34.406  1.00  0.00     0.135 A 
ATOM     64  F   UNL A   1      44.479  25.153  35.674  1.00  0.00    -0.206 F 
ATOM     65  C   UNL A   1      46.734  24.998  36.304  1.00  0.00     0.059 A 
ATOM     66  C   UNL A   1      48.401  26.367  35.178  1.00  0.00     0.059 A 
ATOM     67  F   UNL A   1      47.735  27.862  33.499  1.00  0.00    -0.206 F 
ATOM     68  C   UNL A   1      48.056  25.414  36.138  1.00  0.00     0.060 A 
BRANCH  68  69
ATOM     69  S   UNL A   1      49.328  24.678  37.180  1.00  0.00     0.124 S 
ATOM     70  O   UNL A   1      49.506  23.376  36.547  1.00  0.00    -0.237 OA
ATOM     71  O   UNL A   1      50.437  25.615  37.031  1.00  0.00    -0.237 OA
ATOM     72  O   UNL A   1      48.709  24.656  38.502  1.00  0.00    -0.744 OA
ENDBRANCH  68  69
ENDBRANCH  36  61
ENDBRANCH  10  11
ENDBRANCH   3   5
ENDBRANCH   2   3
ENDBRANCH   1   2
BRANCH   1  73
ATOM     73  C   UNL A   1      31.824  28.992  26.845  1.00  0.00     0.275 C 
BRANCH  73  74
ATOM     74  O   UNL A   1      31.755  29.948  25.774  1.00  0.00    -0.458 OA
BRANCH  74  75
ATOM     75  C   UNL A   1      31.879  29.444  24.507  1.00  0.00     0.340 C 
ATOM     76  O   UNL A   1      32.919  29.217  23.914  1.00  0.00    -0.246 OA
BRANCH  75  77
ATOM     77  C   UNL A   1      30.536  29.187  23.934  1.00  0.00     0.085 A 
ATOM     78  C   UNL A   1      29.712  30.300  23.683  1.00  0.00     0.038 A 
ATOM     79  C   UNL A   1      30.066  27.881  23.667  1.00  0.00     0.066 A 
ATOM     80  C   UNL A   1      28.428  30.115  23.176  1.00  0.00     0.042 A 
ATOM     81  C   UNL A   1      28.756  27.723  23.182  1.00  0.00     0.029 A 
ATOM     82  Cl  UNL A   1      27.435  31.478  22.840  1.00  0.00    -0.084 Cl
ATOM     83  C   UNL A   1      27.944  28.834  22.934  1.00  0.00     0.023 A 
BRANCH  79  84
ATOM     84  N   UNL A   1      30.828  26.717  23.962  1.00  0.00    -0.249 N 
ATOM     85  C   UNL A   1      31.425  25.982  22.966  1.00  0.00     0.234 C 
ATOM     86  C   UNL A   1      30.541  25.870  25.005  1.00  0.00     0.240 C 
ATOM     87  O   UNL A   1      31.472  26.242  21.770  1.00  0.00    -0.274 OA
ATOM     88  C   UNL A   1      31.818  24.628  23.529  1.00  0.00     0.118 C 
ATOM     89  C   UNL A   1      31.593  24.785  25.030  1.00  0.00     0.059 C 
ATOM     90  O   UNL A   1      29.536  25.867  25.705  1.00  0.00    -0.273 OA
ATOM     91  C   UNL A   1      31.133  23.534  25.787  1.00  0.00     0.017 C 
ATOM     92  C   UNL A   1      32.878  25.169  25.768  1.00  0.00     0.017 C 
ATOM     93  C   UNL A   1      32.380  22.910  26.416  1.00  0.00     0.001 C 
ATOM     94  C   UNL A   1      33.539  23.838  26.090  1.00  0.00     0.001 C 
ENDBRANCH  79  84
ENDBRANCH  75  77
ENDBRANCH  74  75
ENDBRANCH  73  74
ENDBRANCH   1  73
TORSDOF 15
ENDMDL
