MODEL 1
REMARK VINA RESULT:     -12.7      0.000      0.000
REMARK SMILES CC(C)c1cccc2c1N[C@H](c1ccc(C(=O)OCCOC(=O)c3ccc(-c4c5nc(c(-c6c(F)cc(S(=O)(=O)[O-])cc6F)c6ccc([nH]6)c(-c6c(F)cc(S(=O)(=O)[O-])cc6F)c6nc(c(-c7c(F)cc(S(=O)(=O)[O-])cc7F)c7ccc4[nH]7)C=C6)C=C5)cc3)cc1)[C@H]1CC=C[C@H]21
REMARK SMILES IDX 20 1 19 2 18 3 16 4 17 5 15 6 12 7 13 8 91 9 14 10 90 11
REMARK SMILES IDX 11 12 4 13 5 14 9 15 6 16 8 17 10 18 7 19 96 20 92 22 95 23
REMARK SMILES IDX 93 24 94 25 2 26 1 27 3 28 21 29 22 30 23 31 24 32 25 33
REMARK SMILES IDX 89 34 26 35 88 36 27 37 28 38 29 39 82 40 30 41 87 42 81 43
REMARK SMILES IDX 83 44 31 45 86 46 80 47 79 48 32 50 66 51 45 52 65 53 46 54
REMARK SMILES IDX 49 55 64 56 84 57 47 58 48 59 63 61 85 62 50 63 33 64 34 65
REMARK SMILES IDX 43 66 35 67 36 68 42 69 44 70 37 71 38 72 39 73 40 74 41 75
REMARK SMILES IDX 67 76 68 77 77 78 69 79 70 80 76 81 78 82 71 83 72 84 73 85
REMARK SMILES IDX 74 86 75 87 51 88 52 89 61 90 53 91 54 92 60 93 62 94 55 95
REMARK SMILES IDX 56 96 57 97 58 98 59 99
REMARK H PARENT 10 21 83 49 49 60
REMARK Flexibility Score: inf
ROOT
ATOM      1  C   UNL A   1      41.140  23.248  26.512  1.00  0.00     0.275 C 
ENDROOT
BRANCH   1   2
ATOM      2  C   UNL A   1      40.314  21.959  26.497  1.00  0.00     0.275 C 
BRANCH   2   3
ATOM      3  O   UNL A   1      38.911  22.273  26.428  1.00  0.00    -0.458 OA
BRANCH   3   4
ATOM      4  C   UNL A   1      38.165  21.584  25.530  1.00  0.00     0.338 C 
ATOM      5  O   UNL A   1      38.399  20.464  25.107  1.00  0.00    -0.246 OA
BRANCH   4   6
ATOM      6  C   UNL A   1      36.941  22.357  25.176  1.00  0.00     0.060 A 
ATOM      7  C   UNL A   1      34.537  23.739  24.597  1.00  0.00    -0.025 A 
ATOM      8  C   UNL A   1      34.683  22.382  24.266  1.00  0.00     0.007 A 
ATOM      9  C   UNL A   1      35.601  24.372  25.262  1.00  0.00     0.007 A 
ATOM     10  C   UNL A   1      35.876  21.700  24.543  1.00  0.00     0.016 A 
ATOM     11  C   UNL A   1      36.794  23.700  25.532  1.00  0.00     0.016 A 
BRANCH   7  12
ATOM     12  C   UNL A   1      33.270  24.493  24.208  1.00  0.00     0.114 C 
ATOM     13  C   UNL A   1      32.297  27.957  25.489  1.00  0.00    -0.022 A 
ATOM     14  C   UNL A   1      31.791  29.160  24.949  1.00  0.00     0.006 A 
ATOM     15  C   UNL A   1      32.466  26.843  24.631  1.00  0.00     0.042 A 
ATOM     16  C   UNL A   1      31.380  29.253  23.622  1.00  0.00     0.001 A 
ATOM     17  C   UNL A   1      31.987  26.941  23.289  1.00  0.00    -0.017 A 
ATOM     18  N   UNL A   1      33.089  25.668  25.063  1.00  0.00    -0.377 N 
ATOM     19  C   UNL A   1      31.446  28.137  22.803  1.00  0.00     0.006 A 
ATOM     20  C   UNL A   1      31.984  25.685  22.461  1.00  0.00     0.049 C 
ATOM     21  H   UNL A   1      33.423  25.629  25.989  1.00  0.00     0.161 HD
ATOM     22  C   UNL A   1      33.282  24.940  22.752  1.00  0.00     0.031 C 
ATOM     23  C   UNL A   1      32.052  25.709  20.960  1.00  0.00    -0.023 C 
ATOM     24  C   UNL A   1      33.365  23.888  21.652  1.00  0.00     0.034 C 
ATOM     25  C   UNL A   1      32.788  24.679  20.511  1.00  0.00    -0.030 C 
BRANCH  13  26
ATOM     26  C   UNL A   1      32.631  27.911  26.979  1.00  0.00     0.015 C 
ATOM     27  C   UNL A   1      33.766  28.877  27.315  1.00  0.00     0.012 C 
ATOM     28  C   UNL A   1      31.411  28.188  27.874  1.00  0.00     0.012 C 
ENDBRANCH  13  26
ENDBRANCH   7  12
ENDBRANCH   4   6
ENDBRANCH   3   4
ENDBRANCH   2   3
ENDBRANCH   1   2
BRANCH   1  29
ATOM     29  O   UNL A   1      40.285  24.405  26.450  1.00  0.00    -0.458 OA
BRANCH  29  30
ATOM     30  C   UNL A   1      40.911  25.582  26.206  1.00  0.00     0.338 C 
ATOM     31  O   UNL A   1      41.350  25.973  25.138  1.00  0.00    -0.246 OA
BRANCH  30  32
ATOM     32  C   UNL A   1      40.828  26.424  27.414  1.00  0.00     0.060 A 
ATOM     33  C   UNL A   1      41.681  27.509  27.618  1.00  0.00     0.016 A 
ATOM     34  C   UNL A   1      39.846  26.111  28.357  1.00  0.00     0.016 A 
ATOM     35  C   UNL A   1      41.557  28.267  28.789  1.00  0.00     0.010 A 
ATOM     36  C   UNL A   1      39.727  26.859  29.527  1.00  0.00     0.010 A 
ATOM     37  C   UNL A   1      40.584  27.943  29.754  1.00  0.00    -0.014 A 
BRANCH  37  38
ATOM     38  C   UNL A   1      40.398  28.794  30.954  1.00  0.00     0.031 A 
ATOM     39  C   UNL A   1      41.264  28.631  32.169  1.00  0.00     0.074 A 
ATOM     40  C   UNL A   1      39.406  29.703  30.949  1.00  0.00     0.049 A 
ATOM     41  N   UNL A   1      41.306  29.367  33.250  1.00  0.00    -0.248 NA
ATOM     42  C   UNL A   1      42.184  27.483  32.187  1.00  0.00     0.031 C 
ATOM     43  C   UNL A   1      38.443  29.886  29.860  1.00  0.00     0.029 A 
ATOM     44  N   UNL A   1      39.049  30.650  31.874  1.00  0.00    -0.354 N 
ATOM     45  C   UNL A   1      42.267  28.786  34.069  1.00  0.00     0.074 A 
ATOM     46  C   UNL A   1      42.738  27.599  33.388  1.00  0.00     0.031 C 
ATOM     47  C   UNL A   1      37.641  30.920  30.155  1.00  0.00     0.029 A 
ATOM     48  C   UNL A   1      38.028  31.468  31.452  1.00  0.00     0.049 A 
ATOM     49  H   UNL A   1      39.483  30.737  32.753  1.00  0.00     0.167 HD
ATOM     50  C   UNL A   1      42.732  29.224  35.265  1.00  0.00     0.037 A 
ATOM     51  C   UNL A   1      37.489  32.559  32.028  1.00  0.00     0.037 A 
ATOM     52  C   UNL A   1      42.255  30.409  35.932  1.00  0.00     0.049 A 
ATOM     53  C   UNL A   1      38.042  33.049  33.337  1.00  0.00     0.074 A 
ATOM     54  C   UNL A   1      42.695  30.967  37.120  1.00  0.00     0.029 A 
ATOM     55  N   UNL A   1      41.227  31.219  35.469  1.00  0.00    -0.354 N 
ATOM     56  N   UNL A   1      39.018  32.548  34.054  1.00  0.00    -0.248 NA
ATOM     57  C   UNL A   1      37.433  34.258  33.908  1.00  0.00     0.031 C 
ATOM     58  C   UNL A   1      41.914  32.095  37.391  1.00  0.00     0.029 A 
ATOM     59  C   UNL A   1      41.012  32.264  36.352  1.00  0.00     0.049 A 
ATOM     60  H   UNL A   1      40.724  31.072  34.636  1.00  0.00     0.167 HD
ATOM     61  C   UNL A   1      39.157  33.393  35.149  1.00  0.00     0.074 A 
ATOM     62  C   UNL A   1      38.168  34.441  34.998  1.00  0.00     0.031 C 
ATOM     63  C   UNL A   1      40.029  33.306  36.183  1.00  0.00     0.037 A 
BRANCH  50  64
ATOM     64  C   UNL A   1      43.838  28.439  35.918  1.00  0.00     0.058 A 
ATOM     65  C   UNL A   1      43.553  27.366  36.780  1.00  0.00     0.135 A 
ATOM     66  C   UNL A   1      45.186  28.710  35.637  1.00  0.00     0.135 A 
ATOM     67  F   UNL A   1      42.282  27.065  37.088  1.00  0.00    -0.206 F 
ATOM     68  C   UNL A   1      44.566  26.611  37.362  1.00  0.00     0.059 A 
ATOM     69  C   UNL A   1      46.216  27.951  36.189  1.00  0.00     0.059 A 
ATOM     70  F   UNL A   1      45.516  29.719  34.814  1.00  0.00    -0.206 F 
ATOM     71  C   UNL A   1      45.895  26.912  37.061  1.00  0.00     0.060 A 
BRANCH  71  72
ATOM     72  S   UNL A   1      47.194  25.913  37.819  1.00  0.00     0.124 S 
ATOM     73  O   UNL A   1      46.440  25.168  38.823  1.00  0.00    -0.237 OA
ATOM     74  O   UNL A   1      47.687  25.131  36.690  1.00  0.00    -0.237 OA
ATOM     75  O   UNL A   1      48.126  26.906  38.345  1.00  0.00    -0.744 OA
ENDBRANCH  71  72
ENDBRANCH  50  64
BRANCH  51  76
ATOM     76  C   UNL A   1      36.434  33.314  31.306  1.00  0.00     0.058 A 
ATOM     77  C   UNL A   1      36.750  34.039  30.147  1.00  0.00     0.135 A 
ATOM     78  C   UNL A   1      35.091  33.270  31.707  1.00  0.00     0.135 A 
ATOM     79  F   UNL A   1      38.021  34.108  29.725  1.00  0.00    -0.206 F 
ATOM     80  C   UNL A   1      35.771  34.694  29.409  1.00  0.00     0.059 A 
ATOM     81  C   UNL A   1      34.090  33.901  30.975  1.00  0.00     0.059 A 
ATOM     82  F   UNL A   1      34.738  32.571  32.798  1.00  0.00    -0.206 F 
ATOM     83  C   UNL A   1      34.441  34.613  29.828  1.00  0.00     0.060 A 
BRANCH  83  84
ATOM     84  S   UNL A   1      33.170  35.402  28.816  1.00  0.00     0.124 S 
ATOM     85  O   UNL A   1      32.625  34.263  28.086  1.00  0.00    -0.237 OA
ATOM     86  O   UNL A   1      32.297  35.990  29.826  1.00  0.00    -0.237 OA
ATOM     87  O   UNL A   1      33.926  36.362  28.017  1.00  0.00    -0.744 OA
ENDBRANCH  83  84
ENDBRANCH  51  76
BRANCH  63  88
ATOM     88  C   UNL A   1      39.976  34.376  37.236  1.00  0.00     0.058 A 
ATOM     89  C   UNL A   1      40.692  35.574  37.097  1.00  0.00     0.135 A 
ATOM     90  C   UNL A   1      39.115  34.248  38.337  1.00  0.00     0.135 A 
ATOM     91  F   UNL A   1      41.534  35.742  36.065  1.00  0.00    -0.206 F 
ATOM     92  C   UNL A   1      40.552  36.613  38.011  1.00  0.00     0.059 A 
ATOM     93  C   UNL A   1      38.945  35.280  39.255  1.00  0.00     0.059 A 
ATOM     94  F   UNL A   1      38.404  33.122  38.512  1.00  0.00    -0.206 F 
ATOM     95  C   UNL A   1      39.667  36.460  39.081  1.00  0.00     0.060 A 
BRANCH  95  96
ATOM     96  S   UNL A   1      39.433  37.850  40.210  1.00  0.00     0.124 S 
ATOM     97  O   UNL A   1      40.687  38.578  40.047  1.00  0.00    -0.237 OA
ATOM     98  O   UNL A   1      38.247  38.500  39.662  1.00  0.00    -0.237 OA
ATOM     99  O   UNL A   1      39.244  37.207  41.508  1.00  0.00    -0.744 OA
ENDBRANCH  95  96
ENDBRANCH  63  88
ENDBRANCH  37  38
ENDBRANCH  30  32
ENDBRANCH  29  30
ENDBRANCH   1  29
TORSDOF 16
ENDMDL
MODEL 2
REMARK VINA RESULT:     -12.7      0.913      1.921
REMARK SMILES CC(C)c1cccc2c1N[C@H](c1ccc(C(=O)OCCOC(=O)c3ccc(-c4c5nc(c(-c6c(F)cc(S(=O)(=O)[O-])cc6F)c6ccc([nH]6)c(-c6c(F)cc(S(=O)(=O)[O-])cc6F)c6nc(c(-c7c(F)cc(S(=O)(=O)[O-])cc7F)c7ccc4[nH]7)C=C6)C=C5)cc3)cc1)[C@H]1CC=C[C@H]21
REMARK SMILES IDX 20 1 19 2 18 3 16 4 17 5 15 6 12 7 13 8 91 9 14 10 90 11
REMARK SMILES IDX 11 12 4 13 5 14 9 15 6 16 8 17 10 18 7 19 96 20 92 22 95 23
REMARK SMILES IDX 93 24 94 25 2 26 1 27 3 28 21 29 22 30 23 31 24 32 25 33
REMARK SMILES IDX 89 34 26 35 88 36 27 37 28 38 29 39 82 40 30 41 87 42 81 43
REMARK SMILES IDX 83 44 31 45 86 46 80 47 79 48 32 50 66 51 45 52 65 53 46 54
REMARK SMILES IDX 49 55 64 56 84 57 47 58 48 59 63 61 85 62 50 63 33 64 34 65
REMARK SMILES IDX 43 66 35 67 36 68 42 69 44 70 37 71 38 72 39 73 40 74 41 75
REMARK SMILES IDX 67 76 68 77 77 78 69 79 70 80 76 81 78 82 71 83 72 84 73 85
REMARK SMILES IDX 74 86 75 87 51 88 52 89 61 90 53 91 54 92 60 93 62 94 55 95
REMARK SMILES IDX 56 96 57 97 58 98 59 99
REMARK H PARENT 10 21 83 49 49 60
REMARK Flexibility Score: inf
ROOT
ATOM      1  C   UNL A   1      41.252  23.100  26.305  1.00  0.00     0.275 C 
ENDROOT
BRANCH   1   2
ATOM      2  C   UNL A   1      40.310  21.893  26.302  1.00  0.00     0.275 C 
BRANCH   2   3
ATOM      3  O   UNL A   1      38.949  22.329  26.475  1.00  0.00    -0.458 OA
BRANCH   3   4
ATOM      4  C   UNL A   1      38.001  21.713  25.727  1.00  0.00     0.338 C 
ATOM      5  O   UNL A   1      38.128  20.658  25.127  1.00  0.00    -0.246 OA
BRANCH   4   6
ATOM      6  C   UNL A   1      36.718  22.468  25.798  1.00  0.00     0.060 A 
ATOM      7  C   UNL A   1      34.285  23.917  25.780  1.00  0.00    -0.025 A 
ATOM      8  C   UNL A   1      35.481  24.518  25.357  1.00  0.00     0.007 A 
ATOM      9  C   UNL A   1      34.328  22.567  26.167  1.00  0.00     0.007 A 
ATOM     10  C   UNL A   1      36.688  23.805  25.375  1.00  0.00     0.016 A 
ATOM     11  C   UNL A   1      35.528  21.855  26.195  1.00  0.00     0.016 A 
BRANCH   7  12
ATOM     12  C   UNL A   1      32.997  24.731  25.844  1.00  0.00     0.114 C 
ATOM     13  C   UNL A   1      32.819  28.540  26.079  1.00  0.00    -0.022 A 
ATOM     14  C   UNL A   1      32.084  29.585  25.477  1.00  0.00     0.006 A 
ATOM     15  C   UNL A   1      32.514  27.202  25.728  1.00  0.00     0.042 A 
ATOM     16  C   UNL A   1      31.021  29.331  24.614  1.00  0.00     0.001 A 
ATOM     17  C   UNL A   1      31.386  26.962  24.886  1.00  0.00    -0.017 A 
ATOM     18  N   UNL A   1      33.289  26.128  26.177  1.00  0.00    -0.377 N 
ATOM     19  C   UNL A   1      30.651  28.023  24.345  1.00  0.00     0.006 A 
ATOM     20  C   UNL A   1      30.955  25.532  24.696  1.00  0.00     0.049 C 
ATOM     21  H   UNL A   1      34.070  26.320  26.746  1.00  0.00     0.161 HD
ATOM     22  C   UNL A   1      32.215  24.690  24.537  1.00  0.00     0.031 C 
ATOM     23  C   UNL A   1      30.202  25.073  23.480  1.00  0.00    -0.023 C 
ATOM     24  C   UNL A   1      31.707  23.350  24.018  1.00  0.00     0.034 C 
ATOM     25  C   UNL A   1      30.595  23.836  23.131  1.00  0.00    -0.030 C 
BRANCH  13  26
ATOM     26  C   UNL A   1      33.904  28.902  27.093  1.00  0.00     0.015 C 
ATOM     27  C   UNL A   1      35.297  28.683  26.503  1.00  0.00     0.012 C 
ATOM     28  C   UNL A   1      33.768  30.338  27.626  1.00  0.00     0.012 C 
ENDBRANCH  13  26
ENDBRANCH   7  12
ENDBRANCH   4   6
ENDBRANCH   3   4
ENDBRANCH   2   3
ENDBRANCH   1   2
BRANCH   1  29
ATOM     29  O   UNL A   1      40.506  24.331  26.291  1.00  0.00    -0.458 OA
BRANCH  29  30
ATOM     30  C   UNL A   1      41.241  25.458  26.125  1.00  0.00     0.338 C 
ATOM     31  O   UNL A   1      41.826  25.811  25.115  1.00  0.00    -0.246 OA
BRANCH  30  32
ATOM     32  C   UNL A   1      41.085  26.309  27.319  1.00  0.00     0.060 A 
ATOM     33  C   UNL A   1      41.908  27.410  27.555  1.00  0.00     0.016 A 
ATOM     34  C   UNL A   1      40.063  25.987  28.217  1.00  0.00     0.016 A 
ATOM     35  C   UNL A   1      41.714  28.175  28.710  1.00  0.00     0.010 A 
ATOM     36  C   UNL A   1      39.876  26.742  29.372  1.00  0.00     0.010 A 
ATOM     37  C   UNL A   1      40.701  27.843  29.630  1.00  0.00    -0.014 A 
BRANCH  37  38
ATOM     38  C   UNL A   1      40.443  28.701  30.812  1.00  0.00     0.031 A 
ATOM     39  C   UNL A   1      41.261  28.573  32.064  1.00  0.00     0.074 A 
ATOM     40  C   UNL A   1      39.428  29.582  30.755  1.00  0.00     0.049 A 
ATOM     41  N   UNL A   1      41.238  29.321  33.137  1.00  0.00    -0.248 NA
ATOM     42  C   UNL A   1      42.209  27.451  32.133  1.00  0.00     0.031 C 
ATOM     43  C   UNL A   1      38.507  29.728  29.625  1.00  0.00     0.029 A 
ATOM     44  N   UNL A   1      39.008  30.529  31.653  1.00  0.00    -0.354 N 
ATOM     45  C   UNL A   1      42.179  28.775  34.002  1.00  0.00     0.074 A 
ATOM     46  C   UNL A   1      42.709  27.594  33.354  1.00  0.00     0.031 C 
ATOM     47  C   UNL A   1      37.667  30.744  29.874  1.00  0.00     0.029 A 
ATOM     48  C   UNL A   1      37.983  31.315  31.181  1.00  0.00     0.049 A 
ATOM     49  H   UNL A   1      39.402  30.636  32.549  1.00  0.00     0.167 HD
ATOM     50  C   UNL A   1      42.581  29.237  35.212  1.00  0.00     0.037 A 
ATOM     51  C   UNL A   1      37.392  32.397  31.721  1.00  0.00     0.037 A 
ATOM     52  C   UNL A   1      42.045  30.416  35.844  1.00  0.00     0.049 A 
ATOM     53  C   UNL A   1      37.877  32.915  33.046  1.00  0.00     0.074 A 
ATOM     54  C   UNL A   1      42.420  30.997  37.043  1.00  0.00     0.029 A 
ATOM     55  N   UNL A   1      41.016  31.193  35.330  1.00  0.00    -0.354 N 
ATOM     56  N   UNL A   1      38.834  32.448  33.809  1.00  0.00    -0.248 NA
ATOM     57  C   UNL A   1      37.212  34.113  33.578  1.00  0.00     0.031 C 
ATOM     58  C   UNL A   1      41.599  32.107  37.268  1.00  0.00     0.029 A 
ATOM     59  C   UNL A   1      40.737  32.241  36.191  1.00  0.00     0.049 A 
ATOM     60  H   UNL A   1      40.553  31.023  34.478  1.00  0.00     0.167 HD
ATOM     61  C   UNL A   1      38.905  33.307  34.899  1.00  0.00     0.074 A 
ATOM     62  C   UNL A   1      37.896  34.326  34.695  1.00  0.00     0.031 C 
ATOM     63  C   UNL A   1      39.735  33.254  35.969  1.00  0.00     0.037 A 
BRANCH  50  64
ATOM     64  C   UNL A   1      43.679  28.488  35.919  1.00  0.00     0.058 A 
ATOM     65  C   UNL A   1      45.022  28.881  35.790  1.00  0.00     0.135 A 
ATOM     66  C   UNL A   1      43.391  27.417  36.778  1.00  0.00     0.135 A 
ATOM     67  F   UNL A   1      45.354  29.897  34.979  1.00  0.00    -0.206 F 
ATOM     68  C   UNL A   1      46.042  28.220  36.466  1.00  0.00     0.059 A 
ATOM     69  C   UNL A   1      44.395  26.755  37.484  1.00  0.00     0.059 A 
ATOM     70  F   UNL A   1      42.125  27.003  36.944  1.00  0.00    -0.206 F 
ATOM     71  C   UNL A   1      45.718  27.156  37.310  1.00  0.00     0.060 A 
BRANCH  71  72
ATOM     72  S   UNL A   1      47.056  26.316  38.185  1.00  0.00     0.124 S 
ATOM     73  O   UNL A   1      48.217  27.085  37.747  1.00  0.00    -0.237 OA
ATOM     74  O   UNL A   1      46.675  26.491  39.583  1.00  0.00    -0.237 OA
ATOM     75  O   UNL A   1      46.985  24.947  37.685  1.00  0.00    -0.744 OA
ENDBRANCH  71  72
ENDBRANCH  50  64
BRANCH  51  76
ATOM     76  C   UNL A   1      36.349  33.116  30.947  1.00  0.00     0.058 A 
ATOM     77  C   UNL A   1      35.010  33.085  31.362  1.00  0.00     0.135 A 
ATOM     78  C   UNL A   1      36.673  33.903  29.831  1.00  0.00     0.135 A 
ATOM     79  F   UNL A   1      34.655  32.347  32.424  1.00  0.00    -0.206 F 
ATOM     80  C   UNL A   1      34.025  33.809  30.700  1.00  0.00     0.059 A 
ATOM     81  C   UNL A   1      35.709  34.651  29.163  1.00  0.00     0.059 A 
ATOM     82  F   UNL A   1      37.945  33.982  29.410  1.00  0.00    -0.206 F 
ATOM     83  C   UNL A   1      34.387  34.596  29.605  1.00  0.00     0.060 A 
BRANCH  83  84
ATOM     84  S   UNL A   1      33.111  35.592  28.803  1.00  0.00     0.124 S 
ATOM     85  O   UNL A   1      33.914  36.563  28.070  1.00  0.00    -0.237 OA
ATOM     86  O   UNL A   1      32.412  34.599  27.993  1.00  0.00    -0.237 OA
ATOM     87  O   UNL A   1      32.346  36.124  29.926  1.00  0.00    -0.744 OA
ENDBRANCH  83  84
ENDBRANCH  51  76
BRANCH  63  88
ATOM     88  C   UNL A   1      39.609  34.333  37.008  1.00  0.00     0.058 A 
ATOM     89  C   UNL A   1      38.888  34.125  38.193  1.00  0.00     0.135 A 
ATOM     90  C   UNL A   1      40.307  35.542  36.865  1.00  0.00     0.135 A 
ATOM     91  F   UNL A   1      38.197  32.988  38.374  1.00  0.00    -0.206 F 
ATOM     92  C   UNL A   1      38.869  35.078  39.206  1.00  0.00     0.059 A 
ATOM     93  C   UNL A   1      40.317  36.502  37.872  1.00  0.00     0.059 A 
ATOM     94  F   UNL A   1      41.015  35.785  35.750  1.00  0.00    -0.206 F 
ATOM     95  C   UNL A   1      39.597  36.259  39.040  1.00  0.00     0.060 A 
BRANCH  95  96
ATOM     96  S   UNL A   1      39.630  37.448  40.399  1.00  0.00     0.124 S 
ATOM     97  O   UNL A   1      41.064  37.644  40.586  1.00  0.00    -0.237 OA
ATOM     98  O   UNL A   1      38.903  38.583  39.837  1.00  0.00    -0.237 OA
ATOM     99  O   UNL A   1      38.945  36.748  41.482  1.00  0.00    -0.744 OA
ENDBRANCH  95  96
ENDBRANCH  63  88
ENDBRANCH  37  38
ENDBRANCH  30  32
ENDBRANCH  29  30
ENDBRANCH   1  29
TORSDOF 16
ENDMDL
MODEL 3
REMARK VINA RESULT:     -12.4      2.193      3.993
REMARK SMILES CC(C)c1cccc2c1N[C@H](c1ccc(C(=O)OCCOC(=O)c3ccc(-c4c5nc(c(-c6c(F)cc(S(=O)(=O)[O-])cc6F)c6ccc([nH]6)c(-c6c(F)cc(S(=O)(=O)[O-])cc6F)c6nc(c(-c7c(F)cc(S(=O)(=O)[O-])cc7F)c7ccc4[nH]7)C=C6)C=C5)cc3)cc1)[C@H]1CC=C[C@H]21
REMARK SMILES IDX 20 1 19 2 18 3 16 4 17 5 15 6 12 7 13 8 91 9 14 10 90 11
REMARK SMILES IDX 11 12 4 13 5 14 9 15 6 16 8 17 10 18 7 19 96 20 92 22 95 23
REMARK SMILES IDX 93 24 94 25 2 26 1 27 3 28 21 29 22 30 23 31 24 32 25 33
REMARK SMILES IDX 89 34 26 35 88 36 27 37 28 38 29 39 82 40 30 41 87 42 81 43
REMARK SMILES IDX 83 44 31 45 86 46 80 47 79 48 32 50 66 51 45 52 65 53 46 54
REMARK SMILES IDX 49 55 64 56 84 57 47 58 48 59 63 61 85 62 50 63 33 64 34 65
REMARK SMILES IDX 43 66 35 67 36 68 42 69 44 70 37 71 38 72 39 73 40 74 41 75
REMARK SMILES IDX 67 76 68 77 77 78 69 79 70 80 76 81 78 82 71 83 72 84 73 85
REMARK SMILES IDX 74 86 75 87 51 88 52 89 61 90 53 91 54 92 60 93 62 94 55 95
REMARK SMILES IDX 56 96 57 97 58 98 59 99
REMARK H PARENT 10 21 83 49 49 60
REMARK Flexibility Score: inf
ROOT
ATOM      1  C   UNL A   1      43.710  23.345  25.732  1.00  0.00     0.275 C 
ENDROOT
BRANCH   1   2
ATOM      2  C   UNL A   1      43.528  21.838  25.934  1.00  0.00     0.275 C 
BRANCH   2   3
ATOM      3  O   UNL A   1      42.784  21.588  27.140  1.00  0.00    -0.458 OA
BRANCH   3   4
ATOM      4  C   UNL A   1      42.022  20.467  27.178  1.00  0.00     0.338 C 
ATOM      5  O   UNL A   1      42.312  19.416  27.725  1.00  0.00    -0.246 OA
BRANCH   4   6
ATOM      6  C   UNL A   1      40.709  20.715  26.516  1.00  0.00     0.060 A 
ATOM      7  C   UNL A   1      38.152  21.087  25.357  1.00  0.00    -0.025 A 
ATOM      8  C   UNL A   1      38.787  19.836  25.308  1.00  0.00     0.007 A 
ATOM      9  C   UNL A   1      38.804  22.130  26.036  1.00  0.00     0.007 A 
ATOM     10  C   UNL A   1      40.057  19.653  25.872  1.00  0.00     0.016 A 
ATOM     11  C   UNL A   1      40.073  21.955  26.593  1.00  0.00     0.016 A 
BRANCH   7  12
ATOM     12  C   UNL A   1      36.813  21.296  24.659  1.00  0.00     0.114 C 
ATOM     13  C   UNL A   1      33.926  18.795  24.657  1.00  0.00    -0.022 A 
ATOM     14  C   UNL A   1      32.525  18.825  24.834  1.00  0.00     0.006 A 
ATOM     15  C   UNL A   1      34.642  20.017  24.679  1.00  0.00     0.042 A 
ATOM     16  C   UNL A   1      31.826  20.024  24.949  1.00  0.00     0.001 A 
ATOM     17  C   UNL A   1      33.901  21.236  24.741  1.00  0.00    -0.017 A 
ATOM     18  N   UNL A   1      36.039  20.052  24.649  1.00  0.00    -0.377 N 
ATOM     19  C   UNL A   1      32.507  21.227  24.869  1.00  0.00     0.006 A 
ATOM     20  C   UNL A   1      34.664  22.520  24.553  1.00  0.00     0.049 C 
ATOM     21  H   UNL A   1      36.528  19.197  24.619  1.00  0.00     0.161 HD
ATOM     22  C   UNL A   1      35.978  22.390  25.313  1.00  0.00     0.031 C 
ATOM     23  C   UNL A   1      34.188  23.829  25.116  1.00  0.00    -0.023 C 
ATOM     24  C   UNL A   1      36.525  23.811  25.364  1.00  0.00     0.034 C 
ATOM     25  C   UNL A   1      35.234  24.565  25.528  1.00  0.00    -0.030 C 
BRANCH  13  26
ATOM     26  C   UNL A   1      34.603  17.443  24.438  1.00  0.00     0.015 C 
ATOM     27  C   UNL A   1      34.215  16.454  25.536  1.00  0.00     0.012 C 
ATOM     28  C   UNL A   1      34.311  16.845  23.051  1.00  0.00     0.012 C 
ENDBRANCH  13  26
ENDBRANCH   7  12
ENDBRANCH   4   6
ENDBRANCH   3   4
ENDBRANCH   2   3
ENDBRANCH   1   2
BRANCH   1  29
ATOM     29  O   UNL A   1      42.811  24.086  26.579  1.00  0.00    -0.458 OA
BRANCH  29  30
ATOM     30  C   UNL A   1      42.507  25.337  26.154  1.00  0.00     0.338 C 
ATOM     31  O   UNL A   1      42.330  25.699  25.003  1.00  0.00    -0.246 OA
BRANCH  30  32
ATOM     32  C   UNL A   1      42.240  26.187  27.329  1.00  0.00     0.060 A 
ATOM     33  C   UNL A   1      42.890  27.406  27.523  1.00  0.00     0.016 A 
ATOM     34  C   UNL A   1      41.290  25.739  28.251  1.00  0.00     0.016 A 
ATOM     35  C   UNL A   1      42.598  28.164  28.663  1.00  0.00     0.010 A 
ATOM     36  C   UNL A   1      41.005  26.489  29.391  1.00  0.00     0.010 A 
ATOM     37  C   UNL A   1      41.659  27.708  29.607  1.00  0.00    -0.014 A 
BRANCH  37  38
ATOM     38  C   UNL A   1      41.289  28.549  30.772  1.00  0.00     0.031 A 
ATOM     39  C   UNL A   1      42.077  28.507  32.048  1.00  0.00     0.074 A 
ATOM     40  C   UNL A   1      40.201  29.335  30.676  1.00  0.00     0.049 A 
ATOM     41  N   UNL A   1      41.955  29.258  33.112  1.00  0.00    -0.248 NA
ATOM     42  C   UNL A   1      43.120  27.475  32.157  1.00  0.00     0.031 C 
ATOM     43  C   UNL A   1      39.305  29.387  29.518  1.00  0.00     0.029 A 
ATOM     44  N   UNL A   1      39.670  30.247  31.551  1.00  0.00    -0.354 N 
ATOM     45  C   UNL A   1      42.915  28.807  34.010  1.00  0.00     0.074 A 
ATOM     46  C   UNL A   1      43.569  27.673  33.391  1.00  0.00     0.031 C 
ATOM     47  C   UNL A   1      38.369  30.325  29.731  1.00  0.00     0.029 A 
ATOM     48  C   UNL A   1      38.594  30.933  31.040  1.00  0.00     0.049 A 
ATOM     49  H   UNL A   1      40.026  30.397  32.456  1.00  0.00     0.167 HD
ATOM     50  C   UNL A   1      43.238  29.313  35.225  1.00  0.00     0.037 A 
ATOM     51  C   UNL A   1      37.892  31.962  31.551  1.00  0.00     0.037 A 
ATOM     52  C   UNL A   1      42.579  30.444  35.829  1.00  0.00     0.049 A 
ATOM     53  C   UNL A   1      38.288  32.533  32.883  1.00  0.00     0.074 A 
ATOM     54  C   UNL A   1      42.864  31.067  37.031  1.00  0.00     0.029 A 
ATOM     55  N   UNL A   1      41.501  31.121  35.276  1.00  0.00    -0.354 N 
ATOM     56  N   UNL A   1      39.261  32.161  33.679  1.00  0.00    -0.248 NA
ATOM     57  C   UNL A   1      37.503  33.670  33.382  1.00  0.00     0.031 C 
ATOM     58  C   UNL A   1      41.940  32.100  37.220  1.00  0.00     0.029 A 
ATOM     59  C   UNL A   1      41.102  32.146  36.118  1.00  0.00     0.049 A 
ATOM     60  H   UNL A   1      41.080  30.903  34.413  1.00  0.00     0.167 HD
ATOM     61  C   UNL A   1      39.221  33.032  34.761  1.00  0.00     0.074 A 
ATOM     62  C   UNL A   1      38.131  33.954  34.516  1.00  0.00     0.031 C 
ATOM     63  C   UNL A   1      40.020  33.063  35.855  1.00  0.00     0.037 A 
BRANCH  50  64
ATOM     64  C   UNL A   1      44.377  28.673  35.972  1.00  0.00     0.058 A 
ATOM     65  C   UNL A   1      45.693  29.144  35.828  1.00  0.00     0.135 A 
ATOM     66  C   UNL A   1      44.154  27.629  36.883  1.00  0.00     0.135 A 
ATOM     67  F   UNL A   1      45.964  30.138  34.967  1.00  0.00    -0.206 F 
ATOM     68  C   UNL A   1      46.749  28.584  36.539  1.00  0.00     0.059 A 
ATOM     69  C   UNL A   1      45.193  27.070  37.624  1.00  0.00     0.059 A 
ATOM     70  F   UNL A   1      42.915  27.144  37.066  1.00  0.00    -0.206 F 
ATOM     71  C   UNL A   1      46.489  27.546  37.434  1.00  0.00     0.060 A 
BRANCH  71  72
ATOM     72  S   UNL A   1      47.872  26.839  38.354  1.00  0.00     0.124 S 
ATOM     73  O   UNL A   1      47.623  27.355  39.697  1.00  0.00    -0.237 OA
ATOM     74  O   UNL A   1      47.664  25.405  38.181  1.00  0.00    -0.237 OA
ATOM     75  O   UNL A   1      49.046  27.385  37.681  1.00  0.00    -0.744 OA
ENDBRANCH  71  72
ENDBRANCH  50  64
BRANCH  51  76
ATOM     76  C   UNL A   1      36.812  32.577  30.738  1.00  0.00     0.058 A 
ATOM     77  C   UNL A   1      35.470  32.246  30.976  1.00  0.00     0.135 A 
ATOM     78  C   UNL A   1      37.086  33.554  29.770  1.00  0.00     0.135 A 
ATOM     79  F   UNL A   1      35.161  31.318  31.894  1.00  0.00    -0.206 F 
ATOM     80  C   UNL A   1      34.435  32.861  30.282  1.00  0.00     0.059 A 
ATOM     81  C   UNL A   1      36.067  34.198  29.075  1.00  0.00     0.059 A 
ATOM     82  F   UNL A   1      38.354  33.920  29.524  1.00  0.00    -0.206 F 
ATOM     83  C   UNL A   1      34.743  33.843  29.338  1.00  0.00     0.060 A 
BRANCH  83  84
ATOM     84  S   UNL A   1      33.385  34.689  28.501  1.00  0.00     0.124 S 
ATOM     85  O   UNL A   1      32.874  33.636  27.631  1.00  0.00    -0.237 OA
ATOM     86  O   UNL A   1      32.526  35.067  29.619  1.00  0.00    -0.237 OA
ATOM     87  O   UNL A   1      34.048  35.801  27.826  1.00  0.00    -0.744 OA
ENDBRANCH  83  84
ENDBRANCH  51  76
BRANCH  63  88
ATOM     88  C   UNL A   1      39.766  34.135  36.877  1.00  0.00     0.058 A 
ATOM     89  C   UNL A   1      39.030  33.874  38.042  1.00  0.00     0.135 A 
ATOM     90  C   UNL A   1      40.359  35.400  36.743  1.00  0.00     0.135 A 
ATOM     91  F   UNL A   1      38.437  32.682  38.214  1.00  0.00    -0.206 F 
ATOM     92  C   UNL A   1      38.894  34.829  39.043  1.00  0.00     0.059 A 
ATOM     93  C   UNL A   1      40.253  36.365  37.739  1.00  0.00     0.059 A 
ATOM     94  F   UNL A   1      41.078  35.696  35.648  1.00  0.00    -0.206 F 
ATOM     95  C   UNL A   1      39.520  36.069  38.888  1.00  0.00     0.060 A 
BRANCH  95  96
ATOM     96  S   UNL A   1      39.405  37.267  40.233  1.00  0.00     0.124 S 
ATOM     97  O   UNL A   1      38.748  36.483  41.274  1.00  0.00    -0.237 OA
ATOM     98  O   UNL A   1      40.806  37.595  40.478  1.00  0.00    -0.237 OA
ATOM     99  O   UNL A   1      38.606  38.347  39.662  1.00  0.00    -0.744 OA
ENDBRANCH  95  96
ENDBRANCH  63  88
ENDBRANCH  37  38
ENDBRANCH  30  32
ENDBRANCH  29  30
ENDBRANCH   1  29
TORSDOF 16
ENDMDL
