MODEL 1
REMARK VINA RESULT:     -12.8      0.000      0.000
REMARK SMILES O=C(OCCOC(=O)[C@H]1CC(=O)N(Cc2ccccc2CN2CCCC2=O)C1)c1ccc(-c2c3nc(c(-c4c(F)cc(S(=O)(=O)[O-])cc4F)c4ccc([nH]4)c(-c4c(F)cc(S(=O)(=O)[O-])cc4F)c4nc(c(-c5c(F)cc(S(=O)(=O)[O-])cc5F)c5ccc2[nH]5)C=C4)C=C3)cc1
REMARK SMILES IDX 5 1 4 2 3 3 2 4 1 5 29 6 30 7 94 8 31 9 93 10 32 11 33 12
REMARK SMILES IDX 34 13 87 14 35 15 92 16 86 17 88 18 36 19 91 20 85 21 84 22
REMARK SMILES IDX 37 24 71 25 50 26 70 27 51 28 54 29 69 30 89 31 52 32 53 33
REMARK SMILES IDX 68 35 90 36 55 37 38 38 39 39 48 40 40 41 41 42 47 43 49 44
REMARK SMILES IDX 42 45 43 46 44 47 45 48 46 49 72 50 73 51 82 52 74 53 75 54
REMARK SMILES IDX 81 55 83 56 76 57 77 58 78 59 79 60 80 61 56 62 57 63 66 64
REMARK SMILES IDX 58 65 59 66 65 67 67 68 60 69 61 70 62 71 63 72 64 73 6 74
REMARK SMILES IDX 7 75 8 76 9 77 10 78 28 79 11 80 13 81 12 82 14 83 15 84
REMARK SMILES IDX 16 85 20 86 17 87 19 88 18 89 21 90 22 91 23 92 26 93 24 94
REMARK SMILES IDX 25 95 27 96
REMARK H PARENT 88 23 54 34
REMARK Flexibility Score: inf
ROOT
ATOM      1  C   UNL A   1      32.713  31.251  27.006  1.00  0.00     0.274 C 
ENDROOT
BRANCH   1   2
ATOM      2  C   UNL A   1      32.555  32.670  27.577  1.00  0.00     0.275 C 
BRANCH   2   3
ATOM      3  O   UNL A   1      33.632  33.140  28.394  1.00  0.00    -0.458 OA
BRANCH   3   4
ATOM      4  C   UNL A   1      34.797  33.704  28.005  1.00  0.00     0.338 C 
ATOM      5  O   UNL A   1      34.756  34.749  27.359  1.00  0.00    -0.246 OA
BRANCH   4   6
ATOM      6  C   UNL A   1      36.124  33.047  28.215  1.00  0.00     0.060 A 
ATOM      7  C   UNL A   1      37.290  33.659  28.690  1.00  0.00     0.016 A 
ATOM      8  C   UNL A   1      36.136  31.661  28.023  1.00  0.00     0.016 A 
ATOM      9  C   UNL A   1      38.322  32.904  29.230  1.00  0.00     0.010 A 
ATOM     10  C   UNL A   1      37.171  30.901  28.543  1.00  0.00     0.010 A 
ATOM     11  C   UNL A   1      38.215  31.529  29.232  1.00  0.00    -0.014 A 
BRANCH  11  12
ATOM     12  C   UNL A   1      39.240  30.718  29.849  1.00  0.00     0.031 A 
ATOM     13  C   UNL A   1      39.592  30.969  31.310  1.00  0.00     0.074 A 
ATOM     14  C   UNL A   1      39.827  29.712  29.169  1.00  0.00     0.049 A 
ATOM     15  N   UNL A   1      40.378  30.317  32.138  1.00  0.00    -0.248 NA
ATOM     16  C   UNL A   1      38.846  32.066  31.951  1.00  0.00     0.031 C 
ATOM     17  C   UNL A   1      39.529  28.559  27.541  1.00  0.00     0.029 A 
ATOM     18  N   UNL A   1      41.409  29.012  29.848  1.00  0.00    -0.354 N 
ATOM     19  C   UNL A   1      40.160  30.875  33.396  1.00  0.00     0.074 A 
ATOM     20  C   UNL A   1      39.243  31.978  33.209  1.00  0.00     0.031 C 
ATOM     21  C   UNL A   1      40.708  27.354  27.459  1.00  0.00     0.029 A 
ATOM     22  C   UNL A   1      41.964  27.563  28.890  1.00  0.00     0.049 A 
ATOM     23  H   UNL A   1      41.887  29.376  30.628  1.00  0.00     0.167 HD
ATOM     24  C   UNL A   1      40.608  30.497  34.619  1.00  0.00     0.037 A 
ATOM     25  C   UNL A   1      42.928  26.636  29.124  1.00  0.00     0.037 A 
ATOM     26  C   UNL A   1      41.513  29.407  34.896  1.00  0.00     0.049 A 
ATOM     27  C   UNL A   1      43.526  26.460  30.501  1.00  0.00     0.074 A 
ATOM     28  C   UNL A   1      41.967  29.000  36.140  1.00  0.00     0.029 A 
ATOM     29  N   UNL A   1      42.124  28.580  33.961  1.00  0.00    -0.354 N 
ATOM     30  N   UNL A   1      43.263  27.129  31.599  1.00  0.00    -0.248 NA
ATOM     31  C   UNL A   1      44.427  25.317  30.714  1.00  0.00     0.031 C 
ATOM     32  C   UNL A   1      42.907  27.986  35.957  1.00  0.00     0.029 A 
ATOM     33  C   UNL A   1      42.985  27.694  34.604  1.00  0.00     0.049 A 
ATOM     34  H   UNL A   1      41.971  28.615  32.990  1.00  0.00     0.167 HD
ATOM     35  C   UNL A   1      43.852  26.431  32.639  1.00  0.00     0.074 A 
ATOM     36  C   UNL A   1      44.551  25.313  32.036  1.00  0.00     0.031 C 
ATOM     37  C   UNL A   1      43.778  26.661  33.974  1.00  0.00     0.037 A 
BRANCH  24  38
ATOM     38  C   UNL A   1      40.136  31.317  35.799  1.00  0.00     0.058 A 
ATOM     39  C   UNL A   1      40.943  32.293  36.408  1.00  0.00     0.135 A 
ATOM     40  C   UNL A   1      38.841  31.131  36.307  1.00  0.00     0.135 A 
ATOM     41  F   UNL A   1      42.199  32.497  35.981  1.00  0.00    -0.206 F 
ATOM     42  C   UNL A   1      40.491  33.037  37.495  1.00  0.00     0.059 A 
ATOM     43  C   UNL A   1      38.357  31.883  37.372  1.00  0.00     0.059 A 
ATOM     44  F   UNL A   1      38.030  30.209  35.764  1.00  0.00    -0.206 F 
ATOM     45  C   UNL A   1      39.193  32.827  37.967  1.00  0.00     0.060 A 
BRANCH  45  46
ATOM     46  S   UNL A   1      38.610  33.812  39.365  1.00  0.00     0.124 S 
ATOM     47  O   UNL A   1      38.810  35.170  38.870  1.00  0.00    -0.237 OA
ATOM     48  O   UNL A   1      37.221  33.381  39.488  1.00  0.00    -0.237 OA
ATOM     49  O   UNL A   1      39.488  33.408  40.457  1.00  0.00    -0.744 OA
ENDBRANCH  45  46
ENDBRANCH  24  38
BRANCH  25  50
ATOM     50  C   UNL A   1      43.294  25.721  28.005  1.00  0.00     0.058 A 
ATOM     51  C   UNL A   1      42.759  24.435  27.833  1.00  0.00     0.135 A 
ATOM     52  C   UNL A   1      44.277  26.136  27.089  1.00  0.00     0.135 A 
ATOM     53  F   UNL A   1      41.815  23.981  28.670  1.00  0.00    -0.206 F 
ATOM     54  C   UNL A   1      43.214  23.580  26.827  1.00  0.00     0.059 A 
ATOM     55  C   UNL A   1      44.727  25.313  26.063  1.00  0.00     0.059 A 
ATOM     56  F   UNL A   1      44.811  27.362  27.192  1.00  0.00    -0.206 F 
ATOM     57  C   UNL A   1      44.205  24.028  25.951  1.00  0.00     0.060 A 
BRANCH  57  58
ATOM     58  S   UNL A   1      44.801  22.917  24.655  1.00  0.00     0.124 S 
ATOM     59  O   UNL A   1      43.575  22.637  23.918  1.00  0.00    -0.237 OA
ATOM     60  O   UNL A   1      45.784  23.753  23.973  1.00  0.00    -0.237 OA
ATOM     61  O   UNL A   1      45.358  21.796  25.406  1.00  0.00    -0.744 OA
ENDBRANCH  57  58
ENDBRANCH  25  50
BRANCH  37  62
ATOM     62  C   UNL A   1      44.609  25.770  34.862  1.00  0.00     0.058 A 
ATOM     63  C   UNL A   1      45.902  26.160  35.248  1.00  0.00     0.135 A 
ATOM     64  C   UNL A   1      44.109  24.564  35.384  1.00  0.00     0.135 A 
ATOM     65  F   UNL A   1      46.429  27.304  34.783  1.00  0.00    -0.206 F 
ATOM     66  C   UNL A   1      46.683  25.374  36.084  1.00  0.00     0.059 A 
ATOM     67  C   UNL A   1      44.859  23.780  36.258  1.00  0.00     0.059 A 
ATOM     68  F   UNL A   1      42.874  24.146  35.064  1.00  0.00    -0.206 F 
ATOM     69  C   UNL A   1      46.150  24.189  36.590  1.00  0.00     0.060 A 
BRANCH  69  70
ATOM     70  S   UNL A   1      47.172  23.206  37.705  1.00  0.00     0.124 S 
ATOM     71  O   UNL A   1      47.658  24.224  38.632  1.00  0.00    -0.237 OA
ATOM     72  O   UNL A   1      46.208  22.258  38.255  1.00  0.00    -0.237 OA
ATOM     73  O   UNL A   1      48.181  22.627  36.825  1.00  0.00    -0.744 OA
ENDBRANCH  69  70
ENDBRANCH  37  62
ENDBRANCH  11  12
ENDBRANCH   4   6
ENDBRANCH   3   4
ENDBRANCH   2   3
ENDBRANCH   1   2
BRANCH   1  74
ATOM     74  O   UNL A   1      31.613  30.701  26.229  1.00  0.00    -0.462 OA
BRANCH  74  75
ATOM     75  C   UNL A   1      31.776  29.537  25.519  1.00  0.00     0.311 C 
ATOM     76  O   UNL A   1      31.455  29.443  24.340  1.00  0.00    -0.252 OA
BRANCH  75  77
ATOM     77  C   UNL A   1      32.273  28.309  26.357  1.00  0.00     0.128 C 
ATOM     78  C   UNL A   1      31.342  27.164  26.685  1.00  0.00     0.117 C 
ATOM     79  C   UNL A   1      33.394  27.589  25.667  1.00  0.00     0.135 C 
ATOM     80  C   UNL A   1      32.135  25.849  26.456  1.00  0.00     0.223 C 
ATOM     81  N   UNL A   1      33.342  26.123  25.803  1.00  0.00    -0.337 N 
ATOM     82  O   UNL A   1      31.705  24.751  26.768  1.00  0.00    -0.275 OA
BRANCH  81  83
ATOM     83  C   UNL A   1      34.576  24.894  25.166  1.00  0.00     0.155 C 
BRANCH  83  84
ATOM     84  C   UNL A   1      34.108  22.782  24.579  1.00  0.00    -0.024 A 
ATOM     85  C   UNL A   1      34.749  21.485  25.107  1.00  0.00     0.006 A 
ATOM     86  C   UNL A   1      32.770  22.168  23.790  1.00  0.00    -0.024 A 
ATOM     87  C   UNL A   1      34.268  20.152  25.118  1.00  0.00     0.000 A 
ATOM     88  C   UNL A   1      32.412  20.767  23.809  1.00  0.00     0.006 A 
ATOM     89  C   UNL A   1      33.099  19.803  24.506  1.00  0.00     0.000 A 
BRANCH  86  90
ATOM     90  C   UNL A   1      31.578  22.833  22.954  1.00  0.00     0.155 C 
BRANCH  90  91
ATOM     91  N   UNL A   1      31.660  24.283  22.758  1.00  0.00    -0.338 N 
ATOM     92  C   UNL A   1      30.818  25.275  23.388  1.00  0.00     0.120 C 
ATOM     93  C   UNL A   1      32.669  24.879  22.015  1.00  0.00     0.222 C 
ATOM     94  C   UNL A   1      31.122  26.550  22.625  1.00  0.00     0.031 C 
ATOM     95  C   UNL A   1      32.578  26.368  22.234  1.00  0.00     0.102 C 
ATOM     96  O   UNL A   1      33.501  24.315  21.324  1.00  0.00    -0.275 OA
ENDBRANCH  90  91
ENDBRANCH  86  90
ENDBRANCH  83  84
ENDBRANCH  81  83
ENDBRANCH  75  77
ENDBRANCH  74  75
ENDBRANCH   1  74
TORSDOF 18
ENDMDL
MODEL 2
REMARK VINA RESULT:     -12.7      1.444      3.174
REMARK SMILES O=C(OCCOC(=O)[C@H]1CC(=O)N(Cc2ccccc2CN2CCCC2=O)C1)c1ccc(-c2c3nc(c(-c4c(F)cc(S(=O)(=O)[O-])cc4F)c4ccc([nH]4)c(-c4c(F)cc(S(=O)(=O)[O-])cc4F)c4nc(c(-c5c(F)cc(S(=O)(=O)[O-])cc5F)c5ccc2[nH]5)C=C4)C=C3)cc1
REMARK SMILES IDX 5 1 4 2 3 3 2 4 1 5 29 6 30 7 94 8 31 9 93 10 32 11 33 12
REMARK SMILES IDX 34 13 87 14 35 15 92 16 86 17 88 18 36 19 91 20 85 21 84 22
REMARK SMILES IDX 37 24 71 25 50 26 70 27 51 28 54 29 69 30 89 31 52 32 53 33
REMARK SMILES IDX 68 35 90 36 55 37 38 38 39 39 48 40 40 41 41 42 47 43 49 44
REMARK SMILES IDX 42 45 43 46 44 47 45 48 46 49 72 50 73 51 82 52 74 53 75 54
REMARK SMILES IDX 81 55 83 56 76 57 77 58 78 59 79 60 80 61 56 62 57 63 66 64
REMARK SMILES IDX 58 65 59 66 65 67 67 68 60 69 61 70 62 71 63 72 64 73 6 74
REMARK SMILES IDX 7 75 8 76 9 77 10 78 28 79 11 80 13 81 12 82 14 83 15 84
REMARK SMILES IDX 16 85 20 86 17 87 19 88 18 89 21 90 22 91 23 92 26 93 24 94
REMARK SMILES IDX 25 95 27 96
REMARK H PARENT 88 23 54 34
REMARK Flexibility Score: inf
ROOT
ATOM      1  C   UNL A   1      31.788  29.215  26.263  1.00  0.00     0.274 C 
ENDROOT
BRANCH   1   2
ATOM      2  C   UNL A   1      32.593  30.524  26.323  1.00  0.00     0.275 C 
BRANCH   2   3
ATOM      3  O   UNL A   1      33.036  30.927  27.623  1.00  0.00    -0.458 OA
BRANCH   3   4
ATOM      4  C   UNL A   1      34.059  31.751  27.942  1.00  0.00     0.338 C 
ATOM      5  O   UNL A   1      33.844  32.960  28.004  1.00  0.00    -0.246 OA
BRANCH   4   6
ATOM      6  C   UNL A   1      35.467  31.269  28.095  1.00  0.00     0.060 A 
ATOM      7  C   UNL A   1      36.600  32.063  28.314  1.00  0.00     0.016 A 
ATOM      8  C   UNL A   1      35.617  29.879  28.140  1.00  0.00     0.016 A 
ATOM      9  C   UNL A   1      37.761  31.518  28.843  1.00  0.00     0.010 A 
ATOM     10  C   UNL A   1      36.780  29.325  28.649  1.00  0.00     0.010 A 
ATOM     11  C   UNL A   1      37.811  30.162  29.090  1.00  0.00    -0.014 A 
BRANCH  11  12
ATOM     12  C   UNL A   1      38.981  29.575  29.704  1.00  0.00     0.031 A 
ATOM     13  C   UNL A   1      39.430  30.091  31.065  1.00  0.00     0.074 A 
ATOM     14  C   UNL A   1      39.624  28.544  29.120  1.00  0.00     0.049 A 
ATOM     15  N   UNL A   1      40.362  29.668  31.890  1.00  0.00    -0.248 NA
ATOM     16  C   UNL A   1      38.615  31.189  31.616  1.00  0.00     0.031 C 
ATOM     17  C   UNL A   1      39.324  27.122  27.720  1.00  0.00     0.029 A 
ATOM     18  N   UNL A   1      41.335  28.136  29.718  1.00  0.00    -0.354 N 
ATOM     19  C   UNL A   1      40.192  30.391  33.068  1.00  0.00     0.074 A 
ATOM     20  C   UNL A   1      39.132  31.345  32.822  1.00  0.00     0.031 C 
ATOM     21  C   UNL A   1      40.631  26.054  27.689  1.00  0.00     0.029 A 
ATOM     22  C   UNL A   1      41.976  26.623  28.929  1.00  0.00     0.049 A 
ATOM     23  H   UNL A   1      41.833  28.669  30.379  1.00  0.00     0.167 HD
ATOM     24  C   UNL A   1      40.793  30.263  34.278  1.00  0.00     0.037 A 
ATOM     25  C   UNL A   1      43.065  25.854  29.191  1.00  0.00     0.037 A 
ATOM     26  C   UNL A   1      41.847  29.336  34.612  1.00  0.00     0.049 A 
ATOM     27  C   UNL A   1      43.802  25.965  30.505  1.00  0.00     0.074 A 
ATOM     28  C   UNL A   1      42.459  29.182  35.846  1.00  0.00     0.029 A 
ATOM     29  N   UNL A   1      42.468  28.441  33.748  1.00  0.00    -0.354 N 
ATOM     30  N   UNL A   1      43.559  26.766  31.515  1.00  0.00    -0.248 NA
ATOM     31  C   UNL A   1      44.853  24.974  30.784  1.00  0.00     0.031 C 
ATOM     32  C   UNL A   1      43.496  28.260  35.712  1.00  0.00     0.029 A 
ATOM     33  C   UNL A   1      43.487  27.768  34.416  1.00  0.00     0.049 A 
ATOM     34  H   UNL A   1      42.224  28.305  32.804  1.00  0.00     0.167 HD
ATOM     35  C   UNL A   1      44.322  26.310  32.576  1.00  0.00     0.074 A 
ATOM     36  C   UNL A   1      45.096  25.193  32.071  1.00  0.00     0.031 C 
ATOM     37  C   UNL A   1      44.341  26.740  33.863  1.00  0.00     0.037 A 
BRANCH  24  38
ATOM     38  C   UNL A   1      40.331  31.204  35.368  1.00  0.00     0.058 A 
ATOM     39  C   UNL A   1      39.092  31.056  36.015  1.00  0.00     0.135 A 
ATOM     40  C   UNL A   1      41.161  32.257  35.782  1.00  0.00     0.135 A 
ATOM     41  F   UNL A   1      38.246  30.082  35.644  1.00  0.00    -0.206 F 
ATOM     42  C   UNL A   1      38.683  31.934  37.016  1.00  0.00     0.059 A 
ATOM     43  C   UNL A   1      40.787  33.128  36.800  1.00  0.00     0.059 A 
ATOM     44  F   UNL A   1      42.353  32.446  35.195  1.00  0.00    -0.206 F 
ATOM     45  C   UNL A   1      39.541  32.965  37.404  1.00  0.00     0.060 A 
BRANCH  45  46
ATOM     46  S   UNL A   1      39.009  34.086  38.716  1.00  0.00     0.124 S 
ATOM     47  O   UNL A   1      40.126  33.995  39.651  1.00  0.00    -0.237 OA
ATOM     48  O   UNL A   1      38.880  35.355  38.006  1.00  0.00    -0.237 OA
ATOM     49  O   UNL A   1      37.756  33.500  39.179  1.00  0.00    -0.744 OA
ENDBRANCH  45  46
ENDBRANCH  24  38
BRANCH  25  50
ATOM     50  C   UNL A   1      43.439  24.819  28.185  1.00  0.00     0.058 A 
ATOM     51  C   UNL A   1      44.180  25.083  27.023  1.00  0.00     0.135 A 
ATOM     52  C   UNL A   1      42.979  23.503  28.369  1.00  0.00     0.135 A 
ATOM     53  F   UNL A   1      44.651  26.316  26.790  1.00  0.00    -0.206 F 
ATOM     54  C   UNL A   1      44.412  24.096  26.061  1.00  0.00     0.059 A 
ATOM     55  C   UNL A   1      43.220  22.497  27.440  1.00  0.00     0.059 A 
ATOM     56  F   UNL A   1      42.282  23.187  29.471  1.00  0.00    -0.206 F 
ATOM     57  C   UNL A   1      43.921  22.807  26.278  1.00  0.00     0.060 A 
BRANCH  57  58
ATOM     58  S   UNL A   1      44.213  21.533  25.029  1.00  0.00     0.124 S 
ATOM     59  O   UNL A   1      45.551  21.074  25.381  1.00  0.00    -0.237 OA
ATOM     60  O   UNL A   1      43.123  20.599  25.293  1.00  0.00    -0.237 OA
ATOM     61  O   UNL A   1      44.107  22.267  23.771  1.00  0.00    -0.744 OA
ENDBRANCH  57  58
ENDBRANCH  25  50
BRANCH  37  62
ATOM     62  C   UNL A   1      45.353  26.096  34.777  1.00  0.00     0.058 A 
ATOM     63  C   UNL A   1      45.017  24.946  35.510  1.00  0.00     0.135 A 
ATOM     64  C   UNL A   1      46.671  26.575  34.883  1.00  0.00     0.135 A 
ATOM     65  F   UNL A   1      43.773  24.444  35.445  1.00  0.00    -0.206 F 
ATOM     66  C   UNL A   1      45.933  24.317  36.341  1.00  0.00     0.059 A 
ATOM     67  C   UNL A   1      47.619  25.933  35.678  1.00  0.00     0.059 A 
ATOM     68  F   UNL A   1      47.057  27.660  34.194  1.00  0.00    -0.206 F 
ATOM     69  C   UNL A   1      47.234  24.813  36.413  1.00  0.00     0.060 A 
BRANCH  69  70
ATOM     70  S   UNL A   1      48.414  23.952  37.471  1.00  0.00     0.124 S 
ATOM     71  O   UNL A   1      48.235  22.568  37.045  1.00  0.00    -0.237 OA
ATOM     72  O   UNL A   1      49.680  24.572  37.091  1.00  0.00    -0.237 OA
ATOM     73  O   UNL A   1      47.951  24.258  38.820  1.00  0.00    -0.744 OA
ENDBRANCH  69  70
ENDBRANCH  37  62
ENDBRANCH  11  12
ENDBRANCH   4   6
ENDBRANCH   3   4
ENDBRANCH   2   3
ENDBRANCH   1   2
BRANCH   1  74
ATOM     74  O   UNL A   1      31.890  28.404  25.060  1.00  0.00    -0.462 OA
BRANCH  74  75
ATOM     75  C   UNL A   1      31.029  28.605  24.009  1.00  0.00     0.311 C 
ATOM     76  O   UNL A   1      30.250  29.550  23.977  1.00  0.00    -0.252 OA
BRANCH  75  77
ATOM     77  C   UNL A   1      31.023  27.471  22.927  1.00  0.00     0.128 C 
ATOM     78  C   UNL A   1      32.082  27.422  21.847  1.00  0.00     0.117 C 
ATOM     79  C   UNL A   1      31.175  26.115  23.549  1.00  0.00     0.135 C 
ATOM     80  C   UNL A   1      32.533  25.943  21.717  1.00  0.00     0.223 C 
ATOM     81  N   UNL A   1      32.015  25.186  22.773  1.00  0.00    -0.337 N 
ATOM     82  O   UNL A   1      33.279  25.551  20.833  1.00  0.00    -0.275 OA
BRANCH  81  83
ATOM     83  C   UNL A   1      32.379  23.410  23.164  1.00  0.00     0.155 C 
BRANCH  83  84
ATOM     84  C   UNL A   1      34.402  22.588  23.670  1.00  0.00    -0.024 A 
ATOM     85  C   UNL A   1      35.771  23.279  23.527  1.00  0.00     0.006 A 
ATOM     86  C   UNL A   1      34.811  21.283  24.629  1.00  0.00    -0.024 A 
ATOM     87  C   UNL A   1      37.006  23.027  24.172  1.00  0.00     0.000 A 
ATOM     88  C   UNL A   1      36.134  21.088  25.179  1.00  0.00     0.006 A 
ATOM     89  C   UNL A   1      37.177  21.965  25.013  1.00  0.00     0.000 A 
BRANCH  86  90
ATOM     90  C   UNL A   1      33.983  20.054  25.235  1.00  0.00     0.155 C 
BRANCH  90  91
ATOM     91  N   UNL A   1      33.755  18.924  24.331  1.00  0.00    -0.338 N 
ATOM     92  C   UNL A   1      34.371  17.619  24.431  1.00  0.00     0.120 C 
ATOM     93  C   UNL A   1      32.800  18.953  23.326  1.00  0.00     0.222 C 
ATOM     94  C   UNL A   1      34.029  16.952  23.112  1.00  0.00     0.031 C 
ATOM     95  C   UNL A   1      32.678  17.556  22.772  1.00  0.00     0.102 C 
ATOM     96  O   UNL A   1      32.151  19.919  22.959  1.00  0.00    -0.275 OA
ENDBRANCH  90  91
ENDBRANCH  86  90
ENDBRANCH  83  84
ENDBRANCH  81  83
ENDBRANCH  75  77
ENDBRANCH  74  75
ENDBRANCH   1  74
TORSDOF 18
ENDMDL
MODEL 3
REMARK VINA RESULT:     -12.6      1.366      2.682
REMARK SMILES O=C(OCCOC(=O)[C@H]1CC(=O)N(Cc2ccccc2CN2CCCC2=O)C1)c1ccc(-c2c3nc(c(-c4c(F)cc(S(=O)(=O)[O-])cc4F)c4ccc([nH]4)c(-c4c(F)cc(S(=O)(=O)[O-])cc4F)c4nc(c(-c5c(F)cc(S(=O)(=O)[O-])cc5F)c5ccc2[nH]5)C=C4)C=C3)cc1
REMARK SMILES IDX 5 1 4 2 3 3 2 4 1 5 29 6 30 7 94 8 31 9 93 10 32 11 33 12
REMARK SMILES IDX 34 13 87 14 35 15 92 16 86 17 88 18 36 19 91 20 85 21 84 22
REMARK SMILES IDX 37 24 71 25 50 26 70 27 51 28 54 29 69 30 89 31 52 32 53 33
REMARK SMILES IDX 68 35 90 36 55 37 38 38 39 39 48 40 40 41 41 42 47 43 49 44
REMARK SMILES IDX 42 45 43 46 44 47 45 48 46 49 72 50 73 51 82 52 74 53 75 54
REMARK SMILES IDX 81 55 83 56 76 57 77 58 78 59 79 60 80 61 56 62 57 63 66 64
REMARK SMILES IDX 58 65 59 66 65 67 67 68 60 69 61 70 62 71 63 72 64 73 6 74
REMARK SMILES IDX 7 75 8 76 9 77 10 78 28 79 11 80 13 81 12 82 14 83 15 84
REMARK SMILES IDX 16 85 20 86 17 87 19 88 18 89 21 90 22 91 23 92 26 93 24 94
REMARK SMILES IDX 25 95 27 96
REMARK H PARENT 88 23 54 34
REMARK Flexibility Score: inf
ROOT
ATOM      1  C   UNL A   1      32.354  29.063  25.909  1.00  0.00     0.274 C 
ENDROOT
BRANCH   1   2
ATOM      2  C   UNL A   1      32.156  30.252  26.865  1.00  0.00     0.275 C 
BRANCH   2   3
ATOM      3  O   UNL A   1      33.138  31.290  26.786  1.00  0.00    -0.458 OA
BRANCH   3   4
ATOM      4  C   UNL A   1      33.955  31.748  27.760  1.00  0.00     0.338 C 
ATOM      5  O   UNL A   1      33.559  32.662  28.480  1.00  0.00    -0.246 OA
BRANCH   4   6
ATOM      6  C   UNL A   1      35.367  31.279  27.917  1.00  0.00     0.060 A 
ATOM      7  C   UNL A   1      36.482  32.075  28.209  1.00  0.00     0.016 A 
ATOM      8  C   UNL A   1      35.539  29.890  27.881  1.00  0.00     0.016 A 
ATOM      9  C   UNL A   1      37.640  31.517  28.731  1.00  0.00     0.010 A 
ATOM     10  C   UNL A   1      36.699  29.324  28.383  1.00  0.00     0.010 A 
ATOM     11  C   UNL A   1      37.707  30.149  28.897  1.00  0.00    -0.014 A 
BRANCH  11  12
ATOM     12  C   UNL A   1      38.872  29.544  29.501  1.00  0.00     0.031 A 
ATOM     13  C   UNL A   1      39.354  30.068  30.848  1.00  0.00     0.074 A 
ATOM     14  C   UNL A   1      39.483  28.490  28.923  1.00  0.00     0.049 A 
ATOM     15  N   UNL A   1      40.289  29.635  31.665  1.00  0.00    -0.248 NA
ATOM     16  C   UNL A   1      38.573  31.192  31.395  1.00  0.00     0.031 C 
ATOM     17  C   UNL A   1      39.128  27.055  27.549  1.00  0.00     0.029 A 
ATOM     18  N   UNL A   1      41.193  28.050  29.501  1.00  0.00    -0.354 N 
ATOM     19  C   UNL A   1      40.153  30.379  32.835  1.00  0.00     0.074 A 
ATOM     20  C   UNL A   1      39.112  31.353  32.591  1.00  0.00     0.031 C 
ATOM     21  C   UNL A   1      40.409  25.957  27.512  1.00  0.00     0.029 A 
ATOM     22  C   UNL A   1      41.786  26.512  28.724  1.00  0.00     0.049 A 
ATOM     23  H   UNL A   1      41.713  28.581  30.147  1.00  0.00     0.167 HD
ATOM     24  C   UNL A   1      40.770  30.253  34.037  1.00  0.00     0.037 A 
ATOM     25  C   UNL A   1      42.862  25.722  28.980  1.00  0.00     0.037 A 
ATOM     26  C   UNL A   1      41.807  29.307  34.368  1.00  0.00     0.049 A 
ATOM     27  C   UNL A   1      43.621  25.834  30.281  1.00  0.00     0.074 A 
ATOM     28  C   UNL A   1      42.435  29.156  35.595  1.00  0.00     0.029 A 
ATOM     29  N   UNL A   1      42.394  28.386  33.508  1.00  0.00    -0.354 N 
ATOM     30  N   UNL A   1      43.412  26.655  31.283  1.00  0.00    -0.248 NA
ATOM     31  C   UNL A   1      44.653  24.824  30.559  1.00  0.00     0.031 C 
ATOM     32  C   UNL A   1      43.449  28.208  35.459  1.00  0.00     0.029 A 
ATOM     33  C   UNL A   1      43.408  27.699  34.171  1.00  0.00     0.049 A 
ATOM     34  H   UNL A   1      42.133  28.242  32.570  1.00  0.00     0.167 HD
ATOM     35  C   UNL A   1      44.181  26.196  32.339  1.00  0.00     0.074 A 
ATOM     36  C   UNL A   1      44.921  25.055  31.838  1.00  0.00     0.031 C 
ATOM     37  C   UNL A   1      44.230  26.644  33.619  1.00  0.00     0.037 A 
BRANCH  24  38
ATOM     38  C   UNL A   1      40.347  31.220  35.121  1.00  0.00     0.058 A 
ATOM     39  C   UNL A   1      39.160  31.054  35.855  1.00  0.00     0.135 A 
ATOM     40  C   UNL A   1      41.162  32.317  35.438  1.00  0.00     0.135 A 
ATOM     41  F   UNL A   1      38.328  30.038  35.579  1.00  0.00    -0.206 F 
ATOM     42  C   UNL A   1      38.786  31.956  36.848  1.00  0.00     0.059 A 
ATOM     43  C   UNL A   1      40.825  33.214  36.446  1.00  0.00     0.059 A 
ATOM     44  F   UNL A   1      42.306  32.523  34.765  1.00  0.00    -0.206 F 
ATOM     45  C   UNL A   1      39.629  33.032  37.139  1.00  0.00     0.060 A 
BRANCH  45  46
ATOM     46  S   UNL A   1      39.144  34.184  38.442  1.00  0.00     0.124 S 
ATOM     47  O   UNL A   1      37.769  33.769  38.705  1.00  0.00    -0.237 OA
ATOM     48  O   UNL A   1      40.108  33.883  39.496  1.00  0.00    -0.237 OA
ATOM     49  O   UNL A   1      39.293  35.493  37.815  1.00  0.00    -0.744 OA
ENDBRANCH  45  46
ENDBRANCH  24  38
BRANCH  25  50
ATOM     50  C   UNL A   1      43.195  24.665  27.984  1.00  0.00     0.058 A 
ATOM     51  C   UNL A   1      42.810  23.320  28.104  1.00  0.00     0.135 A 
ATOM     52  C   UNL A   1      43.993  25.007  26.878  1.00  0.00     0.135 A 
ATOM     53  F   UNL A   1      42.045  22.929  29.133  1.00  0.00    -0.206 F 
ATOM     54  C   UNL A   1      43.238  22.350  27.196  1.00  0.00     0.059 A 
ATOM     55  C   UNL A   1      44.411  24.064  25.945  1.00  0.00     0.059 A 
ATOM     56  F   UNL A   1      44.377  26.280  26.700  1.00  0.00    -0.206 F 
ATOM     57  C   UNL A   1      44.045  22.733  26.122  1.00  0.00     0.060 A 
BRANCH  57  58
ATOM     58  S   UNL A   1      44.608  21.476  24.952  1.00  0.00     0.124 S 
ATOM     59  O   UNL A   1      44.548  22.199  23.688  1.00  0.00    -0.237 OA
ATOM     60  O   UNL A   1      45.944  21.173  25.456  1.00  0.00    -0.237 OA
ATOM     61  O   UNL A   1      43.629  20.405  25.114  1.00  0.00    -0.744 OA
ENDBRANCH  57  58
ENDBRANCH  25  50
BRANCH  37  62
ATOM     62  C   UNL A   1      45.241  25.990  34.527  1.00  0.00     0.058 A 
ATOM     63  C   UNL A   1      44.874  24.892  35.323  1.00  0.00     0.135 A 
ATOM     64  C   UNL A   1      46.584  26.404  34.566  1.00  0.00     0.135 A 
ATOM     65  F   UNL A   1      43.605  24.453  35.324  1.00  0.00    -0.206 F 
ATOM     66  C   UNL A   1      45.787  24.253  36.150  1.00  0.00     0.059 A 
ATOM     67  C   UNL A   1      47.527  25.750  35.357  1.00  0.00     0.059 A 
ATOM     68  F   UNL A   1      46.998  27.436  33.815  1.00  0.00    -0.206 F 
ATOM     69  C   UNL A   1      47.113  24.685  36.156  1.00  0.00     0.060 A 
BRANCH  69  70
ATOM     70  S   UNL A   1      48.286  23.811  37.211  1.00  0.00     0.124 S 
ATOM     71  O   UNL A   1      49.558  24.370  36.762  1.00  0.00    -0.237 OA
ATOM     72  O   UNL A   1      47.857  24.210  38.548  1.00  0.00    -0.237 OA
ATOM     73  O   UNL A   1      48.066  22.408  36.879  1.00  0.00    -0.744 OA
ENDBRANCH  69  70
ENDBRANCH  37  62
ENDBRANCH  11  12
ENDBRANCH   4   6
ENDBRANCH   3   4
ENDBRANCH   2   3
ENDBRANCH   1   2
BRANCH   1  74
ATOM     74  O   UNL A   1      31.169  28.401  25.388  1.00  0.00    -0.462 OA
BRANCH  74  75
ATOM     75  C   UNL A   1      31.092  27.030  25.360  1.00  0.00     0.311 C 
ATOM     76  O   UNL A   1      31.109  26.356  26.383  1.00  0.00    -0.252 OA
BRANCH  75  77
ATOM     77  C   UNL A   1      31.117  26.391  23.929  1.00  0.00     0.128 C 
ATOM     78  C   UNL A   1      31.938  27.005  22.818  1.00  0.00     0.117 C 
ATOM     79  C   UNL A   1      31.661  24.994  23.960  1.00  0.00     0.135 C 
ATOM     80  C   UNL A   1      32.653  25.841  22.081  1.00  0.00     0.223 C 
ATOM     81  N   UNL A   1      32.512  24.654  22.806  1.00  0.00    -0.337 N 
ATOM     82  O   UNL A   1      33.282  25.997  21.046  1.00  0.00    -0.275 OA
BRANCH  81  83
ATOM     83  C   UNL A   1      33.303  23.016  22.441  1.00  0.00     0.155 C 
BRANCH  83  84
ATOM     84  C   UNL A   1      32.770  21.077  23.431  1.00  0.00    -0.024 A 
ATOM     85  C   UNL A   1      32.153  19.821  22.788  1.00  0.00     0.006 A 
ATOM     86  C   UNL A   1      33.266  20.461  24.902  1.00  0.00    -0.024 A 
ATOM     87  C   UNL A   1      32.163  18.467  23.206  1.00  0.00     0.000 A 
ATOM     88  C   UNL A   1      33.161  19.062  25.252  1.00  0.00     0.006 A 
ATOM     89  C   UNL A   1      32.690  18.087  24.407  1.00  0.00     0.000 A 
BRANCH  86  90
ATOM     90  C   UNL A   1      33.989  21.099  26.181  1.00  0.00     0.155 C 
BRANCH  90  91
ATOM     91  N   UNL A   1      34.771  22.314  25.938  1.00  0.00    -0.338 N 
ATOM     92  C   UNL A   1      34.294  23.673  26.072  1.00  0.00     0.120 C 
ATOM     93  C   UNL A   1      36.131  22.284  25.665  1.00  0.00     0.222 C 
ATOM     94  C   UNL A   1      35.384  24.508  25.428  1.00  0.00     0.031 C 
ATOM     95  C   UNL A   1      36.638  23.703  25.719  1.00  0.00     0.102 C 
ATOM     96  O   UNL A   1      36.812  21.297  25.442  1.00  0.00    -0.275 OA
ENDBRANCH  90  91
ENDBRANCH  86  90
ENDBRANCH  83  84
ENDBRANCH  81  83
ENDBRANCH  75  77
ENDBRANCH  74  75
ENDBRANCH   1  74
TORSDOF 18
ENDMDL
