MODEL 1
REMARK VINA RESULT:     -11.0      0.000      0.000
REMARK SMILES C[C@@H](Nc1cccc(C(=O)OCCOC(=O)c2ccc(-c3c4nc(c(-c5c(F)cc(S(=O)(=O)[O-])cc5F)c5ccc([nH]5)c(-c5c(F)cc(S(=O)(=O)[O-])cc5F)c5nc(c(-c6c(F)cc(S(=O)(=O)[O-])cc6F)c6ccc3[nH]6)C=C5)C=C4)cc2)c1)C1CC[NH+](C)CC1
REMARK SMILES IDX 12 1 11 2 9 3 10 4 8 5 4 6 5 7 83 8 6 9 7 10 3 11 2 13 1 14
REMARK SMILES IDX 84 15 85 16 90 17 86 18 89 19 87 20 88 21 13 23 14 24 15 25
REMARK SMILES IDX 16 26 17 27 18 28 82 29 19 30 81 31 20 32 21 33 22 34 75 35
REMARK SMILES IDX 23 36 80 37 74 38 76 39 24 40 79 41 73 42 72 43 25 45 59 46
REMARK SMILES IDX 38 47 58 48 39 49 42 50 57 51 77 52 40 53 41 54 56 56 78 57
REMARK SMILES IDX 43 58 26 59 27 60 36 61 28 62 29 63 35 64 37 65 30 66 31 67
REMARK SMILES IDX 32 68 33 69 34 70 60 71 61 72 70 73 62 74 63 75 69 76 71 77
REMARK SMILES IDX 64 78 65 79 66 80 67 81 68 82 44 83 45 84 54 85 46 86 47 87
REMARK SMILES IDX 53 88 55 89 48 90 49 91 50 92 51 93 52 94
REMARK H PARENT 3 12 87 22 76 44 42 55
REMARK Flexibility Score: inf
ROOT
ATOM      1  C   UNL A   1      32.942  30.755  27.237  1.00  0.00     0.275 C 
ENDROOT
BRANCH   1   2
ATOM      2  O   UNL A   1      33.034  30.190  25.906  1.00  0.00    -0.458 OA
BRANCH   2   3
ATOM      3  C   UNL A   1      32.821  28.854  25.888  1.00  0.00     0.338 C 
ATOM      4  O   UNL A   1      32.169  28.245  26.720  1.00  0.00    -0.246 OA
BRANCH   3   5
ATOM      5  C   UNL A   1      33.616  28.091  24.900  1.00  0.00     0.062 A 
ATOM      6  C   UNL A   1      33.473  25.884  23.950  1.00  0.00     0.035 A 
ATOM      7  C   UNL A   1      33.654  26.469  22.679  1.00  0.00     0.026 A 
ATOM      8  C   UNL A   1      33.650  26.694  25.068  1.00  0.00     0.041 A 
ATOM      9  C   UNL A   1      33.812  27.845  22.512  1.00  0.00     0.003 A 
ATOM     10  C   UNL A   1      33.721  28.666  23.625  1.00  0.00     0.016 A 
BRANCH   6  11
ATOM     11  N   UNL A   1      32.907  24.624  23.984  1.00  0.00    -0.382 N 
ATOM     12  H   UNL A   1      31.930  24.637  24.112  1.00  0.00     0.160 HD
BRANCH  11  13
ATOM     13  C   UNL A   1      33.461  23.273  23.871  1.00  0.00     0.079 C 
ATOM     14  C   UNL A   1      32.482  22.536  22.921  1.00  0.00     0.031 C 
BRANCH  13  15
ATOM     15  C   UNL A   1      33.631  22.379  25.153  1.00  0.00     0.022 C 
ATOM     16  C   UNL A   1      34.301  23.009  26.384  1.00  0.00     0.067 C 
ATOM     17  C   UNL A   1      34.243  20.987  25.000  1.00  0.00     0.067 C 
ATOM     18  C   UNL A   1      35.804  23.150  26.202  1.00  0.00     0.262 C 
ATOM     19  C   UNL A   1      35.770  20.988  25.027  1.00  0.00     0.262 C 
ATOM     20  N   UNL A   1      36.469  21.866  25.966  1.00  0.00    -0.337 N 
ATOM     21  C   UNL A   1      37.814  22.141  25.412  1.00  0.00     0.332 C 
ATOM     22  H   UNL A   1      36.495  21.381  26.863  1.00  0.00     0.347 HD
ENDBRANCH  13  15
ENDBRANCH  11  13
ENDBRANCH   6  11
ENDBRANCH   3   5
ENDBRANCH   2   3
ENDBRANCH   1   2
BRANCH   1  23
ATOM     23  C   UNL A   1      34.289  31.285  27.738  1.00  0.00     0.275 C 
BRANCH  23  24
ATOM     24  O   UNL A   1      35.130  30.212  28.203  1.00  0.00    -0.458 OA
BRANCH  24  25
ATOM     25  C   UNL A   1      36.057  30.565  29.120  1.00  0.00     0.338 C 
ATOM     26  O   UNL A   1      35.899  31.345  30.054  1.00  0.00    -0.246 OA
BRANCH  25  27
ATOM     27  C   UNL A   1      37.326  29.841  28.919  1.00  0.00     0.060 A 
ATOM     28  C   UNL A   1      38.032  29.342  30.011  1.00  0.00     0.016 A 
ATOM     29  C   UNL A   1      37.921  29.845  27.660  1.00  0.00     0.016 A 
ATOM     30  C   UNL A   1      39.380  29.029  29.885  1.00  0.00     0.010 A 
ATOM     31  C   UNL A   1      39.221  29.354  27.507  1.00  0.00     0.010 A 
ATOM     32  C   UNL A   1      39.989  28.989  28.627  1.00  0.00    -0.014 A 
BRANCH  32  33
ATOM     33  C   UNL A   1      41.419  28.589  28.483  1.00  0.00     0.031 A 
ATOM     34  C   UNL A   1      42.505  29.625  28.629  1.00  0.00     0.074 A 
ATOM     35  C   UNL A   1      41.751  27.308  28.215  1.00  0.00     0.049 A 
ATOM     36  N   UNL A   1      43.759  29.567  28.263  1.00  0.00    -0.248 NA
ATOM     37  C   UNL A   1      42.123  30.908  29.243  1.00  0.00     0.031 C 
ATOM     38  C   UNL A   1      40.814  26.183  28.115  1.00  0.00     0.029 A 
ATOM     39  N   UNL A   1      42.973  26.728  27.974  1.00  0.00    -0.354 N 
ATOM     40  C   UNL A   1      44.293  30.824  28.530  1.00  0.00     0.074 A 
ATOM     41  C   UNL A   1      43.227  31.626  29.086  1.00  0.00     0.031 C 
ATOM     42  C   UNL A   1      41.494  25.052  27.889  1.00  0.00     0.029 A 
ATOM     43  C   UNL A   1      42.896  25.385  27.684  1.00  0.00     0.049 A 
ATOM     44  H   UNL A   1      43.822  27.226  28.005  1.00  0.00     0.167 HD
ATOM     45  C   UNL A   1      45.558  31.262  28.321  1.00  0.00     0.037 A 
ATOM     46  C   UNL A   1      43.825  24.525  27.228  1.00  0.00     0.037 A 
ATOM     47  C   UNL A   1      46.619  30.423  27.822  1.00  0.00     0.049 A 
ATOM     48  C   UNL A   1      45.206  25.045  26.948  1.00  0.00     0.074 A 
ATOM     49  C   UNL A   1      47.939  30.757  27.573  1.00  0.00     0.029 A 
ATOM     50  N   UNL A   1      46.485  29.076  27.513  1.00  0.00    -0.354 N 
ATOM     51  N   UNL A   1      45.679  26.257  27.121  1.00  0.00    -0.248 NA
ATOM     52  C   UNL A   1      46.171  24.093  26.387  1.00  0.00     0.031 C 
ATOM     53  C   UNL A   1      48.590  29.625  27.073  1.00  0.00     0.029 A 
ATOM     54  C   UNL A   1      47.693  28.568  27.065  1.00  0.00     0.049 A 
ATOM     55  H   UNL A   1      45.653  28.558  27.600  1.00  0.00     0.167 HD
ATOM     56  C   UNL A   1      47.005  26.206  26.711  1.00  0.00     0.074 A 
ATOM     57  C   UNL A   1      47.261  24.840  26.299  1.00  0.00     0.031 C 
ATOM     58  C   UNL A   1      47.927  27.199  26.674  1.00  0.00     0.037 A 
BRANCH  45  59
ATOM     59  C   UNL A   1      45.859  32.713  28.591  1.00  0.00     0.058 A 
ATOM     60  C   UNL A   1      45.594  33.723  27.653  1.00  0.00     0.135 A 
ATOM     61  C   UNL A   1      46.392  33.105  29.831  1.00  0.00     0.135 A 
ATOM     62  F   UNL A   1      45.100  33.410  26.443  1.00  0.00    -0.206 F 
ATOM     63  C   UNL A   1      45.872  35.062  27.922  1.00  0.00     0.059 A 
ATOM     64  C   UNL A   1      46.648  34.440  30.135  1.00  0.00     0.059 A 
ATOM     65  F   UNL A   1      46.668  32.184  30.769  1.00  0.00    -0.206 F 
ATOM     66  C   UNL A   1      46.397  35.410  29.167  1.00  0.00     0.060 A 
BRANCH  66  67
ATOM     67  S   UNL A   1      46.744  37.150  29.503  1.00  0.00     0.124 S 
ATOM     68  O   UNL A   1      47.500  37.532  28.314  1.00  0.00    -0.237 OA
ATOM     69  O   UNL A   1      45.404  37.719  29.611  1.00  0.00    -0.237 OA
ATOM     70  O   UNL A   1      47.508  37.112  30.746  1.00  0.00    -0.744 OA
ENDBRANCH  66  67
ENDBRANCH  45  59
BRANCH  46  71
ATOM     71  C   UNL A   1      43.462  23.108  26.947  1.00  0.00     0.058 A 
ATOM     72  C   UNL A   1      43.240  22.200  27.991  1.00  0.00     0.135 A 
ATOM     73  C   UNL A   1      43.316  22.635  25.632  1.00  0.00     0.135 A 
ATOM     74  F   UNL A   1      43.375  22.596  29.266  1.00  0.00    -0.206 F 
ATOM     75  C   UNL A   1      42.902  20.872  27.744  1.00  0.00     0.059 A 
ATOM     76  C   UNL A   1      42.942  21.323  25.360  1.00  0.00     0.059 A 
ATOM     77  F   UNL A   1      43.503  23.464  24.593  1.00  0.00    -0.206 F 
ATOM     78  C   UNL A   1      42.752  20.445  26.424  1.00  0.00     0.060 A 
BRANCH  78  79
ATOM     79  S   UNL A   1      42.278  18.730  26.116  1.00  0.00     0.124 S 
ATOM     80  O   UNL A   1      43.205  18.357  25.054  1.00  0.00    -0.237 OA
ATOM     81  O   UNL A   1      42.511  18.109  27.416  1.00  0.00    -0.237 OA
ATOM     82  O   UNL A   1      40.876  18.834  25.722  1.00  0.00    -0.744 OA
ENDBRANCH  78  79
ENDBRANCH  46  71
BRANCH  58  83
ATOM     83  C   UNL A   1      49.312  26.830  26.225  1.00  0.00     0.058 A 
ATOM     84  C   UNL A   1      49.724  26.979  24.891  1.00  0.00     0.135 A 
ATOM     85  C   UNL A   1      50.251  26.357  27.155  1.00  0.00     0.135 A 
ATOM     86  F   UNL A   1      48.859  27.416  23.962  1.00  0.00    -0.206 F 
ATOM     87  C   UNL A   1      51.013  26.646  24.490  1.00  0.00     0.059 A 
ATOM     88  C   UNL A   1      51.556  26.050  26.782  1.00  0.00     0.059 A 
ATOM     89  F   UNL A   1      49.910  26.204  28.445  1.00  0.00    -0.206 F 
ATOM     90  C   UNL A   1      51.922  26.187  25.444  1.00  0.00     0.060 A 
BRANCH  90  91
ATOM     91  S   UNL A   1      53.602  25.793  24.917  1.00  0.00     0.124 S 
ATOM     92  O   UNL A   1      54.376  26.822  25.604  1.00  0.00    -0.237 OA
ATOM     93  O   UNL A   1      53.773  24.431  25.415  1.00  0.00    -0.237 OA
ATOM     94  O   UNL A   1      53.541  25.919  23.464  1.00  0.00    -0.744 OA
ENDBRANCH  90  91
ENDBRANCH  58  83
ENDBRANCH  32  33
ENDBRANCH  25  27
ENDBRANCH  24  25
ENDBRANCH  23  24
ENDBRANCH   1  23
TORSDOF 17
ENDMDL
MODEL 2
REMARK VINA RESULT:     -11.0      1.855      2.393
REMARK SMILES C[C@@H](Nc1cccc(C(=O)OCCOC(=O)c2ccc(-c3c4nc(c(-c5c(F)cc(S(=O)(=O)[O-])cc5F)c5ccc([nH]5)c(-c5c(F)cc(S(=O)(=O)[O-])cc5F)c5nc(c(-c6c(F)cc(S(=O)(=O)[O-])cc6F)c6ccc3[nH]6)C=C5)C=C4)cc2)c1)C1CC[NH+](C)CC1
REMARK SMILES IDX 12 1 11 2 9 3 10 4 8 5 4 6 5 7 83 8 6 9 7 10 3 11 2 13 1 14
REMARK SMILES IDX 84 15 85 16 90 17 86 18 89 19 87 20 88 21 13 23 14 24 15 25
REMARK SMILES IDX 16 26 17 27 18 28 82 29 19 30 81 31 20 32 21 33 22 34 75 35
REMARK SMILES IDX 23 36 80 37 74 38 76 39 24 40 79 41 73 42 72 43 25 45 59 46
REMARK SMILES IDX 38 47 58 48 39 49 42 50 57 51 77 52 40 53 41 54 56 56 78 57
REMARK SMILES IDX 43 58 26 59 27 60 36 61 28 62 29 63 35 64 37 65 30 66 31 67
REMARK SMILES IDX 32 68 33 69 34 70 60 71 61 72 70 73 62 74 63 75 69 76 71 77
REMARK SMILES IDX 64 78 65 79 66 80 67 81 68 82 44 83 45 84 54 85 46 86 47 87
REMARK SMILES IDX 53 88 55 89 48 90 49 91 50 92 51 93 52 94
REMARK H PARENT 3 12 87 22 76 44 42 55
REMARK Flexibility Score: inf
ROOT
ATOM      1  C   UNL A   1      31.930  29.667  26.603  1.00  0.00     0.275 C 
ENDROOT
BRANCH   1   2
ATOM      2  O   UNL A   1      31.934  29.746  25.157  1.00  0.00    -0.458 OA
BRANCH   2   3
ATOM      3  C   UNL A   1      32.536  28.682  24.575  1.00  0.00     0.338 C 
ATOM      4  O   UNL A   1      33.744  28.538  24.476  1.00  0.00    -0.246 OA
BRANCH   3   5
ATOM      5  C   UNL A   1      31.642  27.760  23.842  1.00  0.00     0.062 A 
ATOM      6  C   UNL A   1      30.815  25.533  24.230  1.00  0.00     0.035 A 
ATOM      7  C   UNL A   1      29.525  26.005  23.911  1.00  0.00     0.026 A 
ATOM      8  C   UNL A   1      31.892  26.384  24.002  1.00  0.00     0.041 A 
ATOM      9  C   UNL A   1      29.287  27.335  23.564  1.00  0.00     0.003 A 
ATOM     10  C   UNL A   1      30.343  28.232  23.599  1.00  0.00     0.016 A 
BRANCH   6  11
ATOM     11  N   UNL A   1      30.890  24.362  24.960  1.00  0.00    -0.382 N 
ATOM     12  H   UNL A   1      30.032  24.097  25.365  1.00  0.00     0.160 HD
BRANCH  11  13
ATOM     13  C   UNL A   1      31.985  23.435  25.258  1.00  0.00     0.079 C 
ATOM     14  C   UNL A   1      31.274  22.099  25.594  1.00  0.00     0.031 C 
BRANCH  13  15
ATOM     15  C   UNL A   1      32.983  23.743  26.432  1.00  0.00     0.022 C 
ATOM     16  C   UNL A   1      34.341  24.364  26.076  1.00  0.00     0.067 C 
ATOM     17  C   UNL A   1      33.272  22.644  27.456  1.00  0.00     0.067 C 
ATOM     18  C   UNL A   1      35.285  23.348  25.453  1.00  0.00     0.262 C 
ATOM     19  C   UNL A   1      34.375  21.683  27.020  1.00  0.00     0.262 C 
ATOM     20  N   UNL A   1      35.556  22.210  26.336  1.00  0.00    -0.337 N 
ATOM     21  C   UNL A   1      36.130  21.119  25.516  1.00  0.00     0.332 C 
ATOM     22  H   UNL A   1      36.192  22.547  27.059  1.00  0.00     0.347 HD
ENDBRANCH  13  15
ENDBRANCH  11  13
ENDBRANCH   6  11
ENDBRANCH   3   5
ENDBRANCH   2   3
ENDBRANCH   1   2
BRANCH   1  23
ATOM     23  C   UNL A   1      32.743  30.792  27.250  1.00  0.00     0.275 C 
BRANCH  23  24
ATOM     24  O   UNL A   1      34.152  30.492  27.230  1.00  0.00    -0.458 OA
BRANCH  24  25
ATOM     25  C   UNL A   1      34.831  30.851  28.342  1.00  0.00     0.338 C 
ATOM     26  O   UNL A   1      34.440  31.611  29.222  1.00  0.00    -0.246 OA
BRANCH  25  27
ATOM     27  C   UNL A   1      36.130  30.160  28.435  1.00  0.00     0.060 A 
ATOM     28  C   UNL A   1      36.607  29.719  29.667  1.00  0.00     0.016 A 
ATOM     29  C   UNL A   1      36.972  30.139  27.325  1.00  0.00     0.016 A 
ATOM     30  C   UNL A   1      37.958  29.443  29.833  1.00  0.00     0.010 A 
ATOM     31  C   UNL A   1      38.285  29.683  27.462  1.00  0.00     0.010 A 
ATOM     32  C   UNL A   1      38.815  29.379  28.730  1.00  0.00    -0.014 A 
BRANCH  32  33
ATOM     33  C   UNL A   1      40.252  29.018  28.897  1.00  0.00     0.031 A 
ATOM     34  C   UNL A   1      41.235  30.058  29.375  1.00  0.00     0.074 A 
ATOM     35  C   UNL A   1      40.685  27.770  28.618  1.00  0.00     0.049 A 
ATOM     36  N   UNL A   1      42.541  30.052  29.312  1.00  0.00    -0.248 NA
ATOM     37  C   UNL A   1      40.673  31.278  29.977  1.00  0.00     0.031 C 
ATOM     38  C   UNL A   1      39.839  26.641  28.214  1.00  0.00     0.029 A 
ATOM     39  N   UNL A   1      41.950  27.234  28.630  1.00  0.00    -0.354 N 
ATOM     40  C   UNL A   1      42.951  31.292  29.794  1.00  0.00     0.074 A 
ATOM     41  C   UNL A   1      41.755  32.027  30.141  1.00  0.00     0.031 C 
ATOM     42  C   UNL A   1      40.595  25.545  28.070  1.00  0.00     0.029 A 
ATOM     43  C   UNL A   1      41.993  25.918  28.228  1.00  0.00     0.049 A 
ATOM     44  H   UNL A   1      42.749  27.743  28.899  1.00  0.00     0.167 HD
ATOM     45  C   UNL A   1      44.213  31.769  29.924  1.00  0.00     0.037 A 
ATOM     46  C   UNL A   1      43.034  25.116  27.940  1.00  0.00     0.037 A 
ATOM     47  C   UNL A   1      45.391  30.994  29.628  1.00  0.00     0.049 A 
ATOM     48  C   UNL A   1      44.422  25.683  28.036  1.00  0.00     0.074 A 
ATOM     49  C   UNL A   1      46.720  31.370  29.725  1.00  0.00     0.029 A 
ATOM     50  N   UNL A   1      45.383  29.674  29.194  1.00  0.00    -0.354 N 
ATOM     51  N   UNL A   1      44.796  26.884  28.408  1.00  0.00    -0.248 NA
ATOM     52  C   UNL A   1      45.526  24.797  27.648  1.00  0.00     0.031 C 
ATOM     53  C   UNL A   1      47.510  30.295  29.308  1.00  0.00     0.029 A 
ATOM     54  C   UNL A   1      46.680  29.228  29.007  1.00  0.00     0.049 A 
ATOM     55  H   UNL A   1      44.573  29.136  29.042  1.00  0.00     0.167 HD
ATOM     56  C   UNL A   1      46.182  26.891  28.321  1.00  0.00     0.074 A 
ATOM     57  C   UNL A   1      46.578  25.569  27.878  1.00  0.00     0.031 C 
ATOM     58  C   UNL A   1      47.050  27.900  28.579  1.00  0.00     0.037 A 
BRANCH  45  59
ATOM     59  C   UNL A   1      44.388  33.198  30.368  1.00  0.00     0.058 A 
ATOM     60  C   UNL A   1      44.360  34.274  29.467  1.00  0.00     0.135 A 
ATOM     61  C   UNL A   1      44.552  33.499  31.731  1.00  0.00     0.135 A 
ATOM     62  F   UNL A   1      44.223  34.049  28.150  1.00  0.00    -0.206 F 
ATOM     63  C   UNL A   1      44.516  35.590  29.895  1.00  0.00     0.059 A 
ATOM     64  C   UNL A   1      44.678  34.809  32.186  1.00  0.00     0.059 A 
ATOM     65  F   UNL A   1      44.588  32.512  32.641  1.00  0.00    -0.206 F 
ATOM     66  C   UNL A   1      44.673  35.848  31.258  1.00  0.00     0.060 A 
BRANCH  66  67
ATOM     67  S   UNL A   1      44.867  37.559  31.798  1.00  0.00     0.124 S 
ATOM     68  O   UNL A   1      44.854  38.271  30.524  1.00  0.00    -0.237 OA
ATOM     69  O   UNL A   1      43.692  37.754  32.643  1.00  0.00    -0.237 OA
ATOM     70  O   UNL A   1      46.146  37.554  32.500  1.00  0.00    -0.744 OA
ENDBRANCH  66  67
ENDBRANCH  45  59
BRANCH  46  71
ATOM     71  C   UNL A   1      42.800  23.721  27.474  1.00  0.00     0.058 A 
ATOM     72  C   UNL A   1      42.643  22.671  28.390  1.00  0.00     0.135 A 
ATOM     73  C   UNL A   1      42.713  23.409  26.106  1.00  0.00     0.135 A 
ATOM     74  F   UNL A   1      42.726  22.911  29.707  1.00  0.00    -0.206 F 
ATOM     75  C   UNL A   1      42.425  21.362  27.969  1.00  0.00     0.059 A 
ATOM     76  C   UNL A   1      42.459  22.116  25.662  1.00  0.00     0.059 A 
ATOM     77  F   UNL A   1      42.843  24.377  25.186  1.00  0.00    -0.206 F 
ATOM     78  C   UNL A   1      42.331  21.096  26.602  1.00  0.00     0.060 A 
BRANCH  78  79
ATOM     79  S   UNL A   1      42.013  19.401  26.068  1.00  0.00     0.124 S 
ATOM     80  O   UNL A   1      42.834  19.314  24.866  1.00  0.00    -0.237 OA
ATOM     81  O   UNL A   1      42.474  18.626  27.216  1.00  0.00    -0.237 OA
ATOM     82  O   UNL A   1      40.569  19.382  25.849  1.00  0.00    -0.744 OA
ENDBRANCH  78  79
ENDBRANCH  46  71
BRANCH  58  83
ATOM     83  C   UNL A   1      48.515  27.594  28.444  1.00  0.00     0.058 A 
ATOM     84  C   UNL A   1      49.252  27.021  29.492  1.00  0.00     0.135 A 
ATOM     85  C   UNL A   1      49.177  27.845  27.232  1.00  0.00     0.135 A 
ATOM     86  F   UNL A   1      48.666  26.773  30.674  1.00  0.00    -0.206 F 
ATOM     87  C   UNL A   1      50.604  26.730  29.351  1.00  0.00     0.059 A 
ATOM     88  C   UNL A   1      50.521  27.532  27.058  1.00  0.00     0.059 A 
ATOM     89  F   UNL A   1      48.515  28.386  26.197  1.00  0.00    -0.206 F 
ATOM     90  C   UNL A   1      51.228  26.986  28.128  1.00  0.00     0.060 A 
BRANCH  90  91
ATOM     91  S   UNL A   1      52.975  26.571  27.947  1.00  0.00     0.124 S 
ATOM     92  O   UNL A   1      52.910  25.397  27.082  1.00  0.00    -0.237 OA
ATOM     93  O   UNL A   1      53.519  27.780  27.336  1.00  0.00    -0.237 OA
ATOM     94  O   UNL A   1      53.409  26.318  29.317  1.00  0.00    -0.744 OA
ENDBRANCH  90  91
ENDBRANCH  58  83
ENDBRANCH  32  33
ENDBRANCH  25  27
ENDBRANCH  24  25
ENDBRANCH  23  24
ENDBRANCH   1  23
TORSDOF 17
ENDMDL
MODEL 3
REMARK VINA RESULT:     -10.8      1.466      2.564
REMARK SMILES C[C@@H](Nc1cccc(C(=O)OCCOC(=O)c2ccc(-c3c4nc(c(-c5c(F)cc(S(=O)(=O)[O-])cc5F)c5ccc([nH]5)c(-c5c(F)cc(S(=O)(=O)[O-])cc5F)c5nc(c(-c6c(F)cc(S(=O)(=O)[O-])cc6F)c6ccc3[nH]6)C=C5)C=C4)cc2)c1)C1CC[NH+](C)CC1
REMARK SMILES IDX 12 1 11 2 9 3 10 4 8 5 4 6 5 7 83 8 6 9 7 10 3 11 2 13 1 14
REMARK SMILES IDX 84 15 85 16 90 17 86 18 89 19 87 20 88 21 13 23 14 24 15 25
REMARK SMILES IDX 16 26 17 27 18 28 82 29 19 30 81 31 20 32 21 33 22 34 75 35
REMARK SMILES IDX 23 36 80 37 74 38 76 39 24 40 79 41 73 42 72 43 25 45 59 46
REMARK SMILES IDX 38 47 58 48 39 49 42 50 57 51 77 52 40 53 41 54 56 56 78 57
REMARK SMILES IDX 43 58 26 59 27 60 36 61 28 62 29 63 35 64 37 65 30 66 31 67
REMARK SMILES IDX 32 68 33 69 34 70 60 71 61 72 70 73 62 74 63 75 69 76 71 77
REMARK SMILES IDX 64 78 65 79 66 80 67 81 68 82 44 83 45 84 54 85 46 86 47 87
REMARK SMILES IDX 53 88 55 89 48 90 49 91 50 92 51 93 52 94
REMARK H PARENT 3 12 87 22 76 44 42 55
REMARK Flexibility Score: inf
ROOT
ATOM      1  C   UNL A   1      32.127  30.456  26.580  1.00  0.00     0.275 C 
ENDROOT
BRANCH   1   2
ATOM      2  O   UNL A   1      31.955  29.111  27.090  1.00  0.00    -0.458 OA
BRANCH   2   3
ATOM      3  C   UNL A   1      31.744  28.202  26.110  1.00  0.00     0.338 C 
ATOM      4  O   UNL A   1      30.661  27.703  25.849  1.00  0.00    -0.246 OA
BRANCH   3   5
ATOM      5  C   UNL A   1      32.960  27.647  25.476  1.00  0.00     0.062 A 
ATOM      6  C   UNL A   1      33.970  25.465  25.365  1.00  0.00     0.035 A 
ATOM      7  C   UNL A   1      34.113  25.652  23.974  1.00  0.00     0.026 A 
ATOM      8  C   UNL A   1      33.566  26.557  26.128  1.00  0.00     0.041 A 
ATOM      9  C   UNL A   1      33.686  26.816  23.335  1.00  0.00     0.003 A 
ATOM     10  C   UNL A   1      33.041  27.789  24.083  1.00  0.00     0.016 A 
BRANCH   6  11
ATOM     11  N   UNL A   1      34.011  24.164  25.829  1.00  0.00    -0.382 N 
ATOM     12  H   UNL A   1      34.816  23.673  25.546  1.00  0.00     0.160 HD
BRANCH  11  13
ATOM     13  C   UNL A   1      33.102  23.365  26.655  1.00  0.00     0.079 C 
ATOM     14  C   UNL A   1      34.026  22.340  27.359  1.00  0.00     0.031 C 
BRANCH  13  15
ATOM     15  C   UNL A   1      31.931  22.558  25.985  1.00  0.00     0.022 C 
ATOM     16  C   UNL A   1      32.289  21.279  25.214  1.00  0.00     0.067 C 
ATOM     17  C   UNL A   1      30.924  23.312  25.117  1.00  0.00     0.067 C 
ATOM     18  C   UNL A   1      32.932  21.588  23.871  1.00  0.00     0.262 C 
ATOM     19  C   UNL A   1      31.380  23.487  23.670  1.00  0.00     0.262 C 
ATOM     20  N   UNL A   1      32.066  22.383  22.997  1.00  0.00    -0.337 N 
ATOM     21  C   UNL A   1      32.904  22.959  21.922  1.00  0.00     0.332 C 
ATOM     22  H   UNL A   1      31.344  21.752  22.650  1.00  0.00     0.347 HD
ENDBRANCH  13  15
ENDBRANCH  11  13
ENDBRANCH   6  11
ENDBRANCH   3   5
ENDBRANCH   2   3
ENDBRANCH   1   2
BRANCH   1  23
ATOM     23  C   UNL A   1      33.290  31.190  27.254  1.00  0.00     0.275 C 
BRANCH  23  24
ATOM     24  O   UNL A   1      34.305  30.265  27.691  1.00  0.00    -0.458 OA
BRANCH  24  25
ATOM     25  C   UNL A   1      35.131  30.731  28.652  1.00  0.00     0.338 C 
ATOM     26  O   UNL A   1      34.866  31.587  29.491  1.00  0.00    -0.246 OA
BRANCH  25  27
ATOM     27  C   UNL A   1      36.432  30.037  28.637  1.00  0.00     0.060 A 
ATOM     28  C   UNL A   1      36.961  29.506  29.811  1.00  0.00     0.016 A 
ATOM     29  C   UNL A   1      37.226  30.102  27.495  1.00  0.00     0.016 A 
ATOM     30  C   UNL A   1      38.317  29.220  29.898  1.00  0.00     0.010 A 
ATOM     31  C   UNL A   1      38.544  29.638  27.541  1.00  0.00     0.010 A 
ATOM     32  C   UNL A   1      39.126  29.241  28.758  1.00  0.00    -0.014 A 
BRANCH  32  33
ATOM     33  C   UNL A   1      40.569  28.870  28.837  1.00  0.00     0.031 A 
ATOM     34  C   UNL A   1      41.588  29.909  29.233  1.00  0.00     0.074 A 
ATOM     35  C   UNL A   1      40.973  27.615  28.550  1.00  0.00     0.049 A 
ATOM     36  N   UNL A   1      42.887  29.892  29.085  1.00  0.00    -0.248 NA
ATOM     37  C   UNL A   1      41.075  31.143  29.852  1.00  0.00     0.031 C 
ATOM     38  C   UNL A   1      40.094  26.487  28.219  1.00  0.00     0.029 A 
ATOM     39  N   UNL A   1      42.232  27.069  28.487  1.00  0.00    -0.354 N 
ATOM     40  C   UNL A   1      43.337  31.136  29.520  1.00  0.00     0.074 A 
ATOM     41  C   UNL A   1      42.172  31.885  29.933  1.00  0.00     0.031 C 
ATOM     42  C   UNL A   1      40.831  25.383  28.042  1.00  0.00     0.029 A 
ATOM     43  C   UNL A   1      42.238  25.747  28.103  1.00  0.00     0.049 A 
ATOM     44  H   UNL A   1      43.050  27.575  28.695  1.00  0.00     0.167 HD
ATOM     45  C   UNL A   1      44.608  31.603  29.560  1.00  0.00     0.037 A 
ATOM     46  C   UNL A   1      43.253  24.932  27.760  1.00  0.00     0.037 A 
ATOM     47  C   UNL A   1      45.759  30.814  29.199  1.00  0.00     0.049 A 
ATOM     48  C   UNL A   1      44.648  25.488  27.756  1.00  0.00     0.074 A 
ATOM     49  C   UNL A   1      47.093  31.181  29.203  1.00  0.00     0.029 A 
ATOM     50  N   UNL A   1      45.712  29.489  28.787  1.00  0.00    -0.354 N 
ATOM     51  N   UNL A   1      45.055  26.691  28.084  1.00  0.00    -0.248 NA
ATOM     52  C   UNL A   1      45.718  24.588  27.311  1.00  0.00     0.031 C 
ATOM     53  C   UNL A   1      47.847  30.093  28.752  1.00  0.00     0.029 A 
ATOM     54  C   UNL A   1      46.991  29.028  28.523  1.00  0.00     0.049 A 
ATOM     55  H   UNL A   1      44.890  28.955  28.696  1.00  0.00     0.167 HD
ATOM     56  C   UNL A   1      46.432  26.686  27.906  1.00  0.00     0.074 A 
ATOM     57  C   UNL A   1      46.789  25.354  27.459  1.00  0.00     0.031 C 
ATOM     58  C   UNL A   1      47.322  27.691  28.092  1.00  0.00     0.037 A 
BRANCH  45  59
ATOM     59  C   UNL A   1      44.822  33.038  29.969  1.00  0.00     0.058 A 
ATOM     60  C   UNL A   1      45.016  33.418  31.305  1.00  0.00     0.135 A 
ATOM     61  C   UNL A   1      44.868  34.050  28.994  1.00  0.00     0.135 A 
ATOM     62  F   UNL A   1      44.965  32.499  32.284  1.00  0.00    -0.206 F 
ATOM     63  C   UNL A   1      45.219  34.749  31.664  1.00  0.00     0.059 A 
ATOM     64  C   UNL A   1      45.102  35.382  29.325  1.00  0.00     0.059 A 
ATOM     65  F   UNL A   1      44.688  33.747  27.698  1.00  0.00    -0.206 F 
ATOM     66  C   UNL A   1      45.262  35.723  30.666  1.00  0.00     0.060 A 
BRANCH  66  67
ATOM     67  S   UNL A   1      45.535  37.442  31.147  1.00  0.00     0.124 S 
ATOM     68  O   UNL A   1      44.192  37.853  31.542  1.00  0.00    -0.237 OA
ATOM     69  O   UNL A   1      46.502  37.311  32.233  1.00  0.00    -0.237 OA
ATOM     70  O   UNL A   1      46.046  38.061  29.928  1.00  0.00    -0.744 OA
ENDBRANCH  66  67
ENDBRANCH  45  59
BRANCH  46  71
ATOM     71  C   UNL A   1      42.978  23.532  27.332  1.00  0.00     0.058 A 
ATOM     72  C   UNL A   1      42.951  23.186  25.973  1.00  0.00     0.135 A 
ATOM     73  C   UNL A   1      42.751  22.509  28.268  1.00  0.00     0.135 A 
ATOM     74  F   UNL A   1      43.152  24.126  25.037  1.00  0.00    -0.206 F 
ATOM     75  C   UNL A   1      42.693  21.883  25.557  1.00  0.00     0.059 A 
ATOM     76  C   UNL A   1      42.529  21.193  27.878  1.00  0.00     0.059 A 
ATOM     77  F   UNL A   1      42.778  22.781  29.582  1.00  0.00    -0.206 F 
ATOM     78  C   UNL A   1      42.487  20.892  26.518  1.00  0.00     0.060 A 
BRANCH  78  79
ATOM     79  S   UNL A   1      42.189  19.199  25.969  1.00  0.00     0.124 S 
ATOM     80  O   UNL A   1      43.017  19.130  24.771  1.00  0.00    -0.237 OA
ATOM     81  O   UNL A   1      42.653  18.419  27.113  1.00  0.00    -0.237 OA
ATOM     82  O   UNL A   1      40.747  19.167  25.743  1.00  0.00    -0.744 OA
ENDBRANCH  78  79
ENDBRANCH  46  71
BRANCH  58  83
ATOM     83  C   UNL A   1      48.773  27.372  27.866  1.00  0.00     0.058 A 
ATOM     84  C   UNL A   1      49.601  26.912  28.902  1.00  0.00     0.135 A 
ATOM     85  C   UNL A   1      49.329  27.492  26.583  1.00  0.00     0.135 A 
ATOM     86  F   UNL A   1      49.119  26.792  30.150  1.00  0.00    -0.206 F 
ATOM     87  C   UNL A   1      50.938  26.607  28.678  1.00  0.00     0.059 A 
ATOM     88  C   UNL A   1      50.655  27.161  26.329  1.00  0.00     0.059 A 
ATOM     89  F   UNL A   1      48.577  27.920  25.556  1.00  0.00    -0.206 F 
ATOM     90  C   UNL A   1      51.455  26.730  27.387  1.00  0.00     0.060 A 
BRANCH  90  91
ATOM     91  S   UNL A   1      53.183  26.297  27.103  1.00  0.00     0.124 S 
ATOM     92  O   UNL A   1      53.056  25.159  26.197  1.00  0.00    -0.237 OA
ATOM     93  O   UNL A   1      53.717  27.521  26.513  1.00  0.00    -0.237 OA
ATOM     94  O   UNL A   1      53.679  25.983  28.439  1.00  0.00    -0.744 OA
ENDBRANCH  90  91
ENDBRANCH  58  83
ENDBRANCH  32  33
ENDBRANCH  25  27
ENDBRANCH  24  25
ENDBRANCH  23  24
ENDBRANCH   1  23
TORSDOF 17
ENDMDL
