MODEL 1
REMARK VINA RESULT:     -10.8      0.000      0.000
REMARK SMILES Cc1cc(CS(=O)(=O)N[C@@H]2C=C[C@H](C(=O)OCCOC(=O)c3ccc(-c4c5nc(c(-c6c(F)cc(S(=O)(=O)[O-])cc6F)c6ccc([nH]6)c(-c6c(F)cc(S(=O)(=O)[O-])cc6F)c6nc(c(-c7c(F)cc(S(=O)(=O)[O-])cc7F)c7ccc4[nH]7)C=C6)C=C5)cc3)C2)no1
REMARK SMILES IDX 17 1 16 2 14 3 15 4 13 5 10 6 11 7 88 8 12 9 9 10 6 12 7 13
REMARK SMILES IDX 8 14 5 15 4 16 1 17 2 18 3 19 90 20 89 21 18 22 19 23 20 24
REMARK SMILES IDX 21 25 22 26 23 27 87 28 24 29 86 30 25 31 26 32 27 33 80 34
REMARK SMILES IDX 28 35 85 36 79 37 81 38 29 39 84 40 78 41 77 42 30 44 64 45
REMARK SMILES IDX 43 46 63 47 44 48 47 49 62 50 82 51 45 52 46 53 61 55 83 56
REMARK SMILES IDX 48 57 31 58 32 59 41 60 33 61 34 62 40 63 42 64 35 65 36 66
REMARK SMILES IDX 37 67 38 68 39 69 65 70 66 71 75 72 67 73 68 74 74 75 76 76
REMARK SMILES IDX 69 77 70 78 71 79 72 80 73 81 49 82 50 83 59 84 51 85 52 86
REMARK SMILES IDX 58 87 60 88 53 89 54 90 55 91 56 92 57 93
REMARK H PARENT 9 11 81 43 47 54
REMARK Flexibility Score: inf
ROOT
ATOM      1  C   UNL A   1      38.122  22.073  25.868  1.00  0.00     0.274 C 
ENDROOT
BRANCH   1   2
ATOM      2  O   UNL A   1      37.513  23.221  25.257  1.00  0.00    -0.462 OA
BRANCH   2   3
ATOM      3  C   UNL A   1      36.688  22.964  24.202  1.00  0.00     0.312 C 
ATOM      4  O   UNL A   1      37.065  22.699  23.069  1.00  0.00    -0.252 OA
BRANCH   3   5
ATOM      5  C   UNL A   1      35.238  22.943  24.658  1.00  0.00     0.123 C 
ATOM      6  C   UNL A   1      33.659  24.666  23.897  1.00  0.00     0.093 C 
ATOM      7  C   UNL A   1      34.090  24.870  25.312  1.00  0.00    -0.011 C 
ATOM      8  C   UNL A   1      34.263  23.315  23.526  1.00  0.00     0.043 C 
ATOM      9  C   UNL A   1      34.951  23.942  25.728  1.00  0.00    -0.015 C 
BRANCH   6  10
ATOM     10  N   UNL A   1      34.223  25.793  23.164  1.00  0.00    -0.208 NA
ATOM     11  H   UNL A   1      34.500  26.491  23.854  1.00  0.00     0.141 HD
BRANCH  10  12
ATOM     12  S   UNL A   1      33.272  26.580  22.024  1.00  0.00     0.218 S 
ATOM     13  O   UNL A   1      33.144  25.694  20.890  1.00  0.00    -0.212 OA
ATOM     14  O   UNL A   1      33.905  27.875  21.869  1.00  0.00    -0.212 OA
BRANCH  12  15
ATOM     15  C   UNL A   1      31.671  26.866  22.832  1.00  0.00     0.213 C 
BRANCH  15  16
ATOM     16  C   UNL A   1      31.660  28.001  23.786  1.00  0.00     0.100 A 
ATOM     17  C   UNL A   1      31.814  29.789  26.976  1.00  0.00     0.091 C 
ATOM     18  C   UNL A   1      31.774  29.217  25.618  1.00  0.00     0.133 A 
ATOM     19  C   UNL A   1      32.362  28.134  25.011  1.00  0.00     0.073 A 
ATOM     20  O   UNL A   1      30.921  29.807  24.742  1.00  0.00    -0.361 OA
ATOM     21  N   UNL A   1      30.882  29.069  23.573  1.00  0.00    -0.084 NA
ENDBRANCH  15  16
ENDBRANCH  12  15
ENDBRANCH  10  12
ENDBRANCH   6  10
ENDBRANCH   3   5
ENDBRANCH   2   3
ENDBRANCH   1   2
BRANCH   1  22
ATOM     22  C   UNL A   1      39.493  22.446  26.441  1.00  0.00     0.275 C 
BRANCH  22  23
ATOM     23  O   UNL A   1      39.708  23.872  26.460  1.00  0.00    -0.458 OA
BRANCH  23  24
ATOM     24  C   UNL A   1      40.898  24.275  26.969  1.00  0.00     0.338 C 
ATOM     25  O   UNL A   1      42.004  23.873  26.647  1.00  0.00    -0.246 OA
BRANCH  24  26
ATOM     26  C   UNL A   1      40.702  25.395  27.909  1.00  0.00     0.060 A 
ATOM     27  C   UNL A   1      41.775  26.262  28.136  1.00  0.00     0.016 A 
ATOM     28  C   UNL A   1      39.511  25.553  28.619  1.00  0.00     0.016 A 
ATOM     29  C   UNL A   1      41.667  27.294  29.064  1.00  0.00     0.010 A 
ATOM     30  C   UNL A   1      39.405  26.584  29.562  1.00  0.00     0.010 A 
ATOM     31  C   UNL A   1      40.485  27.454  29.793  1.00  0.00    -0.014 A 
BRANCH  31  32
ATOM     32  C   UNL A   1      40.412  28.503  30.837  1.00  0.00     0.031 A 
ATOM     33  C   UNL A   1      41.329  28.435  32.024  1.00  0.00     0.074 A 
ATOM     34  C   UNL A   1      39.556  29.531  30.694  1.00  0.00     0.049 A 
ATOM     35  N   UNL A   1      41.382  29.214  33.072  1.00  0.00    -0.248 NA
ATOM     36  C   UNL A   1      42.319  27.346  32.031  1.00  0.00     0.031 C 
ATOM     37  C   UNL A   1      38.664  29.733  29.551  1.00  0.00     0.029 A 
ATOM     38  N   UNL A   1      39.297  30.598  31.515  1.00  0.00    -0.354 N 
ATOM     39  C   UNL A   1      42.398  28.706  33.872  1.00  0.00     0.074 A 
ATOM     40  C   UNL A   1      42.926  27.540  33.194  1.00  0.00     0.031 C 
ATOM     41  C   UNL A   1      37.950  30.853  29.748  1.00  0.00     0.029 A 
ATOM     42  C   UNL A   1      38.302  31.423  31.045  1.00  0.00     0.049 A 
ATOM     43  H   UNL A   1      39.776  30.759  32.359  1.00  0.00     0.167 HD
ATOM     44  C   UNL A   1      42.848  29.171  35.061  1.00  0.00     0.037 A 
ATOM     45  C   UNL A   1      37.721  32.498  31.613  1.00  0.00     0.037 A 
ATOM     46  C   UNL A   1      42.320  30.336  35.723  1.00  0.00     0.049 A 
ATOM     47  C   UNL A   1      38.192  32.956  32.967  1.00  0.00     0.074 A 
ATOM     48  C   UNL A   1      42.708  30.890  36.931  1.00  0.00     0.029 A 
ATOM     49  N   UNL A   1      41.287  31.124  35.237  1.00  0.00    -0.354 N 
ATOM     50  N   UNL A   1      39.146  32.458  33.720  1.00  0.00    -0.248 NA
ATOM     51  C   UNL A   1      37.506  34.114  33.554  1.00  0.00     0.031 C 
ATOM     52  C   UNL A   1      41.882  31.990  37.193  1.00  0.00     0.029 A 
ATOM     53  C   UNL A   1      41.010  32.148  36.128  1.00  0.00     0.049 A 
ATOM     54  H   UNL A   1      40.820  30.978  34.383  1.00  0.00     0.167 HD
ATOM     55  C   UNL A   1      39.188  33.257  34.858  1.00  0.00     0.074 A 
ATOM     56  C   UNL A   1      38.171  34.275  34.690  1.00  0.00     0.031 C 
ATOM     57  C   UNL A   1      39.996  33.157  35.942  1.00  0.00     0.037 A 
BRANCH  44  58
ATOM     58  C   UNL A   1      43.943  28.397  35.740  1.00  0.00     0.058 A 
ATOM     59  C   UNL A   1      43.667  27.359  36.643  1.00  0.00     0.135 A 
ATOM     60  C   UNL A   1      45.290  28.684  35.464  1.00  0.00     0.135 A 
ATOM     61  F   UNL A   1      42.398  27.055  36.957  1.00  0.00    -0.206 F 
ATOM     62  C   UNL A   1      44.688  26.648  37.267  1.00  0.00     0.059 A 
ATOM     63  C   UNL A   1      46.327  27.972  36.059  1.00  0.00     0.059 A 
ATOM     64  F   UNL A   1      45.609  29.670  34.611  1.00  0.00    -0.206 F 
ATOM     65  C   UNL A   1      46.016  26.966  36.972  1.00  0.00     0.060 A 
BRANCH  65  66
ATOM     66  S   UNL A   1      47.330  26.041  37.796  1.00  0.00     0.124 S 
ATOM     67  O   UNL A   1      46.565  25.214  38.724  1.00  0.00    -0.237 OA
ATOM     68  O   UNL A   1      47.959  25.333  36.686  1.00  0.00    -0.237 OA
ATOM     69  O   UNL A   1      48.144  27.085  38.411  1.00  0.00    -0.744 OA
ENDBRANCH  65  66
ENDBRANCH  44  58
BRANCH  45  70
ATOM     70  C   UNL A   1      36.612  33.197  30.913  1.00  0.00     0.058 A 
ATOM     71  C   UNL A   1      35.272  32.900  31.197  1.00  0.00     0.135 A 
ATOM     72  C   UNL A   1      36.873  34.180  29.945  1.00  0.00     0.135 A 
ATOM     73  F   UNL A   1      34.971  31.959  32.104  1.00  0.00    -0.206 F 
ATOM     74  C   UNL A   1      34.227  33.542  30.537  1.00  0.00     0.059 A 
ATOM     75  C   UNL A   1      35.847  34.854  29.290  1.00  0.00     0.059 A 
ATOM     76  F   UNL A   1      38.139  34.508  29.643  1.00  0.00    -0.206 F 
ATOM     77  C   UNL A   1      34.525  34.519  29.585  1.00  0.00     0.060 A 
BRANCH  77  78
ATOM     78  S   UNL A   1      33.166  35.373  28.757  1.00  0.00     0.124 S 
ATOM     79  O   UNL A   1      32.465  34.261  28.124  1.00  0.00    -0.237 OA
ATOM     80  O   UNL A   1      32.476  36.011  29.873  1.00  0.00    -0.237 OA
ATOM     81  O   UNL A   1      33.850  36.288  27.847  1.00  0.00    -0.744 OA
ENDBRANCH  77  78
ENDBRANCH  45  70
BRANCH  57  82
ATOM     82  C   UNL A   1      39.836  34.192  37.020  1.00  0.00     0.058 A 
ATOM     83  C   UNL A   1      40.414  35.466  36.910  1.00  0.00     0.135 A 
ATOM     84  C   UNL A   1      39.050  33.923  38.153  1.00  0.00     0.135 A 
ATOM     85  F   UNL A   1      41.179  35.772  35.850  1.00  0.00    -0.206 F 
ATOM     86  C   UNL A   1      40.235  36.432  37.895  1.00  0.00     0.059 A 
ATOM     87  C   UNL A   1      38.838  34.882  39.138  1.00  0.00     0.059 A 
ATOM     88  F   UNL A   1      38.467  32.723  38.301  1.00  0.00    -0.206 F 
ATOM     89  C   UNL A   1      39.444  36.129  39.006  1.00  0.00     0.060 A 
BRANCH  89  90
ATOM     90  S   UNL A   1      39.188  37.403  40.260  1.00  0.00     0.124 S 
ATOM     91  O   UNL A   1      40.550  37.875  40.482  1.00  0.00    -0.237 OA
ATOM     92  O   UNL A   1      38.294  38.338  39.582  1.00  0.00    -0.237 OA
ATOM     93  O   UNL A   1      38.588  36.669  41.371  1.00  0.00    -0.744 OA
ENDBRANCH  89  90
ENDBRANCH  57  82
ENDBRANCH  31  32
ENDBRANCH  24  26
ENDBRANCH  23  24
ENDBRANCH  22  23
ENDBRANCH   1  22
TORSDOF 18
ENDMDL
MODEL 2
REMARK VINA RESULT:     -10.5      6.381     10.961
REMARK SMILES Cc1cc(CS(=O)(=O)N[C@@H]2C=C[C@H](C(=O)OCCOC(=O)c3ccc(-c4c5nc(c(-c6c(F)cc(S(=O)(=O)[O-])cc6F)c6ccc([nH]6)c(-c6c(F)cc(S(=O)(=O)[O-])cc6F)c6nc(c(-c7c(F)cc(S(=O)(=O)[O-])cc7F)c7ccc4[nH]7)C=C6)C=C5)cc3)C2)no1
REMARK SMILES IDX 17 1 16 2 14 3 15 4 13 5 10 6 11 7 88 8 12 9 9 10 6 12 7 13
REMARK SMILES IDX 8 14 5 15 4 16 1 17 2 18 3 19 90 20 89 21 18 22 19 23 20 24
REMARK SMILES IDX 21 25 22 26 23 27 87 28 24 29 86 30 25 31 26 32 27 33 80 34
REMARK SMILES IDX 28 35 85 36 79 37 81 38 29 39 84 40 78 41 77 42 30 44 64 45
REMARK SMILES IDX 43 46 63 47 44 48 47 49 62 50 82 51 45 52 46 53 61 55 83 56
REMARK SMILES IDX 48 57 31 58 32 59 41 60 33 61 34 62 40 63 42 64 35 65 36 66
REMARK SMILES IDX 37 67 38 68 39 69 65 70 66 71 75 72 67 73 68 74 74 75 76 76
REMARK SMILES IDX 69 77 70 78 71 79 72 80 73 81 49 82 50 83 59 84 51 85 52 86
REMARK SMILES IDX 58 87 60 88 53 89 54 90 55 91 56 92 57 93
REMARK H PARENT 9 11 81 43 47 54
REMARK Flexibility Score: inf
ROOT
ATOM      1  C   UNL A   1      38.237  21.326  25.182  1.00  0.00     0.274 C 
ENDROOT
BRANCH   1   2
ATOM      2  O   UNL A   1      37.097  21.169  24.323  1.00  0.00    -0.462 OA
BRANCH   2   3
ATOM      3  C   UNL A   1      36.537  22.324  23.863  1.00  0.00     0.312 C 
ATOM      4  O   UNL A   1      36.869  22.902  22.837  1.00  0.00    -0.252 OA
BRANCH   3   5
ATOM      5  C   UNL A   1      35.366  22.731  24.744  1.00  0.00     0.123 C 
ATOM      6  C   UNL A   1      33.726  24.387  23.962  1.00  0.00     0.093 C 
ATOM      7  C   UNL A   1      34.670  24.949  24.974  1.00  0.00    -0.011 C 
ATOM      8  C   UNL A   1      34.063  22.899  23.942  1.00  0.00     0.043 C 
ATOM      9  C   UNL A   1      35.565  24.058  25.397  1.00  0.00    -0.015 C 
BRANCH   6  10
ATOM     10  N   UNL A   1      34.042  25.086  22.722  1.00  0.00    -0.208 NA
ATOM     11  H   UNL A   1      34.957  25.519  22.847  1.00  0.00     0.141 HD
BRANCH  10  12
ATOM     12  S   UNL A   1      33.000  26.287  22.178  1.00  0.00     0.218 S 
ATOM     13  O   UNL A   1      32.018  25.650  21.332  1.00  0.00    -0.212 OA
ATOM     14  O   UNL A   1      33.882  27.300  21.633  1.00  0.00    -0.212 OA
BRANCH  12  15
ATOM     15  C   UNL A   1      32.242  26.992  23.669  1.00  0.00     0.213 C 
BRANCH  15  16
ATOM     16  C   UNL A   1      31.166  27.978  23.404  1.00  0.00     0.100 A 
ATOM     17  C   UNL A   1      27.884  29.283  22.443  1.00  0.00     0.091 C 
ATOM     18  C   UNL A   1      29.235  28.906  22.898  1.00  0.00     0.133 A 
ATOM     19  C   UNL A   1      29.764  27.817  23.546  1.00  0.00     0.073 A 
ATOM     20  O   UNL A   1      30.240  29.755  22.565  1.00  0.00    -0.361 OA
ATOM     21  N   UNL A   1      31.452  29.193  22.922  1.00  0.00    -0.084 NA
ENDBRANCH  15  16
ENDBRANCH  12  15
ENDBRANCH  10  12
ENDBRANCH   6  10
ENDBRANCH   3   5
ENDBRANCH   2   3
ENDBRANCH   1   2
BRANCH   1  22
ATOM     22  C   UNL A   1      38.944  19.981  25.372  1.00  0.00     0.275 C 
BRANCH  22  23
ATOM     23  O   UNL A   1      39.808  19.976  26.527  1.00  0.00    -0.458 OA
BRANCH  23  24
ATOM     24  C   UNL A   1      41.127  19.799  26.268  1.00  0.00     0.338 C 
ATOM     25  O   UNL A   1      41.658  18.787  25.841  1.00  0.00    -0.246 OA
BRANCH  24  26
ATOM     26  C   UNL A   1      41.860  21.066  26.448  1.00  0.00     0.060 A 
ATOM     27  C   UNL A   1      42.213  21.445  27.747  1.00  0.00     0.016 A 
ATOM     28  C   UNL A   1      42.130  21.914  25.373  1.00  0.00     0.016 A 
ATOM     29  C   UNL A   1      42.843  22.664  27.982  1.00  0.00     0.010 A 
ATOM     30  C   UNL A   1      42.754  23.146  25.610  1.00  0.00     0.010 A 
ATOM     31  C   UNL A   1      43.107  23.529  26.916  1.00  0.00    -0.014 A 
BRANCH  31  32
ATOM     32  C   UNL A   1      43.701  24.858  27.189  1.00  0.00     0.031 A 
ATOM     33  C   UNL A   1      42.824  25.983  27.656  1.00  0.00     0.074 A 
ATOM     34  C   UNL A   1      45.028  25.037  27.058  1.00  0.00     0.049 A 
ATOM     35  N   UNL A   1      43.135  27.231  27.889  1.00  0.00    -0.248 NA
ATOM     36  C   UNL A   1      41.407  25.659  27.894  1.00  0.00     0.031 C 
ATOM     37  C   UNL A   1      45.986  23.999  26.672  1.00  0.00     0.029 A 
ATOM     38  N   UNL A   1      45.801  26.156  27.235  1.00  0.00    -0.354 N 
ATOM     39  C   UNL A   1      41.955  27.848  28.288  1.00  0.00     0.074 A 
ATOM     40  C   UNL A   1      40.917  26.839  28.250  1.00  0.00     0.031 C 
ATOM     41  C   UNL A   1      47.217  24.533  26.635  1.00  0.00     0.029 A 
ATOM     42  C   UNL A   1      47.131  25.956  26.951  1.00  0.00     0.049 A 
ATOM     43  H   UNL A   1      45.438  27.021  27.536  1.00  0.00     0.167 HD
ATOM     44  C   UNL A   1      41.759  29.137  28.652  1.00  0.00     0.037 A 
ATOM     45  C   UNL A   1      48.156  26.830  26.921  1.00  0.00     0.037 A 
ATOM     46  C   UNL A   1      42.801  30.131  28.693  1.00  0.00     0.049 A 
ATOM     47  C   UNL A   1      47.900  28.272  27.263  1.00  0.00     0.074 A 
ATOM     48  C   UNL A   1      42.705  31.465  29.049  1.00  0.00     0.029 A 
ATOM     49  N   UNL A   1      44.129  29.901  28.362  1.00  0.00    -0.354 N 
ATOM     50  N   UNL A   1      46.776  28.847  27.626  1.00  0.00    -0.248 NA
ATOM     51  C   UNL A   1      49.046  29.188  27.187  1.00  0.00     0.031 C 
ATOM     52  C   UNL A   1      43.967  32.051  28.896  1.00  0.00     0.029 A 
ATOM     53  C   UNL A   1      44.859  31.072  28.487  1.00  0.00     0.049 A 
ATOM     54  H   UNL A   1      44.498  29.033  28.081  1.00  0.00     0.167 HD
ATOM     55  C   UNL A   1      47.086  30.185  27.842  1.00  0.00     0.074 A 
ATOM     56  C   UNL A   1      48.503  30.333  27.579  1.00  0.00     0.031 C 
ATOM     57  C   UNL A   1      46.272  31.199  28.225  1.00  0.00     0.037 A 
BRANCH  44  58
ATOM     58  C   UNL A   1      40.358  29.555  29.001  1.00  0.00     0.058 A 
ATOM     59  C   UNL A   1      39.376  29.748  28.017  1.00  0.00     0.135 A 
ATOM     60  C   UNL A   1      39.987  29.742  30.343  1.00  0.00     0.135 A 
ATOM     61  F   UNL A   1      39.681  29.601  26.719  1.00  0.00    -0.206 F 
ATOM     62  C   UNL A   1      38.081  30.136  28.350  1.00  0.00     0.059 A 
ATOM     63  C   UNL A   1      38.693  30.107  30.700  1.00  0.00     0.059 A 
ATOM     64  F   UNL A   1      40.890  29.574  31.322  1.00  0.00    -0.206 F 
ATOM     65  C   UNL A   1      37.751  30.317  29.695  1.00  0.00     0.060 A 
BRANCH  65  66
ATOM     66  S   UNL A   1      36.070  30.828  30.111  1.00  0.00     0.124 S 
ATOM     67  O   UNL A   1      35.300  30.190  29.047  1.00  0.00    -0.237 OA
ATOM     68  O   UNL A   1      35.892  30.267  31.446  1.00  0.00    -0.237 OA
ATOM     69  O   UNL A   1      36.133  32.285  30.051  1.00  0.00    -0.744 OA
ENDBRANCH  65  66
ENDBRANCH  44  58
BRANCH  45  70
ATOM     70  C   UNL A   1      49.512  26.367  26.525  1.00  0.00     0.058 A 
ATOM     71  C   UNL A   1      50.418  25.872  27.473  1.00  0.00     0.135 A 
ATOM     72  C   UNL A   1      49.928  26.410  25.184  1.00  0.00     0.135 A 
ATOM     73  F   UNL A   1      50.072  25.823  28.768  1.00  0.00    -0.206 F 
ATOM     74  C   UNL A   1      51.693  25.447  27.111  1.00  0.00     0.059 A 
ATOM     75  C   UNL A   1      51.187  25.968  24.793  1.00  0.00     0.059 A 
ATOM     76  F   UNL A   1      49.095  26.866  24.236  1.00  0.00    -0.206 F 
ATOM     77  C   UNL A   1      52.069  25.499  25.767  1.00  0.00     0.060 A 
BRANCH  77  78
ATOM     78  S   UNL A   1      53.712  24.915  25.299  1.00  0.00     0.124 S 
ATOM     79  O   UNL A   1      53.932  25.632  24.048  1.00  0.00    -0.237 OA
ATOM     80  O   UNL A   1      54.528  25.341  26.431  1.00  0.00    -0.237 OA
ATOM     81  O   UNL A   1      53.531  23.470  25.175  1.00  0.00    -0.744 OA
ENDBRANCH  77  78
ENDBRANCH  45  70
BRANCH  57  82
ATOM     82  C   UNL A   1      46.897  32.554  28.412  1.00  0.00     0.058 A 
ATOM     83  C   UNL A   1      47.469  32.939  29.634  1.00  0.00     0.135 A 
ATOM     84  C   UNL A   1      46.971  33.457  27.339  1.00  0.00     0.135 A 
ATOM     85  F   UNL A   1      47.420  32.114  30.693  1.00  0.00    -0.206 F 
ATOM     86  C   UNL A   1      48.075  34.180  29.792  1.00  0.00     0.059 A 
ATOM     87  C   UNL A   1      47.593  34.694  27.468  1.00  0.00     0.059 A 
ATOM     88  F   UNL A   1      46.447  33.132  26.145  1.00  0.00    -0.206 F 
ATOM     89  C   UNL A   1      48.133  35.051  28.701  1.00  0.00     0.060 A 
BRANCH  89  90
ATOM     90  S   UNL A   1      48.956  36.646  28.907  1.00  0.00     0.124 S 
ATOM     91  O   UNL A   1      48.460  37.067  30.212  1.00  0.00    -0.237 OA
ATOM     92  O   UNL A   1      50.369  36.280  28.854  1.00  0.00    -0.237 OA
ATOM     93  O   UNL A   1      48.475  37.425  27.770  1.00  0.00    -0.744 OA
ENDBRANCH  89  90
ENDBRANCH  57  82
ENDBRANCH  31  32
ENDBRANCH  24  26
ENDBRANCH  23  24
ENDBRANCH  22  23
ENDBRANCH   1  22
TORSDOF 18
ENDMDL
MODEL 3
REMARK VINA RESULT:     -10.5      3.528      5.968
REMARK SMILES Cc1cc(CS(=O)(=O)N[C@@H]2C=C[C@H](C(=O)OCCOC(=O)c3ccc(-c4c5nc(c(-c6c(F)cc(S(=O)(=O)[O-])cc6F)c6ccc([nH]6)c(-c6c(F)cc(S(=O)(=O)[O-])cc6F)c6nc(c(-c7c(F)cc(S(=O)(=O)[O-])cc7F)c7ccc4[nH]7)C=C6)C=C5)cc3)C2)no1
REMARK SMILES IDX 17 1 16 2 14 3 15 4 13 5 10 6 11 7 88 8 12 9 9 10 6 12 7 13
REMARK SMILES IDX 8 14 5 15 4 16 1 17 2 18 3 19 90 20 89 21 18 22 19 23 20 24
REMARK SMILES IDX 21 25 22 26 23 27 87 28 24 29 86 30 25 31 26 32 27 33 80 34
REMARK SMILES IDX 28 35 85 36 79 37 81 38 29 39 84 40 78 41 77 42 30 44 64 45
REMARK SMILES IDX 43 46 63 47 44 48 47 49 62 50 82 51 45 52 46 53 61 55 83 56
REMARK SMILES IDX 48 57 31 58 32 59 41 60 33 61 34 62 40 63 42 64 35 65 36 66
REMARK SMILES IDX 37 67 38 68 39 69 65 70 66 71 75 72 67 73 68 74 74 75 76 76
REMARK SMILES IDX 69 77 70 78 71 79 72 80 73 81 49 82 50 83 59 84 51 85 52 86
REMARK SMILES IDX 58 87 60 88 53 89 54 90 55 91 56 92 57 93
REMARK H PARENT 9 11 81 43 47 54
REMARK Flexibility Score: inf
ROOT
ATOM      1  C   UNL A   1      41.828  21.580  26.145  1.00  0.00     0.274 C 
ENDROOT
BRANCH   1   2
ATOM      2  O   UNL A   1      43.261  21.521  26.219  1.00  0.00    -0.462 OA
BRANCH   2   3
ATOM      3  C   UNL A   1      43.934  22.106  25.187  1.00  0.00     0.312 C 
ATOM      4  O   UNL A   1      43.420  22.489  24.146  1.00  0.00    -0.252 OA
BRANCH   3   5
ATOM      5  C   UNL A   1      45.392  22.319  25.561  1.00  0.00     0.123 C 
ATOM      6  C   UNL A   1      46.388  24.565  25.495  1.00  0.00     0.093 C 
ATOM      7  C   UNL A   1      46.818  23.714  24.345  1.00  0.00    -0.011 C 
ATOM      8  C   UNL A   1      45.603  23.604  26.382  1.00  0.00     0.043 C 
ATOM      9  C   UNL A   1      46.276  22.497  24.373  1.00  0.00    -0.015 C 
BRANCH   6  10
ATOM     10  N   UNL A   1      45.579  25.623  24.900  1.00  0.00    -0.208 NA
ATOM     11  H   UNL A   1      45.431  25.372  23.922  1.00  0.00     0.141 HD
BRANCH  10  12
ATOM     12  S   UNL A   1      46.160  27.199  24.921  1.00  0.00     0.218 S 
ATOM     13  O   UNL A   1      45.013  28.077  24.903  1.00  0.00    -0.212 OA
ATOM     14  O   UNL A   1      47.122  27.236  23.837  1.00  0.00    -0.212 OA
BRANCH  12  15
ATOM     15  C   UNL A   1      47.098  27.356  26.468  1.00  0.00     0.213 C 
BRANCH  15  16
ATOM     16  C   UNL A   1      46.273  27.678  27.657  1.00  0.00     0.100 A 
ATOM     17  C   UNL A   1      45.303  29.226  30.829  1.00  0.00     0.091 C 
ATOM     18  C   UNL A   1      45.534  28.560  29.534  1.00  0.00     0.133 A 
ATOM     19  C   UNL A   1      46.208  28.894  28.386  1.00  0.00     0.073 A 
ATOM     20  O   UNL A   1      45.059  27.293  29.417  1.00  0.00    -0.361 OA
ATOM     21  N   UNL A   1      45.485  26.753  28.218  1.00  0.00    -0.084 NA
ENDBRANCH  15  16
ENDBRANCH  12  15
ENDBRANCH  10  12
ENDBRANCH   6  10
ENDBRANCH   3   5
ENDBRANCH   2   3
ENDBRANCH   1   2
BRANCH   1  22
ATOM     22  C   UNL A   1      41.294  22.654  27.098  1.00  0.00     0.275 C 
BRANCH  22  23
ATOM     23  O   UNL A   1      41.289  23.965  26.497  1.00  0.00    -0.458 OA
BRANCH  23  24
ATOM     24  C   UNL A   1      40.135  24.664  26.634  1.00  0.00     0.338 C 
ATOM     25  O   UNL A   1      39.088  24.469  26.039  1.00  0.00    -0.246 OA
BRANCH  24  26
ATOM     26  C   UNL A   1      40.259  25.649  27.725  1.00  0.00     0.060 A 
ATOM     27  C   UNL A   1      39.315  25.616  28.755  1.00  0.00     0.016 A 
ATOM     28  C   UNL A   1      41.237  26.644  27.704  1.00  0.00     0.016 A 
ATOM     29  C   UNL A   1      39.343  26.565  29.772  1.00  0.00     0.010 A 
ATOM     30  C   UNL A   1      41.260  27.607  28.721  1.00  0.00     0.010 A 
ATOM     31  C   UNL A   1      40.309  27.576  29.756  1.00  0.00    -0.014 A 
BRANCH  31  32
ATOM     32  C   UNL A   1      40.276  28.628  30.797  1.00  0.00     0.031 A 
ATOM     33  C   UNL A   1      41.220  28.553  31.962  1.00  0.00     0.074 A 
ATOM     34  C   UNL A   1      39.431  29.668  30.672  1.00  0.00     0.049 A 
ATOM     35  N   UNL A   1      41.310  29.334  33.006  1.00  0.00    -0.248 NA
ATOM     36  C   UNL A   1      42.196  27.450  31.949  1.00  0.00     0.031 C 
ATOM     37  C   UNL A   1      38.513  29.878  29.550  1.00  0.00     0.029 A 
ATOM     38  N   UNL A   1      39.206  30.741  31.494  1.00  0.00    -0.354 N 
ATOM     39  C   UNL A   1      42.338  28.815  33.782  1.00  0.00     0.074 A 
ATOM     40  C   UNL A   1      42.833  27.640  33.096  1.00  0.00     0.031 C 
ATOM     41  C   UNL A   1      37.820  31.008  29.759  1.00  0.00     0.029 A 
ATOM     42  C   UNL A   1      38.211  31.578  31.046  1.00  0.00     0.049 A 
ATOM     43  H   UNL A   1      39.708  30.899  32.326  1.00  0.00     0.167 HD
ATOM     44  C   UNL A   1      42.823  29.279  34.958  1.00  0.00     0.037 A 
ATOM     45  C   UNL A   1      37.659  32.663  31.624  1.00  0.00     0.037 A 
ATOM     46  C   UNL A   1      42.328  30.453  35.629  1.00  0.00     0.049 A 
ATOM     47  C   UNL A   1      38.168  33.118  32.964  1.00  0.00     0.074 A 
ATOM     48  C   UNL A   1      42.752  31.006  36.824  1.00  0.00     0.029 A 
ATOM     49  N   UNL A   1      41.293  31.253  35.165  1.00  0.00    -0.354 N 
ATOM     50  N   UNL A   1      39.134  32.610  33.696  1.00  0.00    -0.248 NA
ATOM     51  C   UNL A   1      37.512  34.288  33.563  1.00  0.00     0.031 C 
ATOM     52  C   UNL A   1      41.948  32.118  37.102  1.00  0.00     0.029 A 
ATOM     53  C   UNL A   1      41.052  32.284  36.058  1.00  0.00     0.049 A 
ATOM     54  H   UNL A   1      40.803  31.110  34.323  1.00  0.00     0.167 HD
ATOM     55  C   UNL A   1      39.215  33.413  34.829  1.00  0.00     0.074 A 
ATOM     56  C   UNL A   1      38.208  34.444  34.682  1.00  0.00     0.031 C 
ATOM     57  C   UNL A   1      40.047  33.306  35.893  1.00  0.00     0.037 A 
BRANCH  44  58
ATOM     58  C   UNL A   1      43.924  28.493  35.613  1.00  0.00     0.058 A 
ATOM     59  C   UNL A   1      45.278  28.761  35.360  1.00  0.00     0.135 A 
ATOM     60  C   UNL A   1      43.619  27.471  36.527  1.00  0.00     0.135 A 
ATOM     61  F   UNL A   1      45.626  29.714  34.482  1.00  0.00    -0.206 F 
ATOM     62  C   UNL A   1      46.291  28.027  35.971  1.00  0.00     0.059 A 
ATOM     63  C   UNL A   1      44.614  26.739  37.167  1.00  0.00     0.059 A 
ATOM     64  F   UNL A   1      42.339  27.171  36.802  1.00  0.00    -0.206 F 
ATOM     65  C   UNL A   1      45.948  27.015  36.871  1.00  0.00     0.060 A 
BRANCH  65  66
ATOM     66  S   UNL A   1      47.272  26.065  37.649  1.00  0.00     0.124 S 
ATOM     67  O   UNL A   1      46.597  24.801  37.929  1.00  0.00    -0.237 OA
ATOM     68  O   UNL A   1      48.287  26.023  36.602  1.00  0.00    -0.237 OA
ATOM     69  O   UNL A   1      47.618  26.864  38.822  1.00  0.00    -0.744 OA
ENDBRANCH  65  66
ENDBRANCH  44  58
BRANCH  45  70
ATOM     70  C   UNL A   1      36.542  33.374  30.948  1.00  0.00     0.058 A 
ATOM     71  C   UNL A   1      35.223  33.263  31.411  1.00  0.00     0.135 A 
ATOM     72  C   UNL A   1      36.774  34.182  29.824  1.00  0.00     0.135 A 
ATOM     73  F   UNL A   1      34.949  32.492  32.473  1.00  0.00    -0.206 F 
ATOM     74  C   UNL A   1      34.171  33.917  30.777  1.00  0.00     0.059 A 
ATOM     75  C   UNL A   1      35.743  34.866  29.188  1.00  0.00     0.059 A 
ATOM     76  F   UNL A   1      38.020  34.329  29.346  1.00  0.00    -0.206 F 
ATOM     77  C   UNL A   1      34.441  34.717  29.665  1.00  0.00     0.060 A 
BRANCH  77  78
ATOM     78  S   UNL A   1      33.076  35.590  28.868  1.00  0.00     0.124 S 
ATOM     79  O   UNL A   1      33.786  36.618  28.115  1.00  0.00    -0.237 OA
ATOM     80  O   UNL A   1      32.453  34.535  28.075  1.00  0.00    -0.237 OA
ATOM     81  O   UNL A   1      32.281  36.070  29.995  1.00  0.00    -0.744 OA
ENDBRANCH  77  78
ENDBRANCH  45  70
BRANCH  57  82
ATOM     82  C   UNL A   1      39.928  34.347  36.971  1.00  0.00     0.058 A 
ATOM     83  C   UNL A   1      40.606  35.573  36.890  1.00  0.00     0.135 A 
ATOM     84  C   UNL A   1      39.081  34.136  38.072  1.00  0.00     0.135 A 
ATOM     85  F   UNL A   1      41.431  35.821  35.860  1.00  0.00    -0.206 F 
ATOM     86  C   UNL A   1      40.466  36.546  37.873  1.00  0.00     0.059 A 
ATOM     87  C   UNL A   1      38.908  35.105  39.054  1.00  0.00     0.059 A 
ATOM     88  F   UNL A   1      38.402  32.984  38.191  1.00  0.00    -0.206 F 
ATOM     89  C   UNL A   1      39.612  36.303  38.953  1.00  0.00     0.060 A 
BRANCH  89  90
ATOM     90  S   UNL A   1      39.409  37.589  40.204  1.00  0.00     0.124 S 
ATOM     91  O   UNL A   1      38.323  38.381  39.638  1.00  0.00    -0.237 OA
ATOM     92  O   UNL A   1      39.076  36.816  41.398  1.00  0.00    -0.237 OA
ATOM     93  O   UNL A   1      40.714  38.242  40.234  1.00  0.00    -0.744 OA
ENDBRANCH  89  90
ENDBRANCH  57  82
ENDBRANCH  31  32
ENDBRANCH  24  26
ENDBRANCH  23  24
ENDBRANCH  22  23
ENDBRANCH   1  22
TORSDOF 18
ENDMDL
