MODEL 1
REMARK VINA RESULT:     -10.8      0.000      0.000
REMARK SMILES [NH3+][C@H]1CCCC[C@@H]1C(=O)N1CC(C(=O)OCCOC(=O)c2ccc(-c3c4nc(c(-c5c(F)cc(S(=O)(=O)[O-])cc5F)c5ccc([nH]5)c(-c5c(F)cc(S(=O)(=O)[O-])cc5F)c5nc(c(-c6c(F)cc(S(=O)(=O)[O-])cc6F)c6ccc3[nH]6)C=C5)C=C4)cc2)C1
REMARK SMILES IDX 17 1 16 2 15 3 13 4 14 5 12 6 8 7 9 8 10 9 11 10 87 11 7 12
REMARK SMILES IDX 2 13 3 14 4 15 6 16 5 17 1 18 18 22 19 23 20 24 21 25 22 26
REMARK SMILES IDX 86 27 23 28 85 29 24 30 25 31 26 32 79 33 27 34 84 35 78 36
REMARK SMILES IDX 80 37 28 38 83 39 77 40 76 41 29 43 63 44 42 45 62 46 43 47
REMARK SMILES IDX 46 48 61 49 81 50 44 51 45 52 60 54 82 55 47 56 30 57 31 58
REMARK SMILES IDX 40 59 32 60 33 61 39 62 41 63 34 64 35 65 36 66 37 67 38 68
REMARK SMILES IDX 64 69 65 70 74 71 66 72 67 73 73 74 75 75 68 76 69 77 70 78
REMARK SMILES IDX 71 79 72 80 48 81 49 82 58 83 50 84 51 85 57 86 59 87 52 88
REMARK SMILES IDX 53 89 54 90 55 91 56 92
REMARK H PARENT 1 19 1 20 1 21 80 42 46 53
REMARK Flexibility Score: inf
ROOT
ATOM      1  C   UNL A   1      32.324  28.554  27.288  1.00  0.00     0.275 C 
ENDROOT
BRANCH   1   2
ATOM      2  C   UNL A   1      31.995  27.508  26.217  1.00  0.00     0.274 C 
BRANCH   2   3
ATOM      3  O   UNL A   1      31.463  26.307  26.812  1.00  0.00    -0.462 OA
BRANCH   3   4
ATOM      4  C   UNL A   1      30.666  25.537  26.012  1.00  0.00     0.312 C 
ATOM      5  O   UNL A   1      29.617  25.947  25.518  1.00  0.00    -0.252 OA
BRANCH   4   6
ATOM      6  C   UNL A   1      31.243  24.144  25.742  1.00  0.00     0.138 C 
ATOM      7  C   UNL A   1      33.831  22.017  26.198  1.00  0.00     0.231 C 
ATOM      8  O   UNL A   1      33.667  21.092  26.998  1.00  0.00    -0.274 OA
ATOM      9  N   UNL A   1      32.835  22.903  25.932  1.00  0.00    -0.340 N 
ATOM     10  C   UNL A   1      31.905  23.429  26.918  1.00  0.00     0.136 C 
ATOM     11  C   UNL A   1      32.554  23.951  24.973  1.00  0.00     0.136 C 
BRANCH   7  12
ATOM     12  C   UNL A   1      35.201  22.249  25.587  1.00  0.00     0.136 C 
ATOM     13  C   UNL A   1      36.032  20.949  25.554  1.00  0.00     0.193 C 
ATOM     14  C   UNL A   1      37.350  21.174  24.808  1.00  0.00     0.066 C 
ATOM     15  C   UNL A   1      38.132  22.338  25.415  1.00  0.00     0.006 C 
ATOM     16  C   UNL A   1      35.981  23.403  26.219  1.00  0.00     0.020 C 
ATOM     17  C   UNL A   1      37.301  23.618  25.476  1.00  0.00     0.001 C 
BRANCH  13  18
ATOM     18  N   UNL A   1      35.302  19.829  24.960  1.00  0.00    -0.354 N 
ATOM     19  H   UNL A   1      34.392  19.738  25.413  1.00  0.00     0.344 HD
ATOM     20  H   UNL A   1      35.834  18.968  25.090  1.00  0.00     0.344 HD
ATOM     21  H   UNL A   1      35.170  19.999  23.963  1.00  0.00     0.344 HD
ENDBRANCH  13  18
ENDBRANCH   7  12
ENDBRANCH   4   6
ENDBRANCH   3   4
ENDBRANCH   2   3
ENDBRANCH   1   2
BRANCH   1  22
ATOM     22  O   UNL A   1      33.736  28.625  27.572  1.00  0.00    -0.458 OA
BRANCH  22  23
ATOM     23  C   UNL A   1      34.220  29.881  27.713  1.00  0.00     0.338 C 
ATOM     24  O   UNL A   1      33.595  30.924  27.609  1.00  0.00    -0.246 OA
BRANCH  23  25
ATOM     25  C   UNL A   1      35.624  29.850  28.147  1.00  0.00     0.060 A 
ATOM     26  C   UNL A   1      36.598  30.129  27.191  1.00  0.00     0.016 A 
ATOM     27  C   UNL A   1      35.994  29.397  29.412  1.00  0.00     0.016 A 
ATOM     28  C   UNL A   1      37.936  29.875  27.448  1.00  0.00     0.010 A 
ATOM     29  C   UNL A   1      37.353  29.200  29.697  1.00  0.00     0.010 A 
ATOM     30  C   UNL A   1      38.330  29.407  28.705  1.00  0.00    -0.014 A 
BRANCH  30  31
ATOM     31  C   UNL A   1      39.762  29.090  28.929  1.00  0.00     0.031 A 
ATOM     32  C   UNL A   1      40.660  30.102  29.586  1.00  0.00     0.074 A 
ATOM     33  C   UNL A   1      40.229  27.863  28.623  1.00  0.00     0.049 A 
ATOM     34  N   UNL A   1      41.948  30.046  29.797  1.00  0.00    -0.248 NA
ATOM     35  C   UNL A   1      40.025  31.339  30.068  1.00  0.00     0.031 C 
ATOM     36  C   UNL A   1      39.433  26.772  28.054  1.00  0.00     0.029 A 
ATOM     37  N   UNL A   1      41.480  27.320  28.768  1.00  0.00    -0.354 N 
ATOM     38  C   UNL A   1      42.286  31.248  30.408  1.00  0.00     0.074 A 
ATOM     39  C   UNL A   1      41.067  32.020  30.525  1.00  0.00     0.031 C 
ATOM     40  C   UNL A   1      40.208  25.683  27.927  1.00  0.00     0.029 A 
ATOM     41  C   UNL A   1      41.566  26.016  28.342  1.00  0.00     0.049 A 
ATOM     42  H   UNL A   1      42.243  27.817  29.142  1.00  0.00     0.167 HD
ATOM     43  C   UNL A   1      43.502  31.666  30.835  1.00  0.00     0.037 A 
ATOM     44  C   UNL A   1      42.628  25.190  28.266  1.00  0.00     0.037 A 
ATOM     45  C   UNL A   1      44.702  30.877  30.743  1.00  0.00     0.049 A 
ATOM     46  C   UNL A   1      43.975  25.697  28.701  1.00  0.00     0.074 A 
ATOM     47  C   UNL A   1      45.992  31.222  31.108  1.00  0.00     0.029 A 
ATOM     48  N   UNL A   1      44.757  29.575  30.267  1.00  0.00    -0.354 N 
ATOM     49  N   UNL A   1      44.292  26.867  29.203  1.00  0.00    -0.248 NA
ATOM     50  C   UNL A   1      45.110  24.779  28.545  1.00  0.00     0.031 C 
ATOM     51  C   UNL A   1      46.831  30.134  30.834  1.00  0.00     0.029 A 
ATOM     52  C   UNL A   1      46.057  29.101  30.330  1.00  0.00     0.049 A 
ATOM     53  H   UNL A   1      43.986  29.062  29.935  1.00  0.00     0.167 HD
ATOM     54  C   UNL A   1      45.660  26.818  29.438  1.00  0.00     0.074 A 
ATOM     55  C   UNL A   1      46.108  25.500  29.037  1.00  0.00     0.031 C 
ATOM     56  C   UNL A   1      46.475  27.780  29.936  1.00  0.00     0.037 A 
BRANCH  43  57
ATOM     57  C   UNL A   1      43.598  33.050  31.410  1.00  0.00     0.058 A 
ATOM     58  C   UNL A   1      43.716  34.184  30.592  1.00  0.00     0.135 A 
ATOM     59  C   UNL A   1      43.545  33.245  32.800  1.00  0.00     0.135 A 
ATOM     60  F   UNL A   1      43.792  34.051  29.259  1.00  0.00    -0.206 F 
ATOM     61  C   UNL A   1      43.800  35.464  31.134  1.00  0.00     0.059 A 
ATOM     62  C   UNL A   1      43.607  34.518  33.362  1.00  0.00     0.059 A 
ATOM     63  F   UNL A   1      43.437  32.194  33.627  1.00  0.00    -0.206 F 
ATOM     64  C   UNL A   1      43.748  35.620  32.520  1.00  0.00     0.060 A 
BRANCH  64  65
ATOM     65  S   UNL A   1      43.857  37.285  33.212  1.00  0.00     0.124 S 
ATOM     66  O   UNL A   1      42.657  37.332  34.041  1.00  0.00    -0.237 OA
ATOM     67  O   UNL A   1      45.125  37.244  33.935  1.00  0.00    -0.237 OA
ATOM     68  O   UNL A   1      43.839  38.144  32.032  1.00  0.00    -0.744 OA
ENDBRANCH  64  65
ENDBRANCH  43  57
BRANCH  44  69
ATOM     69  C   UNL A   1      42.467  23.816  27.724  1.00  0.00     0.058 A 
ATOM     70  C   UNL A   1      42.372  22.707  28.577  1.00  0.00     0.135 A 
ATOM     71  C   UNL A   1      42.415  23.584  26.340  1.00  0.00     0.135 A 
ATOM     72  F   UNL A   1      42.427  22.877  29.907  1.00  0.00    -0.206 F 
ATOM     73  C   UNL A   1      42.248  21.413  28.078  1.00  0.00     0.059 A 
ATOM     74  C   UNL A   1      42.266  22.304  25.819  1.00  0.00     0.059 A 
ATOM     75  F   UNL A   1      42.488  24.614  25.483  1.00  0.00    -0.206 F 
ATOM     76  C   UNL A   1      42.199  21.222  26.696  1.00  0.00     0.060 A 
BRANCH  76  77
ATOM     77  S   UNL A   1      42.010  19.546  26.051  1.00  0.00     0.124 S 
ATOM     78  O   UNL A   1      40.570  19.483  25.823  1.00  0.00    -0.237 OA
ATOM     79  O   UNL A   1      42.846  19.576  24.855  1.00  0.00    -0.237 OA
ATOM     80  O   UNL A   1      42.515  18.713  27.139  1.00  0.00    -0.744 OA
ENDBRANCH  76  77
ENDBRANCH  44  69
BRANCH  56  81
ATOM     81  C   UNL A   1      47.924  27.425  30.106  1.00  0.00     0.058 A 
ATOM     82  C   UNL A   1      48.861  27.665  29.091  1.00  0.00     0.135 A 
ATOM     83  C   UNL A   1      48.382  26.871  31.311  1.00  0.00     0.135 A 
ATOM     84  F   UNL A   1      48.470  28.188  27.918  1.00  0.00    -0.206 F 
ATOM     85  C   UNL A   1      50.205  27.345  29.256  1.00  0.00     0.059 A 
ATOM     86  C   UNL A   1      49.723  26.562  31.505  1.00  0.00     0.059 A 
ATOM     87  F   UNL A   1      47.523  26.631  32.314  1.00  0.00    -0.206 F 
ATOM     88  C   UNL A   1      50.625  26.791  30.467  1.00  0.00     0.060 A 
BRANCH  88  89
ATOM     89  S   UNL A   1      52.376  26.404  30.683  1.00  0.00     0.124 S 
ATOM     90  O   UNL A   1      52.309  25.194  31.497  1.00  0.00    -0.237 OA
ATOM     91  O   UNL A   1      52.832  26.219  29.310  1.00  0.00    -0.237 OA
ATOM     92  O   UNL A   1      52.903  27.587  31.357  1.00  0.00    -0.744 OA
ENDBRANCH  88  89
ENDBRANCH  56  81
ENDBRANCH  30  31
ENDBRANCH  23  25
ENDBRANCH  22  23
ENDBRANCH   1  22
TORSDOF 16
ENDMDL
MODEL 2
REMARK VINA RESULT:     -10.5      4.897     10.671
REMARK SMILES [NH3+][C@H]1CCCC[C@@H]1C(=O)N1CC(C(=O)OCCOC(=O)c2ccc(-c3c4nc(c(-c5c(F)cc(S(=O)(=O)[O-])cc5F)c5ccc([nH]5)c(-c5c(F)cc(S(=O)(=O)[O-])cc5F)c5nc(c(-c6c(F)cc(S(=O)(=O)[O-])cc6F)c6ccc3[nH]6)C=C5)C=C4)cc2)C1
REMARK SMILES IDX 17 1 16 2 15 3 13 4 14 5 12 6 8 7 9 8 10 9 11 10 87 11 7 12
REMARK SMILES IDX 2 13 3 14 4 15 6 16 5 17 1 18 18 22 19 23 20 24 21 25 22 26
REMARK SMILES IDX 86 27 23 28 85 29 24 30 25 31 26 32 79 33 27 34 84 35 78 36
REMARK SMILES IDX 80 37 28 38 83 39 77 40 76 41 29 43 63 44 42 45 62 46 43 47
REMARK SMILES IDX 46 48 61 49 81 50 44 51 45 52 60 54 82 55 47 56 30 57 31 58
REMARK SMILES IDX 40 59 32 60 33 61 39 62 41 63 34 64 35 65 36 66 37 67 38 68
REMARK SMILES IDX 64 69 65 70 74 71 66 72 67 73 73 74 75 75 68 76 69 77 70 78
REMARK SMILES IDX 71 79 72 80 48 81 49 82 58 83 50 84 51 85 57 86 59 87 52 88
REMARK SMILES IDX 53 89 54 90 55 91 56 92
REMARK H PARENT 1 19 1 20 1 21 80 42 46 53
REMARK Flexibility Score: inf
ROOT
ATOM      1  C   UNL A   1      39.557  22.714  26.765  1.00  0.00     0.275 C 
ENDROOT
BRANCH   1   2
ATOM      2  C   UNL A   1      38.738  21.874  25.778  1.00  0.00     0.274 C 
BRANCH   2   3
ATOM      3  O   UNL A   1      37.362  22.305  25.748  1.00  0.00    -0.462 OA
BRANCH   3   4
ATOM      4  C   UNL A   1      36.437  21.354  25.421  1.00  0.00     0.312 C 
ATOM      5  O   UNL A   1      36.743  20.231  25.023  1.00  0.00    -0.252 OA
BRANCH   4   6
ATOM      6  C   UNL A   1      34.993  21.803  25.664  1.00  0.00     0.138 C 
ATOM      7  C   UNL A   1      32.696  24.258  25.299  1.00  0.00     0.231 C 
ATOM      8  O   UNL A   1      31.823  24.090  24.443  1.00  0.00    -0.274 OA
ATOM      9  N   UNL A   1      33.642  23.311  25.533  1.00  0.00    -0.340 N 
ATOM     10  C   UNL A   1      34.283  22.504  24.507  1.00  0.00     0.136 C 
ATOM     11  C   UNL A   1      34.665  23.031  26.520  1.00  0.00     0.136 C 
BRANCH   7  12
ATOM     12  C   UNL A   1      32.794  25.587  26.024  1.00  0.00     0.136 C 
ATOM     13  C   UNL A   1      31.420  26.286  26.111  1.00  0.00     0.193 C 
ATOM     14  C   UNL A   1      31.516  27.552  26.966  1.00  0.00     0.066 C 
ATOM     15  C   UNL A   1      32.602  28.489  26.439  1.00  0.00     0.006 C 
ATOM     16  C   UNL A   1      33.870  26.523  25.472  1.00  0.00     0.020 C 
ATOM     17  C   UNL A   1      33.956  27.791  26.324  1.00  0.00     0.001 C 
BRANCH  13  18
ATOM     18  N   UNL A   1      30.373  25.405  26.629  1.00  0.00    -0.354 N 
ATOM     19  H   UNL A   1      29.476  25.892  26.607  1.00  0.00     0.344 HD
ATOM     20  H   UNL A   1      30.594  25.143  27.590  1.00  0.00     0.344 HD
ATOM     21  H   UNL A   1      30.318  24.565  26.053  1.00  0.00     0.344 HD
ENDBRANCH  13  18
ENDBRANCH   7  12
ENDBRANCH   4   6
ENDBRANCH   3   4
ENDBRANCH   2   3
ENDBRANCH   1   2
BRANCH   1  22
ATOM     22  O   UNL A   1      39.167  24.101  26.760  1.00  0.00    -0.458 OA
BRANCH  22  23
ATOM     23  C   UNL A   1      40.187  24.972  26.575  1.00  0.00     0.338 C 
ATOM     24  O   UNL A   1      40.820  25.153  25.548  1.00  0.00    -0.246 OA
BRANCH  23  25
ATOM     25  C   UNL A   1      40.382  25.805  27.771  1.00  0.00     0.060 A 
ATOM     26  C   UNL A   1      39.387  25.772  28.746  1.00  0.00     0.016 A 
ATOM     27  C   UNL A   1      41.426  26.724  27.866  1.00  0.00     0.016 A 
ATOM     28  C   UNL A   1      39.369  26.706  29.770  1.00  0.00     0.010 A 
ATOM     29  C   UNL A   1      41.444  27.628  28.937  1.00  0.00     0.010 A 
ATOM     30  C   UNL A   1      40.398  27.646  29.878  1.00  0.00    -0.014 A 
BRANCH  30  31
ATOM     31  C   UNL A   1      40.317  28.668  30.951  1.00  0.00     0.031 A 
ATOM     32  C   UNL A   1      41.296  28.635  32.092  1.00  0.00     0.074 A 
ATOM     33  C   UNL A   1      39.423  29.672  30.851  1.00  0.00     0.049 A 
ATOM     34  N   UNL A   1      41.342  29.386  33.161  1.00  0.00    -0.248 NA
ATOM     35  C   UNL A   1      42.364  27.624  32.022  1.00  0.00     0.031 C 
ATOM     36  C   UNL A   1      38.474  29.852  29.749  1.00  0.00     0.029 A 
ATOM     37  N   UNL A   1      39.182  30.740  31.674  1.00  0.00    -0.354 N 
ATOM     38  C   UNL A   1      42.420  28.924  33.905  1.00  0.00     0.074 A 
ATOM     39  C   UNL A   1      42.998  27.818  33.170  1.00  0.00     0.031 C 
ATOM     40  C   UNL A   1      37.775  30.981  29.951  1.00  0.00     0.029 A 
ATOM     41  C   UNL A   1      38.179  31.566  31.225  1.00  0.00     0.049 A 
ATOM     42  H   UNL A   1      39.679  30.901  32.508  1.00  0.00     0.167 HD
ATOM     43  C   UNL A   1      42.887  29.383  35.091  1.00  0.00     0.037 A 
ATOM     44  C   UNL A   1      37.625  32.656  31.790  1.00  0.00     0.037 A 
ATOM     45  C   UNL A   1      42.325  30.505  35.797  1.00  0.00     0.049 A 
ATOM     46  C   UNL A   1      38.130  33.115  33.130  1.00  0.00     0.074 A 
ATOM     47  C   UNL A   1      42.697  31.026  37.025  1.00  0.00     0.029 A 
ATOM     48  N   UNL A   1      41.283  31.291  35.329  1.00  0.00    -0.354 N 
ATOM     49  N   UNL A   1      39.100  32.617  33.859  1.00  0.00    -0.248 NA
ATOM     50  C   UNL A   1      37.456  34.273  33.730  1.00  0.00     0.031 C 
ATOM     51  C   UNL A   1      41.865  32.116  37.307  1.00  0.00     0.029 A 
ATOM     52  C   UNL A   1      40.998  32.294  36.241  1.00  0.00     0.049 A 
ATOM     53  H   UNL A   1      40.815  31.157  34.473  1.00  0.00     0.167 HD
ATOM     54  C   UNL A   1      39.163  33.412  34.996  1.00  0.00     0.074 A 
ATOM     55  C   UNL A   1      38.144  34.431  34.853  1.00  0.00     0.031 C 
ATOM     56  C   UNL A   1      39.986  33.305  36.068  1.00  0.00     0.037 A 
BRANCH  43  57
ATOM     57  C   UNL A   1      44.043  28.653  35.712  1.00  0.00     0.058 A 
ATOM     58  C   UNL A   1      43.850  27.574  36.590  1.00  0.00     0.135 A 
ATOM     59  C   UNL A   1      45.363  29.021  35.406  1.00  0.00     0.135 A 
ATOM     60  F   UNL A   1      42.609  27.195  36.932  1.00  0.00    -0.206 F 
ATOM     61  C   UNL A   1      44.927  26.900  37.158  1.00  0.00     0.059 A 
ATOM     62  C   UNL A   1      46.454  28.347  35.947  1.00  0.00     0.059 A 
ATOM     63  F   UNL A   1      45.602  30.048  34.576  1.00  0.00    -0.206 F 
ATOM     64  C   UNL A   1      46.225  27.296  36.833  1.00  0.00     0.060 A 
BRANCH  64  65
ATOM     65  S   UNL A   1      47.615  26.413  37.576  1.00  0.00     0.124 S 
ATOM     66  O   UNL A   1      48.738  26.943  36.807  1.00  0.00    -0.237 OA
ATOM     67  O   UNL A   1      47.548  26.836  38.972  1.00  0.00    -0.237 OA
ATOM     68  O   UNL A   1      47.295  25.010  37.333  1.00  0.00    -0.744 OA
ENDBRANCH  64  65
ENDBRANCH  43  57
BRANCH  44  69
ATOM     69  C   UNL A   1      36.509  33.364  31.111  1.00  0.00     0.058 A 
ATOM     70  C   UNL A   1      36.729  34.122  29.952  1.00  0.00     0.135 A 
ATOM     71  C   UNL A   1      35.200  33.304  31.614  1.00  0.00     0.135 A 
ATOM     72  F   UNL A   1      37.966  34.217  29.438  1.00  0.00    -0.206 F 
ATOM     73  C   UNL A   1      35.696  34.810  29.323  1.00  0.00     0.059 A 
ATOM     74  C   UNL A   1      34.146  33.962  30.990  1.00  0.00     0.059 A 
ATOM     75  F   UNL A   1      34.935  32.581  32.713  1.00  0.00    -0.206 F 
ATOM     76  C   UNL A   1      34.406  34.725  29.853  1.00  0.00     0.060 A 
BRANCH  76  77
ATOM     77  S   UNL A   1      33.060  35.596  29.021  1.00  0.00     0.124 S 
ATOM     78  O   UNL A   1      32.230  35.995  30.152  1.00  0.00    -0.237 OA
ATOM     79  O   UNL A   1      33.763  36.673  28.332  1.00  0.00    -0.237 OA
ATOM     80  O   UNL A   1      32.491  34.571  28.150  1.00  0.00    -0.744 OA
ENDBRANCH  76  77
ENDBRANCH  44  69
BRANCH  56  81
ATOM     81  C   UNL A   1      39.839  34.337  37.147  1.00  0.00     0.058 A 
ATOM     82  C   UNL A   1      40.482  35.582  37.064  1.00  0.00     0.135 A 
ATOM     83  C   UNL A   1      39.019  34.090  38.259  1.00  0.00     0.135 A 
ATOM     84  F   UNL A   1      41.282  35.861  36.023  1.00  0.00    -0.206 F 
ATOM     85  C   UNL A   1      40.334  36.541  38.061  1.00  0.00     0.059 A 
ATOM     86  C   UNL A   1      38.840  35.042  39.256  1.00  0.00     0.059 A 
ATOM     87  F   UNL A   1      38.377  32.917  38.378  1.00  0.00    -0.206 F 
ATOM     88  C   UNL A   1      39.513  36.260  39.155  1.00  0.00     0.060 A 
BRANCH  88  89
ATOM     89  S   UNL A   1      39.304  37.521  40.430  1.00  0.00     0.124 S 
ATOM     90  O   UNL A   1      40.620  38.152  40.436  1.00  0.00    -0.237 OA
ATOM     91  O   UNL A   1      38.215  38.333  39.899  1.00  0.00    -0.237 OA
ATOM     92  O   UNL A   1      38.974  36.744  41.621  1.00  0.00    -0.744 OA
ENDBRANCH  88  89
ENDBRANCH  56  81
ENDBRANCH  30  31
ENDBRANCH  23  25
ENDBRANCH  22  23
ENDBRANCH   1  22
TORSDOF 16
ENDMDL
MODEL 3
REMARK VINA RESULT:     -10.5      3.149      5.648
REMARK SMILES [NH3+][C@H]1CCCC[C@@H]1C(=O)N1CC(C(=O)OCCOC(=O)c2ccc(-c3c4nc(c(-c5c(F)cc(S(=O)(=O)[O-])cc5F)c5ccc([nH]5)c(-c5c(F)cc(S(=O)(=O)[O-])cc5F)c5nc(c(-c6c(F)cc(S(=O)(=O)[O-])cc6F)c6ccc3[nH]6)C=C5)C=C4)cc2)C1
REMARK SMILES IDX 17 1 16 2 15 3 13 4 14 5 12 6 8 7 9 8 10 9 11 10 87 11 7 12
REMARK SMILES IDX 2 13 3 14 4 15 6 16 5 17 1 18 18 22 19 23 20 24 21 25 22 26
REMARK SMILES IDX 86 27 23 28 85 29 24 30 25 31 26 32 79 33 27 34 84 35 78 36
REMARK SMILES IDX 80 37 28 38 83 39 77 40 76 41 29 43 63 44 42 45 62 46 43 47
REMARK SMILES IDX 46 48 61 49 81 50 44 51 45 52 60 54 82 55 47 56 30 57 31 58
REMARK SMILES IDX 40 59 32 60 33 61 39 62 41 63 34 64 35 65 36 66 37 67 38 68
REMARK SMILES IDX 64 69 65 70 74 71 66 72 67 73 73 74 75 75 68 76 69 77 70 78
REMARK SMILES IDX 71 79 72 80 48 81 49 82 58 83 50 84 51 85 57 86 59 87 52 88
REMARK SMILES IDX 53 89 54 90 55 91 56 92
REMARK H PARENT 1 19 1 20 1 21 80 42 46 53
REMARK Flexibility Score: inf
ROOT
ATOM      1  C   UNL A   1      34.407  33.150  28.520  1.00  0.00     0.275 C 
ENDROOT
BRANCH   1   2
ATOM      2  C   UNL A   1      33.876  34.288  29.399  1.00  0.00     0.274 C 
BRANCH   2   3
ATOM      3  O   UNL A   1      34.675  34.439  30.589  1.00  0.00    -0.462 OA
BRANCH   3   4
ATOM      4  C   UNL A   1      34.010  34.357  31.780  1.00  0.00     0.312 C 
ATOM      5  O   UNL A   1      33.034  35.056  32.052  1.00  0.00    -0.252 OA
BRANCH   4   6
ATOM      6  C   UNL A   1      34.557  33.269  32.708  1.00  0.00     0.138 C 
ATOM      7  C   UNL A   1      37.183  32.160  34.526  1.00  0.00     0.231 C 
ATOM      8  O   UNL A   1      37.106  32.269  35.753  1.00  0.00    -0.274 OA
ATOM      9  N   UNL A   1      36.163  32.554  33.719  1.00  0.00    -0.340 N 
ATOM     10  C   UNL A   1      35.341  33.734  33.933  1.00  0.00     0.136 C 
ATOM     11  C   UNL A   1      35.780  32.427  32.328  1.00  0.00     0.136 C 
BRANCH   7  12
ATOM     12  C   UNL A   1      38.481  31.692  33.893  1.00  0.00     0.136 C 
ATOM     13  C   UNL A   1      38.644  30.161  34.003  1.00  0.00     0.193 C 
ATOM     14  C   UNL A   1      39.885  29.698  33.236  1.00  0.00     0.066 C 
ATOM     15  C   UNL A   1      41.132  30.441  33.711  1.00  0.00     0.006 C 
ATOM     16  C   UNL A   1      39.723  32.430  34.394  1.00  0.00     0.020 C 
ATOM     17  C   UNL A   1      40.962  31.957  33.631  1.00  0.00     0.001 C 
BRANCH  13  18
ATOM     18  N   UNL A   1      37.462  29.435  33.537  1.00  0.00    -0.354 N 
ATOM     19  H   UNL A   1      37.524  28.460  33.831  1.00  0.00     0.344 HD
ATOM     20  H   UNL A   1      37.415  29.481  32.519  1.00  0.00     0.344 HD
ATOM     21  H   UNL A   1      36.623  29.858  33.935  1.00  0.00     0.344 HD
ENDBRANCH  13  18
ENDBRANCH   7  12
ENDBRANCH   4   6
ENDBRANCH   3   4
ENDBRANCH   2   3
ENDBRANCH   1   2
BRANCH   1  22
ATOM     22  O   UNL A   1      34.452  31.891  29.220  1.00  0.00    -0.458 OA
BRANCH  22  23
ATOM     23  C   UNL A   1      34.503  30.802  28.417  1.00  0.00     0.338 C 
ATOM     24  O   UNL A   1      33.622  30.393  27.679  1.00  0.00    -0.246 OA
BRANCH  23  25
ATOM     25  C   UNL A   1      35.845  30.202  28.440  1.00  0.00     0.060 A 
ATOM     26  C   UNL A   1      36.384  29.881  29.684  1.00  0.00     0.016 A 
ATOM     27  C   UNL A   1      36.630  30.108  27.292  1.00  0.00     0.016 A 
ATOM     28  C   UNL A   1      37.725  29.553  29.811  1.00  0.00     0.010 A 
ATOM     29  C   UNL A   1      37.970  29.715  27.410  1.00  0.00     0.010 A 
ATOM     30  C   UNL A   1      38.535  29.467  28.675  1.00  0.00    -0.014 A 
BRANCH  30  31
ATOM     31  C   UNL A   1      39.978  29.172  28.852  1.00  0.00     0.031 A 
ATOM     32  C   UNL A   1      40.888  30.210  29.447  1.00  0.00     0.074 A 
ATOM     33  C   UNL A   1      40.448  27.943  28.559  1.00  0.00     0.049 A 
ATOM     34  N   UNL A   1      42.185  30.174  29.610  1.00  0.00    -0.248 NA
ATOM     35  C   UNL A   1      40.258  31.452  29.922  1.00  0.00     0.031 C 
ATOM     36  C   UNL A   1      39.644  26.829  28.049  1.00  0.00     0.029 A 
ATOM     37  N   UNL A   1      41.709  27.418  28.669  1.00  0.00    -0.354 N 
ATOM     38  C   UNL A   1      42.531  31.395  30.177  1.00  0.00     0.074 A 
ATOM     39  C   UNL A   1      41.308  32.156  30.322  1.00  0.00     0.031 C 
ATOM     40  C   UNL A   1      40.426  25.745  27.919  1.00  0.00     0.029 A 
ATOM     41  C   UNL A   1      41.795  26.104  28.273  1.00  0.00     0.049 A 
ATOM     42  H   UNL A   1      42.480  27.932  29.001  1.00  0.00     0.167 HD
ATOM     43  C   UNL A   1      43.757  31.837  30.546  1.00  0.00     0.037 A 
ATOM     44  C   UNL A   1      42.862  25.288  28.177  1.00  0.00     0.037 A 
ATOM     45  C   UNL A   1      44.963  31.059  30.428  1.00  0.00     0.049 A 
ATOM     46  C   UNL A   1      44.219  25.821  28.547  1.00  0.00     0.074 A 
ATOM     47  C   UNL A   1      46.261  31.427  30.734  1.00  0.00     0.029 A 
ATOM     48  N   UNL A   1      45.015  29.746  29.984  1.00  0.00    -0.354 N 
ATOM     49  N   UNL A   1      44.541  27.006  29.007  1.00  0.00    -0.248 NA
ATOM     50  C   UNL A   1      45.359  24.911  28.371  1.00  0.00     0.031 C 
ATOM     51  C   UNL A   1      47.102  30.342  30.456  1.00  0.00     0.029 A 
ATOM     52  C   UNL A   1      46.322  29.288  30.008  1.00  0.00     0.049 A 
ATOM     53  H   UNL A   1      44.237  29.216  29.695  1.00  0.00     0.167 HD
ATOM     54  C   UNL A   1      45.918  26.979  29.190  1.00  0.00     0.074 A 
ATOM     55  C   UNL A   1      46.366  25.656  28.806  1.00  0.00     0.031 C 
ATOM     56  C   UNL A   1      46.740  27.962  29.632  1.00  0.00     0.037 A 
BRANCH  43  57
ATOM     57  C   UNL A   1      43.858  33.236  31.083  1.00  0.00     0.058 A 
ATOM     58  C   UNL A   1      43.814  34.357  30.238  1.00  0.00     0.135 A 
ATOM     59  C   UNL A   1      43.976  33.460  32.464  1.00  0.00     0.135 A 
ATOM     60  F   UNL A   1      43.724  34.198  28.909  1.00  0.00    -0.206 F 
ATOM     61  C   UNL A   1      43.905  35.650  30.744  1.00  0.00     0.059 A 
ATOM     62  C   UNL A   1      44.048  34.745  32.993  1.00  0.00     0.059 A 
ATOM     63  F   UNL A   1      44.028  32.422  33.314  1.00  0.00    -0.206 F 
ATOM     64  C   UNL A   1      44.024  35.834  32.123  1.00  0.00     0.060 A 
BRANCH  64  65
ATOM     65  S   UNL A   1      44.140  37.517  32.769  1.00  0.00     0.124 S 
ATOM     66  O   UNL A   1      43.886  38.306  31.567  1.00  0.00    -0.237 OA
ATOM     67  O   UNL A   1      43.085  37.541  33.777  1.00  0.00    -0.237 OA
ATOM     68  O   UNL A   1      45.502  37.588  33.289  1.00  0.00    -0.744 OA
ENDBRANCH  64  65
ENDBRANCH  43  57
BRANCH  44  69
ATOM     69  C   UNL A   1      42.698  23.899  27.677  1.00  0.00     0.058 A 
ATOM     70  C   UNL A   1      42.668  23.622  26.302  1.00  0.00     0.135 A 
ATOM     71  C   UNL A   1      42.559  22.820  28.564  1.00  0.00     0.135 A 
ATOM     72  F   UNL A   1      42.787  24.622  25.414  1.00  0.00    -0.206 F 
ATOM     73  C   UNL A   1      42.489  22.328  25.823  1.00  0.00     0.059 A 
ATOM     74  C   UNL A   1      42.404  21.515  28.110  1.00  0.00     0.059 A 
ATOM     75  F   UNL A   1      42.595  23.031  29.889  1.00  0.00    -0.206 F 
ATOM     76  C   UNL A   1      42.355  21.281  26.737  1.00  0.00     0.060 A 
BRANCH  76  77
ATOM     77  S   UNL A   1      42.150  19.598  26.115  1.00  0.00     0.124 S 
ATOM     78  O   UNL A   1      42.588  18.809  27.261  1.00  0.00    -0.237 OA
ATOM     79  O   UNL A   1      40.723  19.548  25.812  1.00  0.00    -0.237 OA
ATOM     80  O   UNL A   1      43.031  19.565  24.951  1.00  0.00    -0.744 OA
ENDBRANCH  76  77
ENDBRANCH  44  69
BRANCH  56  81
ATOM     81  C   UNL A   1      48.198  27.628  29.755  1.00  0.00     0.058 A 
ATOM     82  C   UNL A   1      48.737  27.126  30.948  1.00  0.00     0.135 A 
ATOM     83  C   UNL A   1      49.056  27.780  28.654  1.00  0.00     0.135 A 
ATOM     84  F   UNL A   1      47.957  26.969  32.030  1.00  0.00    -0.206 F 
ATOM     85  C   UNL A   1      50.087  26.807  31.055  1.00  0.00     0.059 A 
ATOM     86  C   UNL A   1      50.404  27.448  28.733  1.00  0.00     0.059 A 
ATOM     87  F   UNL A   1      48.584  28.249  27.489  1.00  0.00    -0.206 F 
ATOM     88  C   UNL A   1      50.913  26.974  29.941  1.00  0.00     0.060 A 
BRANCH  88  89
ATOM     89  S   UNL A   1      52.658  26.532  30.080  1.00  0.00     0.124 S 
ATOM     90  O   UNL A   1      52.610  25.455  31.064  1.00  0.00    -0.237 OA
ATOM     91  O   UNL A   1      52.992  26.130  28.718  1.00  0.00    -0.237 OA
ATOM     92  O   UNL A   1      53.285  27.770  30.532  1.00  0.00    -0.744 OA
ENDBRANCH  88  89
ENDBRANCH  56  81
ENDBRANCH  30  31
ENDBRANCH  23  25
ENDBRANCH  22  23
ENDBRANCH   1  22
TORSDOF 16
ENDMDL
