MODEL 1
REMARK VINA RESULT:     -11.6      0.000      0.000
REMARK SMILES CC(C)(C)OC(=O)N1C[C@H](Oc2ccncc2)C[C@H]1C(=O)OCCOC(=O)c1ccc(-c2c3nc(c(-c4c(F)cc(S(=O)(=O)[O-])cc4F)c4ccc([nH]4)c(-c4c(F)cc(S(=O)(=O)[O-])cc4F)c4nc(c(-c5c(F)cc(S(=O)(=O)[O-])cc5F)c5ccc2[nH]5)C=C4)C=C3)cc1
REMARK SMILES IDX 23 1 22 2 20 3 21 4 19 5 8 6 9 7 10 8 18 9 6 10 7 11 5 12
REMARK SMILES IDX 2 13 1 14 3 15 4 16 11 17 12 18 13 19 17 20 14 21 16 22
REMARK SMILES IDX 15 23 24 24 25 25 26 26 27 27 28 28 29 29 93 30 30 31 92 32
REMARK SMILES IDX 31 33 32 34 33 35 86 36 34 37 91 38 85 39 87 40 35 41 90 42
REMARK SMILES IDX 84 43 83 44 36 46 70 47 49 48 69 49 50 50 53 51 68 52 88 53
REMARK SMILES IDX 51 54 52 55 67 57 89 58 54 59 37 60 38 61 47 62 39 63 40 64
REMARK SMILES IDX 46 65 48 66 41 67 42 68 43 69 44 70 45 71 71 72 72 73 81 74
REMARK SMILES IDX 73 75 74 76 80 77 82 78 75 79 76 80 77 81 78 82 79 83 55 84
REMARK SMILES IDX 56 85 65 86 57 87 58 88 64 89 66 90 59 91 60 92 61 93 62 94
REMARK SMILES IDX 63 95
REMARK H PARENT 87 45 53 56
REMARK Flexibility Score: inf
ROOT
ATOM      1  C   UNL A   1      37.512  22.690  25.533  1.00  0.00     0.274 C 
ENDROOT
BRANCH   1   2
ATOM      2  O   UNL A   1      36.353  23.341  26.088  1.00  0.00    -0.461 OA
BRANCH   2   3
ATOM      3  C   UNL A   1      35.254  23.400  25.290  1.00  0.00     0.329 C 
ATOM      4  O   UNL A   1      35.199  24.073  24.265  1.00  0.00    -0.250 OA
BRANCH   3   5
ATOM      5  C   UNL A   1      34.161  22.392  25.707  1.00  0.00     0.202 C 
ATOM      6  N   UNL A   1      32.773  22.845  25.615  1.00  0.00    -0.291 N 
ATOM      7  C   UNL A   1      32.060  22.152  24.555  1.00  0.00     0.169 C 
ATOM      8  C   UNL A   1      32.788  20.820  24.407  1.00  0.00     0.195 C 
ATOM      9  C   UNL A   1      34.226  21.123  24.822  1.00  0.00     0.084 C 
BRANCH   6  10
ATOM     10  C   UNL A   1      32.194  23.624  26.590  1.00  0.00     0.411 C 
ATOM     11  O   UNL A   1      31.459  23.198  27.460  1.00  0.00    -0.224 OA
BRANCH  10  12
ATOM     12  O   UNL A   1      32.515  24.935  26.428  1.00  0.00    -0.444 OA
BRANCH  12  13
ATOM     13  C   UNL A   1      31.629  25.867  25.757  1.00  0.00     0.106 C 
ATOM     14  C   UNL A   1      32.299  26.124  24.398  1.00  0.00     0.056 C 
ATOM     15  C   UNL A   1      31.591  27.167  26.559  1.00  0.00     0.056 C 
ATOM     16  C   UNL A   1      30.217  25.326  25.493  1.00  0.00     0.056 C 
ENDBRANCH  12  13
ENDBRANCH  10  12
ENDBRANCH   6  10
BRANCH   8  17
ATOM     17  O   UNL A   1      32.181  19.691  25.056  1.00  0.00    -0.488 OA
BRANCH  17  18
ATOM     18  C   UNL A   1      32.706  18.455  24.818  1.00  0.00     0.122 A 
ATOM     19  C   UNL A   1      32.665  17.473  25.797  1.00  0.00     0.066 A 
ATOM     20  C   UNL A   1      33.120  18.129  23.533  1.00  0.00     0.066 A 
ATOM     21  C   UNL A   1      33.128  16.212  25.471  1.00  0.00     0.115 A 
ATOM     22  C   UNL A   1      33.558  16.836  23.302  1.00  0.00     0.115 A 
ATOM     23  N   UNL A   1      33.584  15.872  24.248  1.00  0.00    -0.264 NA
ENDBRANCH  17  18
ENDBRANCH   8  17
ENDBRANCH   3   5
ENDBRANCH   2   3
ENDBRANCH   1   2
BRANCH   1  24
ATOM     24  C   UNL A   1      38.793  22.993  26.325  1.00  0.00     0.275 C 
BRANCH  24  25
ATOM     25  O   UNL A   1      39.127  24.397  26.311  1.00  0.00    -0.458 OA
BRANCH  25  26
ATOM     26  C   UNL A   1      40.422  24.676  26.593  1.00  0.00     0.338 C 
ATOM     27  O   UNL A   1      41.401  24.319  25.957  1.00  0.00    -0.246 OA
BRANCH  26  28
ATOM     28  C   UNL A   1      40.521  25.653  27.695  1.00  0.00     0.060 A 
ATOM     29  C   UNL A   1      39.508  25.616  28.656  1.00  0.00     0.016 A 
ATOM     30  C   UNL A   1      41.519  26.626  27.767  1.00  0.00     0.016 A 
ATOM     31  C   UNL A   1      39.492  26.525  29.707  1.00  0.00     0.010 A 
ATOM     32  C   UNL A   1      41.489  27.562  28.812  1.00  0.00     0.010 A 
ATOM     33  C   UNL A   1      40.474  27.518  29.785  1.00  0.00    -0.014 A 
BRANCH  33  34
ATOM     34  C   UNL A   1      40.359  28.549  30.846  1.00  0.00     0.031 A 
ATOM     35  C   UNL A   1      41.284  28.500  32.029  1.00  0.00     0.074 A 
ATOM     36  C   UNL A   1      39.495  29.571  30.703  1.00  0.00     0.049 A 
ATOM     37  N   UNL A   1      41.334  29.289  33.072  1.00  0.00    -0.248 NA
ATOM     38  C   UNL A   1      42.296  27.432  32.033  1.00  0.00     0.031 C 
ATOM     39  C   UNL A   1      38.597  29.765  29.564  1.00  0.00     0.029 A 
ATOM     40  N   UNL A   1      39.236  30.646  31.518  1.00  0.00    -0.354 N 
ATOM     41  C   UNL A   1      42.379  28.815  33.855  1.00  0.00     0.074 A 
ATOM     42  C   UNL A   1      42.923  27.656  33.180  1.00  0.00     0.031 C 
ATOM     43  C   UNL A   1      37.882  30.887  29.757  1.00  0.00     0.029 A 
ATOM     44  C   UNL A   1      38.243  31.470  31.047  1.00  0.00     0.049 A 
ATOM     45  H   UNL A   1      39.717  30.809  32.361  1.00  0.00     0.167 HD
ATOM     46  C   UNL A   1      42.848  29.308  35.026  1.00  0.00     0.037 A 
ATOM     47  C   UNL A   1      37.671  32.555  31.606  1.00  0.00     0.037 A 
ATOM     48  C   UNL A   1      42.302  30.459  35.698  1.00  0.00     0.049 A 
ATOM     49  C   UNL A   1      38.155  33.032  32.951  1.00  0.00     0.074 A 
ATOM     50  C   UNL A   1      42.679  31.007  36.912  1.00  0.00     0.029 A 
ATOM     51  N   UNL A   1      41.271  31.245  35.208  1.00  0.00    -0.354 N 
ATOM     52  N   UNL A   1      39.120  32.551  33.698  1.00  0.00    -0.248 NA
ATOM     53  C   UNL A   1      37.472  34.198  33.531  1.00  0.00     0.031 C 
ATOM     54  C   UNL A   1      41.855  32.108  37.170  1.00  0.00     0.029 A 
ATOM     55  C   UNL A   1      40.993  32.270  36.098  1.00  0.00     0.049 A 
ATOM     56  H   UNL A   1      40.804  31.098  34.355  1.00  0.00     0.167 HD
ATOM     57  C   UNL A   1      39.174  33.368  34.822  1.00  0.00     0.074 A 
ATOM     58  C   UNL A   1      38.156  34.383  34.651  1.00  0.00     0.031 C 
ATOM     59  C   UNL A   1      39.989  33.285  35.902  1.00  0.00     0.037 A 
BRANCH  46  60
ATOM     60  C   UNL A   1      44.004  28.596  35.668  1.00  0.00     0.058 A 
ATOM     61  C   UNL A   1      45.330  28.977  35.416  1.00  0.00     0.135 A 
ATOM     62  C   UNL A   1      43.782  27.555  36.583  1.00  0.00     0.135 A 
ATOM     63  F   UNL A   1      45.597  29.953  34.534  1.00  0.00    -0.206 F 
ATOM     64  C   UNL A   1      46.400  28.344  36.042  1.00  0.00     0.059 A 
ATOM     65  C   UNL A   1      44.835  26.922  37.238  1.00  0.00     0.059 A 
ATOM     66  F   UNL A   1      42.532  27.149  36.857  1.00  0.00    -0.206 F 
ATOM     67  C   UNL A   1      46.141  27.318  36.953  1.00  0.00     0.060 A 
BRANCH  67  68
ATOM     68  S   UNL A   1      47.538  26.521  37.774  1.00  0.00     0.124 S 
ATOM     69  O   UNL A   1      48.291  26.008  36.633  1.00  0.00    -0.237 OA
ATOM     70  O   UNL A   1      48.153  27.630  38.494  1.00  0.00    -0.237 OA
ATOM     71  O   UNL A   1      46.906  25.506  38.613  1.00  0.00    -0.744 OA
ENDBRANCH  67  68
ENDBRANCH  46  60
BRANCH  47  72
ATOM     72  C   UNL A   1      36.543  33.246  30.925  1.00  0.00     0.058 A 
ATOM     73  C   UNL A   1      36.747  34.015  29.770  1.00  0.00     0.135 A 
ATOM     74  C   UNL A   1      35.241  33.187  31.448  1.00  0.00     0.135 A 
ATOM     75  F   UNL A   1      37.974  34.111  29.237  1.00  0.00    -0.206 F 
ATOM     76  C   UNL A   1      35.709  34.727  29.174  1.00  0.00     0.059 A 
ATOM     77  C   UNL A   1      34.183  33.867  30.855  1.00  0.00     0.059 A 
ATOM     78  F   UNL A   1      34.989  32.457  32.545  1.00  0.00    -0.206 F 
ATOM     79  C   UNL A   1      34.431  34.651  29.730  1.00  0.00     0.060 A 
BRANCH  79  80
ATOM     80  S   UNL A   1      33.085  35.572  28.953  1.00  0.00     0.124 S 
ATOM     81  O   UNL A   1      32.287  35.955  30.113  1.00  0.00    -0.237 OA
ATOM     82  O   UNL A   1      33.796  36.654  28.281  1.00  0.00    -0.237 OA
ATOM     83  O   UNL A   1      32.477  34.585  28.065  1.00  0.00    -0.744 OA
ENDBRANCH  79  80
ENDBRANCH  47  72
BRANCH  59  84
ATOM     84  C   UNL A   1      39.847  34.341  36.962  1.00  0.00     0.058 A 
ATOM     85  C   UNL A   1      40.499  35.578  36.860  1.00  0.00     0.135 A 
ATOM     86  C   UNL A   1      39.007  34.128  38.068  1.00  0.00     0.135 A 
ATOM     87  F   UNL A   1      41.317  35.828  35.826  1.00  0.00    -0.206 F 
ATOM     88  C   UNL A   1      40.341  36.564  37.830  1.00  0.00     0.059 A 
ATOM     89  C   UNL A   1      38.816  35.108  39.037  1.00  0.00     0.059 A 
ATOM     90  F   UNL A   1      38.353  32.965  38.206  1.00  0.00    -0.206 F 
ATOM     91  C   UNL A   1      39.497  36.319  38.915  1.00  0.00     0.060 A 
BRANCH  91  92
ATOM     92  S   UNL A   1      39.271  37.618  40.149  1.00  0.00     0.124 S 
ATOM     93  O   UNL A   1      38.169  38.380  39.573  1.00  0.00    -0.237 OA
ATOM     94  O   UNL A   1      38.954  36.858  41.354  1.00  0.00    -0.237 OA
ATOM     95  O   UNL A   1      40.563  38.297  40.166  1.00  0.00    -0.744 OA
ENDBRANCH  91  92
ENDBRANCH  59  84
ENDBRANCH  33  34
ENDBRANCH  26  28
ENDBRANCH  25  26
ENDBRANCH  24  25
ENDBRANCH   1  24
TORSDOF 19
ENDMDL
MODEL 2
REMARK VINA RESULT:     -11.1      1.292      3.580
REMARK SMILES CC(C)(C)OC(=O)N1C[C@H](Oc2ccncc2)C[C@H]1C(=O)OCCOC(=O)c1ccc(-c2c3nc(c(-c4c(F)cc(S(=O)(=O)[O-])cc4F)c4ccc([nH]4)c(-c4c(F)cc(S(=O)(=O)[O-])cc4F)c4nc(c(-c5c(F)cc(S(=O)(=O)[O-])cc5F)c5ccc2[nH]5)C=C4)C=C3)cc1
REMARK SMILES IDX 23 1 22 2 20 3 21 4 19 5 8 6 9 7 10 8 18 9 6 10 7 11 5 12
REMARK SMILES IDX 2 13 1 14 3 15 4 16 11 17 12 18 13 19 17 20 14 21 16 22
REMARK SMILES IDX 15 23 24 24 25 25 26 26 27 27 28 28 29 29 93 30 30 31 92 32
REMARK SMILES IDX 31 33 32 34 33 35 86 36 34 37 91 38 85 39 87 40 35 41 90 42
REMARK SMILES IDX 84 43 83 44 36 46 70 47 49 48 69 49 50 50 53 51 68 52 88 53
REMARK SMILES IDX 51 54 52 55 67 57 89 58 54 59 37 60 38 61 47 62 39 63 40 64
REMARK SMILES IDX 46 65 48 66 41 67 42 68 43 69 44 70 45 71 71 72 72 73 81 74
REMARK SMILES IDX 73 75 74 76 80 77 82 78 75 79 76 80 77 81 78 82 79 83 55 84
REMARK SMILES IDX 56 85 65 86 57 87 58 88 64 89 66 90 59 91 60 92 61 93 62 94
REMARK SMILES IDX 63 95
REMARK H PARENT 87 45 53 56
REMARK Flexibility Score: inf
ROOT
ATOM      1  C   UNL A   1      39.531  21.335  26.006  1.00  0.00     0.274 C 
ENDROOT
BRANCH   1   2
ATOM      2  O   UNL A   1      38.176  21.700  25.680  1.00  0.00    -0.461 OA
BRANCH   2   3
ATOM      3  C   UNL A   1      37.455  20.782  24.983  1.00  0.00     0.329 C 
ATOM      4  O   UNL A   1      37.699  19.579  24.998  1.00  0.00    -0.250 OA
BRANCH   3   5
ATOM      5  C   UNL A   1      36.194  21.388  24.328  1.00  0.00     0.202 C 
ATOM      6  N   UNL A   1      35.006  21.516  25.172  1.00  0.00    -0.291 N 
ATOM      7  C   UNL A   1      34.707  22.910  25.455  1.00  0.00     0.169 C 
ATOM      8  C   UNL A   1      35.302  23.678  24.280  1.00  0.00     0.195 C 
ATOM      9  C   UNL A   1      36.481  22.822  23.822  1.00  0.00     0.084 C 
BRANCH   6  10
ATOM     10  C   UNL A   1      34.167  20.454  25.417  1.00  0.00     0.411 C 
ATOM     11  O   UNL A   1      33.283  20.459  26.252  1.00  0.00    -0.224 OA
BRANCH  10  12
ATOM     12  O   UNL A   1      34.483  19.387  24.637  1.00  0.00    -0.444 OA
BRANCH  12  13
ATOM     13  C   UNL A   1      33.531  18.328  24.359  1.00  0.00     0.106 C 
ATOM     14  C   UNL A   1      34.374  17.209  23.728  1.00  0.00     0.056 C 
ATOM     15  C   UNL A   1      32.518  18.841  23.336  1.00  0.00     0.056 C 
ATOM     16  C   UNL A   1      32.836  17.754  25.601  1.00  0.00     0.056 C 
ENDBRANCH  12  13
ENDBRANCH  10  12
ENDBRANCH   6  10
BRANCH   8  17
ATOM     17  O   UNL A   1      34.382  24.068  23.247  1.00  0.00    -0.488 OA
BRANCH  17  18
ATOM     18  C   UNL A   1      33.857  25.326  23.296  1.00  0.00     0.122 A 
ATOM     19  C   UNL A   1      33.031  25.783  22.280  1.00  0.00     0.066 A 
ATOM     20  C   UNL A   1      34.008  26.081  24.452  1.00  0.00     0.066 A 
ATOM     21  C   UNL A   1      32.454  27.031  22.425  1.00  0.00     0.115 A 
ATOM     22  C   UNL A   1      33.382  27.314  24.507  1.00  0.00     0.115 A 
ATOM     23  N   UNL A   1      32.617  27.813  23.511  1.00  0.00    -0.264 NA
ENDBRANCH  17  18
ENDBRANCH   8  17
ENDBRANCH   3   5
ENDBRANCH   2   3
ENDBRANCH   1   2
BRANCH   1  24
ATOM     24  C   UNL A   1      40.201  22.343  26.952  1.00  0.00     0.275 C 
BRANCH  24  25
ATOM     25  O   UNL A   1      40.154  23.691  26.439  1.00  0.00    -0.458 OA
BRANCH  25  26
ATOM     26  C   UNL A   1      41.246  24.444  26.718  1.00  0.00     0.338 C 
ATOM     27  O   UNL A   1      42.324  24.403  26.147  1.00  0.00    -0.246 OA
BRANCH  26  28
ATOM     28  C   UNL A   1      40.923  25.492  27.705  1.00  0.00     0.060 A 
ATOM     29  C   UNL A   1      41.891  26.479  27.907  1.00  0.00     0.016 A 
ATOM     30  C   UNL A   1      39.755  25.489  28.469  1.00  0.00     0.016 A 
ATOM     31  C   UNL A   1      41.695  27.483  28.848  1.00  0.00     0.010 A 
ATOM     32  C   UNL A   1      39.569  26.486  29.439  1.00  0.00     0.010 A 
ATOM     33  C   UNL A   1      40.539  27.485  29.635  1.00  0.00    -0.014 A 
BRANCH  33  34
ATOM     34  C   UNL A   1      40.417  28.495  30.715  1.00  0.00     0.031 A 
ATOM     35  C   UNL A   1      41.337  28.426  31.901  1.00  0.00     0.074 A 
ATOM     36  C   UNL A   1      39.551  29.518  30.588  1.00  0.00     0.049 A 
ATOM     37  N   UNL A   1      41.381  29.195  32.959  1.00  0.00    -0.248 NA
ATOM     38  C   UNL A   1      42.351  27.360  31.889  1.00  0.00     0.031 C 
ATOM     39  C   UNL A   1      38.657  29.732  29.449  1.00  0.00     0.029 A 
ATOM     40  N   UNL A   1      39.286  30.576  31.423  1.00  0.00    -0.354 N 
ATOM     41  C   UNL A   1      42.424  28.709  33.738  1.00  0.00     0.074 A 
ATOM     42  C   UNL A   1      42.973  27.564  33.043  1.00  0.00     0.031 C 
ATOM     43  C   UNL A   1      37.938  30.848  29.660  1.00  0.00     0.029 A 
ATOM     44  C   UNL A   1      38.293  31.408  30.963  1.00  0.00     0.049 A 
ATOM     45  H   UNL A   1      39.763  30.725  32.271  1.00  0.00     0.167 HD
ATOM     46  C   UNL A   1      42.886  29.181  34.920  1.00  0.00     0.037 A 
ATOM     47  C   UNL A   1      37.716  32.480  31.540  1.00  0.00     0.037 A 
ATOM     48  C   UNL A   1      42.335  30.318  35.611  1.00  0.00     0.049 A 
ATOM     49  C   UNL A   1      38.193  32.932  32.896  1.00  0.00     0.074 A 
ATOM     50  C   UNL A   1      42.705  30.843  36.837  1.00  0.00     0.029 A 
ATOM     51  N   UNL A   1      41.304  31.110  35.132  1.00  0.00    -0.354 N 
ATOM     52  N   UNL A   1      39.156  32.440  33.638  1.00  0.00    -0.248 NA
ATOM     53  C   UNL A   1      37.505  34.085  33.495  1.00  0.00     0.031 C 
ATOM     54  C   UNL A   1      41.878  31.937  37.113  1.00  0.00     0.029 A 
ATOM     55  C   UNL A   1      41.020  32.117  36.040  1.00  0.00     0.049 A 
ATOM     56  H   UNL A   1      40.841  30.978  34.274  1.00  0.00     0.167 HD
ATOM     57  C   UNL A   1      39.204  33.236  34.777  1.00  0.00     0.074 A 
ATOM     58  C   UNL A   1      38.184  34.251  34.622  1.00  0.00     0.031 C 
ATOM     59  C   UNL A   1      40.015  33.133  35.859  1.00  0.00     0.037 A 
BRANCH  46  60
ATOM     60  C   UNL A   1      44.041  28.459  35.553  1.00  0.00     0.058 A 
ATOM     61  C   UNL A   1      43.839  27.400  36.451  1.00  0.00     0.135 A 
ATOM     62  C   UNL A   1      45.363  28.793  35.218  1.00  0.00     0.135 A 
ATOM     63  F   UNL A   1      42.596  27.055  36.819  1.00  0.00    -0.206 F 
ATOM     64  C   UNL A   1      44.909  26.704  37.006  1.00  0.00     0.059 A 
ATOM     65  C   UNL A   1      46.447  28.096  35.744  1.00  0.00     0.059 A 
ATOM     66  F   UNL A   1      45.611  29.800  34.365  1.00  0.00    -0.206 F 
ATOM     67  C   UNL A   1      46.209  27.059  36.644  1.00  0.00     0.060 A 
BRANCH  67  68
ATOM     68  S   UNL A   1      47.586  26.132  37.356  1.00  0.00     0.124 S 
ATOM     69  O   UNL A   1      47.125  24.756  37.192  1.00  0.00    -0.237 OA
ATOM     70  O   UNL A   1      48.705  26.532  36.509  1.00  0.00    -0.237 OA
ATOM     71  O   UNL A   1      47.644  26.613  38.734  1.00  0.00    -0.744 OA
ENDBRANCH  67  68
ENDBRANCH  46  60
BRANCH  47  72
ATOM     72  C   UNL A   1      36.589  33.181  30.867  1.00  0.00     0.058 A 
ATOM     73  C   UNL A   1      36.811  34.076  29.811  1.00  0.00     0.135 A 
ATOM     74  C   UNL A   1      35.266  33.002  31.304  1.00  0.00     0.135 A 
ATOM     75  F   UNL A   1      38.058  34.290  29.364  1.00  0.00    -0.206 F 
ATOM     76  C   UNL A   1      35.769  34.794  29.231  1.00  0.00     0.059 A 
ATOM     77  C   UNL A   1      34.205  33.686  30.722  1.00  0.00     0.059 A 
ATOM     78  F   UNL A   1      34.998  32.149  32.304  1.00  0.00    -0.206 F 
ATOM     79  C   UNL A   1      34.468  34.596  29.700  1.00  0.00     0.060 A 
BRANCH  79  80
ATOM     80  S   UNL A   1      33.117  35.524  28.942  1.00  0.00     0.124 S 
ATOM     81  O   UNL A   1      33.847  36.498  28.139  1.00  0.00    -0.237 OA
ATOM     82  O   UNL A   1      32.405  34.489  28.201  1.00  0.00    -0.237 OA
ATOM     83  O   UNL A   1      32.399  36.065  30.094  1.00  0.00    -0.744 OA
ENDBRANCH  79  80
ENDBRANCH  47  72
BRANCH  59  84
ATOM     84  C   UNL A   1      39.865  34.169  36.938  1.00  0.00     0.058 A 
ATOM     85  C   UNL A   1      40.436  35.444  36.819  1.00  0.00     0.135 A 
ATOM     86  C   UNL A   1      39.099  33.895  38.083  1.00  0.00     0.135 A 
ATOM     87  F   UNL A   1      41.183  35.752  35.747  1.00  0.00    -0.206 F 
ATOM     88  C   UNL A   1      40.271  36.409  37.808  1.00  0.00     0.059 A 
ATOM     89  C   UNL A   1      38.901  34.853  39.073  1.00  0.00     0.059 A 
ATOM     90  F   UNL A   1      38.523  32.693  38.240  1.00  0.00    -0.206 F 
ATOM     91  C   UNL A   1      39.501  36.103  38.932  1.00  0.00     0.060 A 
BRANCH  91  92
ATOM     92  S   UNL A   1      39.263  37.375  40.193  1.00  0.00     0.124 S 
ATOM     93  O   UNL A   1      38.479  38.367  39.464  1.00  0.00    -0.237 OA
ATOM     94  O   UNL A   1      38.551  36.651  41.240  1.00  0.00    -0.237 OA
ATOM     95  O   UNL A   1      40.625  37.775  40.531  1.00  0.00    -0.744 OA
ENDBRANCH  91  92
ENDBRANCH  59  84
ENDBRANCH  33  34
ENDBRANCH  26  28
ENDBRANCH  25  26
ENDBRANCH  24  25
ENDBRANCH   1  24
TORSDOF 19
ENDMDL
MODEL 3
REMARK VINA RESULT:     -11.1      0.697      8.217
REMARK SMILES CC(C)(C)OC(=O)N1C[C@H](Oc2ccncc2)C[C@H]1C(=O)OCCOC(=O)c1ccc(-c2c3nc(c(-c4c(F)cc(S(=O)(=O)[O-])cc4F)c4ccc([nH]4)c(-c4c(F)cc(S(=O)(=O)[O-])cc4F)c4nc(c(-c5c(F)cc(S(=O)(=O)[O-])cc5F)c5ccc2[nH]5)C=C4)C=C3)cc1
REMARK SMILES IDX 23 1 22 2 20 3 21 4 19 5 8 6 9 7 10 8 18 9 6 10 7 11 5 12
REMARK SMILES IDX 2 13 1 14 3 15 4 16 11 17 12 18 13 19 17 20 14 21 16 22
REMARK SMILES IDX 15 23 24 24 25 25 26 26 27 27 28 28 29 29 93 30 30 31 92 32
REMARK SMILES IDX 31 33 32 34 33 35 86 36 34 37 91 38 85 39 87 40 35 41 90 42
REMARK SMILES IDX 84 43 83 44 36 46 70 47 49 48 69 49 50 50 53 51 68 52 88 53
REMARK SMILES IDX 51 54 52 55 67 57 89 58 54 59 37 60 38 61 47 62 39 63 40 64
REMARK SMILES IDX 46 65 48 66 41 67 42 68 43 69 44 70 45 71 71 72 72 73 81 74
REMARK SMILES IDX 73 75 74 76 80 77 82 78 75 79 76 80 77 81 78 82 79 83 55 84
REMARK SMILES IDX 56 85 65 86 57 87 58 88 64 89 66 90 59 91 60 92 61 93 62 94
REMARK SMILES IDX 63 95
REMARK H PARENT 87 45 53 56
REMARK Flexibility Score: inf
ROOT
ATOM      1  C   UNL A   1      37.172  23.315  25.350  1.00  0.00     0.274 C 
ENDROOT
BRANCH   1   2
ATOM      2  O   UNL A   1      36.093  22.847  26.180  1.00  0.00    -0.461 OA
BRANCH   2   3
ATOM      3  C   UNL A   1      34.870  23.393  25.945  1.00  0.00     0.329 C 
ATOM      4  O   UNL A   1      34.710  24.540  25.540  1.00  0.00    -0.250 OA
BRANCH   3   5
ATOM      5  C   UNL A   1      33.725  22.362  26.061  1.00  0.00     0.202 C 
ATOM      6  N   UNL A   1      32.427  22.750  25.510  1.00  0.00    -0.291 N 
ATOM      7  C   UNL A   1      32.103  21.971  24.327  1.00  0.00     0.169 C 
ATOM      8  C   UNL A   1      32.872  20.666  24.500  1.00  0.00     0.195 C 
ATOM      9  C   UNL A   1      34.097  21.052  25.325  1.00  0.00     0.084 C 
BRANCH   6  10
ATOM     10  C   UNL A   1      31.551  23.555  26.202  1.00  0.00     0.411 C 
ATOM     11  O   UNL A   1      31.522  23.650  27.414  1.00  0.00    -0.224 OA
BRANCH  10  12
ATOM     12  O   UNL A   1      30.699  24.193  25.358  1.00  0.00    -0.444 OA
BRANCH  12  13
ATOM     13  C   UNL A   1      30.922  25.562  24.929  1.00  0.00     0.106 C 
ATOM     14  C   UNL A   1      29.520  26.191  24.905  1.00  0.00     0.056 C 
ATOM     15  C   UNL A   1      31.495  25.541  23.512  1.00  0.00     0.056 C 
ATOM     16  C   UNL A   1      31.796  26.392  25.879  1.00  0.00     0.056 C 
ENDBRANCH  12  13
ENDBRANCH  10  12
ENDBRANCH   6  10
BRANCH   8  17
ATOM     17  O   UNL A   1      32.118  19.548  24.997  1.00  0.00    -0.488 OA
BRANCH  17  18
ATOM     18  C   UNL A   1      32.593  18.293  24.751  1.00  0.00     0.122 A 
ATOM     19  C   UNL A   1      33.157  17.984  23.522  1.00  0.00     0.066 A 
ATOM     20  C   UNL A   1      32.671  17.380  25.794  1.00  0.00     0.066 A 
ATOM     21  C   UNL A   1      33.704  16.725  23.359  1.00  0.00     0.115 A 
ATOM     22  C   UNL A   1      33.246  16.148  25.535  1.00  0.00     0.115 A 
ATOM     23  N   UNL A   1      33.753  15.795  24.333  1.00  0.00    -0.264 NA
ENDBRANCH  17  18
ENDBRANCH   8  17
ENDBRANCH   3   5
ENDBRANCH   2   3
ENDBRANCH   1   2
BRANCH   1  24
ATOM     24  C   UNL A   1      38.531  23.263  26.065  1.00  0.00     0.275 C 
BRANCH  24  25
ATOM     25  O   UNL A   1      38.717  24.371  26.970  1.00  0.00    -0.458 OA
BRANCH  25  26
ATOM     26  C   UNL A   1      39.841  25.097  26.759  1.00  0.00     0.338 C 
ATOM     27  O   UNL A   1      40.503  25.132  25.734  1.00  0.00    -0.246 OA
BRANCH  26  28
ATOM     28  C   UNL A   1      40.090  26.020  27.883  1.00  0.00     0.060 A 
ATOM     29  C   UNL A   1      39.184  25.970  28.945  1.00  0.00     0.016 A 
ATOM     30  C   UNL A   1      41.123  26.958  27.887  1.00  0.00     0.016 A 
ATOM     31  C   UNL A   1      39.311  26.832  30.028  1.00  0.00     0.010 A 
ATOM     32  C   UNL A   1      41.237  27.848  28.967  1.00  0.00     0.010 A 
ATOM     33  C   UNL A   1      40.330  27.790  30.041  1.00  0.00    -0.014 A 
BRANCH  33  34
ATOM     34  C   UNL A   1      40.364  28.775  31.149  1.00  0.00     0.031 A 
ATOM     35  C   UNL A   1      39.422  29.946  31.129  1.00  0.00     0.074 A 
ATOM     36  C   UNL A   1      41.169  28.571  32.209  1.00  0.00     0.049 A 
ATOM     37  N   UNL A   1      39.306  30.928  31.986  1.00  0.00    -0.248 NA
ATOM     38  C   UNL A   1      38.475  30.013  30.005  1.00  0.00     0.031 C 
ATOM     39  C   UNL A   1      42.074  27.434  32.376  1.00  0.00     0.029 A 
ATOM     40  N   UNL A   1      41.348  29.311  33.353  1.00  0.00    -0.354 N 
ATOM     41  C   UNL A   1      38.276  31.729  31.507  1.00  0.00     0.074 A 
ATOM     42  C   UNL A   1      37.815  31.132  30.272  1.00  0.00     0.031 C 
ATOM     43  C   UNL A   1      42.718  27.555  33.550  1.00  0.00     0.029 A 
ATOM     44  C   UNL A   1      42.300  28.795  34.200  1.00  0.00     0.049 A 
ATOM     45  H   UNL A   1      40.843  30.133  33.547  1.00  0.00     0.167 HD
ATOM     46  C   UNL A   1      37.758  32.854  32.053  1.00  0.00     0.037 A 
ATOM     47  C   UNL A   1      42.796  29.282  35.355  1.00  0.00     0.037 A 
ATOM     48  C   UNL A   1      38.222  33.449  33.280  1.00  0.00     0.049 A 
ATOM     49  C   UNL A   1      42.259  30.582  35.896  1.00  0.00     0.074 A 
ATOM     50  C   UNL A   1      37.792  34.615  33.889  1.00  0.00     0.029 A 
ATOM     51  N   UNL A   1      39.214  32.918  34.090  1.00  0.00    -0.354 N 
ATOM     52  N   UNL A   1      41.311  31.349  35.412  1.00  0.00    -0.248 NA
ATOM     53  C   UNL A   1      42.862  31.086  37.139  1.00  0.00     0.031 C 
ATOM     54  C   UNL A   1      38.544  34.805  35.053  1.00  0.00     0.029 A 
ATOM     55  C   UNL A   1      39.414  33.736  35.190  1.00  0.00     0.049 A 
ATOM     56  H   UNL A   1      39.705  32.085  33.910  1.00  0.00     0.167 HD
ATOM     57  C   UNL A   1      41.188  32.410  36.303  1.00  0.00     0.074 A 
ATOM     58  C   UNL A   1      42.147  32.181  37.363  1.00  0.00     0.031 C 
ATOM     59  C   UNL A   1      40.360  33.481  36.247  1.00  0.00     0.037 A 
BRANCH  46  60
ATOM     60  C   UNL A   1      36.635  33.530  31.319  1.00  0.00     0.058 A 
ATOM     61  C   UNL A   1      36.850  34.193  30.101  1.00  0.00     0.135 A 
ATOM     62  C   UNL A   1      35.321  33.468  31.811  1.00  0.00     0.135 A 
ATOM     63  F   UNL A   1      38.090  34.297  29.599  1.00  0.00    -0.206 F 
ATOM     64  C   UNL A   1      35.802  34.783  29.401  1.00  0.00     0.059 A 
ATOM     65  C   UNL A   1      34.255  34.032  31.116  1.00  0.00     0.059 A 
ATOM     66  F   UNL A   1      35.062  32.848  32.973  1.00  0.00    -0.206 F 
ATOM     67  C   UNL A   1      34.508  34.696  29.917  1.00  0.00     0.060 A 
BRANCH  67  68
ATOM     68  S   UNL A   1      33.156  35.448  28.985  1.00  0.00     0.124 S 
ATOM     69  O   UNL A   1      33.862  36.479  28.230  1.00  0.00    -0.237 OA
ATOM     70  O   UNL A   1      32.650  34.324  28.204  1.00  0.00    -0.237 OA
ATOM     71  O   UNL A   1      32.257  35.939  30.026  1.00  0.00    -0.744 OA
ENDBRANCH  67  68
ENDBRANCH  46  60
BRANCH  47  72
ATOM     72  C   UNL A   1      43.893  28.569  36.062  1.00  0.00     0.058 A 
ATOM     73  C   UNL A   1      43.629  27.508  36.940  1.00  0.00     0.135 A 
ATOM     74  C   UNL A   1      45.230  28.969  35.906  1.00  0.00     0.135 A 
ATOM     75  F   UNL A   1      42.367  27.095  37.131  1.00  0.00    -0.206 F 
ATOM     76  C   UNL A   1      44.644  26.890  37.665  1.00  0.00     0.059 A 
ATOM     77  C   UNL A   1      46.265  28.349  36.597  1.00  0.00     0.059 A 
ATOM     78  F   UNL A   1      45.539  29.972  35.070  1.00  0.00    -0.206 F 
ATOM     79  C   UNL A   1      45.960  27.323  37.490  1.00  0.00     0.060 A 
BRANCH  79  80
ATOM     80  S   UNL A   1      47.277  26.516  38.427  1.00  0.00     0.124 S 
ATOM     81  O   UNL A   1      46.560  25.399  39.032  1.00  0.00    -0.237 OA
ATOM     82  O   UNL A   1      48.235  26.171  37.382  1.00  0.00    -0.237 OA
ATOM     83  O   UNL A   1      47.716  27.560  39.349  1.00  0.00    -0.744 OA
ENDBRANCH  79  80
ENDBRANCH  47  72
BRANCH  59  84
ATOM     84  C   UNL A   1      40.420  34.464  37.383  1.00  0.00     0.058 A 
ATOM     85  C   UNL A   1      41.289  35.564  37.359  1.00  0.00     0.135 A 
ATOM     86  C   UNL A   1      39.560  34.328  38.485  1.00  0.00     0.135 A 
ATOM     87  F   UNL A   1      42.134  35.735  36.330  1.00  0.00    -0.206 F 
ATOM     88  C   UNL A   1      41.320  36.488  38.400  1.00  0.00     0.059 A 
ATOM     89  C   UNL A   1      39.558  35.252  39.526  1.00  0.00     0.059 A 
ATOM     90  F   UNL A   1      38.702  33.298  38.551  1.00  0.00    -0.206 F 
ATOM     91  C   UNL A   1      40.450  36.322  39.479  1.00  0.00     0.060 A 
BRANCH  91  92
ATOM     92  S   UNL A   1      40.473  37.546  40.808  1.00  0.00     0.124 S 
ATOM     93  O   UNL A   1      39.049  37.717  41.073  1.00  0.00    -0.237 OA
ATOM     94  O   UNL A   1      41.234  36.865  41.851  1.00  0.00    -0.237 OA
ATOM     95  O   UNL A   1      41.142  38.692  40.200  1.00  0.00    -0.744 OA
ENDBRANCH  91  92
ENDBRANCH  59  84
ENDBRANCH  33  34
ENDBRANCH  26  28
ENDBRANCH  25  26
ENDBRANCH  24  25
ENDBRANCH   1  24
TORSDOF 19
ENDMDL
