MODEL 1
REMARK VINA RESULT:     -12.0      0.000      0.000
REMARK SMILES Cc1nc(-c2ccc(S(=O)(=O)N3CC[NH2+][C@H](C(=O)OCCOC(=O)c4ccc(-c5c6nc(c(-c7c(F)cc(S(=O)(=O)[O-])cc7F)c7ccc([nH]7)c(-c7c(F)cc(S(=O)(=O)[O-])cc7F)c7nc(c(-c8c(F)cc(S(=O)(=O)[O-])cc8F)c8ccc5[nH]8)C=C7)C=C6)cc4)C3)s2)cs1
REMARK SMILES IDX 20 1 19 2 17 3 18 4 16 5 12 6 13 7 91 8 14 9 15 10 9 13
REMARK SMILES IDX 10 14 11 15 8 16 5 17 6 18 92 19 7 20 4 21 1 22 2 23 3 24
REMARK SMILES IDX 94 25 93 26 21 27 22 28 23 29 24 30 25 31 26 32 90 33 27 34
REMARK SMILES IDX 89 35 28 36 29 37 30 38 83 39 31 40 88 41 82 42 84 43 32 44
REMARK SMILES IDX 87 45 81 46 80 47 33 49 67 50 46 51 66 52 47 53 50 54 65 55
REMARK SMILES IDX 85 56 48 57 49 58 64 60 86 61 51 62 34 63 35 64 44 65 36 66
REMARK SMILES IDX 37 67 43 68 45 69 38 70 39 71 40 72 41 73 42 74 68 75 69 76
REMARK SMILES IDX 78 77 70 78 71 79 77 80 79 81 72 82 73 83 74 84 75 85 76 86
REMARK SMILES IDX 52 87 53 88 62 89 54 90 55 91 61 92 63 93 56 94 57 95 58 96
REMARK SMILES IDX 59 97 60 98
REMARK H PARENT 15 11 15 12 84 48 50 59
REMARK Flexibility Score: inf
ROOT
ATOM      1  C   UNL A   1      37.561  21.996  25.277  1.00  0.00     0.274 C 
ENDROOT
BRANCH   1   2
ATOM      2  O   UNL A   1      36.534  22.964  25.574  1.00  0.00    -0.458 OA
BRANCH   2   3
ATOM      3  C   UNL A   1      35.337  22.410  25.899  1.00  0.00     0.366 C 
ATOM      4  O   UNL A   1      35.116  21.779  26.928  1.00  0.00    -0.245 OA
BRANCH   3   5
ATOM      5  C   UNL A   1      34.251  22.678  24.875  1.00  0.00     0.308 C 
ATOM      6  N   UNL A   1      32.260  23.948  24.314  1.00  0.00    -0.185 NA
ATOM      7  C   UNL A   1      31.730  22.858  23.451  1.00  0.00     0.164 C 
ATOM      8  C   UNL A   1      33.063  23.428  25.450  1.00  0.00     0.180 C 
ATOM      9  C   UNL A   1      32.761  21.742  23.143  1.00  0.00     0.278 C 
ATOM     10  N   UNL A   1      33.843  21.479  24.107  1.00  0.00    -0.332 N 
ATOM     11  H   UNL A   1      34.654  21.133  23.595  1.00  0.00     0.347 HD
ATOM     12  H   UNL A   1      33.490  20.797  24.778  1.00  0.00     0.347 HD
BRANCH   6  13
ATOM     13  S   UNL A   1      32.692  25.453  23.646  1.00  0.00     0.253 S 
ATOM     14  O   UNL A   1      33.173  25.174  22.306  1.00  0.00    -0.206 OA
ATOM     15  O   UNL A   1      33.520  26.136  24.613  1.00  0.00    -0.206 OA
BRANCH  13  16
ATOM     16  C   UNL A   1      31.282  26.545  23.428  1.00  0.00     0.135 A 
ATOM     17  C   UNL A   1      29.977  28.599  22.934  1.00  0.00     0.055 A 
ATOM     18  C   UNL A   1      29.185  27.580  23.410  1.00  0.00     0.023 A 
ATOM     19  S   UNL A   1      31.602  28.113  22.771  1.00  0.00    -0.121 S 
ATOM     20  C   UNL A   1      29.937  26.422  23.720  1.00  0.00     0.034 A 
BRANCH  17  21
ATOM     21  C   UNL A   1      29.381  29.946  22.670  1.00  0.00     0.091 A 
ATOM     22  C   UNL A   1      27.889  32.036  20.076  1.00  0.00     0.079 C 
ATOM     23  C   UNL A   1      28.458  31.446  21.320  1.00  0.00     0.090 A 
ATOM     24  N   UNL A   1      29.028  30.266  21.368  1.00  0.00    -0.241 NA
ATOM     25  S   UNL A   1      28.397  32.283  22.819  1.00  0.00    -0.127 S 
ATOM     26  C   UNL A   1      29.120  30.927  23.599  1.00  0.00     0.096 A 
ENDBRANCH  17  21
ENDBRANCH  13  16
ENDBRANCH   6  13
ENDBRANCH   3   5
ENDBRANCH   2   3
ENDBRANCH   1   2
BRANCH   1  27
ATOM     27  C   UNL A   1      38.822  22.272  26.095  1.00  0.00     0.275 C 
BRANCH  27  28
ATOM     28  O   UNL A   1      38.936  23.664  26.447  1.00  0.00    -0.458 OA
BRANCH  28  29
ATOM     29  C   UNL A   1      40.198  24.082  26.711  1.00  0.00     0.338 C 
ATOM     30  O   UNL A   1      41.236  23.554  26.345  1.00  0.00    -0.246 OA
BRANCH  29  31
ATOM     31  C   UNL A   1      40.165  25.305  27.527  1.00  0.00     0.060 A 
ATOM     32  C   UNL A   1      41.115  26.309  27.329  1.00  0.00     0.016 A 
ATOM     33  C   UNL A   1      39.270  25.382  28.593  1.00  0.00     0.016 A 
ATOM     34  C   UNL A   1      41.225  27.357  28.242  1.00  0.00     0.010 A 
ATOM     35  C   UNL A   1      39.334  26.474  29.464  1.00  0.00     0.010 A 
ATOM     36  C   UNL A   1      40.330  27.457  29.313  1.00  0.00    -0.014 A 
BRANCH  36  37
ATOM     37  C   UNL A   1      40.425  28.567  30.299  1.00  0.00     0.031 A 
ATOM     38  C   UNL A   1      41.416  28.481  31.427  1.00  0.00     0.074 A 
ATOM     39  C   UNL A   1      39.595  29.625  30.211  1.00  0.00     0.049 A 
ATOM     40  N   UNL A   1      41.487  29.188  32.525  1.00  0.00    -0.248 NA
ATOM     41  C   UNL A   1      42.462  27.452  31.308  1.00  0.00     0.031 C 
ATOM     42  C   UNL A   1      38.636  29.866  29.132  1.00  0.00     0.029 A 
ATOM     43  N   UNL A   1      39.408  30.685  31.064  1.00  0.00    -0.354 N 
ATOM     44  C   UNL A   1      42.550  28.661  33.249  1.00  0.00     0.074 A 
ATOM     45  C   UNL A   1      43.097  27.574  32.466  1.00  0.00     0.031 C 
ATOM     46  C   UNL A   1      37.956  30.993  29.391  1.00  0.00     0.029 A 
ATOM     47  C   UNL A   1      38.371  31.509  30.691  1.00  0.00     0.049 A 
ATOM     48  H   UNL A   1      39.962  30.842  31.863  1.00  0.00     0.167 HD
ATOM     49  C   UNL A   1      43.020  29.049  34.459  1.00  0.00     0.037 A 
ATOM     50  C   UNL A   1      37.777  32.523  31.348  1.00  0.00     0.037 A 
ATOM     51  C   UNL A   1      42.482  30.155  35.211  1.00  0.00     0.049 A 
ATOM     52  C   UNL A   1      38.264  32.894  32.721  1.00  0.00     0.074 A 
ATOM     53  C   UNL A   1      42.890  30.637  36.443  1.00  0.00     0.029 A 
ATOM     54  N   UNL A   1      41.427  30.956  34.798  1.00  0.00    -0.354 N 
ATOM     55  N   UNL A   1      39.241  32.364  33.416  1.00  0.00    -0.248 NA
ATOM     56  C   UNL A   1      37.563  33.990  33.405  1.00  0.00     0.031 C 
ATOM     57  C   UNL A   1      42.054  31.702  36.794  1.00  0.00     0.029 A 
ATOM     58  C   UNL A   1      41.157  31.917  35.758  1.00  0.00     0.049 A 
ATOM     59  H   UNL A   1      40.941  30.854  33.948  1.00  0.00     0.167 HD
ATOM     60  C   UNL A   1      39.290  33.080  34.608  1.00  0.00     0.074 A 
ATOM     61  C   UNL A   1      38.245  34.080  34.539  1.00  0.00     0.031 C 
ATOM     62  C   UNL A   1      40.130  32.922  35.660  1.00  0.00     0.037 A 
BRANCH  49  63
ATOM     63  C   UNL A   1      44.141  28.254  35.069  1.00  0.00     0.058 A 
ATOM     64  C   UNL A   1      45.486  28.617  34.905  1.00  0.00     0.135 A 
ATOM     65  C   UNL A   1      43.859  27.132  35.865  1.00  0.00     0.135 A 
ATOM     66  F   UNL A   1      45.815  29.672  34.142  1.00  0.00    -0.206 F 
ATOM     67  C   UNL A   1      46.515  27.880  35.487  1.00  0.00     0.059 A 
ATOM     68  C   UNL A   1      44.869  26.395  36.478  1.00  0.00     0.059 A 
ATOM     69  F   UNL A   1      42.590  26.741  36.058  1.00  0.00    -0.206 F 
ATOM     70  C   UNL A   1      46.196  26.768  36.269  1.00  0.00     0.060 A 
BRANCH  70  71
ATOM     71  S   UNL A   1      47.540  25.819  37.012  1.00  0.00     0.124 S 
ATOM     72  O   UNL A   1      47.520  24.605  36.202  1.00  0.00    -0.237 OA
ATOM     73  O   UNL A   1      48.690  26.696  36.813  1.00  0.00    -0.237 OA
ATOM     74  O   UNL A   1      47.114  25.653  38.399  1.00  0.00    -0.744 OA
ENDBRANCH  70  71
ENDBRANCH  49  63
BRANCH  50  75
ATOM     75  C   UNL A   1      36.622  33.225  30.728  1.00  0.00     0.058 A 
ATOM     76  C   UNL A   1      35.321  33.046  31.217  1.00  0.00     0.135 A 
ATOM     77  C   UNL A   1      36.801  34.109  29.650  1.00  0.00     0.135 A 
ATOM     78  F   UNL A   1      35.099  32.208  32.242  1.00  0.00    -0.206 F 
ATOM     79  C   UNL A   1      34.236  33.711  30.658  1.00  0.00     0.059 A 
ATOM     80  C   UNL A   1      35.735  34.807  29.093  1.00  0.00     0.059 A 
ATOM     81  F   UNL A   1      38.029  34.326  29.154  1.00  0.00    -0.206 F 
ATOM     82  C   UNL A   1      34.454  34.594  29.598  1.00  0.00     0.060 A 
BRANCH  82  83
ATOM     83  S   UNL A   1      33.045  35.498  28.923  1.00  0.00     0.124 S 
ATOM     84  O   UNL A   1      32.447  34.497  28.048  1.00  0.00    -0.237 OA
ATOM     85  O   UNL A   1      32.289  35.829  30.128  1.00  0.00    -0.237 OA
ATOM     86  O   UNL A   1      33.667  36.635  28.251  1.00  0.00    -0.744 OA
ENDBRANCH  82  83
ENDBRANCH  50  75
BRANCH  62  87
ATOM     87  C   UNL A   1      40.001  33.885  36.806  1.00  0.00     0.058 A 
ATOM     88  C   UNL A   1      40.589  35.158  36.771  1.00  0.00     0.135 A 
ATOM     89  C   UNL A   1      39.194  33.562  37.909  1.00  0.00     0.135 A 
ATOM     90  F   UNL A   1      41.377  35.510  35.743  1.00  0.00    -0.206 F 
ATOM     91  C   UNL A   1      40.377  36.081  37.790  1.00  0.00     0.059 A 
ATOM     92  C   UNL A   1      38.952  34.476  38.928  1.00  0.00     0.059 A 
ATOM     93  F   UNL A   1      38.607  32.357  37.986  1.00  0.00    -0.206 F 
ATOM     94  C   UNL A   1      39.548  35.735  38.860  1.00  0.00     0.060 A 
BRANCH  94  95
ATOM     95  S   UNL A   1      39.216  36.971  40.133  1.00  0.00     0.124 S 
ATOM     96  O   UNL A   1      40.560  37.259  40.622  1.00  0.00    -0.237 OA
ATOM     97  O   UNL A   1      38.575  38.038  39.373  1.00  0.00    -0.237 OA
ATOM     98  O   UNL A   1      38.345  36.267  41.070  1.00  0.00    -0.744 OA
ENDBRANCH  94  95
ENDBRANCH  62  87
ENDBRANCH  36  37
ENDBRANCH  29  31
ENDBRANCH  28  29
ENDBRANCH  27  28
ENDBRANCH   1  27
TORSDOF 17
ENDMDL
MODEL 2
REMARK VINA RESULT:     -11.8      6.587     12.196
REMARK SMILES Cc1nc(-c2ccc(S(=O)(=O)N3CC[NH2+][C@H](C(=O)OCCOC(=O)c4ccc(-c5c6nc(c(-c7c(F)cc(S(=O)(=O)[O-])cc7F)c7ccc([nH]7)c(-c7c(F)cc(S(=O)(=O)[O-])cc7F)c7nc(c(-c8c(F)cc(S(=O)(=O)[O-])cc8F)c8ccc5[nH]8)C=C7)C=C6)cc4)C3)s2)cs1
REMARK SMILES IDX 20 1 19 2 17 3 18 4 16 5 12 6 13 7 91 8 14 9 15 10 9 13
REMARK SMILES IDX 10 14 11 15 8 16 5 17 6 18 92 19 7 20 4 21 1 22 2 23 3 24
REMARK SMILES IDX 94 25 93 26 21 27 22 28 23 29 24 30 25 31 26 32 90 33 27 34
REMARK SMILES IDX 89 35 28 36 29 37 30 38 83 39 31 40 88 41 82 42 84 43 32 44
REMARK SMILES IDX 87 45 81 46 80 47 33 49 67 50 46 51 66 52 47 53 50 54 65 55
REMARK SMILES IDX 85 56 48 57 49 58 64 60 86 61 51 62 34 63 35 64 44 65 36 66
REMARK SMILES IDX 37 67 43 68 45 69 38 70 39 71 40 72 41 73 42 74 68 75 69 76
REMARK SMILES IDX 78 77 70 78 71 79 77 80 79 81 72 82 73 83 74 84 75 85 76 86
REMARK SMILES IDX 52 87 53 88 62 89 54 90 55 91 61 92 63 93 56 94 57 95 58 96
REMARK SMILES IDX 59 97 60 98
REMARK H PARENT 15 11 15 12 84 48 50 59
REMARK Flexibility Score: inf
ROOT
ATOM      1  C   UNL A   1      33.376  29.431  26.741  1.00  0.00     0.274 C 
ENDROOT
BRANCH   1   2
ATOM      2  O   UNL A   1      34.050  28.656  25.729  1.00  0.00    -0.458 OA
BRANCH   2   3
ATOM      3  C   UNL A   1      33.350  28.540  24.571  1.00  0.00     0.366 C 
ATOM      4  O   UNL A   1      33.511  29.253  23.585  1.00  0.00    -0.245 OA
BRANCH   3   5
ATOM      5  C   UNL A   1      32.351  27.400  24.581  1.00  0.00     0.308 C 
ATOM      6  N   UNL A   1      31.896  25.095  23.968  1.00  0.00    -0.185 NA
ATOM      7  C   UNL A   1      30.436  25.350  23.841  1.00  0.00     0.164 C 
ATOM      8  C   UNL A   1      32.709  26.287  23.613  1.00  0.00     0.180 C 
ATOM      9  C   UNL A   1      29.984  26.718  24.413  1.00  0.00     0.278 C 
ATOM     10  N   UNL A   1      30.942  27.836  24.443  1.00  0.00    -0.332 N 
ATOM     11  H   UNL A   1      30.712  28.438  25.233  1.00  0.00     0.347 HD
ATOM     12  H   UNL A   1      30.864  28.323  23.550  1.00  0.00     0.347 HD
BRANCH   6  13
ATOM     13  S   UNL A   1      32.495  24.041  25.163  1.00  0.00     0.253 S 
ATOM     14  O   UNL A   1      31.544  24.093  26.256  1.00  0.00    -0.206 OA
ATOM     15  O   UNL A   1      33.889  24.360  25.365  1.00  0.00    -0.206 OA
BRANCH  13  16
ATOM     16  C   UNL A   1      32.511  22.326  24.628  1.00  0.00     0.135 A 
ATOM     17  C   UNL A   1      32.942  19.880  24.648  1.00  0.00     0.055 A 
ATOM     18  C   UNL A   1      32.404  20.305  23.456  1.00  0.00     0.023 A 
ATOM     19  S   UNL A   1      33.087  21.158  25.766  1.00  0.00    -0.121 S 
ATOM     20  C   UNL A   1      32.189  21.704  23.437  1.00  0.00     0.034 A 
BRANCH  17  21
ATOM     21  C   UNL A   1      33.356  18.452  24.813  1.00  0.00     0.091 A 
ATOM     22  C   UNL A   1      32.179  15.159  25.859  1.00  0.00     0.079 C 
ATOM     23  C   UNL A   1      32.942  16.349  25.389  1.00  0.00     0.090 A 
ATOM     24  N   UNL A   1      32.455  17.567  25.383  1.00  0.00    -0.241 NA
ATOM     25  S   UNL A   1      34.549  16.209  24.798  1.00  0.00    -0.127 S 
ATOM     26  C   UNL A   1      34.557  17.895  24.438  1.00  0.00     0.096 A 
ENDBRANCH  17  21
ENDBRANCH  13  16
ENDBRANCH   6  13
ENDBRANCH   3   5
ENDBRANCH   2   3
ENDBRANCH   1   2
BRANCH   1  27
ATOM     27  C   UNL A   1      34.349  30.385  27.434  1.00  0.00     0.275 C 
BRANCH  27  28
ATOM     28  O   UNL A   1      35.375  29.673  28.152  1.00  0.00    -0.458 OA
BRANCH  28  29
ATOM     29  C   UNL A   1      36.053  30.415  29.059  1.00  0.00     0.338 C 
ATOM     30  O   UNL A   1      35.577  31.170  29.893  1.00  0.00    -0.246 OA
BRANCH  29  31
ATOM     31  C   UNL A   1      37.501  30.193  28.914  1.00  0.00     0.060 A 
ATOM     32  C   UNL A   1      38.049  29.923  27.658  1.00  0.00     0.016 A 
ATOM     33  C   UNL A   1      38.290  30.108  30.060  1.00  0.00     0.016 A 
ATOM     34  C   UNL A   1      39.370  29.492  27.551  1.00  0.00     0.010 A 
ATOM     35  C   UNL A   1      39.635  29.749  29.940  1.00  0.00     0.010 A 
ATOM     36  C   UNL A   1      40.181  29.410  28.689  1.00  0.00    -0.014 A 
BRANCH  36  37
ATOM     37  C   UNL A   1      41.595  28.956  28.599  1.00  0.00     0.031 A 
ATOM     38  C   UNL A   1      42.709  29.960  28.715  1.00  0.00     0.074 A 
ATOM     39  C   UNL A   1      41.878  27.660  28.368  1.00  0.00     0.049 A 
ATOM     40  N   UNL A   1      43.974  29.835  28.409  1.00  0.00    -0.248 NA
ATOM     41  C   UNL A   1      42.347  31.289  29.235  1.00  0.00     0.031 C 
ATOM     42  C   UNL A   1      40.900  26.574  28.302  1.00  0.00     0.029 A 
ATOM     43  N   UNL A   1      43.078  27.040  28.118  1.00  0.00    -0.354 N 
ATOM     44  C   UNL A   1      44.550  31.077  28.652  1.00  0.00     0.074 A 
ATOM     45  C   UNL A   1      43.496  31.944  29.131  1.00  0.00     0.031 C 
ATOM     46  C   UNL A   1      41.533  25.426  28.021  1.00  0.00     0.029 A 
ATOM     47  C   UNL A   1      42.948  25.707  27.804  1.00  0.00     0.049 A 
ATOM     48  H   UNL A   1      43.947  27.503  28.159  1.00  0.00     0.167 HD
ATOM     49  C   UNL A   1      45.840  31.455  28.482  1.00  0.00     0.037 A 
ATOM     50  C   UNL A   1      43.851  24.825  27.332  1.00  0.00     0.037 A 
ATOM     51  C   UNL A   1      46.884  30.568  28.033  1.00  0.00     0.049 A 
ATOM     52  C   UNL A   1      45.261  25.280  27.083  1.00  0.00     0.074 A 
ATOM     53  C   UNL A   1      48.225  30.847  27.837  1.00  0.00     0.029 A 
ATOM     54  N   UNL A   1      46.704  29.228  27.720  1.00  0.00    -0.354 N 
ATOM     55  N   UNL A   1      45.787  26.466  27.273  1.00  0.00    -0.248 NA
ATOM     56  C   UNL A   1      46.198  24.285  26.542  1.00  0.00     0.031 C 
ATOM     57  C   UNL A   1      48.848  29.688  27.364  1.00  0.00     0.029 A 
ATOM     58  C   UNL A   1      47.906  28.672  27.314  1.00  0.00     0.049 A 
ATOM     59  H   UNL A   1      45.848  28.745  27.776  1.00  0.00     0.167 HD
ATOM     60  C   UNL A   1      47.123  26.353  26.902  1.00  0.00     0.074 A 
ATOM     61  C   UNL A   1      47.325  24.983  26.477  1.00  0.00     0.031 C 
ATOM     62  C   UNL A   1      48.093  27.299  26.919  1.00  0.00     0.037 A 
BRANCH  49  63
ATOM     63  C   UNL A   1      46.193  32.894  28.741  1.00  0.00     0.058 A 
ATOM     64  C   UNL A   1      46.164  33.862  27.727  1.00  0.00     0.135 A 
ATOM     65  C   UNL A   1      46.527  33.316  30.039  1.00  0.00     0.135 A 
ATOM     66  F   UNL A   1      45.866  33.512  26.466  1.00  0.00    -0.206 F 
ATOM     67  C   UNL A   1      46.478  35.194  27.984  1.00  0.00     0.059 A 
ATOM     68  C   UNL A   1      46.821  34.646  30.325  1.00  0.00     0.059 A 
ATOM     69  F   UNL A   1      46.569  32.431  31.048  1.00  0.00    -0.206 F 
ATOM     70  C   UNL A   1      46.809  35.575  29.286  1.00  0.00     0.060 A 
BRANCH  70  71
ATOM     71  S   UNL A   1      47.221  37.305  29.602  1.00  0.00     0.124 S 
ATOM     72  O   UNL A   1      48.046  37.192  30.800  1.00  0.00    -0.237 OA
ATOM     73  O   UNL A   1      47.923  37.688  28.382  1.00  0.00    -0.237 OA
ATOM     74  O   UNL A   1      45.918  37.935  29.797  1.00  0.00    -0.744 OA
ENDBRANCH  70  71
ENDBRANCH  49  63
BRANCH  50  75
ATOM     75  C   UNL A   1      43.426  23.434  27.022  1.00  0.00     0.058 A 
ATOM     76  C   UNL A   1      43.198  22.504  28.046  1.00  0.00     0.135 A 
ATOM     77  C   UNL A   1      43.214  23.015  25.698  1.00  0.00     0.135 A 
ATOM     78  F   UNL A   1      43.391  22.856  29.327  1.00  0.00    -0.206 F 
ATOM     79  C   UNL A   1      42.783  21.207  27.771  1.00  0.00     0.059 A 
ATOM     80  C   UNL A   1      42.770  21.731  25.400  1.00  0.00     0.059 A 
ATOM     81  F   UNL A   1      43.405  23.872  24.682  1.00  0.00    -0.206 F 
ATOM     82  C   UNL A   1      42.567  20.831  26.443  1.00  0.00     0.060 A 
BRANCH  82  83
ATOM     83  S   UNL A   1      41.967  19.162  26.103  1.00  0.00     0.124 S 
ATOM     84  O   UNL A   1      42.726  18.816  24.907  1.00  0.00    -0.237 OA
ATOM     85  O   UNL A   1      42.337  18.451  27.324  1.00  0.00    -0.237 OA
ATOM     86  O   UNL A   1      40.533  19.354  25.910  1.00  0.00    -0.744 OA
ENDBRANCH  82  83
ENDBRANCH  50  75
BRANCH  62  87
ATOM     87  C   UNL A   1      49.480  26.883  26.521  1.00  0.00     0.058 A 
ATOM     88  C   UNL A   1      50.372  26.309  27.438  1.00  0.00     0.135 A 
ATOM     89  C   UNL A   1      49.883  26.971  25.178  1.00  0.00     0.135 A 
ATOM     90  F   UNL A   1      50.038  26.212  28.735  1.00  0.00    -0.206 F 
ATOM     91  C   UNL A   1      51.615  25.830  27.037  1.00  0.00     0.059 A 
ATOM     92  C   UNL A   1      51.112  26.481  24.751  1.00  0.00     0.059 A 
ATOM     93  F   UNL A   1      49.062  27.509  24.261  1.00  0.00    -0.206 F 
ATOM     94  C   UNL A   1      51.973  25.912  25.689  1.00  0.00     0.060 A 
BRANCH  94  95
ATOM     95  S   UNL A   1      53.554  25.214  25.169  1.00  0.00     0.124 S 
ATOM     96  O   UNL A   1      53.643  25.682  23.790  1.00  0.00    -0.237 OA
ATOM     97  O   UNL A   1      54.490  25.824  26.107  1.00  0.00    -0.237 OA
ATOM     98  O   UNL A   1      53.361  23.776  25.332  1.00  0.00    -0.744 OA
ENDBRANCH  94  95
ENDBRANCH  62  87
ENDBRANCH  36  37
ENDBRANCH  29  31
ENDBRANCH  28  29
ENDBRANCH  27  28
ENDBRANCH   1  27
TORSDOF 17
ENDMDL
MODEL 3
REMARK VINA RESULT:     -11.6      3.611      9.891
REMARK SMILES Cc1nc(-c2ccc(S(=O)(=O)N3CC[NH2+][C@H](C(=O)OCCOC(=O)c4ccc(-c5c6nc(c(-c7c(F)cc(S(=O)(=O)[O-])cc7F)c7ccc([nH]7)c(-c7c(F)cc(S(=O)(=O)[O-])cc7F)c7nc(c(-c8c(F)cc(S(=O)(=O)[O-])cc8F)c8ccc5[nH]8)C=C7)C=C6)cc4)C3)s2)cs1
REMARK SMILES IDX 20 1 19 2 17 3 18 4 16 5 12 6 13 7 91 8 14 9 15 10 9 13
REMARK SMILES IDX 10 14 11 15 8 16 5 17 6 18 92 19 7 20 4 21 1 22 2 23 3 24
REMARK SMILES IDX 94 25 93 26 21 27 22 28 23 29 24 30 25 31 26 32 90 33 27 34
REMARK SMILES IDX 89 35 28 36 29 37 30 38 83 39 31 40 88 41 82 42 84 43 32 44
REMARK SMILES IDX 87 45 81 46 80 47 33 49 67 50 46 51 66 52 47 53 50 54 65 55
REMARK SMILES IDX 85 56 48 57 49 58 64 60 86 61 51 62 34 63 35 64 44 65 36 66
REMARK SMILES IDX 37 67 43 68 45 69 38 70 39 71 40 72 41 73 42 74 68 75 69 76
REMARK SMILES IDX 78 77 70 78 71 79 77 80 79 81 72 82 73 83 74 84 75 85 76 86
REMARK SMILES IDX 52 87 53 88 62 89 54 90 55 91 61 92 63 93 56 94 57 95 58 96
REMARK SMILES IDX 59 97 60 98
REMARK H PARENT 15 11 15 12 84 48 50 59
REMARK Flexibility Score: inf
ROOT
ATOM      1  C   UNL A   1      45.802  24.770  25.051  1.00  0.00     0.274 C 
ENDROOT
BRANCH   1   2
ATOM      2  O   UNL A   1      44.906  23.669  24.803  1.00  0.00    -0.458 OA
BRANCH   2   3
ATOM      3  C   UNL A   1      45.115  22.599  25.614  1.00  0.00     0.366 C 
ATOM      4  O   UNL A   1      46.122  21.897  25.597  1.00  0.00    -0.245 OA
BRANCH   3   5
ATOM      5  C   UNL A   1      43.987  22.358  26.598  1.00  0.00     0.308 C 
ATOM      6  N   UNL A   1      41.591  22.140  26.924  1.00  0.00    -0.185 NA
ATOM      7  C   UNL A   1      41.673  22.634  28.325  1.00  0.00     0.164 C 
ATOM      8  C   UNL A   1      42.627  22.749  26.050  1.00  0.00     0.180 C 
ATOM      9  C   UNL A   1      43.118  22.714  28.881  1.00  0.00     0.278 C 
ATOM     10  N   UNL A   1      44.237  22.919  27.945  1.00  0.00    -0.332 N 
ATOM     11  H   UNL A   1      45.068  22.473  28.331  1.00  0.00     0.347 HD
ATOM     12  H   UNL A   1      44.355  23.926  27.834  1.00  0.00     0.347 HD
BRANCH   6  13
ATOM     13  S   UNL A   1      41.096  20.546  26.591  1.00  0.00     0.253 S 
ATOM     14  O   UNL A   1      40.943  19.897  27.879  1.00  0.00    -0.206 OA
ATOM     15  O   UNL A   1      41.986  20.015  25.584  1.00  0.00    -0.206 OA
BRANCH  13  16
ATOM     16  C   UNL A   1      39.473  20.471  25.825  1.00  0.00     0.135 A 
ATOM     17  C   UNL A   1      37.208  21.172  25.085  1.00  0.00     0.055 A 
ATOM     18  C   UNL A   1      37.458  19.848  24.813  1.00  0.00     0.023 A 
ATOM     19  S   UNL A   1      38.557  21.939  25.789  1.00  0.00    -0.121 S 
ATOM     20  C   UNL A   1      38.737  19.444  25.264  1.00  0.00     0.034 A 
BRANCH  17  21
ATOM     21  C   UNL A   1      35.859  21.751  24.797  1.00  0.00     0.091 A 
ATOM     22  C   UNL A   1      32.311  20.932  24.532  1.00  0.00     0.079 C 
ATOM     23  C   UNL A   1      33.661  21.563  24.552  1.00  0.00     0.090 A 
ATOM     24  N   UNL A   1      34.772  20.892  24.741  1.00  0.00    -0.241 NA
ATOM     25  S   UNL A   1      33.864  23.255  24.335  1.00  0.00    -0.127 S 
ATOM     26  C   UNL A   1      35.559  23.079  24.591  1.00  0.00     0.096 A 
ENDBRANCH  17  21
ENDBRANCH  13  16
ENDBRANCH   6  13
ENDBRANCH   3   5
ENDBRANCH   2   3
ENDBRANCH   1   2
BRANCH   1  27
ATOM     27  C   UNL A   1      45.182  25.767  26.030  1.00  0.00     0.275 C 
BRANCH  27  28
ATOM     28  O   UNL A   1      44.307  26.696  25.364  1.00  0.00    -0.458 OA
BRANCH  28  29
ATOM     29  C   UNL A   1      42.996  26.569  25.681  1.00  0.00     0.338 C 
ATOM     30  O   UNL A   1      42.110  26.117  24.972  1.00  0.00    -0.246 OA
BRANCH  29  31
ATOM     31  C   UNL A   1      42.756  27.064  27.046  1.00  0.00     0.060 A 
ATOM     32  C   UNL A   1      41.993  26.313  27.943  1.00  0.00     0.016 A 
ATOM     33  C   UNL A   1      43.171  28.352  27.380  1.00  0.00     0.016 A 
ATOM     34  C   UNL A   1      41.578  26.876  29.148  1.00  0.00     0.010 A 
ATOM     35  C   UNL A   1      42.816  28.885  28.623  1.00  0.00     0.010 A 
ATOM     36  C   UNL A   1      41.992  28.164  29.506  1.00  0.00    -0.014 A 
BRANCH  36  37
ATOM     37  C   UNL A   1      41.565  28.785  30.789  1.00  0.00     0.031 A 
ATOM     38  C   UNL A   1      40.373  29.703  30.813  1.00  0.00     0.074 A 
ATOM     39  C   UNL A   1      42.268  28.566  31.916  1.00  0.00     0.049 A 
ATOM     40  N   UNL A   1      39.991  30.542  31.740  1.00  0.00    -0.248 NA
ATOM     41  C   UNL A   1      39.500  29.679  29.628  1.00  0.00     0.031 C 
ATOM     42  C   UNL A   1      43.402  27.649  32.047  1.00  0.00     0.029 A 
ATOM     43  N   UNL A   1      42.149  29.124  33.166  1.00  0.00    -0.354 N 
ATOM     44  C   UNL A   1      38.865  31.181  31.234  1.00  0.00     0.074 A 
ATOM     45  C   UNL A   1      38.623  30.632  29.917  1.00  0.00     0.031 C 
ATOM     46  C   UNL A   1      43.879  27.713  33.299  1.00  0.00     0.029 A 
ATOM     47  C   UNL A   1      43.141  28.734  34.035  1.00  0.00     0.049 A 
ATOM     48  H   UNL A   1      41.424  29.743  33.415  1.00  0.00     0.167 HD
ATOM     49  C   UNL A   1      38.108  32.142  31.818  1.00  0.00     0.037 A 
ATOM     50  C   UNL A   1      43.464  29.191  35.260  1.00  0.00     0.037 A 
ATOM     51  C   UNL A   1      38.344  32.654  33.144  1.00  0.00     0.049 A 
ATOM     52  C   UNL A   1      42.657  30.307  35.863  1.00  0.00     0.074 A 
ATOM     53  C   UNL A   1      37.633  33.621  33.832  1.00  0.00     0.029 A 
ATOM     54  N   UNL A   1      39.366  32.235  33.985  1.00  0.00    -0.354 N 
ATOM     55  N   UNL A   1      41.621  30.936  35.361  1.00  0.00    -0.248 NA
ATOM     56  C   UNL A   1      43.068  30.787  37.190  1.00  0.00     0.031 C 
ATOM     57  C   UNL A   1      38.249  33.817  35.072  1.00  0.00     0.029 A 
ATOM     58  C   UNL A   1      39.314  32.936  35.178  1.00  0.00     0.049 A 
ATOM     59  H   UNL A   1      40.030  31.543  33.764  1.00  0.00     0.167 HD
ATOM     60  C   UNL A   1      41.239  31.865  36.323  1.00  0.00     0.074 A 
ATOM     61  C   UNL A   1      42.154  31.717  37.435  1.00  0.00     0.031 C 
ATOM     62  C   UNL A   1      40.219  32.757  36.285  1.00  0.00     0.037 A 
BRANCH  49  63
ATOM     63  C   UNL A   1      36.980  32.734  31.018  1.00  0.00     0.058 A 
ATOM     64  C   UNL A   1      35.637  32.426  31.283  1.00  0.00     0.135 A 
ATOM     65  C   UNL A   1      37.249  33.658  29.995  1.00  0.00     0.135 A 
ATOM     66  F   UNL A   1      35.323  31.538  32.240  1.00  0.00    -0.206 F 
ATOM     67  C   UNL A   1      34.602  32.992  30.545  1.00  0.00     0.059 A 
ATOM     68  C   UNL A   1      36.229  34.256  29.260  1.00  0.00     0.059 A 
ATOM     69  F   UNL A   1      38.516  33.990  29.700  1.00  0.00    -0.206 F 
ATOM     70  C   UNL A   1      34.909  33.904  29.532  1.00  0.00     0.060 A 
BRANCH  70  71
ATOM     71  S   UNL A   1      33.555  34.626  28.579  1.00  0.00     0.124 S 
ATOM     72  O   UNL A   1      34.205  35.795  27.994  1.00  0.00    -0.237 OA
ATOM     73  O   UNL A   1      33.221  33.553  27.648  1.00  0.00    -0.237 OA
ATOM     74  O   UNL A   1      32.542  34.913  29.590  1.00  0.00    -0.744 OA
ENDBRANCH  70  71
ENDBRANCH  49  63
BRANCH  50  75
ATOM     75  C   UNL A   1      44.636  28.620  35.973  1.00  0.00     0.058 A 
ATOM     76  C   UNL A   1      45.928  29.118  35.753  1.00  0.00     0.135 A 
ATOM     77  C   UNL A   1      44.485  27.583  36.909  1.00  0.00     0.135 A 
ATOM     78  F   UNL A   1      46.123  30.106  34.865  1.00  0.00    -0.206 F 
ATOM     79  C   UNL A   1      47.030  28.605  36.427  1.00  0.00     0.059 A 
ATOM     80  C   UNL A   1      45.569  27.073  37.617  1.00  0.00     0.059 A 
ATOM     81  F   UNL A   1      43.267  27.081  37.166  1.00  0.00    -0.206 F 
ATOM     82  C   UNL A   1      46.839  27.585  37.361  1.00  0.00     0.060 A 
BRANCH  82  83
ATOM     83  S   UNL A   1      48.270  26.971  38.276  1.00  0.00     0.124 S 
ATOM     84  O   UNL A   1      49.309  27.902  37.851  1.00  0.00    -0.237 OA
ATOM     85  O   UNL A   1      47.824  27.098  39.660  1.00  0.00    -0.237 OA
ATOM     86  O   UNL A   1      48.412  25.600  37.795  1.00  0.00    -0.744 OA
ENDBRANCH  82  83
ENDBRANCH  50  75
BRANCH  62  87
ATOM     87  C   UNL A   1      39.991  33.608  37.502  1.00  0.00     0.058 A 
ATOM     88  C   UNL A   1      40.631  34.844  37.669  1.00  0.00     0.135 A 
ATOM     89  C   UNL A   1      39.041  33.223  38.462  1.00  0.00     0.135 A 
ATOM     90  F   UNL A   1      41.555  35.252  36.784  1.00  0.00    -0.206 F 
ATOM     91  C   UNL A   1      40.334  35.674  38.746  1.00  0.00     0.059 A 
ATOM     92  C   UNL A   1      38.713  34.045  39.535  1.00  0.00     0.059 A 
ATOM     93  F   UNL A   1      38.398  32.050  38.343  1.00  0.00    -0.206 F 
ATOM     94  C   UNL A   1      39.366  35.269  39.669  1.00  0.00     0.060 A 
BRANCH  94  95
ATOM     95  S   UNL A   1      38.932  36.391  41.015  1.00  0.00     0.124 S 
ATOM     96  O   UNL A   1      38.553  37.595  40.284  1.00  0.00    -0.237 OA
ATOM     97  O   UNL A   1      37.841  35.680  41.674  1.00  0.00    -0.237 OA
ATOM     98  O   UNL A   1      40.166  36.488  41.788  1.00  0.00    -0.744 OA
ENDBRANCH  94  95
ENDBRANCH  62  87
ENDBRANCH  36  37
ENDBRANCH  29  31
ENDBRANCH  28  29
ENDBRANCH  27  28
ENDBRANCH   1  27
TORSDOF 17
ENDMDL
