MODEL 1
REMARK VINA RESULT:     -11.8      0.000      0.000
REMARK SMILES Cc1ccc(Cl)c(Nc2ccccc2C(=O)N[C@@H](C)C(=O)OCCOC(=O)c2ccc(-c3c4nc(c(-c5c(F)cc(S(=O)(=O)[O-])cc5F)c5ccc([nH]5)c(-c5c(F)cc(S(=O)(=O)[O-])cc5F)c5nc(c(-c6c(F)cc(S(=O)(=O)[O-])cc6F)c6ccc3[nH]6)C=C5)C=C4)cc2)c1Cl
REMARK SMILES IDX 23 1 22 2 20 3 21 4 18 5 19 6 17 7 15 8 16 9 14 11 9 12
REMARK SMILES IDX 10 13 11 14 13 15 12 16 8 17 7 19 1 20 2 21 3 22 94 23 4 24
REMARK SMILES IDX 95 25 5 26 6 27 24 28 25 29 26 30 27 31 28 32 29 33 93 34
REMARK SMILES IDX 30 35 92 36 31 37 32 38 33 39 86 40 34 41 91 42 85 43 87 44
REMARK SMILES IDX 35 45 90 46 84 47 83 48 36 50 70 51 49 52 69 53 50 54 53 55
REMARK SMILES IDX 68 56 88 57 51 58 52 59 67 61 89 62 54 63 37 64 38 65 47 66
REMARK SMILES IDX 39 67 40 68 46 69 48 70 41 71 42 72 43 73 44 74 45 75 71 76
REMARK SMILES IDX 72 77 81 78 73 79 74 80 80 81 82 82 75 83 76 84 77 85 78 86
REMARK SMILES IDX 79 87 55 88 56 89 65 90 57 91 58 92 64 93 66 94 59 95 60 96
REMARK SMILES IDX 61 97 62 98 63 99
REMARK H PARENT 17 10 8 18 87 49 53 60
REMARK Flexibility Score: inf
ROOT
ATOM      1  C   UNL A   1      31.878  28.392  24.390  1.00  0.00     0.274 C 
ENDROOT
BRANCH   1   2
ATOM      2  O   UNL A   1      32.120  26.928  24.481  1.00  0.00    -0.461 OA
BRANCH   2   3
ATOM      3  C   UNL A   1      31.518  26.064  25.382  1.00  0.00     0.328 C 
ATOM      4  O   UNL A   1      31.202  26.394  26.506  1.00  0.00    -0.250 OA
BRANCH   3   5
ATOM      5  C   UNL A   1      31.287  24.568  24.782  1.00  0.00     0.189 C 
ATOM      6  C   UNL A   1      31.183  23.558  25.923  1.00  0.00     0.043 C 
BRANCH   5   7
ATOM      7  N   UNL A   1      32.373  24.170  23.830  1.00  0.00    -0.339 N 
ATOM      8  C   UNL A   1      33.282  23.183  23.488  1.00  0.00     0.254 C 
ATOM      9  O   UNL A   1      34.038  23.623  22.598  1.00  0.00    -0.269 OA
ATOM     10  H   UNL A   1      32.487  24.909  23.190  1.00  0.00     0.164 HD
BRANCH   8  11
ATOM     11  C   UNL A   1      33.575  21.727  23.916  1.00  0.00     0.063 A 
ATOM     12  C   UNL A   1      34.563  21.141  24.744  1.00  0.00     0.051 A 
ATOM     13  C   UNL A   1      34.581  19.744  25.032  1.00  0.00     0.027 A 
ATOM     14  C   UNL A   1      33.544  18.915  24.653  1.00  0.00     0.002 A 
ATOM     15  C   UNL A   1      32.563  20.811  23.509  1.00  0.00     0.016 A 
ATOM     16  C   UNL A   1      32.521  19.457  23.901  1.00  0.00     0.001 A 
BRANCH  12  17
ATOM     17  N   UNL A   1      35.310  21.844  25.684  1.00  0.00    -0.352 N 
ATOM     18  H   UNL A   1      34.912  22.009  26.569  1.00  0.00     0.167 HD
BRANCH  17  19
ATOM     19  C   UNL A   1      36.610  22.335  25.433  1.00  0.00     0.077 A 
ATOM     20  C   UNL A   1      40.127  21.093  26.407  1.00  0.00     0.046 C 
ATOM     21  C   UNL A   1      38.929  21.940  26.099  1.00  0.00    -0.030 A 
ATOM     22  C   UNL A   1      38.926  23.251  26.498  1.00  0.00     0.006 A 
ATOM     23  C   UNL A   1      37.780  21.511  25.460  1.00  0.00     0.069 A 
ATOM     24  C   UNL A   1      37.884  24.139  26.158  1.00  0.00     0.023 A 
ATOM     25  Cl  UNL A   1      37.853  19.990  24.642  1.00  0.00    -0.082 Cl
ATOM     26  C   UNL A   1      36.722  23.698  25.605  1.00  0.00     0.066 A 
ATOM     27  Cl  UNL A   1      35.394  24.794  25.449  1.00  0.00    -0.082 Cl
ENDBRANCH  17  19
ENDBRANCH  12  17
ENDBRANCH   8  11
ENDBRANCH   5   7
ENDBRANCH   3   5
ENDBRANCH   2   3
ENDBRANCH   1   2
BRANCH   1  28
ATOM     28  C   UNL A   1      32.858  29.490  25.087  1.00  0.00     0.275 C 
BRANCH  28  29
ATOM     29  O   UNL A   1      32.781  29.740  26.549  1.00  0.00    -0.458 OA
BRANCH  29  30
ATOM     30  C   UNL A   1      33.387  30.888  27.066  1.00  0.00     0.338 C 
ATOM     31  O   UNL A   1      32.786  31.941  27.224  1.00  0.00    -0.246 OA
BRANCH  30  32
ATOM     32  C   UNL A   1      34.806  30.686  27.642  1.00  0.00     0.060 A 
ATOM     33  C   UNL A   1      35.238  29.457  28.113  1.00  0.00     0.016 A 
ATOM     34  C   UNL A   1      35.672  31.768  27.914  1.00  0.00     0.016 A 
ATOM     35  C   UNL A   1      36.353  29.362  28.986  1.00  0.00     0.010 A 
ATOM     36  C   UNL A   1      36.917  31.608  28.625  1.00  0.00     0.010 A 
ATOM     37  C   UNL A   1      37.302  30.382  29.186  1.00  0.00    -0.014 A 
BRANCH  37  38
ATOM     38  C   UNL A   1      38.664  30.071  29.845  1.00  0.00     0.031 A 
ATOM     39  C   UNL A   1      39.717  29.095  29.292  1.00  0.00     0.074 A 
ATOM     40  C   UNL A   1      39.007  30.666  31.022  1.00  0.00     0.049 A 
ATOM     41  N   UNL A   1      40.759  28.561  29.905  1.00  0.00    -0.248 NA
ATOM     42  C   UNL A   1      39.619  28.692  27.885  1.00  0.00     0.031 C 
ATOM     43  C   UNL A   1      38.219  31.669  31.743  1.00  0.00     0.029 A 
ATOM     44  N   UNL A   1      40.116  30.512  31.842  1.00  0.00    -0.354 N 
ATOM     45  C   UNL A   1      41.403  27.732  28.981  1.00  0.00     0.074 A 
ATOM     46  C   UNL A   1      40.655  27.866  27.746  1.00  0.00     0.031 C 
ATOM     47  C   UNL A   1      38.886  32.100  32.815  1.00  0.00     0.029 A 
ATOM     48  C   UNL A   1      40.045  31.247  33.007  1.00  0.00     0.049 A 
ATOM     49  H   UNL A   1      40.879  29.933  31.614  1.00  0.00     0.167 HD
ATOM     50  C   UNL A   1      42.491  26.923  29.139  1.00  0.00     0.037 A 
ATOM     51  C   UNL A   1      40.708  31.198  34.181  1.00  0.00     0.037 A 
ATOM     52  C   UNL A   1      43.276  26.794  30.352  1.00  0.00     0.049 A 
ATOM     53  C   UNL A   1      41.781  30.188  34.408  1.00  0.00     0.074 A 
ATOM     54  C   UNL A   1      44.387  25.989  30.578  1.00  0.00     0.029 A 
ATOM     55  N   UNL A   1      43.048  27.473  31.536  1.00  0.00    -0.354 N 
ATOM     56  N   UNL A   1      42.283  29.326  33.563  1.00  0.00    -0.248 NA
ATOM     57  C   UNL A   1      42.350  30.114  35.762  1.00  0.00     0.031 C 
ATOM     58  C   UNL A   1      44.791  26.138  31.911  1.00  0.00     0.029 A 
ATOM     59  C   UNL A   1      43.966  27.076  32.503  1.00  0.00     0.049 A 
ATOM     60  H   UNL A   1      42.338  28.140  31.674  1.00  0.00     0.167 HD
ATOM     61  C   UNL A   1      43.222  28.601  34.284  1.00  0.00     0.074 A 
ATOM     62  C   UNL A   1      43.238  29.139  35.626  1.00  0.00     0.031 C 
ATOM     63  C   UNL A   1      43.992  27.573  33.854  1.00  0.00     0.037 A 
BRANCH  50  64
ATOM     64  C   UNL A   1      42.899  26.019  27.994  1.00  0.00     0.058 A 
ATOM     65  C   UNL A   1      43.965  26.321  27.133  1.00  0.00     0.135 A 
ATOM     66  C   UNL A   1      42.293  24.755  27.853  1.00  0.00     0.135 A 
ATOM     67  F   UNL A   1      44.597  27.500  27.228  1.00  0.00    -0.206 F 
ATOM     68  C   UNL A   1      44.398  25.415  26.161  1.00  0.00     0.059 A 
ATOM     69  C   UNL A   1      42.723  23.828  26.904  1.00  0.00     0.059 A 
ATOM     70  F   UNL A   1      41.289  24.396  28.669  1.00  0.00    -0.206 F 
ATOM     71  C   UNL A   1      43.769  24.173  26.053  1.00  0.00     0.060 A 
BRANCH  71  72
ATOM     72  S   UNL A   1      44.340  23.007  24.792  1.00  0.00     0.124 S 
ATOM     73  O   UNL A   1      44.916  21.948  25.614  1.00  0.00    -0.237 OA
ATOM     74  O   UNL A   1      43.104  22.665  24.094  1.00  0.00    -0.237 OA
ATOM     75  O   UNL A   1      45.298  23.787  24.014  1.00  0.00    -0.744 OA
ENDBRANCH  71  72
ENDBRANCH  50  64
BRANCH  51  76
ATOM     76  C   UNL A   1      40.240  32.060  35.305  1.00  0.00     0.058 A 
ATOM     77  C   UNL A   1      39.199  31.655  36.148  1.00  0.00     0.135 A 
ATOM     78  C   UNL A   1      40.886  33.276  35.593  1.00  0.00     0.135 A 
ATOM     79  F   UNL A   1      38.537  30.515  35.896  1.00  0.00    -0.206 F 
ATOM     80  C   UNL A   1      38.830  32.411  37.255  1.00  0.00     0.059 A 
ATOM     81  C   UNL A   1      40.562  34.028  36.714  1.00  0.00     0.059 A 
ATOM     82  F   UNL A   1      41.898  33.701  34.819  1.00  0.00    -0.206 F 
ATOM     83  C   UNL A   1      39.530  33.586  37.539  1.00  0.00     0.060 A 
BRANCH  83  84
ATOM     84  S   UNL A   1      39.133  34.498  39.047  1.00  0.00     0.124 S 
ATOM     85  O   UNL A   1      37.889  33.856  39.457  1.00  0.00    -0.237 OA
ATOM     86  O   UNL A   1      40.298  34.231  39.885  1.00  0.00    -0.237 OA
ATOM     87  O   UNL A   1      39.013  35.876  38.580  1.00  0.00    -0.744 OA
ENDBRANCH  83  84
ENDBRANCH  51  76
BRANCH  63  88
ATOM     88  C   UNL A   1      44.935  26.961  34.849  1.00  0.00     0.058 A 
ATOM     89  C   UNL A   1      46.220  27.486  35.059  1.00  0.00     0.135 A 
ATOM     90  C   UNL A   1      44.559  25.835  35.599  1.00  0.00     0.135 A 
ATOM     91  F   UNL A   1      46.638  28.548  34.353  1.00  0.00    -0.206 F 
ATOM     92  C   UNL A   1      47.105  26.906  35.964  1.00  0.00     0.059 A 
ATOM     93  C   UNL A   1      45.421  25.251  36.525  1.00  0.00     0.059 A 
ATOM     94  F   UNL A   1      43.344  25.289  35.434  1.00  0.00    -0.206 F 
ATOM     95  C   UNL A   1      46.697  25.787  36.692  1.00  0.00     0.060 A 
BRANCH  95  96
ATOM     96  S   UNL A   1      47.849  25.057  37.877  1.00  0.00     0.124 S 
ATOM     97  O   UNL A   1      48.460  26.245  38.464  1.00  0.00    -0.237 OA
ATOM     98  O   UNL A   1      46.960  24.301  38.753  1.00  0.00    -0.237 OA
ATOM     99  O   UNL A   1      48.730  24.247  37.039  1.00  0.00    -0.744 OA
ENDBRANCH  95  96
ENDBRANCH  63  88
ENDBRANCH  37  38
ENDBRANCH  30  32
ENDBRANCH  29  30
ENDBRANCH  28  29
ENDBRANCH   1  28
TORSDOF 18
ENDMDL
MODEL 2
REMARK VINA RESULT:     -11.3      4.743      9.162
REMARK SMILES Cc1ccc(Cl)c(Nc2ccccc2C(=O)N[C@@H](C)C(=O)OCCOC(=O)c2ccc(-c3c4nc(c(-c5c(F)cc(S(=O)(=O)[O-])cc5F)c5ccc([nH]5)c(-c5c(F)cc(S(=O)(=O)[O-])cc5F)c5nc(c(-c6c(F)cc(S(=O)(=O)[O-])cc6F)c6ccc3[nH]6)C=C5)C=C4)cc2)c1Cl
REMARK SMILES IDX 23 1 22 2 20 3 21 4 18 5 19 6 17 7 15 8 16 9 14 11 9 12
REMARK SMILES IDX 10 13 11 14 13 15 12 16 8 17 7 19 1 20 2 21 3 22 94 23 4 24
REMARK SMILES IDX 95 25 5 26 6 27 24 28 25 29 26 30 27 31 28 32 29 33 93 34
REMARK SMILES IDX 30 35 92 36 31 37 32 38 33 39 86 40 34 41 91 42 85 43 87 44
REMARK SMILES IDX 35 45 90 46 84 47 83 48 36 50 70 51 49 52 69 53 50 54 53 55
REMARK SMILES IDX 68 56 88 57 51 58 52 59 67 61 89 62 54 63 37 64 38 65 47 66
REMARK SMILES IDX 39 67 40 68 46 69 48 70 41 71 42 72 43 73 44 74 45 75 71 76
REMARK SMILES IDX 72 77 81 78 73 79 74 80 80 81 82 82 75 83 76 84 77 85 78 86
REMARK SMILES IDX 79 87 55 88 56 89 65 90 57 91 58 92 64 93 66 94 59 95 60 96
REMARK SMILES IDX 61 97 62 98 63 99
REMARK H PARENT 17 10 8 18 87 49 53 60
REMARK Flexibility Score: inf
ROOT
ATOM      1  C   UNL A   1      31.332  31.210  25.877  1.00  0.00     0.274 C 
ENDROOT
BRANCH   1   2
ATOM      2  O   UNL A   1      31.337  29.819  25.352  1.00  0.00    -0.461 OA
BRANCH   2   3
ATOM      3  C   UNL A   1      32.148  29.341  24.335  1.00  0.00     0.328 C 
ATOM      4  O   UNL A   1      33.341  29.163  24.468  1.00  0.00    -0.250 OA
BRANCH   3   5
ATOM      5  C   UNL A   1      31.340  29.050  22.952  1.00  0.00     0.189 C 
ATOM      6  C   UNL A   1      29.840  29.234  23.175  1.00  0.00     0.043 C 
BRANCH   5   7
ATOM      7  N   UNL A   1      31.624  27.683  22.411  1.00  0.00    -0.339 N 
ATOM      8  C   UNL A   1      31.763  26.340  22.723  1.00  0.00     0.254 C 
ATOM      9  O   UNL A   1      32.183  25.734  21.718  1.00  0.00    -0.269 OA
ATOM     10  H   UNL A   1      31.774  27.775  21.443  1.00  0.00     0.164 HD
BRANCH   8  11
ATOM     11  C   UNL A   1      31.527  25.445  23.961  1.00  0.00     0.063 A 
ATOM     12  C   UNL A   1      32.251  24.367  24.528  1.00  0.00     0.051 A 
ATOM     13  C   UNL A   1      31.840  23.729  25.736  1.00  0.00     0.027 A 
ATOM     14  C   UNL A   1      30.809  24.233  26.504  1.00  0.00     0.002 A 
ATOM     15  C   UNL A   1      30.441  25.884  24.770  1.00  0.00     0.016 A 
ATOM     16  C   UNL A   1      30.117  25.327  26.025  1.00  0.00     0.001 A 
BRANCH  12  17
ATOM     17  N   UNL A   1      33.593  24.106  24.268  1.00  0.00    -0.352 N 
ATOM     18  H   UNL A   1      34.218  24.866  24.232  1.00  0.00     0.167 HD
BRANCH  17  19
ATOM     19  C   UNL A   1      34.104  22.808  24.052  1.00  0.00     0.077 A 
ATOM     20  C   UNL A   1      32.495  19.305  24.096  1.00  0.00     0.046 C 
ATOM     21  C   UNL A   1      33.430  20.466  24.254  1.00  0.00    -0.030 A 
ATOM     22  C   UNL A   1      34.510  20.338  25.087  1.00  0.00     0.006 A 
ATOM     23  C   UNL A   1      33.292  21.701  23.646  1.00  0.00     0.069 A 
ATOM     24  C   UNL A   1      35.490  21.345  25.211  1.00  0.00     0.023 A 
ATOM     25  Cl  UNL A   1      32.165  21.817  22.341  1.00  0.00    -0.082 Cl
ATOM     26  C   UNL A   1      35.310  22.585  24.681  1.00  0.00     0.066 A 
ATOM     27  Cl  UNL A   1      36.426  23.842  25.082  1.00  0.00    -0.082 Cl
ENDBRANCH  17  19
ENDBRANCH  12  17
ENDBRANCH   8  11
ENDBRANCH   5   7
ENDBRANCH   3   5
ENDBRANCH   2   3
ENDBRANCH   1   2
BRANCH   1  28
ATOM     28  C   UNL A   1      32.195  31.659  27.183  1.00  0.00     0.275 C 
BRANCH  28  29
ATOM     29  O   UNL A   1      33.634  31.306  27.287  1.00  0.00    -0.458 OA
BRANCH  29  30
ATOM     30  C   UNL A   1      33.984  30.074  27.845  1.00  0.00     0.338 C 
ATOM     31  O   UNL A   1      33.211  29.129  27.905  1.00  0.00    -0.246 OA
BRANCH  30  32
ATOM     32  C   UNL A   1      35.482  29.899  28.177  1.00  0.00     0.060 A 
ATOM     33  C   UNL A   1      36.457  29.899  27.192  1.00  0.00     0.016 A 
ATOM     34  C   UNL A   1      35.933  29.528  29.463  1.00  0.00     0.016 A 
ATOM     35  C   UNL A   1      37.743  29.352  27.438  1.00  0.00     0.010 A 
ATOM     36  C   UNL A   1      37.306  29.177  29.735  1.00  0.00     0.010 A 
ATOM     37  C   UNL A   1      38.267  29.083  28.717  1.00  0.00    -0.014 A 
BRANCH  37  38
ATOM     38  C   UNL A   1      39.781  28.850  28.914  1.00  0.00     0.031 A 
ATOM     39  C   UNL A   1      40.803  29.931  29.303  1.00  0.00     0.074 A 
ATOM     40  C   UNL A   1      40.313  27.610  28.723  1.00  0.00     0.049 A 
ATOM     41  N   UNL A   1      42.121  29.896  29.223  1.00  0.00    -0.248 NA
ATOM     42  C   UNL A   1      40.303  31.184  29.880  1.00  0.00     0.031 C 
ATOM     43  C   UNL A   1      39.567  26.392  28.397  1.00  0.00     0.029 A 
ATOM     44  N   UNL A   1      41.623  27.156  28.766  1.00  0.00    -0.354 N 
ATOM     45  C   UNL A   1      42.598  31.126  29.689  1.00  0.00     0.074 A 
ATOM     46  C   UNL A   1      41.422  31.875  30.091  1.00  0.00     0.031 C 
ATOM     47  C   UNL A   1      40.388  25.341  28.362  1.00  0.00     0.029 A 
ATOM     48  C   UNL A   1      41.755  25.824  28.427  1.00  0.00     0.049 A 
ATOM     49  H   UNL A   1      42.385  27.727  29.015  1.00  0.00     0.167 HD
ATOM     50  C   UNL A   1      43.875  31.602  29.758  1.00  0.00     0.037 A 
ATOM     51  C   UNL A   1      42.802  25.056  28.061  1.00  0.00     0.037 A 
ATOM     52  C   UNL A   1      45.070  30.864  29.393  1.00  0.00     0.049 A 
ATOM     53  C   UNL A   1      44.175  25.633  27.968  1.00  0.00     0.074 A 
ATOM     54  C   UNL A   1      46.393  31.290  29.436  1.00  0.00     0.029 A 
ATOM     55  N   UNL A   1      45.102  29.564  28.921  1.00  0.00    -0.354 N 
ATOM     56  N   UNL A   1      44.578  26.835  28.286  1.00  0.00    -0.248 NA
ATOM     57  C   UNL A   1      45.227  24.761  27.425  1.00  0.00     0.031 C 
ATOM     58  C   UNL A   1      47.214  30.271  28.937  1.00  0.00     0.029 A 
ATOM     59  C   UNL A   1      46.410  29.189  28.632  1.00  0.00     0.049 A 
ATOM     60  H   UNL A   1      44.312  28.987  28.807  1.00  0.00     0.167 HD
ATOM     61  C   UNL A   1      45.931  26.867  27.976  1.00  0.00     0.074 A 
ATOM     62  C   UNL A   1      46.284  25.561  27.468  1.00  0.00     0.031 C 
ATOM     63  C   UNL A   1      46.791  27.906  28.101  1.00  0.00     0.037 A 
BRANCH  50  64
ATOM     64  C   UNL A   1      44.096  33.039  30.183  1.00  0.00     0.058 A 
ATOM     65  C   UNL A   1      44.027  34.115  29.283  1.00  0.00     0.135 A 
ATOM     66  C   UNL A   1      44.237  33.349  31.550  1.00  0.00     0.135 A 
ATOM     67  F   UNL A   1      43.874  33.887  27.970  1.00  0.00    -0.206 F 
ATOM     68  C   UNL A   1      44.115  35.439  29.720  1.00  0.00     0.059 A 
ATOM     69  C   UNL A   1      44.305  34.664  32.009  1.00  0.00     0.059 A 
ATOM     70  F   UNL A   1      44.276  32.364  32.462  1.00  0.00    -0.206 F 
ATOM     71  C   UNL A   1      44.256  35.703  31.084  1.00  0.00     0.060 A 
BRANCH  71  72
ATOM     72  S   UNL A   1      44.366  37.422  31.638  1.00  0.00     0.124 S 
ATOM     73  O   UNL A   1      43.787  38.132  30.502  1.00  0.00    -0.237 OA
ATOM     74  O   UNL A   1      43.562  37.414  32.856  1.00  0.00    -0.237 OA
ATOM     75  O   UNL A   1      45.797  37.626  31.839  1.00  0.00    -0.744 OA
ENDBRANCH  71  72
ENDBRANCH  50  64
BRANCH  51  76
ATOM     76  C   UNL A   1      42.540  23.664  27.592  1.00  0.00     0.058 A 
ATOM     77  C   UNL A   1      42.327  23.381  26.238  1.00  0.00     0.135 A 
ATOM     78  C   UNL A   1      42.574  22.586  28.494  1.00  0.00     0.135 A 
ATOM     79  F   UNL A   1      42.260  24.381  25.345  1.00  0.00    -0.206 F 
ATOM     80  C   UNL A   1      42.183  22.073  25.788  1.00  0.00     0.059 A 
ATOM     81  C   UNL A   1      42.473  21.270  28.063  1.00  0.00     0.059 A 
ATOM     82  F   UNL A   1      42.787  22.807  29.801  1.00  0.00    -0.206 F 
ATOM     83  C   UNL A   1      42.276  21.024  26.706  1.00  0.00     0.060 A 
BRANCH  83  84
ATOM     84  S   UNL A   1      42.216  19.324  26.101  1.00  0.00     0.124 S 
ATOM     85  O   UNL A   1      43.155  19.378  24.986  1.00  0.00    -0.237 OA
ATOM     86  O   UNL A   1      42.650  18.564  27.268  1.00  0.00    -0.237 OA
ATOM     87  O   UNL A   1      40.812  19.149  25.739  1.00  0.00    -0.744 OA
ENDBRANCH  83  84
ENDBRANCH  51  76
BRANCH  63  88
ATOM     88  C   UNL A   1      48.216  27.669  27.689  1.00  0.00     0.058 A 
ATOM     89  C   UNL A   1      49.166  27.169  28.593  1.00  0.00     0.135 A 
ATOM     90  C   UNL A   1      48.642  27.948  26.381  1.00  0.00     0.135 A 
ATOM     91  F   UNL A   1      48.816  26.906  29.862  1.00  0.00    -0.206 F 
ATOM     92  C   UNL A   1      50.492  26.971  28.221  1.00  0.00     0.059 A 
ATOM     93  C   UNL A   1      49.960  27.739  25.980  1.00  0.00     0.059 A 
ATOM     94  F   UNL A   1      47.776  28.434  25.477  1.00  0.00    -0.206 F 
ATOM     95  C   UNL A   1      50.881  27.260  26.911  1.00  0.00     0.060 A 
BRANCH  95  96
ATOM     96  S   UNL A   1      52.601  26.980  26.436  1.00  0.00     0.124 S 
ATOM     97  O   UNL A   1      53.195  26.571  27.705  1.00  0.00    -0.237 OA
ATOM     98  O   UNL A   1      52.481  25.935  25.425  1.00  0.00    -0.237 OA
ATOM     99  O   UNL A   1      53.031  28.283  25.934  1.00  0.00    -0.744 OA
ENDBRANCH  95  96
ENDBRANCH  63  88
ENDBRANCH  37  38
ENDBRANCH  30  32
ENDBRANCH  29  30
ENDBRANCH  28  29
ENDBRANCH   1  28
TORSDOF 18
ENDMDL
MODEL 3
REMARK VINA RESULT:     -11.3      1.293      2.558
REMARK SMILES Cc1ccc(Cl)c(Nc2ccccc2C(=O)N[C@@H](C)C(=O)OCCOC(=O)c2ccc(-c3c4nc(c(-c5c(F)cc(S(=O)(=O)[O-])cc5F)c5ccc([nH]5)c(-c5c(F)cc(S(=O)(=O)[O-])cc5F)c5nc(c(-c6c(F)cc(S(=O)(=O)[O-])cc6F)c6ccc3[nH]6)C=C5)C=C4)cc2)c1Cl
REMARK SMILES IDX 23 1 22 2 20 3 21 4 18 5 19 6 17 7 15 8 16 9 14 11 9 12
REMARK SMILES IDX 10 13 11 14 13 15 12 16 8 17 7 19 1 20 2 21 3 22 94 23 4 24
REMARK SMILES IDX 95 25 5 26 6 27 24 28 25 29 26 30 27 31 28 32 29 33 93 34
REMARK SMILES IDX 30 35 92 36 31 37 32 38 33 39 86 40 34 41 91 42 85 43 87 44
REMARK SMILES IDX 35 45 90 46 84 47 83 48 36 50 70 51 49 52 69 53 50 54 53 55
REMARK SMILES IDX 68 56 88 57 51 58 52 59 67 61 89 62 54 63 37 64 38 65 47 66
REMARK SMILES IDX 39 67 40 68 46 69 48 70 41 71 42 72 43 73 44 74 45 75 71 76
REMARK SMILES IDX 72 77 81 78 73 79 74 80 80 81 82 82 75 83 76 84 77 85 78 86
REMARK SMILES IDX 79 87 55 88 56 89 65 90 57 91 58 92 64 93 66 94 59 95 60 96
REMARK SMILES IDX 61 97 62 98 63 99
REMARK H PARENT 17 10 8 18 87 49 53 60
REMARK Flexibility Score: inf
ROOT
ATOM      1  C   UNL A   1      31.697  28.717  26.893  1.00  0.00     0.274 C 
ENDROOT
BRANCH   1   2
ATOM      2  O   UNL A   1      31.334  27.988  25.649  1.00  0.00    -0.461 OA
BRANCH   2   3
ATOM      3  C   UNL A   1      31.719  28.340  24.364  1.00  0.00     0.328 C 
ATOM      4  O   UNL A   1      31.068  29.082  23.659  1.00  0.00    -0.250 OA
BRANCH   3   5
ATOM      5  C   UNL A   1      33.120  27.652  23.902  1.00  0.00     0.189 C 
ATOM      6  C   UNL A   1      33.983  28.672  23.161  1.00  0.00     0.043 C 
BRANCH   5   7
ATOM      7  N   UNL A   1      32.899  26.439  23.051  1.00  0.00    -0.339 N 
ATOM      8  C   UNL A   1      32.518  25.108  23.043  1.00  0.00     0.254 C 
ATOM      9  O   UNL A   1      32.724  24.637  21.907  1.00  0.00    -0.269 OA
ATOM     10  H   UNL A   1      33.110  26.690  22.123  1.00  0.00     0.164 HD
BRANCH   8  11
ATOM     11  C   UNL A   1      31.920  24.104  24.055  1.00  0.00     0.063 A 
ATOM     12  C   UNL A   1      32.189  22.743  24.344  1.00  0.00     0.051 A 
ATOM     13  C   UNL A   1      31.518  22.042  25.390  1.00  0.00     0.027 A 
ATOM     14  C   UNL A   1      30.690  22.696  26.282  1.00  0.00     0.002 A 
ATOM     15  C   UNL A   1      31.015  24.709  24.974  1.00  0.00     0.016 A 
ATOM     16  C   UNL A   1      30.452  24.041  26.081  1.00  0.00     0.001 A 
BRANCH  12  17
ATOM     17  N   UNL A   1      33.366  22.090  23.992  1.00  0.00    -0.352 N 
ATOM     18  H   UNL A   1      33.463  21.767  23.068  1.00  0.00     0.167 HD
BRANCH  17  19
ATOM     19  C   UNL A   1      34.428  21.865  24.895  1.00  0.00     0.077 A 
ATOM     20  C   UNL A   1      37.668  23.800  25.681  1.00  0.00     0.046 C 
ATOM     21  C   UNL A   1      36.653  22.725  25.429  1.00  0.00    -0.030 A 
ATOM     22  C   UNL A   1      37.087  21.446  25.198  1.00  0.00     0.006 A 
ATOM     23  C   UNL A   1      35.283  22.906  25.378  1.00  0.00     0.069 A 
ATOM     24  C   UNL A   1      36.195  20.363  25.054  1.00  0.00     0.023 A 
ATOM     25  Cl  UNL A   1      34.660  24.399  25.988  1.00  0.00    -0.082 Cl
ATOM     26  C   UNL A   1      34.855  20.554  24.920  1.00  0.00     0.066 A 
ATOM     27  Cl  UNL A   1      33.851  19.213  24.495  1.00  0.00    -0.082 Cl
ENDBRANCH  17  19
ENDBRANCH  12  17
ENDBRANCH   8  11
ENDBRANCH   5   7
ENDBRANCH   3   5
ENDBRANCH   2   3
ENDBRANCH   1   2
BRANCH   1  28
ATOM     28  C   UNL A   1      32.182  30.271  26.890  1.00  0.00     0.275 C 
BRANCH  28  29
ATOM     29  O   UNL A   1      33.614  30.607  26.683  1.00  0.00    -0.458 OA
BRANCH  29  30
ATOM     30  C   UNL A   1      34.219  31.527  27.544  1.00  0.00     0.338 C 
ATOM     31  O   UNL A   1      33.689  32.580  27.868  1.00  0.00    -0.246 OA
BRANCH  30  32
ATOM     32  C   UNL A   1      35.501  31.030  28.247  1.00  0.00     0.060 A 
ATOM     33  C   UNL A   1      36.578  31.868  28.486  1.00  0.00     0.016 A 
ATOM     34  C   UNL A   1      35.739  29.662  28.506  1.00  0.00     0.016 A 
ATOM     35  C   UNL A   1      37.868  31.338  28.754  1.00  0.00     0.010 A 
ATOM     36  C   UNL A   1      37.007  29.170  28.987  1.00  0.00     0.010 A 
ATOM     37  C   UNL A   1      38.124  30.007  29.132  1.00  0.00    -0.014 A 
BRANCH  37  38
ATOM     38  C   UNL A   1      39.479  29.614  29.761  1.00  0.00     0.031 A 
ATOM     39  C   UNL A   1      40.425  28.526  29.225  1.00  0.00     0.074 A 
ATOM     40  C   UNL A   1      39.912  30.234  30.895  1.00  0.00     0.049 A 
ATOM     41  N   UNL A   1      41.441  27.936  29.830  1.00  0.00    -0.248 NA
ATOM     42  C   UNL A   1      40.242  28.066  27.844  1.00  0.00     0.031 C 
ATOM     43  C   UNL A   1      39.239  31.334  31.588  1.00  0.00     0.029 A 
ATOM     44  N   UNL A   1      41.034  30.025  31.684  1.00  0.00    -0.354 N 
ATOM     45  C   UNL A   1      41.979  27.011  28.929  1.00  0.00     0.074 A 
ATOM     46  C   UNL A   1      41.199  27.148  27.714  1.00  0.00     0.031 C 
ATOM     47  C   UNL A   1      39.978  31.757  32.614  1.00  0.00     0.029 A 
ATOM     48  C   UNL A   1      41.068  30.820  32.812  1.00  0.00     0.049 A 
ATOM     49  H   UNL A   1      41.738  29.374  31.462  1.00  0.00     0.167 HD
ATOM     50  C   UNL A   1      43.001  26.121  29.093  1.00  0.00     0.037 A 
ATOM     51  C   UNL A   1      41.768  30.771  33.965  1.00  0.00     0.037 A 
ATOM     52  C   UNL A   1      43.817  25.984  30.285  1.00  0.00     0.049 A 
ATOM     53  C   UNL A   1      42.760  29.685  34.208  1.00  0.00     0.074 A 
ATOM     54  C   UNL A   1      44.865  25.100  30.516  1.00  0.00     0.029 A 
ATOM     55  N   UNL A   1      43.690  26.737  31.440  1.00  0.00    -0.354 N 
ATOM     56  N   UNL A   1      43.157  28.744  33.392  1.00  0.00    -0.248 NA
ATOM     57  C   UNL A   1      43.371  29.629  35.544  1.00  0.00     0.031 C 
ATOM     58  C   UNL A   1      45.328  25.278  31.825  1.00  0.00     0.029 A 
ATOM     59  C   UNL A   1      44.607  26.310  32.395  1.00  0.00     0.049 A 
ATOM     60  H   UNL A   1      43.043  27.468  31.566  1.00  0.00     0.167 HD
ATOM     61  C   UNL A   1      44.058  27.977  34.118  1.00  0.00     0.074 A 
ATOM     62  C   UNL A   1      44.169  28.576  35.430  1.00  0.00     0.031 C 
ATOM     63  C   UNL A   1      44.723  26.868  33.717  1.00  0.00     0.037 A 
BRANCH  50  64
ATOM     64  C   UNL A   1      43.290  25.131  27.983  1.00  0.00     0.058 A 
ATOM     65  C   UNL A   1      44.231  25.379  26.972  1.00  0.00     0.135 A 
ATOM     66  C   UNL A   1      42.708  23.848  28.023  1.00  0.00     0.135 A 
ATOM     67  F   UNL A   1      44.834  26.574  26.891  1.00  0.00    -0.206 F 
ATOM     68  C   UNL A   1      44.566  24.403  26.031  1.00  0.00     0.059 A 
ATOM     69  C   UNL A   1      43.044  22.853  27.107  1.00  0.00     0.059 A 
ATOM     70  F   UNL A   1      41.825  23.541  28.987  1.00  0.00    -0.206 F 
ATOM     71  C   UNL A   1      43.966  23.144  26.105  1.00  0.00     0.060 A 
BRANCH  71  72
ATOM     72  S   UNL A   1      44.409  21.887  24.881  1.00  0.00     0.124 S 
ATOM     73  O   UNL A   1      45.814  21.653  25.200  1.00  0.00    -0.237 OA
ATOM     74  O   UNL A   1      43.497  20.794  25.205  1.00  0.00    -0.237 OA
ATOM     75  O   UNL A   1      44.159  22.549  23.605  1.00  0.00    -0.744 OA
ENDBRANCH  71  72
ENDBRANCH  50  64
BRANCH  51  76
ATOM     76  C   UNL A   1      41.415  31.724  35.058  1.00  0.00     0.058 A 
ATOM     77  C   UNL A   1      42.125  32.915  35.241  1.00  0.00     0.135 A 
ATOM     78  C   UNL A   1      40.306  31.481  35.889  1.00  0.00     0.135 A 
ATOM     79  F   UNL A   1      43.205  33.177  34.489  1.00  0.00    -0.206 F 
ATOM     80  C   UNL A   1      41.733  33.850  36.194  1.00  0.00     0.059 A 
ATOM     81  C   UNL A   1      39.873  32.416  36.819  1.00  0.00     0.059 A 
ATOM     82  F   UNL A   1      39.588  30.356  35.743  1.00  0.00    -0.206 F 
ATOM     83  C   UNL A   1      40.595  33.598  36.965  1.00  0.00     0.060 A 
BRANCH  83  84
ATOM     84  S   UNL A   1      40.016  34.869  38.110  1.00  0.00     0.124 S 
ATOM     85  O   UNL A   1      38.841  34.227  38.689  1.00  0.00    -0.237 OA
ATOM     86  O   UNL A   1      41.162  35.028  38.999  1.00  0.00    -0.237 OA
ATOM     87  O   UNL A   1      39.751  36.008  37.236  1.00  0.00    -0.744 OA
ENDBRANCH  83  84
ENDBRANCH  51  76
BRANCH  63  88
ATOM     88  C   UNL A   1      45.648  26.227  34.711  1.00  0.00     0.058 A 
ATOM     89  C   UNL A   1      45.215  25.186  35.549  1.00  0.00     0.135 A 
ATOM     90  C   UNL A   1      46.979  26.656  34.838  1.00  0.00     0.135 A 
ATOM     91  F   UNL A   1      43.946  24.752  35.483  1.00  0.00    -0.206 F 
ATOM     92  C   UNL A   1      46.063  24.605  36.487  1.00  0.00     0.059 A 
ATOM     93  C   UNL A   1      47.851  26.076  35.757  1.00  0.00     0.059 A 
ATOM     94  F   UNL A   1      47.444  27.651  34.067  1.00  0.00    -0.206 F 
ATOM     95  C   UNL A   1      47.380  25.058  36.586  1.00  0.00     0.060 A 
BRANCH  95  96
ATOM     96  S   UNL A   1      48.475  24.283  37.796  1.00  0.00     0.124 S 
ATOM     97  O   UNL A   1      47.560  23.375  38.481  1.00  0.00    -0.237 OA
ATOM     98  O   UNL A   1      49.480  23.650  36.948  1.00  0.00    -0.237 OA
ATOM     99  O   UNL A   1      48.954  25.410  38.591  1.00  0.00    -0.744 OA
ENDBRANCH  95  96
ENDBRANCH  63  88
ENDBRANCH  37  38
ENDBRANCH  30  32
ENDBRANCH  29  30
ENDBRANCH  28  29
ENDBRANCH   1  28
TORSDOF 18
ENDMDL
