MODEL 1
REMARK VINA RESULT:     -11.7      0.000      0.000
REMARK SMILES O=C(OCCOC(=O)[C@H]1CCCN1C(=O)CN1C(=O)[C@@H]2[C@H](C1=O)[C@H]1C=C[C@@H]2C1)c1ccc(-c2c3nc(c(-c4c(F)cc(S(=O)(=O)[O-])cc4F)c4ccc([nH]4)c(-c4c(F)cc(S(=O)(=O)[O-])cc4F)c4nc(c(-c5c(F)cc(S(=O)(=O)[O-])cc5F)c5ccc2[nH]5)C=C4)C=C3)cc1
REMARK SMILES IDX 4 1 3 2 2 3 1 4 29 5 30 6 94 7 31 8 93 9 32 10 33 11 34 12
REMARK SMILES IDX 87 13 35 14 92 15 86 16 88 17 36 18 91 19 85 20 84 21 37 23
REMARK SMILES IDX 71 24 50 25 70 26 51 27 54 28 69 29 89 30 52 31 53 32 68 34
REMARK SMILES IDX 90 35 55 36 38 37 39 38 48 39 40 40 41 41 47 42 49 43 42 44
REMARK SMILES IDX 43 45 44 46 45 47 46 48 72 49 73 50 82 51 74 52 75 53 81 54
REMARK SMILES IDX 83 55 76 56 77 57 78 58 79 59 80 60 56 61 57 62 66 63 58 64
REMARK SMILES IDX 59 65 65 66 67 67 60 68 61 69 62 70 63 71 64 72 5 73 6 74
REMARK SMILES IDX 7 75 8 76 9 77 10 78 13 79 11 80 12 81 14 82 15 83 16 84
REMARK SMILES IDX 17 85 22 86 18 87 23 88 21 89 20 90 19 91 24 92 27 93 25 94
REMARK SMILES IDX 28 95 26 96
REMARK H PARENT 88 22 54 33
REMARK Flexibility Score: inf
ROOT
ATOM      1  C   UNL A   1      38.962  22.468  26.294  1.00  0.00     0.275 C 
ENDROOT
BRANCH   1   2
ATOM      2  O   UNL A   1      39.172  23.887  26.166  1.00  0.00    -0.458 OA
BRANCH   2   3
ATOM      3  C   UNL A   1      40.086  24.710  26.737  1.00  0.00     0.338 C 
ATOM      4  O   UNL A   1      41.269  24.421  26.554  1.00  0.00    -0.246 OA
BRANCH   3   5
ATOM      5  C   UNL A   1      39.795  25.846  27.701  1.00  0.00     0.060 A 
ATOM      6  C   UNL A   1      38.931  25.817  28.805  1.00  0.00     0.016 A 
ATOM      7  C   UNL A   1      40.671  26.958  27.614  1.00  0.00     0.016 A 
ATOM      8  C   UNL A   1      39.115  26.716  29.885  1.00  0.00     0.010 A 
ATOM      9  C   UNL A   1      40.845  27.866  28.682  1.00  0.00     0.010 A 
ATOM     10  C   UNL A   1      40.139  27.691  29.879  1.00  0.00    -0.014 A 
BRANCH  10  11
ATOM     11  C   UNL A   1      40.229  28.633  31.037  1.00  0.00     0.031 A 
ATOM     12  C   UNL A   1      39.140  29.640  31.054  1.00  0.00     0.074 A 
ATOM     13  C   UNL A   1      41.117  28.603  32.064  1.00  0.00     0.049 A 
ATOM     14  N   UNL A   1      38.912  30.562  31.937  1.00  0.00    -0.248 NA
ATOM     15  C   UNL A   1      38.243  29.657  29.884  1.00  0.00     0.031 C 
ATOM     16  C   UNL A   1      42.338  27.828  32.105  1.00  0.00     0.029 A 
ATOM     17  N   UNL A   1      41.129  29.190  33.318  1.00  0.00    -0.354 N 
ATOM     18  C   UNL A   1      37.894  31.315  31.395  1.00  0.00     0.074 A 
ATOM     19  C   UNL A   1      37.533  30.742  30.122  1.00  0.00     0.031 C 
ATOM     20  C   UNL A   1      42.805  27.723  33.357  1.00  0.00     0.029 A 
ATOM     21  C   UNL A   1      42.123  28.707  34.166  1.00  0.00     0.049 A 
ATOM     22  H   UNL A   1      40.491  29.890  33.586  1.00  0.00     0.167 HD
ATOM     23  C   UNL A   1      37.348  32.428  31.911  1.00  0.00     0.037 A 
ATOM     24  C   UNL A   1      42.547  29.080  35.396  1.00  0.00     0.037 A 
ATOM     25  C   UNL A   1      37.770  33.009  33.148  1.00  0.00     0.049 A 
ATOM     26  C   UNL A   1      41.924  30.334  35.933  1.00  0.00     0.074 A 
ATOM     27  C   UNL A   1      37.280  34.143  33.758  1.00  0.00     0.029 A 
ATOM     28  N   UNL A   1      38.802  32.526  33.943  1.00  0.00    -0.354 N 
ATOM     29  N   UNL A   1      40.935  31.024  35.418  1.00  0.00    -0.248 NA
ATOM     30  C   UNL A   1      42.509  30.920  37.144  1.00  0.00     0.031 C 
ATOM     31  C   UNL A   1      38.067  34.394  34.881  1.00  0.00     0.029 A 
ATOM     32  C   UNL A   1      38.980  33.360  35.030  1.00  0.00     0.049 A 
ATOM     33  H   UNL A   1      39.326  31.713  33.760  1.00  0.00     0.167 HD
ATOM     34  C   UNL A   1      40.786  32.131  36.232  1.00  0.00     0.074 A 
ATOM     35  C   UNL A   1      41.754  31.997  37.303  1.00  0.00     0.031 C 
ATOM     36  C   UNL A   1      39.939  33.176  36.089  1.00  0.00     0.037 A 
BRANCH  23  37
ATOM     37  C   UNL A   1      36.332  33.115  31.066  1.00  0.00     0.058 A 
ATOM     38  C   UNL A   1      34.958  33.032  31.339  1.00  0.00     0.135 A 
ATOM     39  C   UNL A   1      36.749  33.832  29.935  1.00  0.00     0.135 A 
ATOM     40  F   UNL A   1      34.511  32.290  32.366  1.00  0.00    -0.206 F 
ATOM     41  C   UNL A   1      34.029  33.645  30.516  1.00  0.00     0.059 A 
ATOM     42  C   UNL A   1      35.840  34.491  29.126  1.00  0.00     0.059 A 
ATOM     43  F   UNL A   1      38.049  33.884  29.608  1.00  0.00    -0.206 F 
ATOM     44  C   UNL A   1      34.482  34.393  29.428  1.00  0.00     0.060 A 
BRANCH  44  45
ATOM     45  S   UNL A   1      33.265  35.277  28.442  1.00  0.00     0.124 S 
ATOM     46  O   UNL A   1      32.530  36.007  29.470  1.00  0.00    -0.237 OA
ATOM     47  O   UNL A   1      34.114  36.087  27.573  1.00  0.00    -0.237 OA
ATOM     48  O   UNL A   1      32.525  34.210  27.778  1.00  0.00    -0.744 OA
ENDBRANCH  44  45
ENDBRANCH  23  37
BRANCH  24  49
ATOM     49  C   UNL A   1      43.707  28.431  36.112  1.00  0.00     0.058 A 
ATOM     50  C   UNL A   1      43.530  27.320  36.960  1.00  0.00     0.135 A 
ATOM     51  C   UNL A   1      45.017  28.942  36.025  1.00  0.00     0.135 A 
ATOM     52  F   UNL A   1      42.306  26.794  37.129  1.00  0.00    -0.206 F 
ATOM     53  C   UNL A   1      44.586  26.762  37.689  1.00  0.00     0.059 A 
ATOM     54  C   UNL A   1      46.097  28.361  36.688  1.00  0.00     0.059 A 
ATOM     55  F   UNL A   1      45.270  30.029  35.279  1.00  0.00    -0.206 F 
ATOM     56  C   UNL A   1      45.870  27.285  37.537  1.00  0.00     0.060 A 
BRANCH  56  57
ATOM     57  S   UNL A   1      47.234  26.550  38.470  1.00  0.00     0.124 S 
ATOM     58  O   UNL A   1      47.202  25.168  38.004  1.00  0.00    -0.237 OA
ATOM     59  O   UNL A   1      48.374  27.346  38.022  1.00  0.00    -0.237 OA
ATOM     60  O   UNL A   1      46.843  26.752  39.862  1.00  0.00    -0.744 OA
ENDBRANCH  56  57
ENDBRANCH  24  49
BRANCH  36  61
ATOM     61  C   UNL A   1      39.966  34.213  37.163  1.00  0.00     0.058 A 
ATOM     62  C   UNL A   1      40.772  35.356  37.072  1.00  0.00     0.135 A 
ATOM     63  C   UNL A   1      39.094  34.090  38.255  1.00  0.00     0.135 A 
ATOM     64  F   UNL A   1      41.632  35.503  36.051  1.00  0.00    -0.206 F 
ATOM     65  C   UNL A   1      40.716  36.346  38.041  1.00  0.00     0.059 A 
ATOM     66  C   UNL A   1      38.987  35.089  39.208  1.00  0.00     0.059 A 
ATOM     67  F   UNL A   1      38.303  33.011  38.374  1.00  0.00    -0.206 F 
ATOM     68  C   UNL A   1      39.806  36.211  39.092  1.00  0.00     0.060 A 
BRANCH  68  69
ATOM     69  S   UNL A   1      39.677  37.551  40.287  1.00  0.00     0.124 S 
ATOM     70  O   UNL A   1      39.327  36.828  41.504  1.00  0.00    -0.237 OA
ATOM     71  O   UNL A   1      41.020  38.122  40.249  1.00  0.00    -0.237 OA
ATOM     72  O   UNL A   1      38.624  38.399  39.736  1.00  0.00    -0.744 OA
ENDBRANCH  68  69
ENDBRANCH  36  61
ENDBRANCH  10  11
ENDBRANCH   3   5
ENDBRANCH   2   3
ENDBRANCH   1   2
BRANCH   1  73
ATOM     73  C   UNL A   1      37.820  21.959  25.414  1.00  0.00     0.274 C 
BRANCH  73  74
ATOM     74  O   UNL A   1      36.576  22.106  26.097  1.00  0.00    -0.461 OA
BRANCH  74  75
ATOM     75  C   UNL A   1      35.445  21.648  25.493  1.00  0.00     0.328 C 
ATOM     76  O   UNL A   1      35.243  20.479  25.195  1.00  0.00    -0.250 OA
BRANCH  75  77
ATOM     77  C   UNL A   1      34.430  22.784  25.280  1.00  0.00     0.195 C 
ATOM     78  C   UNL A   1      34.937  23.898  24.449  1.00  0.00     0.039 C 
ATOM     79  N   UNL A   1      33.246  22.477  24.509  1.00  0.00    -0.327 N 
ATOM     80  C   UNL A   1      34.907  23.313  23.059  1.00  0.00     0.024 C 
ATOM     81  C   UNL A   1      33.549  22.622  23.076  1.00  0.00     0.120 C 
BRANCH  79  82
ATOM     82  C   UNL A   1      31.967  22.735  24.981  1.00  0.00     0.243 C 
ATOM     83  O   UNL A   1      31.521  22.152  25.971  1.00  0.00    -0.273 OA
BRANCH  82  84
ATOM     84  C   UNL A   1      31.027  23.599  24.120  1.00  0.00     0.228 C 
BRANCH  84  85
ATOM     85  N   UNL A   1      31.070  25.017  24.447  1.00  0.00    -0.273 N 
ATOM     86  C   UNL A   1      31.751  25.875  23.629  1.00  0.00     0.234 C 
ATOM     87  C   UNL A   1      30.522  25.592  25.582  1.00  0.00     0.234 C 
ATOM     88  O   UNL A   1      32.237  25.607  22.532  1.00  0.00    -0.274 OA
ATOM     89  C   UNL A   1      31.936  27.166  24.336  1.00  0.00     0.099 C 
ATOM     90  C   UNL A   1      30.753  27.107  25.532  1.00  0.00     0.099 C 
ATOM     91  O   UNL A   1      29.987  24.995  26.504  1.00  0.00    -0.274 OA
ATOM     92  C   UNL A   1      33.372  27.036  25.236  1.00  0.00     0.025 C 
ATOM     93  C   UNL A   1      31.633  27.647  27.081  1.00  0.00     0.025 C 
ATOM     94  C   UNL A   1      34.028  28.276  26.045  1.00  0.00    -0.027 C 
ATOM     95  C   UNL A   1      32.607  26.653  26.500  1.00  0.00     0.017 C 
ATOM     96  C   UNL A   1      33.193  28.642  27.092  1.00  0.00    -0.027 C 
ENDBRANCH  84  85
ENDBRANCH  82  84
ENDBRANCH  79  82
ENDBRANCH  75  77
ENDBRANCH  74  75
ENDBRANCH  73  74
ENDBRANCH   1  73
TORSDOF 17
ENDMDL
MODEL 2
REMARK VINA RESULT:     -11.4      7.030     11.986
REMARK SMILES O=C(OCCOC(=O)[C@H]1CCCN1C(=O)CN1C(=O)[C@@H]2[C@H](C1=O)[C@H]1C=C[C@@H]2C1)c1ccc(-c2c3nc(c(-c4c(F)cc(S(=O)(=O)[O-])cc4F)c4ccc([nH]4)c(-c4c(F)cc(S(=O)(=O)[O-])cc4F)c4nc(c(-c5c(F)cc(S(=O)(=O)[O-])cc5F)c5ccc2[nH]5)C=C4)C=C3)cc1
REMARK SMILES IDX 4 1 3 2 2 3 1 4 29 5 30 6 94 7 31 8 93 9 32 10 33 11 34 12
REMARK SMILES IDX 87 13 35 14 92 15 86 16 88 17 36 18 91 19 85 20 84 21 37 23
REMARK SMILES IDX 71 24 50 25 70 26 51 27 54 28 69 29 89 30 52 31 53 32 68 34
REMARK SMILES IDX 90 35 55 36 38 37 39 38 48 39 40 40 41 41 47 42 49 43 42 44
REMARK SMILES IDX 43 45 44 46 45 47 46 48 72 49 73 50 82 51 74 52 75 53 81 54
REMARK SMILES IDX 83 55 76 56 77 57 78 58 79 59 80 60 56 61 57 62 66 63 58 64
REMARK SMILES IDX 59 65 65 66 67 67 60 68 61 69 62 70 63 71 64 72 5 73 6 74
REMARK SMILES IDX 7 75 8 76 9 77 10 78 13 79 11 80 12 81 14 82 15 83 16 84
REMARK SMILES IDX 17 85 22 86 18 87 23 88 21 89 20 90 19 91 24 92 27 93 25 94
REMARK SMILES IDX 28 95 26 96
REMARK H PARENT 88 22 54 33
REMARK Flexibility Score: inf
ROOT
ATOM      1  C   UNL A   1      34.399  30.812  28.042  1.00  0.00     0.275 C 
ENDROOT
BRANCH   1   2
ATOM      2  O   UNL A   1      35.620  30.935  28.795  1.00  0.00    -0.458 OA
BRANCH   2   3
ATOM      3  C   UNL A   1      36.358  30.011  29.460  1.00  0.00     0.338 C 
ATOM      4  O   UNL A   1      35.992  29.742  30.604  1.00  0.00    -0.246 OA
BRANCH   3   5
ATOM      5  C   UNL A   1      37.668  29.402  28.992  1.00  0.00     0.060 A 
ATOM      6  C   UNL A   1      38.217  29.465  27.704  1.00  0.00     0.016 A 
ATOM      7  C   UNL A   1      38.527  28.942  30.023  1.00  0.00     0.016 A 
ATOM      8  C   UNL A   1      39.613  29.319  27.510  1.00  0.00     0.010 A 
ATOM      9  C   UNL A   1      39.917  28.778  29.829  1.00  0.00     0.010 A 
ATOM     10  C   UNL A   1      40.494  29.069  28.588  1.00  0.00    -0.014 A 
BRANCH  10  11
ATOM     11  C   UNL A   1      41.947  28.877  28.286  1.00  0.00     0.031 A 
ATOM     12  C   UNL A   1      42.254  27.534  27.734  1.00  0.00     0.074 A 
ATOM     13  C   UNL A   1      42.944  29.794  28.386  1.00  0.00     0.049 A 
ATOM     14  N   UNL A   1      43.398  27.072  27.336  1.00  0.00    -0.248 NA
ATOM     15  C   UNL A   1      41.141  26.567  27.704  1.00  0.00     0.031 C 
ATOM     16  C   UNL A   1      42.861  31.062  29.076  1.00  0.00     0.029 A 
ATOM     17  N   UNL A   1      44.226  29.854  27.866  1.00  0.00    -0.354 N 
ATOM     18  C   UNL A   1      43.161  25.740  27.078  1.00  0.00     0.074 A 
ATOM     19  C   UNL A   1      41.770  25.466  27.343  1.00  0.00     0.031 C 
ATOM     20  C   UNL A   1      43.851  31.884  28.703  1.00  0.00     0.029 A 
ATOM     21  C   UNL A   1      44.844  31.093  28.014  1.00  0.00     0.049 A 
ATOM     22  H   UNL A   1      44.662  29.086  27.430  1.00  0.00     0.167 HD
ATOM     23  C   UNL A   1      44.059  24.817  26.697  1.00  0.00     0.037 A 
ATOM     24  C   UNL A   1      46.099  31.532  27.762  1.00  0.00     0.037 A 
ATOM     25  C   UNL A   1      45.446  25.106  26.500  1.00  0.00     0.049 A 
ATOM     26  C   UNL A   1      47.077  30.471  27.351  1.00  0.00     0.074 A 
ATOM     27  C   UNL A   1      46.443  24.236  26.116  1.00  0.00     0.029 A 
ATOM     28  N   UNL A   1      46.038  26.346  26.707  1.00  0.00    -0.354 N 
ATOM     29  N   UNL A   1      46.830  29.212  27.081  1.00  0.00    -0.248 NA
ATOM     30  C   UNL A   1      48.497  30.838  27.297  1.00  0.00     0.031 C 
ATOM     31  C   UNL A   1      47.652  24.928  26.167  1.00  0.00     0.029 A 
ATOM     32  C   UNL A   1      47.398  26.254  26.483  1.00  0.00     0.049 A 
ATOM     33  H   UNL A   1      45.562  27.165  26.974  1.00  0.00     0.167 HD
ATOM     34  C   UNL A   1      48.061  28.632  26.837  1.00  0.00     0.074 A 
ATOM     35  C   UNL A   1      49.050  29.687  26.944  1.00  0.00     0.031 C 
ATOM     36  C   UNL A   1      48.345  27.337  26.574  1.00  0.00     0.037 A 
BRANCH  23  37
ATOM     37  C   UNL A   1      43.560  23.418  26.590  1.00  0.00     0.058 A 
ATOM     38  C   UNL A   1      43.335  22.801  25.350  1.00  0.00     0.135 A 
ATOM     39  C   UNL A   1      43.261  22.704  27.759  1.00  0.00     0.135 A 
ATOM     40  F   UNL A   1      43.534  23.477  24.206  1.00  0.00    -0.206 F 
ATOM     41  C   UNL A   1      42.832  21.513  25.275  1.00  0.00     0.059 A 
ATOM     42  C   UNL A   1      42.802  21.399  27.707  1.00  0.00     0.059 A 
ATOM     43  F   UNL A   1      43.406  23.282  28.962  1.00  0.00    -0.206 F 
ATOM     44  C   UNL A   1      42.594  20.813  26.459  1.00  0.00     0.060 A 
BRANCH  44  45
ATOM     45  S   UNL A   1      42.053  19.101  26.337  1.00  0.00     0.124 S 
ATOM     46  O   UNL A   1      40.662  19.263  25.926  1.00  0.00    -0.237 OA
ATOM     47  O   UNL A   1      42.957  18.574  25.320  1.00  0.00    -0.237 OA
ATOM     48  O   UNL A   1      42.255  18.584  27.686  1.00  0.00    -0.744 OA
ENDBRANCH  44  45
ENDBRANCH  23  37
BRANCH  24  49
ATOM     49  C   UNL A   1      46.570  32.935  28.063  1.00  0.00     0.058 A 
ATOM     50  C   UNL A   1      46.567  33.947  27.083  1.00  0.00     0.135 A 
ATOM     51  C   UNL A   1      47.101  33.290  29.319  1.00  0.00     0.135 A 
ATOM     52  F   UNL A   1      46.113  33.682  25.848  1.00  0.00    -0.206 F 
ATOM     53  C   UNL A   1      47.075  35.227  27.330  1.00  0.00     0.059 A 
ATOM     54  C   UNL A   1      47.549  34.577  29.611  1.00  0.00     0.059 A 
ATOM     55  F   UNL A   1      47.189  32.375  30.297  1.00  0.00    -0.206 F 
ATOM     56  C   UNL A   1      47.555  35.535  28.604  1.00  0.00     0.060 A 
BRANCH  56  57
ATOM     57  S   UNL A   1      48.196  37.196  28.923  1.00  0.00     0.124 S 
ATOM     58  O   UNL A   1      46.980  38.000  28.859  1.00  0.00    -0.237 OA
ATOM     59  O   UNL A   1      48.789  37.045  30.249  1.00  0.00    -0.237 OA
ATOM     60  O   UNL A   1      49.147  37.408  27.837  1.00  0.00    -0.744 OA
ENDBRANCH  56  57
ENDBRANCH  24  49
BRANCH  36  61
ATOM     61  C   UNL A   1      49.775  27.006  26.300  1.00  0.00     0.058 A 
ATOM     62  C   UNL A   1      50.643  26.566  27.308  1.00  0.00     0.135 A 
ATOM     63  C   UNL A   1      50.247  27.050  24.979  1.00  0.00     0.135 A 
ATOM     64  F   UNL A   1      50.235  26.526  28.587  1.00  0.00    -0.206 F 
ATOM     65  C   UNL A   1      51.942  26.184  27.013  1.00  0.00     0.059 A 
ATOM     66  C   UNL A   1      51.525  26.628  24.655  1.00  0.00     0.059 A 
ATOM     67  F   UNL A   1      49.443  27.463  23.985  1.00  0.00    -0.206 F 
ATOM     68  C   UNL A   1      52.365  26.199  25.682  1.00  0.00     0.060 A 
BRANCH  68  69
ATOM     69  S   UNL A   1      54.023  25.608  25.305  1.00  0.00     0.124 S 
ATOM     70  O   UNL A   1      53.895  24.180  25.572  1.00  0.00    -0.237 OA
ATOM     71  O   UNL A   1      54.167  25.982  23.901  1.00  0.00    -0.237 OA
ATOM     72  O   UNL A   1      54.869  26.348  26.236  1.00  0.00    -0.744 OA
ENDBRANCH  68  69
ENDBRANCH  36  61
ENDBRANCH  10  11
ENDBRANCH   3   5
ENDBRANCH   2   3
ENDBRANCH   1   2
BRANCH   1  73
ATOM     73  C   UNL A   1      34.473  29.722  26.973  1.00  0.00     0.274 C 
BRANCH  73  74
ATOM     74  O   UNL A   1      33.176  29.171  26.749  1.00  0.00    -0.461 OA
BRANCH  74  75
ATOM     75  C   UNL A   1      33.080  27.974  26.105  1.00  0.00     0.328 C 
ATOM     76  O   UNL A   1      33.940  27.105  26.130  1.00  0.00    -0.250 OA
BRANCH  75  77
ATOM     77  C   UNL A   1      31.727  27.836  25.388  1.00  0.00     0.195 C 
ATOM     78  C   UNL A   1      31.356  29.012  24.572  1.00  0.00     0.039 C 
ATOM     79  N   UNL A   1      31.628  26.829  24.353  1.00  0.00    -0.327 N 
ATOM     80  C   UNL A   1      32.257  28.878  23.369  1.00  0.00     0.024 C 
ATOM     81  C   UNL A   1      32.124  27.387  23.085  1.00  0.00     0.120 C 
BRANCH  79  82
ATOM     82  C   UNL A   1      30.627  25.869  24.349  1.00  0.00     0.243 C 
ATOM     83  O   UNL A   1      29.790  25.812  25.253  1.00  0.00    -0.273 OA
BRANCH  82  84
ATOM     84  C   UNL A   1      30.704  24.732  23.313  1.00  0.00     0.228 C 
BRANCH  84  85
ATOM     85  N   UNL A   1      31.847  23.849  23.495  1.00  0.00    -0.273 N 
ATOM     86  C   UNL A   1      31.912  23.054  24.606  1.00  0.00     0.234 C 
ATOM     87  C   UNL A   1      32.946  23.781  22.655  1.00  0.00     0.234 C 
ATOM     88  O   UNL A   1      31.022  22.884  25.436  1.00  0.00    -0.274 OA
ATOM     89  C   UNL A   1      33.291  22.521  24.733  1.00  0.00     0.099 C 
ATOM     90  C   UNL A   1      33.906  22.706  23.177  1.00  0.00     0.099 C 
ATOM     91  O   UNL A   1      33.153  24.493  21.683  1.00  0.00    -0.274 OA
ATOM     92  C   UNL A   1      34.183  23.665  25.617  1.00  0.00     0.025 C 
ATOM     93  C   UNL A   1      35.590  23.457  23.432  1.00  0.00     0.025 C 
ATOM     94  C   UNL A   1      35.705  23.414  26.113  1.00  0.00    -0.027 C 
ATOM     95  C   UNL A   1      34.734  24.299  24.343  1.00  0.00     0.017 C 
ATOM     96  C   UNL A   1      36.547  23.342  25.012  1.00  0.00    -0.027 C 
ENDBRANCH  84  85
ENDBRANCH  82  84
ENDBRANCH  79  82
ENDBRANCH  75  77
ENDBRANCH  74  75
ENDBRANCH  73  74
ENDBRANCH   1  73
TORSDOF 17
ENDMDL
MODEL 3
REMARK VINA RESULT:     -11.4      3.376      8.820
REMARK SMILES O=C(OCCOC(=O)[C@H]1CCCN1C(=O)CN1C(=O)[C@@H]2[C@H](C1=O)[C@H]1C=C[C@@H]2C1)c1ccc(-c2c3nc(c(-c4c(F)cc(S(=O)(=O)[O-])cc4F)c4ccc([nH]4)c(-c4c(F)cc(S(=O)(=O)[O-])cc4F)c4nc(c(-c5c(F)cc(S(=O)(=O)[O-])cc5F)c5ccc2[nH]5)C=C4)C=C3)cc1
REMARK SMILES IDX 4 1 3 2 2 3 1 4 29 5 30 6 94 7 31 8 93 9 32 10 33 11 34 12
REMARK SMILES IDX 87 13 35 14 92 15 86 16 88 17 36 18 91 19 85 20 84 21 37 23
REMARK SMILES IDX 71 24 50 25 70 26 51 27 54 28 69 29 89 30 52 31 53 32 68 34
REMARK SMILES IDX 90 35 55 36 38 37 39 38 48 39 40 40 41 41 47 42 49 43 42 44
REMARK SMILES IDX 43 45 44 46 45 47 46 48 72 49 73 50 82 51 74 52 75 53 81 54
REMARK SMILES IDX 83 55 76 56 77 57 78 58 79 59 80 60 56 61 57 62 66 63 58 64
REMARK SMILES IDX 59 65 65 66 67 67 60 68 61 69 62 70 63 71 64 72 5 73 6 74
REMARK SMILES IDX 7 75 8 76 9 77 10 78 13 79 11 80 12 81 14 82 15 83 16 84
REMARK SMILES IDX 17 85 22 86 18 87 23 88 21 89 20 90 19 91 24 92 27 93 25 94
REMARK SMILES IDX 28 95 26 96
REMARK H PARENT 88 22 54 33
REMARK Flexibility Score: inf
ROOT
ATOM      1  C   UNL A   1      31.856  30.957  26.541  1.00  0.00     0.275 C 
ENDROOT
BRANCH   1   2
ATOM      2  O   UNL A   1      33.127  30.568  27.092  1.00  0.00    -0.458 OA
BRANCH   2   3
ATOM      3  C   UNL A   1      34.108  31.297  27.682  1.00  0.00     0.338 C 
ATOM      4  O   UNL A   1      33.814  32.452  27.994  1.00  0.00    -0.246 OA
BRANCH   3   5
ATOM      5  C   UNL A   1      35.559  30.885  27.847  1.00  0.00     0.060 A 
ATOM      6  C   UNL A   1      36.647  31.721  28.138  1.00  0.00     0.016 A 
ATOM      7  C   UNL A   1      35.786  29.490  27.963  1.00  0.00     0.016 A 
ATOM      8  C   UNL A   1      37.811  31.197  28.751  1.00  0.00     0.010 A 
ATOM      9  C   UNL A   1      36.954  28.963  28.559  1.00  0.00     0.010 A 
ATOM     10  C   UNL A   1      37.939  29.823  29.059  1.00  0.00    -0.014 A 
BRANCH  10  11
ATOM     11  C   UNL A   1      39.224  29.346  29.659  1.00  0.00     0.031 A 
ATOM     12  C   UNL A   1      39.477  29.902  31.011  1.00  0.00     0.074 A 
ATOM     13  C   UNL A   1      40.093  28.437  29.146  1.00  0.00     0.049 A 
ATOM     14  N   UNL A   1      40.469  29.657  31.808  1.00  0.00    -0.248 NA
ATOM     15  C   UNL A   1      38.527  30.926  31.488  1.00  0.00     0.031 C 
ATOM     16  C   UNL A   1      40.104  27.952  27.783  1.00  0.00     0.029 A 
ATOM     17  N   UNL A   1      41.118  27.693  29.705  1.00  0.00    -0.354 N 
ATOM     18  C   UNL A   1      40.307  30.548  32.847  1.00  0.00     0.074 A 
ATOM     19  C   UNL A   1      39.118  31.325  32.596  1.00  0.00     0.031 C 
ATOM     20  C   UNL A   1      40.822  26.826  27.674  1.00  0.00     0.029 A 
ATOM     21  C   UNL A   1      41.613  26.689  28.875  1.00  0.00     0.049 A 
ATOM     22  H   UNL A   1      41.468  27.859  30.611  1.00  0.00     0.167 HD
ATOM     23  C   UNL A   1      41.124  30.723  33.897  1.00  0.00     0.037 A 
ATOM     24  C   UNL A   1      42.660  25.839  28.982  1.00  0.00     0.037 A 
ATOM     25  C   UNL A   1      42.330  29.977  34.087  1.00  0.00     0.049 A 
ATOM     26  C   UNL A   1      43.558  26.074  30.160  1.00  0.00     0.074 A 
ATOM     27  C   UNL A   1      43.234  30.084  35.123  1.00  0.00     0.029 A 
ATOM     28  N   UNL A   1      42.819  29.018  33.210  1.00  0.00    -0.354 N 
ATOM     29  N   UNL A   1      43.373  26.907  31.157  1.00  0.00    -0.248 NA
ATOM     30  C   UNL A   1      44.832  25.349  30.201  1.00  0.00     0.031 C 
ATOM     31  C   UNL A   1      44.310  29.247  34.833  1.00  0.00     0.029 A 
ATOM     32  C   UNL A   1      44.031  28.542  33.671  1.00  0.00     0.049 A 
ATOM     33  H   UNL A   1      42.370  28.722  32.385  1.00  0.00     0.167 HD
ATOM     34  C   UNL A   1      44.511  26.817  31.936  1.00  0.00     0.074 A 
ATOM     35  C   UNL A   1      45.360  25.812  31.325  1.00  0.00     0.031 C 
ATOM     36  C   UNL A   1      44.832  27.521  33.045  1.00  0.00     0.037 A 
BRANCH  23  37
ATOM     37  C   UNL A   1      40.773  31.834  34.826  1.00  0.00     0.058 A 
ATOM     38  C   UNL A   1      39.897  31.651  35.907  1.00  0.00     0.135 A 
ATOM     39  C   UNL A   1      41.293  33.115  34.593  1.00  0.00     0.135 A 
ATOM     40  F   UNL A   1      39.315  30.458  36.118  1.00  0.00    -0.206 F 
ATOM     41  C   UNL A   1      39.553  32.707  36.733  1.00  0.00     0.059 A 
ATOM     42  C   UNL A   1      40.999  34.174  35.435  1.00  0.00     0.059 A 
ATOM     43  F   UNL A   1      42.086  33.342  33.535  1.00  0.00    -0.206 F 
ATOM     44  C   UNL A   1      40.130  33.958  36.503  1.00  0.00     0.060 A 
BRANCH  44  45
ATOM     45  S   UNL A   1      39.760  35.287  37.658  1.00  0.00     0.124 S 
ATOM     46  O   UNL A   1      38.531  34.801  38.279  1.00  0.00    -0.237 OA
ATOM     47  O   UNL A   1      40.946  35.282  38.509  1.00  0.00    -0.237 OA
ATOM     48  O   UNL A   1      39.610  36.454  36.796  1.00  0.00    -0.744 OA
ENDBRANCH  44  45
ENDBRANCH  23  37
BRANCH  24  49
ATOM     49  C   UNL A   1      43.049  24.853  27.906  1.00  0.00     0.058 A 
ATOM     50  C   UNL A   1      42.689  23.493  27.979  1.00  0.00     0.135 A 
ATOM     51  C   UNL A   1      43.848  25.225  26.807  1.00  0.00     0.135 A 
ATOM     52  F   UNL A   1      41.960  23.047  29.013  1.00  0.00    -0.206 F 
ATOM     53  C   UNL A   1      43.111  22.557  27.028  1.00  0.00     0.059 A 
ATOM     54  C   UNL A   1      44.224  24.325  25.811  1.00  0.00     0.059 A 
ATOM     55  F   UNL A   1      44.279  26.490  26.684  1.00  0.00    -0.206 F 
ATOM     56  C   UNL A   1      43.872  22.987  25.940  1.00  0.00     0.060 A 
BRANCH  56  57
ATOM     57  S   UNL A   1      44.402  21.777  24.705  1.00  0.00     0.124 S 
ATOM     58  O   UNL A   1      43.528  20.647  25.002  1.00  0.00    -0.237 OA
ATOM     59  O   UNL A   1      44.132  22.478  23.453  1.00  0.00    -0.237 OA
ATOM     60  O   UNL A   1      45.815  21.574  25.012  1.00  0.00    -0.744 OA
ENDBRANCH  56  57
ENDBRANCH  24  49
BRANCH  36  61
ATOM     61  C   UNL A   1      46.120  27.169  33.714  1.00  0.00     0.058 A 
ATOM     62  C   UNL A   1      46.204  26.158  34.680  1.00  0.00     0.135 A 
ATOM     63  C   UNL A   1      47.300  27.808  33.304  1.00  0.00     0.135 A 
ATOM     64  F   UNL A   1      45.095  25.535  35.112  1.00  0.00    -0.206 F 
ATOM     65  C   UNL A   1      47.426  25.793  35.225  1.00  0.00     0.059 A 
ATOM     66  C   UNL A   1      48.535  27.426  33.800  1.00  0.00     0.059 A 
ATOM     67  F   UNL A   1      47.259  28.780  32.377  1.00  0.00    -0.206 F 
ATOM     68  C   UNL A   1      48.585  26.419  34.762  1.00  0.00     0.060 A 
BRANCH  68  69
ATOM     69  S   UNL A   1      50.172  25.865  35.409  1.00  0.00     0.124 S 
ATOM     70  O   UNL A   1      49.807  25.432  36.753  1.00  0.00    -0.237 OA
ATOM     71  O   UNL A   1      50.528  24.804  34.472  1.00  0.00    -0.237 OA
ATOM     72  O   UNL A   1      51.004  27.062  35.339  1.00  0.00    -0.744 OA
ENDBRANCH  68  69
ENDBRANCH  36  61
ENDBRANCH  10  11
ENDBRANCH   3   5
ENDBRANCH   2   3
ENDBRANCH   1   2
BRANCH   1  73
ATOM     73  C   UNL A   1      31.433  30.085  25.359  1.00  0.00     0.274 C 
BRANCH  73  74
ATOM     74  O   UNL A   1      31.756  28.720  25.621  1.00  0.00    -0.461 OA
BRANCH  74  75
ATOM     75  C   UNL A   1      32.525  28.050  24.719  1.00  0.00     0.328 C 
ATOM     76  O   UNL A   1      33.611  28.438  24.311  1.00  0.00    -0.250 OA
BRANCH  75  77
ATOM     77  C   UNL A   1      31.876  26.714  24.319  1.00  0.00     0.195 C 
ATOM     78  C   UNL A   1      30.463  26.834  23.897  1.00  0.00     0.039 C 
ATOM     79  N   UNL A   1      32.388  26.057  23.137  1.00  0.00    -0.327 N 
ATOM     80  C   UNL A   1      30.579  27.442  22.521  1.00  0.00     0.024 C 
ATOM     81  C   UNL A   1      31.724  26.615  21.947  1.00  0.00     0.120 C 
BRANCH  79  82
ATOM     82  C   UNL A   1      32.806  24.735  23.147  1.00  0.00     0.243 C 
ATOM     83  O   UNL A   1      33.514  24.280  22.246  1.00  0.00    -0.273 OA
BRANCH  82  84
ATOM     84  C   UNL A   1      32.193  23.778  24.187  1.00  0.00     0.228 C 
BRANCH  84  85
ATOM     85  N   UNL A   1      33.181  23.061  24.979  1.00  0.00    -0.273 N 
ATOM     86  C   UNL A   1      33.785  23.692  26.032  1.00  0.00     0.234 C 
ATOM     87  C   UNL A   1      33.632  21.777  24.722  1.00  0.00     0.234 C 
ATOM     88  O   UNL A   1      33.485  24.791  26.494  1.00  0.00    -0.274 OA
ATOM     89  C   UNL A   1      34.966  22.898  26.452  1.00  0.00     0.099 C 
ATOM     90  C   UNL A   1      34.640  21.378  25.806  1.00  0.00     0.099 C 
ATOM     91  O   UNL A   1      33.324  21.086  23.763  1.00  0.00    -0.274 OA
ATOM     92  C   UNL A   1      36.277  23.423  25.508  1.00  0.00     0.025 C 
ATOM     93  C   UNL A   1      36.238  20.865  25.001  1.00  0.00     0.025 C 
ATOM     94  C   UNL A   1      37.799  22.919  25.743  1.00  0.00    -0.027 C 
ATOM     95  C   UNL A   1      36.085  22.283  24.511  1.00  0.00     0.017 C 
ATOM     96  C   UNL A   1      37.892  21.567  25.444  1.00  0.00    -0.027 C 
ENDBRANCH  84  85
ENDBRANCH  82  84
ENDBRANCH  79  82
ENDBRANCH  75  77
ENDBRANCH  74  75
ENDBRANCH  73  74
ENDBRANCH   1  73
TORSDOF 17
ENDMDL
