MODEL 1
REMARK VINA RESULT:     -11.8      0.000      0.000
REMARK SMILES Cc1cc(F)ccc1S(=O)(=O)Nc1ccc2oc(C)c(C(=O)OCCOC(=O)c3ccc(-c4c5nc(c(-c6c(F)cc(S(=O)(=O)[O-])cc6F)c6ccc([nH]6)c(-c6c(F)cc(S(=O)(=O)[O-])cc6F)c6nc(c(-c7c(F)cc(S(=O)(=O)[O-])cc7F)c7ccc4[nH]7)C=C6)C=C5)cc3)c2c1
REMARK SMILES IDX 24 1 23 2 21 3 22 4 20 5 13 6 14 7 96 8 15 9 95 10 16 11
REMARK SMILES IDX 17 12 18 13 19 14 12 15 9 17 10 18 11 19 8 20 1 21 2 22 3 23
REMARK SMILES IDX 4 24 7 25 5 26 6 27 25 28 26 29 27 30 28 31 29 32 30 33
REMARK SMILES IDX 94 34 31 35 93 36 32 37 33 38 34 39 87 40 35 41 92 42 86 43
REMARK SMILES IDX 88 44 36 45 91 46 85 47 84 48 37 50 71 51 50 52 70 53 51 54
REMARK SMILES IDX 54 55 69 56 89 57 52 58 53 59 68 61 90 62 55 63 38 64 39 65
REMARK SMILES IDX 48 66 40 67 41 68 47 69 49 70 42 71 43 72 44 73 45 74 46 75
REMARK SMILES IDX 72 76 73 77 82 78 74 79 75 80 81 81 83 82 76 83 77 84 78 85
REMARK SMILES IDX 79 86 80 87 56 88 57 89 66 90 58 91 59 92 65 93 67 94 60 95
REMARK SMILES IDX 61 96 62 97 63 98 64 99
REMARK H PARENT 12 16 88 49 54 60
REMARK Flexibility Score: inf
ROOT
ATOM      1  C   UNL A   1      33.180  29.762  26.939  1.00  0.00     0.275 C 
ENDROOT
BRANCH   1   2
ATOM      2  O   UNL A   1      32.745  30.114  25.610  1.00  0.00    -0.458 OA
BRANCH   2   3
ATOM      3  C   UNL A   1      32.934  29.214  24.604  1.00  0.00     0.342 C 
ATOM      4  O   UNL A   1      33.850  29.270  23.784  1.00  0.00    -0.246 OA
BRANCH   3   5
ATOM      5  C   UNL A   1      31.949  28.153  24.631  1.00  0.00     0.109 A 
ATOM      6  C   UNL A   1      32.778  24.613  25.922  1.00  0.00     0.050 A 
ATOM      7  C   UNL A   1      31.462  24.156  25.869  1.00  0.00     0.030 A 
ATOM      8  C   UNL A   1      33.075  25.948  25.597  1.00  0.00     0.039 A 
ATOM      9  C   UNL A   1      30.435  24.966  25.372  1.00  0.00     0.050 A 
ATOM     10  C   UNL A   1      32.060  26.796  25.095  1.00  0.00     0.037 A 
ATOM     11  C   UNL A   1      30.786  26.253  24.972  1.00  0.00     0.135 A 
ATOM     12  O   UNL A   1      29.946  27.139  24.380  1.00  0.00    -0.460 OA
ATOM     13  C   UNL A   1      30.658  28.271  24.137  1.00  0.00     0.116 A 
ATOM     14  C   UNL A   1      29.949  29.314  23.365  1.00  0.00     0.088 C 
BRANCH   6  15
ATOM     15  N   UNL A   1      33.756  23.692  26.366  1.00  0.00    -0.280 N 
ATOM     16  H   UNL A   1      34.071  23.776  27.296  1.00  0.00     0.180 HD
BRANCH  15  17
ATOM     17  S   UNL A   1      34.420  22.467  25.430  1.00  0.00     0.262 S 
ATOM     18  O   UNL A   1      34.248  22.930  24.072  1.00  0.00    -0.201 OA
ATOM     19  O   UNL A   1      33.881  21.191  25.849  1.00  0.00    -0.201 OA
BRANCH  17  20
ATOM     20  C   UNL A   1      36.195  22.460  25.748  1.00  0.00     0.090 A 
ATOM     21  C   UNL A   1      36.597  20.059  24.861  1.00  0.00     0.046 C 
ATOM     22  C   UNL A   1      37.036  21.370  25.434  1.00  0.00    -0.028 A 
ATOM     23  C   UNL A   1      38.420  21.492  25.669  1.00  0.00     0.044 A 
ATOM     24  C   UNL A   1      38.970  22.691  26.093  1.00  0.00     0.123 A 
ATOM     25  C   UNL A   1      36.776  23.674  26.178  1.00  0.00     0.025 A 
ATOM     26  F   UNL A   1      40.297  22.787  26.244  1.00  0.00    -0.207 F 
ATOM     27  C   UNL A   1      38.162  23.791  26.331  1.00  0.00     0.040 A 
ENDBRANCH  17  20
ENDBRANCH  15  17
ENDBRANCH   6  15
ENDBRANCH   3   5
ENDBRANCH   2   3
ENDBRANCH   1   2
BRANCH   1  28
ATOM     28  C   UNL A   1      34.457  30.526  27.292  1.00  0.00     0.275 C 
BRANCH  28  29
ATOM     29  O   UNL A   1      35.508  29.585  27.577  1.00  0.00    -0.458 OA
BRANCH  29  30
ATOM     30  C   UNL A   1      36.090  29.705  28.793  1.00  0.00     0.338 C 
ATOM     31  O   UNL A   1      35.545  29.662  29.882  1.00  0.00    -0.246 OA
BRANCH  30  32
ATOM     32  C   UNL A   1      37.549  29.793  28.628  1.00  0.00     0.060 A 
ATOM     33  C   UNL A   1      38.065  29.707  27.345  1.00  0.00     0.016 A 
ATOM     34  C   UNL A   1      38.411  29.764  29.722  1.00  0.00     0.016 A 
ATOM     35  C   UNL A   1      39.414  29.425  27.158  1.00  0.00     0.010 A 
ATOM     36  C   UNL A   1      39.793  29.608  29.514  1.00  0.00     0.010 A 
ATOM     37  C   UNL A   1      40.311  29.351  28.231  1.00  0.00    -0.014 A 
BRANCH  37  38
ATOM     38  C   UNL A   1      41.723  28.892  27.993  1.00  0.00     0.031 A 
ATOM     39  C   UNL A   1      42.886  29.829  28.251  1.00  0.00     0.074 A 
ATOM     40  C   UNL A   1      42.003  27.613  27.655  1.00  0.00     0.049 A 
ATOM     41  N   UNL A   1      44.157  29.670  27.974  1.00  0.00    -0.248 NA
ATOM     42  C   UNL A   1      42.584  31.118  28.892  1.00  0.00     0.031 C 
ATOM     43  C   UNL A   1      41.017  26.549  27.450  1.00  0.00     0.029 A 
ATOM     44  N   UNL A   1      43.208  26.967  27.485  1.00  0.00    -0.354 N 
ATOM     45  C   UNL A   1      44.779  30.871  28.302  1.00  0.00     0.074 A 
ATOM     46  C   UNL A   1      43.751  31.742  28.823  1.00  0.00     0.031 C 
ATOM     47  C   UNL A   1      41.649  25.374  27.321  1.00  0.00     0.029 A 
ATOM     48  C   UNL A   1      43.086  25.610  27.272  1.00  0.00     0.049 A 
ATOM     49  H   UNL A   1      44.075  27.430  27.513  1.00  0.00     0.167 HD
ATOM     50  C   UNL A   1      46.084  31.218  28.169  1.00  0.00     0.037 A 
ATOM     51  C   UNL A   1      44.010  24.660  27.018  1.00  0.00     0.037 A 
ATOM     52  C   UNL A   1      47.124  30.317  27.737  1.00  0.00     0.049 A 
ATOM     53  C   UNL A   1      45.451  25.067  26.874  1.00  0.00     0.074 A 
ATOM     54  C   UNL A   1      48.470  30.584  27.552  1.00  0.00     0.029 A 
ATOM     55  N   UNL A   1      46.945  28.971  27.452  1.00  0.00    -0.354 N 
ATOM     56  N   UNL A   1      46.002  26.244  27.050  1.00  0.00    -0.248 NA
ATOM     57  C   UNL A   1      46.393  24.022  26.446  1.00  0.00     0.031 C 
ATOM     58  C   UNL A   1      49.096  29.413  27.110  1.00  0.00     0.029 A 
ATOM     59  C   UNL A   1      48.153  28.400  27.080  1.00  0.00     0.049 A 
ATOM     60  H   UNL A   1      46.087  28.492  27.507  1.00  0.00     0.167 HD
ATOM     61  C   UNL A   1      47.351  26.081  26.755  1.00  0.00     0.074 A 
ATOM     62  C   UNL A   1      47.540  24.683  26.425  1.00  0.00     0.031 C 
ATOM     63  C   UNL A   1      48.339  27.010  26.743  1.00  0.00     0.037 A 
BRANCH  50  64
ATOM     64  C   UNL A   1      46.454  32.657  28.422  1.00  0.00     0.058 A 
ATOM     65  C   UNL A   1      46.952  33.112  29.651  1.00  0.00     0.135 A 
ATOM     66  C   UNL A   1      46.326  33.597  27.383  1.00  0.00     0.135 A 
ATOM     67  F   UNL A   1      47.078  32.266  30.685  1.00  0.00    -0.206 F 
ATOM     68  C   UNL A   1      47.278  34.452  29.853  1.00  0.00     0.059 A 
ATOM     69  C   UNL A   1      46.677  34.933  27.551  1.00  0.00     0.059 A 
ATOM     70  F   UNL A   1      45.856  33.220  26.183  1.00  0.00    -0.206 F 
ATOM     71  C   UNL A   1      47.136  35.355  28.797  1.00  0.00     0.060 A 
BRANCH  71  72
ATOM     72  S   UNL A   1      47.555  37.089  29.075  1.00  0.00     0.124 S 
ATOM     73  O   UNL A   1      48.626  36.975  30.059  1.00  0.00    -0.237 OA
ATOM     74  O   UNL A   1      47.959  37.529  27.744  1.00  0.00    -0.237 OA
ATOM     75  O   UNL A   1      46.309  37.666  29.570  1.00  0.00    -0.744 OA
ENDBRANCH  71  72
ENDBRANCH  50  64
BRANCH  51  76
ATOM     76  C   UNL A   1      43.594  23.243  26.801  1.00  0.00     0.058 A 
ATOM     77  C   UNL A   1      43.566  22.678  25.516  1.00  0.00     0.135 A 
ATOM     78  C   UNL A   1      43.207  22.424  27.876  1.00  0.00     0.135 A 
ATOM     79  F   UNL A   1      43.897  23.419  24.448  1.00  0.00    -0.206 F 
ATOM     80  C   UNL A   1      43.168  21.360  25.306  1.00  0.00     0.059 A 
ATOM     81  C   UNL A   1      42.847  21.093  27.695  1.00  0.00     0.059 A 
ATOM     82  F   UNL A   1      43.206  22.910  29.127  1.00  0.00    -0.206 F 
ATOM     83  C   UNL A   1      42.817  20.572  26.404  1.00  0.00     0.060 A 
BRANCH  83  84
ATOM     84  S   UNL A   1      42.354  18.848  26.133  1.00  0.00     0.124 S 
ATOM     85  O   UNL A   1      42.613  18.265  27.446  1.00  0.00    -0.237 OA
ATOM     86  O   UNL A   1      40.951  18.957  25.749  1.00  0.00    -0.237 OA
ATOM     87  O   UNL A   1      43.256  18.421  25.067  1.00  0.00    -0.744 OA
ENDBRANCH  83  84
ENDBRANCH  51  76
BRANCH  63  88
ATOM     88  C   UNL A   1      49.722  26.541  26.381  1.00  0.00     0.058 A 
ATOM     89  C   UNL A   1      50.198  26.587  25.060  1.00  0.00     0.135 A 
ATOM     90  C   UNL A   1      50.591  26.051  27.370  1.00  0.00     0.135 A 
ATOM     91  F   UNL A   1      49.410  27.043  24.073  1.00  0.00    -0.206 F 
ATOM     92  C   UNL A   1      51.467  26.124  24.726  1.00  0.00     0.059 A 
ATOM     93  C   UNL A   1      51.876  25.613  27.064  1.00  0.00     0.059 A 
ATOM     94  F   UNL A   1      50.196  25.998  28.652  1.00  0.00    -0.206 F 
ATOM     95  C   UNL A   1      52.298  25.635  25.736  1.00  0.00     0.060 A 
BRANCH  95  96
ATOM     96  S   UNL A   1      53.942  25.035  25.291  1.00  0.00     0.124 S 
ATOM     97  O   UNL A   1      54.282  25.909  24.174  1.00  0.00    -0.237 OA
ATOM     98  O   UNL A   1      54.698  25.253  26.521  1.00  0.00    -0.237 OA
ATOM     99  O   UNL A   1      53.712  23.635  24.945  1.00  0.00    -0.744 OA
ENDBRANCH  95  96
ENDBRANCH  63  88
ENDBRANCH  37  38
ENDBRANCH  30  32
ENDBRANCH  29  30
ENDBRANCH  28  29
ENDBRANCH   1  28
TORSDOF 17
ENDMDL
MODEL 2
REMARK VINA RESULT:     -11.7      6.908     12.227
REMARK SMILES Cc1cc(F)ccc1S(=O)(=O)Nc1ccc2oc(C)c(C(=O)OCCOC(=O)c3ccc(-c4c5nc(c(-c6c(F)cc(S(=O)(=O)[O-])cc6F)c6ccc([nH]6)c(-c6c(F)cc(S(=O)(=O)[O-])cc6F)c6nc(c(-c7c(F)cc(S(=O)(=O)[O-])cc7F)c7ccc4[nH]7)C=C6)C=C5)cc3)c2c1
REMARK SMILES IDX 24 1 23 2 21 3 22 4 20 5 13 6 14 7 96 8 15 9 95 10 16 11
REMARK SMILES IDX 17 12 18 13 19 14 12 15 9 17 10 18 11 19 8 20 1 21 2 22 3 23
REMARK SMILES IDX 4 24 7 25 5 26 6 27 25 28 26 29 27 30 28 31 29 32 30 33
REMARK SMILES IDX 94 34 31 35 93 36 32 37 33 38 34 39 87 40 35 41 92 42 86 43
REMARK SMILES IDX 88 44 36 45 91 46 85 47 84 48 37 50 71 51 50 52 70 53 51 54
REMARK SMILES IDX 54 55 69 56 89 57 52 58 53 59 68 61 90 62 55 63 38 64 39 65
REMARK SMILES IDX 48 66 40 67 41 68 47 69 49 70 42 71 43 72 44 73 45 74 46 75
REMARK SMILES IDX 72 76 73 77 82 78 74 79 75 80 81 81 83 82 76 83 77 84 78 85
REMARK SMILES IDX 79 86 80 87 56 88 57 89 66 90 58 91 59 92 65 93 67 94 60 95
REMARK SMILES IDX 61 96 62 97 63 98 64 99
REMARK H PARENT 12 16 88 49 54 60
REMARK Flexibility Score: inf
ROOT
ATOM      1  C   UNL A   1      38.637  21.882  25.774  1.00  0.00     0.275 C 
ENDROOT
BRANCH   1   2
ATOM      2  O   UNL A   1      37.371  22.565  25.691  1.00  0.00    -0.458 OA
BRANCH   2   3
ATOM      3  C   UNL A   1      36.623  22.414  24.562  1.00  0.00     0.342 C 
ATOM      4  O   UNL A   1      36.981  22.765  23.438  1.00  0.00    -0.246 OA
BRANCH   3   5
ATOM      5  C   UNL A   1      35.362  21.753  24.829  1.00  0.00     0.109 A 
ATOM      6  C   UNL A   1      32.171  23.712  25.756  1.00  0.00     0.050 A 
ATOM      7  C   UNL A   1      31.329  22.602  25.701  1.00  0.00     0.030 A 
ATOM      8  C   UNL A   1      33.531  23.584  25.425  1.00  0.00     0.039 A 
ATOM      9  C   UNL A   1      31.836  21.323  25.447  1.00  0.00     0.050 A 
ATOM     10  C   UNL A   1      34.075  22.306  25.157  1.00  0.00     0.037 A 
ATOM     11  C   UNL A   1      33.205  21.224  25.215  1.00  0.00     0.135 A 
ATOM     12  O   UNL A   1      33.883  20.060  25.047  1.00  0.00    -0.460 OA
ATOM     13  C   UNL A   1      35.190  20.376  24.854  1.00  0.00     0.116 A 
ATOM     14  C   UNL A   1      36.119  19.228  24.788  1.00  0.00     0.088 C 
BRANCH   6  15
ATOM     15  N   UNL A   1      31.574  24.949  26.098  1.00  0.00    -0.280 N 
ATOM     16  H   UNL A   1      31.518  25.178  27.054  1.00  0.00     0.180 HD
BRANCH  15  17
ATOM     17  S   UNL A   1      30.952  26.055  24.998  1.00  0.00     0.262 S 
ATOM     18  O   UNL A   1      29.523  25.989  25.202  1.00  0.00    -0.201 OA
ATOM     19  O   UNL A   1      31.523  25.810  23.691  1.00  0.00    -0.201 OA
BRANCH  17  20
ATOM     20  C   UNL A   1      31.472  27.693  25.543  1.00  0.00     0.090 A 
ATOM     21  C   UNL A   1      30.412  28.965  23.549  1.00  0.00     0.046 C 
ATOM     22  C   UNL A   1      31.155  28.880  24.846  1.00  0.00    -0.028 A 
ATOM     23  C   UNL A   1      31.560  30.115  25.391  1.00  0.00     0.044 A 
ATOM     24  C   UNL A   1      32.157  30.183  26.639  1.00  0.00     0.123 A 
ATOM     25  C   UNL A   1      32.080  27.785  26.814  1.00  0.00     0.025 A 
ATOM     26  F   UNL A   1      32.470  31.380  27.152  1.00  0.00    -0.207 F 
ATOM     27  C   UNL A   1      32.404  29.030  27.366  1.00  0.00     0.040 A 
ENDBRANCH  17  20
ENDBRANCH  15  17
ENDBRANCH   6  15
ENDBRANCH   3   5
ENDBRANCH   2   3
ENDBRANCH   1   2
BRANCH   1  28
ATOM     28  C   UNL A   1      39.657  22.754  26.506  1.00  0.00     0.275 C 
BRANCH  28  29
ATOM     29  O   UNL A   1      39.169  24.107  26.565  1.00  0.00    -0.458 OA
BRANCH  29  30
ATOM     30  C   UNL A   1      40.097  25.075  26.386  1.00  0.00     0.338 C 
ATOM     31  O   UNL A   1      40.611  25.423  25.338  1.00  0.00    -0.246 OA
BRANCH  30  32
ATOM     32  C   UNL A   1      40.343  25.757  27.666  1.00  0.00     0.060 A 
ATOM     33  C   UNL A   1      39.334  25.737  28.617  1.00  0.00     0.016 A 
ATOM     34  C   UNL A   1      41.458  26.568  27.860  1.00  0.00     0.016 A 
ATOM     35  C   UNL A   1      39.359  26.644  29.672  1.00  0.00     0.010 A 
ATOM     36  C   UNL A   1      41.533  27.388  29.000  1.00  0.00     0.010 A 
ATOM     37  C   UNL A   1      40.445  27.503  29.885  1.00  0.00    -0.014 A 
BRANCH  37  38
ATOM     38  C   UNL A   1      40.356  28.567  30.943  1.00  0.00     0.031 A 
ATOM     39  C   UNL A   1      41.412  28.660  32.026  1.00  0.00     0.074 A 
ATOM     40  C   UNL A   1      39.410  29.534  30.897  1.00  0.00     0.049 A 
ATOM     41  N   UNL A   1      41.436  29.412  33.099  1.00  0.00    -0.248 NA
ATOM     42  C   UNL A   1      42.589  27.787  31.897  1.00  0.00     0.031 C 
ATOM     43  C   UNL A   1      38.365  29.655  29.878  1.00  0.00     0.029 A 
ATOM     44  N   UNL A   1      39.208  30.639  31.693  1.00  0.00    -0.354 N 
ATOM     45  C   UNL A   1      42.563  29.024  33.820  1.00  0.00     0.074 A 
ATOM     46  C   UNL A   1      43.211  27.987  33.049  1.00  0.00     0.031 C 
ATOM     47  C   UNL A   1      37.731  30.827  30.028  1.00  0.00     0.029 A 
ATOM     48  C   UNL A   1      38.206  31.472  31.244  1.00  0.00     0.049 A 
ATOM     49  H   UNL A   1      39.731  30.817  32.508  1.00  0.00     0.167 HD
ATOM     50  C   UNL A   1      43.007  29.481  35.017  1.00  0.00     0.037 A 
ATOM     51  C   UNL A   1      37.687  32.604  31.763  1.00  0.00     0.037 A 
ATOM     52  C   UNL A   1      42.411  30.580  35.738  1.00  0.00     0.049 A 
ATOM     53  C   UNL A   1      38.193  33.094  33.093  1.00  0.00     0.074 A 
ATOM     54  C   UNL A   1      42.779  31.100  36.968  1.00  0.00     0.029 A 
ATOM     55  N   UNL A   1      41.346  31.346  35.287  1.00  0.00    -0.354 N 
ATOM     56  N   UNL A   1      39.171  32.626  33.831  1.00  0.00    -0.248 NA
ATOM     57  C   UNL A   1      37.490  34.240  33.686  1.00  0.00     0.031 C 
ATOM     58  C   UNL A   1      41.907  32.149  37.282  1.00  0.00     0.029 A 
ATOM     59  C   UNL A   1      41.036  32.324  36.220  1.00  0.00     0.049 A 
ATOM     60  H   UNL A   1      40.880  31.215  34.430  1.00  0.00     0.167 HD
ATOM     61  C   UNL A   1      39.200  33.419  34.973  1.00  0.00     0.074 A 
ATOM     62  C   UNL A   1      38.165  34.419  34.812  1.00  0.00     0.031 C 
ATOM     63  C   UNL A   1      40.000  33.315  36.063  1.00  0.00     0.037 A 
BRANCH  50  64
ATOM     64  C   UNL A   1      44.152  28.747  35.665  1.00  0.00     0.058 A 
ATOM     65  C   UNL A   1      45.494  29.100  35.468  1.00  0.00     0.135 A 
ATOM     66  C   UNL A   1      43.883  27.672  36.532  1.00  0.00     0.135 A 
ATOM     67  F   UNL A   1      45.815  30.106  34.638  1.00  0.00    -0.206 F 
ATOM     68  C   UNL A   1      46.530  28.395  36.078  1.00  0.00     0.059 A 
ATOM     69  C   UNL A   1      44.898  26.974  37.177  1.00  0.00     0.059 A 
ATOM     70  F   UNL A   1      42.616  27.288  36.760  1.00  0.00    -0.206 F 
ATOM     71  C   UNL A   1      46.221  27.332  36.930  1.00  0.00     0.060 A 
BRANCH  71  72
ATOM     72  S   UNL A   1      47.573  26.422  37.707  1.00  0.00     0.124 S 
ATOM     73  O   UNL A   1      48.736  27.020  37.060  1.00  0.00    -0.237 OA
ATOM     74  O   UNL A   1      47.396  26.746  39.119  1.00  0.00    -0.237 OA
ATOM     75  O   UNL A   1      47.302  25.034  37.348  1.00  0.00    -0.744 OA
ENDBRANCH  71  72
ENDBRANCH  50  64
BRANCH  51  76
ATOM     76  C   UNL A   1      36.570  33.309  31.069  1.00  0.00     0.058 A 
ATOM     77  C   UNL A   1      35.240  33.174  31.498  1.00  0.00     0.135 A 
ATOM     78  C   UNL A   1      36.808  34.130  29.953  1.00  0.00     0.135 A 
ATOM     79  F   UNL A   1      34.947  32.381  32.540  1.00  0.00    -0.206 F 
ATOM     80  C   UNL A   1      34.192  33.820  30.847  1.00  0.00     0.059 A 
ATOM     81  C   UNL A   1      35.783  34.819  29.313  1.00  0.00     0.059 A 
ATOM     82  F   UNL A   1      38.058  34.293  29.490  1.00  0.00    -0.206 F 
ATOM     83  C   UNL A   1      34.475  34.647  29.758  1.00  0.00     0.060 A 
BRANCH  83  84
ATOM     84  S   UNL A   1      33.121  35.527  28.951  1.00  0.00     0.124 S 
ATOM     85  O   UNL A   1      33.846  36.468  28.104  1.00  0.00    -0.237 OA
ATOM     86  O   UNL A   1      32.421  34.452  28.256  1.00  0.00    -0.237 OA
ATOM     87  O   UNL A   1      32.391  36.119  30.069  1.00  0.00    -0.744 OA
ENDBRANCH  83  84
ENDBRANCH  51  76
BRANCH  63  88
ATOM     88  C   UNL A   1      39.804  34.325  37.161  1.00  0.00     0.058 A 
ATOM     89  C   UNL A   1      40.387  35.601  37.107  1.00  0.00     0.135 A 
ATOM     90  C   UNL A   1      39.010  34.018  38.279  1.00  0.00     0.135 A 
ATOM     91  F   UNL A   1      41.158  35.949  36.064  1.00  0.00    -0.206 F 
ATOM     92  C   UNL A   1      40.227  36.520  38.140  1.00  0.00     0.059 A 
ATOM     93  C   UNL A   1      38.810  34.933  39.308  1.00  0.00     0.059 A 
ATOM     94  F   UNL A   1      38.415  32.818  38.377  1.00  0.00    -0.206 F 
ATOM     95  C   UNL A   1      39.439  36.175  39.239  1.00  0.00     0.060 A 
BRANCH  95  96
ATOM     96  S   UNL A   1      39.240  37.374  40.574  1.00  0.00     0.124 S 
ATOM     97  O   UNL A   1      38.236  38.273  40.015  1.00  0.00    -0.237 OA
ATOM     98  O   UNL A   1      38.795  36.536  41.684  1.00  0.00    -0.237 OA
ATOM     99  O   UNL A   1      40.577  37.942  40.724  1.00  0.00    -0.744 OA
ENDBRANCH  95  96
ENDBRANCH  63  88
ENDBRANCH  37  38
ENDBRANCH  30  32
ENDBRANCH  29  30
ENDBRANCH  28  29
ENDBRANCH   1  28
TORSDOF 17
ENDMDL
MODEL 3
REMARK VINA RESULT:     -11.5      1.646      2.287
REMARK SMILES Cc1cc(F)ccc1S(=O)(=O)Nc1ccc2oc(C)c(C(=O)OCCOC(=O)c3ccc(-c4c5nc(c(-c6c(F)cc(S(=O)(=O)[O-])cc6F)c6ccc([nH]6)c(-c6c(F)cc(S(=O)(=O)[O-])cc6F)c6nc(c(-c7c(F)cc(S(=O)(=O)[O-])cc7F)c7ccc4[nH]7)C=C6)C=C5)cc3)c2c1
REMARK SMILES IDX 24 1 23 2 21 3 22 4 20 5 13 6 14 7 96 8 15 9 95 10 16 11
REMARK SMILES IDX 17 12 18 13 19 14 12 15 9 17 10 18 11 19 8 20 1 21 2 22 3 23
REMARK SMILES IDX 4 24 7 25 5 26 6 27 25 28 26 29 27 30 28 31 29 32 30 33
REMARK SMILES IDX 94 34 31 35 93 36 32 37 33 38 34 39 87 40 35 41 92 42 86 43
REMARK SMILES IDX 88 44 36 45 91 46 85 47 84 48 37 50 71 51 50 52 70 53 51 54
REMARK SMILES IDX 54 55 69 56 89 57 52 58 53 59 68 61 90 62 55 63 38 64 39 65
REMARK SMILES IDX 48 66 40 67 41 68 47 69 49 70 42 71 43 72 44 73 45 74 46 75
REMARK SMILES IDX 72 76 73 77 82 78 74 79 75 80 81 81 83 82 76 83 77 84 78 85
REMARK SMILES IDX 79 86 80 87 56 88 57 89 66 90 58 91 59 92 65 93 67 94 60 95
REMARK SMILES IDX 61 96 62 97 63 98 64 99
REMARK H PARENT 12 16 88 49 54 60
REMARK Flexibility Score: inf
ROOT
ATOM      1  C   UNL A   1      33.338  29.035  27.083  1.00  0.00     0.275 C 
ENDROOT
BRANCH   1   2
ATOM      2  O   UNL A   1      34.196  28.897  25.933  1.00  0.00    -0.458 OA
BRANCH   2   3
ATOM      3  C   UNL A   1      33.637  28.532  24.744  1.00  0.00     0.342 C 
ATOM      4  O   UNL A   1      34.099  28.820  23.641  1.00  0.00    -0.246 OA
BRANCH   3   5
ATOM      5  C   UNL A   1      32.447  27.726  24.928  1.00  0.00     0.109 A 
ATOM      6  C   UNL A   1      32.596  24.121  26.289  1.00  0.00     0.050 A 
ATOM      7  C   UNL A   1      31.214  23.978  26.400  1.00  0.00     0.030 A 
ATOM      8  C   UNL A   1      33.148  25.344  25.872  1.00  0.00     0.039 A 
ATOM      9  C   UNL A   1      30.346  24.991  25.977  1.00  0.00     0.050 A 
ATOM     10  C   UNL A   1      32.300  26.391  25.441  1.00  0.00     0.037 A 
ATOM     11  C   UNL A   1      30.931  26.153  25.481  1.00  0.00     0.135 A 
ATOM     12  O   UNL A   1      30.251  27.195  24.940  1.00  0.00    -0.460 OA
ATOM     13  C   UNL A   1      31.168  28.128  24.569  1.00  0.00     0.116 A 
ATOM     14  C   UNL A   1      30.629  29.289  23.829  1.00  0.00     0.088 C 
BRANCH   6  15
ATOM     15  N   UNL A   1      33.385  23.009  26.671  1.00  0.00    -0.280 N 
ATOM     16  H   UNL A   1      33.508  22.848  27.634  1.00  0.00     0.180 HD
BRANCH  15  17
ATOM     17  S   UNL A   1      34.126  21.944  25.605  1.00  0.00     0.262 S 
ATOM     18  O   UNL A   1      33.797  22.469  24.299  1.00  0.00    -0.201 OA
ATOM     19  O   UNL A   1      33.783  20.584  25.962  1.00  0.00    -0.201 OA
BRANCH  17  20
ATOM     20  C   UNL A   1      35.907  22.148  25.805  1.00  0.00     0.090 A 
ATOM     21  C   UNL A   1      36.533  19.835  24.819  1.00  0.00     0.046 C 
ATOM     22  C   UNL A   1      36.849  21.177  25.403  1.00  0.00    -0.028 A 
ATOM     23  C   UNL A   1      38.221  21.462  25.551  1.00  0.00     0.044 A 
ATOM     24  C   UNL A   1      38.650  22.710  25.975  1.00  0.00     0.123 A 
ATOM     25  C   UNL A   1      36.364  23.413  26.234  1.00  0.00     0.025 A 
ATOM     26  F   UNL A   1      39.963  22.964  26.041  1.00  0.00    -0.207 F 
ATOM     27  C   UNL A   1      37.734  23.696  26.300  1.00  0.00     0.040 A 
ENDBRANCH  17  20
ENDBRANCH  15  17
ENDBRANCH   6  15
ENDBRANCH   3   5
ENDBRANCH   2   3
ENDBRANCH   1   2
BRANCH   1  28
ATOM     28  C   UNL A   1      33.168  30.512  27.437  1.00  0.00     0.275 C 
BRANCH  28  29
ATOM     29  O   UNL A   1      34.460  31.146  27.462  1.00  0.00    -0.458 OA
BRANCH  29  30
ATOM     30  C   UNL A   1      35.091  31.147  28.659  1.00  0.00     0.338 C 
ATOM     31  O   UNL A   1      34.702  31.646  29.700  1.00  0.00    -0.246 OA
BRANCH  30  32
ATOM     32  C   UNL A   1      36.317  30.340  28.563  1.00  0.00     0.060 A 
ATOM     33  C   UNL A   1      36.937  29.959  29.743  1.00  0.00     0.016 A 
ATOM     34  C   UNL A   1      36.958  30.125  27.346  1.00  0.00     0.016 A 
ATOM     35  C   UNL A   1      38.257  29.519  29.720  1.00  0.00     0.010 A 
ATOM     36  C   UNL A   1      38.244  29.558  27.327  1.00  0.00     0.010 A 
ATOM     37  C   UNL A   1      38.952  29.322  28.520  1.00  0.00    -0.014 A 
BRANCH  37  38
ATOM     38  C   UNL A   1      40.419  28.997  28.554  1.00  0.00     0.031 A 
ATOM     39  C   UNL A   1      41.409  29.980  29.149  1.00  0.00     0.074 A 
ATOM     40  C   UNL A   1      40.885  27.787  28.166  1.00  0.00     0.049 A 
ATOM     41  N   UNL A   1      42.718  29.945  29.143  1.00  0.00    -0.248 NA
ATOM     42  C   UNL A   1      40.857  31.163  29.828  1.00  0.00     0.031 C 
ATOM     43  C   UNL A   1      40.069  26.685  27.650  1.00  0.00     0.029 A 
ATOM     44  N   UNL A   1      42.154  27.253  28.203  1.00  0.00    -0.354 N 
ATOM     45  C   UNL A   1      43.141  31.142  29.712  1.00  0.00     0.074 A 
ATOM     46  C   UNL A   1      41.948  31.873  30.076  1.00  0.00     0.031 C 
ATOM     47  C   UNL A   1      40.822  25.581  27.552  1.00  0.00     0.029 A 
ATOM     48  C   UNL A   1      42.208  25.924  27.840  1.00  0.00     0.049 A 
ATOM     49  H   UNL A   1      42.948  27.772  28.464  1.00  0.00     0.167 HD
ATOM     50  C   UNL A   1      44.406  31.595  29.901  1.00  0.00     0.037 A 
ATOM     51  C   UNL A   1      43.250  25.078  27.706  1.00  0.00     0.037 A 
ATOM     52  C   UNL A   1      45.594  30.826  29.624  1.00  0.00     0.049 A 
ATOM     53  C   UNL A   1      44.645  25.601  27.920  1.00  0.00     0.074 A 
ATOM     54  C   UNL A   1      46.917  31.209  29.764  1.00  0.00     0.029 A 
ATOM     55  N   UNL A   1      45.607  29.512  29.180  1.00  0.00    -0.354 N 
ATOM     56  N   UNL A   1      45.032  26.787  28.323  1.00  0.00    -0.248 NA
ATOM     57  C   UNL A   1      45.750  24.682  27.611  1.00  0.00     0.031 C 
ATOM     58  C   UNL A   1      47.730  30.144  29.360  1.00  0.00     0.029 A 
ATOM     59  C   UNL A   1      46.915  29.075  29.028  1.00  0.00     0.049 A 
ATOM     60  H   UNL A   1      44.806  28.969  29.000  1.00  0.00     0.167 HD
ATOM     61  C   UNL A   1      46.423  26.756  28.317  1.00  0.00     0.074 A 
ATOM     62  C   UNL A   1      46.808  25.423  27.905  1.00  0.00     0.031 C 
ATOM     63  C   UNL A   1      47.298  27.749  28.610  1.00  0.00     0.037 A 
BRANCH  50  64
ATOM     64  C   UNL A   1      44.576  33.019  30.364  1.00  0.00     0.058 A 
ATOM     65  C   UNL A   1      44.719  33.371  31.714  1.00  0.00     0.135 A 
ATOM     66  C   UNL A   1      44.623  34.056  29.414  1.00  0.00     0.135 A 
ATOM     67  F   UNL A   1      44.664  32.429  32.669  1.00  0.00    -0.206 F 
ATOM     68  C   UNL A   1      44.869  34.699  32.109  1.00  0.00     0.059 A 
ATOM     69  C   UNL A   1      44.805  35.385  29.782  1.00  0.00     0.059 A 
ATOM     70  F   UNL A   1      44.493  33.780  28.106  1.00  0.00    -0.206 F 
ATOM     71  C   UNL A   1      44.909  35.699  31.135  1.00  0.00     0.060 A 
BRANCH  71  72
ATOM     72  S   UNL A   1      45.095  37.416  31.660  1.00  0.00     0.124 S 
ATOM     73  O   UNL A   1      44.600  38.134  30.490  1.00  0.00    -0.237 OA
ATOM     74  O   UNL A   1      44.245  37.473  32.845  1.00  0.00    -0.237 OA
ATOM     75  O   UNL A   1      46.527  37.543  31.914  1.00  0.00    -0.744 OA
ENDBRANCH  71  72
ENDBRANCH  50  64
BRANCH  51  76
ATOM     76  C   UNL A   1      43.026  23.668  27.269  1.00  0.00     0.058 A 
ATOM     77  C   UNL A   1      43.242  23.271  25.940  1.00  0.00     0.135 A 
ATOM     78  C   UNL A   1      42.582  22.687  28.173  1.00  0.00     0.135 A 
ATOM     79  F   UNL A   1      43.638  24.170  25.025  1.00  0.00    -0.206 F 
ATOM     80  C   UNL A   1      43.022  21.961  25.524  1.00  0.00     0.059 A 
ATOM     81  C   UNL A   1      42.398  21.363  27.790  1.00  0.00     0.059 A 
ATOM     82  F   UNL A   1      42.351  23.007  29.456  1.00  0.00    -0.206 F 
ATOM     83  C   UNL A   1      42.607  21.011  26.459  1.00  0.00     0.060 A 
BRANCH  83  84
ATOM     84  S   UNL A   1      42.378  19.300  25.928  1.00  0.00     0.124 S 
ATOM     85  O   UNL A   1      43.168  19.264  24.703  1.00  0.00    -0.237 OA
ATOM     86  O   UNL A   1      42.915  18.548  27.057  1.00  0.00    -0.237 OA
ATOM     87  O   UNL A   1      40.932  19.195  25.748  1.00  0.00    -0.744 OA
ENDBRANCH  83  84
ENDBRANCH  51  76
BRANCH  63  88
ATOM     88  C   UNL A   1      48.765  27.426  28.516  1.00  0.00     0.058 A 
ATOM     89  C   UNL A   1      49.465  26.842  29.585  1.00  0.00     0.135 A 
ATOM     90  C   UNL A   1      49.480  27.689  27.336  1.00  0.00     0.135 A 
ATOM     91  F   UNL A   1      48.833  26.569  30.738  1.00  0.00    -0.206 F 
ATOM     92  C   UNL A   1      50.827  26.572  29.503  1.00  0.00     0.059 A 
ATOM     93  C   UNL A   1      50.836  27.398  27.221  1.00  0.00     0.059 A 
ATOM     94  F   UNL A   1      48.860  28.234  26.276  1.00  0.00    -0.206 F 
ATOM     95  C   UNL A   1      51.506  26.858  28.317  1.00  0.00     0.060 A 
BRANCH  95  96
ATOM     96  S   UNL A   1      53.274  26.506  28.223  1.00  0.00     0.124 S 
ATOM     97  O   UNL A   1      53.303  25.391  27.283  1.00  0.00    -0.237 OA
ATOM     98  O   UNL A   1      53.819  27.768  27.730  1.00  0.00    -0.237 OA
ATOM     99  O   UNL A   1      53.629  26.175  29.600  1.00  0.00    -0.744 OA
ENDBRANCH  95  96
ENDBRANCH  63  88
ENDBRANCH  37  38
ENDBRANCH  30  32
ENDBRANCH  29  30
ENDBRANCH  28  29
ENDBRANCH   1  28
TORSDOF 17
ENDMDL
