MODEL 1
REMARK VINA RESULT:     -11.6      0.000      0.000
REMARK SMILES C[C@H](C(=O)OCCOC(=O)c1ccc(-c2c3nc(c(-c4c(F)cc(S(=O)(=O)[O-])cc4F)c4ccc([nH]4)c(-c4c(F)cc(S(=O)(=O)[O-])cc4F)c4nc(c(-c5c(F)cc(S(=O)(=O)[O-])cc5F)c5ccc2[nH]5)C=C4)C=C3)cc1)c1ccc(C[C@@H]2CCC[C@H]2O)cc1
REMARK SMILES IDX 6 1 5 2 3 3 4 4 2 5 1 6 77 7 78 8 89 9 79 10 88 11 80 12
REMARK SMILES IDX 81 13 82 14 83 15 86 16 84 17 85 18 87 19 7 21 8 22 9 23
REMARK SMILES IDX 10 24 11 25 12 26 76 27 13 28 75 29 14 30 15 31 16 32 69 33
REMARK SMILES IDX 17 34 74 35 68 36 70 37 18 38 73 39 67 40 66 41 19 43 53 44
REMARK SMILES IDX 32 45 52 46 33 47 36 48 51 49 71 50 34 51 35 52 50 54 72 55
REMARK SMILES IDX 37 56 20 57 21 58 30 59 22 60 23 61 29 62 31 63 24 64 25 65
REMARK SMILES IDX 26 66 27 67 28 68 54 69 55 70 64 71 56 72 57 73 63 74 65 75
REMARK SMILES IDX 58 76 59 77 60 78 61 79 62 80 38 81 39 82 48 83 40 84 41 85
REMARK SMILES IDX 47 86 49 87 42 88 43 89 44 90 45 91 46 92
REMARK H PARENT 87 20 70 42 36 53
REMARK Flexibility Score: inf
ROOT
ATOM      1  C   UNL A   1      31.639  28.813  23.252  1.00  0.00     0.274 C 
ENDROOT
BRANCH   1   2
ATOM      2  O   UNL A   1      30.662  27.759  23.104  1.00  0.00    -0.462 OA
BRANCH   2   3
ATOM      3  C   UNL A   1      31.032  26.516  23.532  1.00  0.00     0.313 C 
ATOM      4  O   UNL A   1      31.181  25.550  22.793  1.00  0.00    -0.252 OA
BRANCH   3   5
ATOM      5  C   UNL A   1      31.152  26.463  25.059  1.00  0.00     0.126 C 
ATOM      6  C   UNL A   1      29.826  25.907  25.577  1.00  0.00     0.025 C 
BRANCH   5   7
ATOM      7  C   UNL A   1      32.353  25.644  25.521  1.00  0.00    -0.034 A 
ATOM      8  C   UNL A   1      33.640  25.938  25.029  1.00  0.00     0.005 A 
ATOM      9  C   UNL A   1      32.191  24.508  26.328  1.00  0.00     0.005 A 
ATOM     10  C   UNL A   1      34.685  25.027  25.195  1.00  0.00     0.004 A 
ATOM     11  C   UNL A   1      33.227  23.603  26.493  1.00  0.00     0.004 A 
ATOM     12  C   UNL A   1      34.436  23.807  25.829  1.00  0.00    -0.048 A 
BRANCH  12  13
ATOM     13  C   UNL A   1      35.366  22.649  25.701  1.00  0.00     0.041 C 
BRANCH  13  14
ATOM     14  C   UNL A   1      34.881  21.156  25.467  1.00  0.00     0.022 C 
ATOM     15  C   UNL A   1      36.383  19.891  25.000  1.00  0.00     0.007 C 
ATOM     16  C   UNL A   1      33.108  20.206  24.862  1.00  0.00     0.117 C 
ATOM     17  C   UNL A   1      35.523  18.073  24.521  1.00  0.00     0.003 C 
ATOM     18  C   UNL A   1      33.546  18.318  24.375  1.00  0.00     0.032 C 
BRANCH  16  19
ATOM     19  O   UNL A   1      31.775  20.241  25.384  1.00  0.00    -0.393 OA
ATOM     20  H   UNL A   1      31.808  20.244  26.353  1.00  0.00     0.210 HD
ENDBRANCH  16  19
ENDBRANCH  13  14
ENDBRANCH  12  13
ENDBRANCH   5   7
ENDBRANCH   3   5
ENDBRANCH   2   3
ENDBRANCH   1   2
BRANCH   1  21
ATOM     21  C   UNL A   1      31.401  29.627  24.525  1.00  0.00     0.275 C 
BRANCH  21  22
ATOM     22  O   UNL A   1      32.539  29.547  25.393  1.00  0.00    -0.458 OA
BRANCH  22  23
ATOM     23  C   UNL A   1      32.601  30.509  26.341  1.00  0.00     0.338 C 
ATOM     24  O   UNL A   1      31.726  31.282  26.689  1.00  0.00    -0.246 OA
BRANCH  23  25
ATOM     25  C   UNL A   1      33.883  30.370  27.022  1.00  0.00     0.060 A 
ATOM     26  C   UNL A   1      34.575  29.213  26.862  1.00  0.00     0.016 A 
ATOM     27  C   UNL A   1      34.461  31.344  27.782  1.00  0.00     0.016 A 
ATOM     28  C   UNL A   1      35.735  28.959  27.623  1.00  0.00     0.010 A 
ATOM     29  C   UNL A   1      35.741  31.112  28.398  1.00  0.00     0.010 A 
ATOM     30  C   UNL A   1      36.589  29.827  28.562  1.00  0.00    -0.014 A 
BRANCH  30  31
ATOM     31  C   UNL A   1      38.357  29.342  29.648  1.00  0.00     0.031 A 
ATOM     32  C   UNL A   1      39.550  27.956  29.252  1.00  0.00     0.074 A 
ATOM     33  C   UNL A   1      39.287  30.036  30.604  1.00  0.00     0.049 A 
ATOM     34  N   UNL A   1      40.789  27.743  29.691  1.00  0.00    -0.248 NA
ATOM     35  C   UNL A   1      39.231  26.873  28.203  1.00  0.00     0.031 C 
ATOM     36  C   UNL A   1      39.488  31.545  30.770  1.00  0.00     0.029 A 
ATOM     37  N   UNL A   1      40.160  29.630  31.624  1.00  0.00    -0.354 N 
ATOM     38  C   UNL A   1      41.347  26.700  28.916  1.00  0.00     0.074 A 
ATOM     39  C   UNL A   1      40.353  26.235  28.006  1.00  0.00     0.031 C 
ATOM     40  C   UNL A   1      39.982  31.856  31.962  1.00  0.00     0.029 A 
ATOM     41  C   UNL A   1      40.420  30.637  32.572  1.00  0.00     0.049 A 
ATOM     42  H   UNL A   1      40.552  28.728  31.672  1.00  0.00     0.167 HD
ATOM     43  C   UNL A   1      42.555  26.080  28.915  1.00  0.00     0.037 A 
ATOM     44  C   UNL A   1      41.050  30.742  33.760  1.00  0.00     0.037 A 
ATOM     45  C   UNL A   1      43.520  26.211  29.954  1.00  0.00     0.049 A 
ATOM     46  C   UNL A   1      42.171  29.806  33.978  1.00  0.00     0.074 A 
ATOM     47  C   UNL A   1      44.659  25.454  30.151  1.00  0.00     0.029 A 
ATOM     48  N   UNL A   1      43.403  27.076  31.026  1.00  0.00    -0.354 N 
ATOM     49  N   UNL A   1      42.579  28.869  33.164  1.00  0.00    -0.248 NA
ATOM     50  C   UNL A   1      43.020  30.028  35.153  1.00  0.00     0.031 C 
ATOM     51  C   UNL A   1      45.170  25.777  31.408  1.00  0.00     0.029 A 
ATOM     52  C   UNL A   1      44.409  26.807  31.935  1.00  0.00     0.049 A 
ATOM     53  H   UNL A   1      42.715  27.773  31.126  1.00  0.00     0.167 HD
ATOM     54  C   UNL A   1      43.775  28.432  33.686  1.00  0.00     0.074 A 
ATOM     55  C   UNL A   1      44.018  29.192  34.897  1.00  0.00     0.031 C 
ATOM     56  C   UNL A   1      44.612  27.510  33.169  1.00  0.00     0.037 A 
BRANCH  43  57
ATOM     57  C   UNL A   1      42.789  25.045  27.823  1.00  0.00     0.058 A 
ATOM     58  C   UNL A   1      42.513  23.680  28.025  1.00  0.00     0.135 A 
ATOM     59  C   UNL A   1      43.441  25.407  26.631  1.00  0.00     0.135 A 
ATOM     60  F   UNL A   1      41.943  23.268  29.167  1.00  0.00    -0.206 F 
ATOM     61  C   UNL A   1      42.910  22.711  27.102  1.00  0.00     0.059 A 
ATOM     62  C   UNL A   1      43.830  24.457  25.689  1.00  0.00     0.059 A 
ATOM     63  F   UNL A   1      43.770  26.688  26.404  1.00  0.00    -0.206 F 
ATOM     64  C   UNL A   1      43.580  23.109  25.943  1.00  0.00     0.060 A 
BRANCH  64  65
ATOM     65  S   UNL A   1      44.161  21.839  24.794  1.00  0.00     0.124 S 
ATOM     66  O   UNL A   1      45.529  21.627  25.259  1.00  0.00    -0.237 OA
ATOM     67  O   UNL A   1      43.231  20.744  25.041  1.00  0.00    -0.237 OA
ATOM     68  O   UNL A   1      44.040  22.481  23.489  1.00  0.00    -0.744 OA
ENDBRANCH  64  65
ENDBRANCH  43  57
BRANCH  44  69
ATOM     69  C   UNL A   1      40.766  31.887  34.697  1.00  0.00     0.058 A 
ATOM     70  C   UNL A   1      41.484  33.095  34.715  1.00  0.00     0.135 A 
ATOM     71  C   UNL A   1      39.707  31.767  35.617  1.00  0.00     0.135 A 
ATOM     72  F   UNL A   1      42.489  33.290  33.849  1.00  0.00    -0.206 F 
ATOM     73  C   UNL A   1      41.189  34.118  35.625  1.00  0.00     0.059 A 
ATOM     74  C   UNL A   1      39.388  32.774  36.530  1.00  0.00     0.059 A 
ATOM     75  F   UNL A   1      38.967  30.646  35.639  1.00  0.00    -0.206 F 
ATOM     76  C   UNL A   1      40.144  33.945  36.536  1.00  0.00     0.060 A 
BRANCH  76  77
ATOM     77  S   UNL A   1      39.779  35.267  37.719  1.00  0.00     0.124 S 
ATOM     78  O   UNL A   1      40.957  35.232  38.579  1.00  0.00    -0.237 OA
ATOM     79  O   UNL A   1      39.658  36.433  36.851  1.00  0.00    -0.237 OA
ATOM     80  O   UNL A   1      38.534  34.829  38.347  1.00  0.00    -0.744 OA
ENDBRANCH  76  77
ENDBRANCH  44  69
BRANCH  56  81
ATOM     81  C   UNL A   1      45.844  27.210  33.944  1.00  0.00     0.058 A 
ATOM     82  C   UNL A   1      47.022  27.935  33.723  1.00  0.00     0.135 A 
ATOM     83  C   UNL A   1      45.822  26.245  34.960  1.00  0.00     0.135 A 
ATOM     84  F   UNL A   1      47.078  28.863  32.755  1.00  0.00    -0.206 F 
ATOM     85  C   UNL A   1      48.157  27.695  34.476  1.00  0.00     0.059 A 
ATOM     86  C   UNL A   1      46.936  26.015  35.750  1.00  0.00     0.059 A 
ATOM     87  F   UNL A   1      44.706  25.540  35.205  1.00  0.00    -0.206 F 
ATOM     88  C   UNL A   1      48.100  26.738  35.492  1.00  0.00     0.060 A 
BRANCH  88  89
ATOM     89  S   UNL A   1      49.568  26.481  36.501  1.00  0.00     0.124 S 
ATOM     90  O   UNL A   1      50.265  25.451  35.740  1.00  0.00    -0.237 OA
ATOM     91  O   UNL A   1      50.184  27.805  36.492  1.00  0.00    -0.237 OA
ATOM     92  O   UNL A   1      49.024  26.058  37.788  1.00  0.00    -0.744 OA
ENDBRANCH  88  89
ENDBRANCH  56  81
ENDBRANCH  30  31
ENDBRANCH  23  25
ENDBRANCH  22  23
ENDBRANCH  21  22
ENDBRANCH   1  21
TORSDOF 18
ENDMDL
MODEL 2
REMARK VINA RESULT:     -11.6      3.606      9.940
REMARK SMILES C[C@H](C(=O)OCCOC(=O)c1ccc(-c2c3nc(c(-c4c(F)cc(S(=O)(=O)[O-])cc4F)c4ccc([nH]4)c(-c4c(F)cc(S(=O)(=O)[O-])cc4F)c4nc(c(-c5c(F)cc(S(=O)(=O)[O-])cc5F)c5ccc2[nH]5)C=C4)C=C3)cc1)c1ccc(C[C@@H]2CCC[C@H]2O)cc1
REMARK SMILES IDX 6 1 5 2 3 3 4 4 2 5 1 6 77 7 78 8 89 9 79 10 88 11 80 12
REMARK SMILES IDX 81 13 82 14 83 15 86 16 84 17 85 18 87 19 7 21 8 22 9 23
REMARK SMILES IDX 10 24 11 25 12 26 76 27 13 28 75 29 14 30 15 31 16 32 69 33
REMARK SMILES IDX 17 34 74 35 68 36 70 37 18 38 73 39 67 40 66 41 19 43 53 44
REMARK SMILES IDX 32 45 52 46 33 47 36 48 51 49 71 50 34 51 35 52 50 54 72 55
REMARK SMILES IDX 37 56 20 57 21 58 30 59 22 60 23 61 29 62 31 63 24 64 25 65
REMARK SMILES IDX 26 66 27 67 28 68 54 69 55 70 64 71 56 72 57 73 63 74 65 75
REMARK SMILES IDX 58 76 59 77 60 78 61 79 62 80 38 81 39 82 48 83 40 84 41 85
REMARK SMILES IDX 47 86 49 87 42 88 43 89 44 90 45 91 46 92
REMARK H PARENT 87 20 70 42 36 53
REMARK Flexibility Score: inf
ROOT
ATOM      1  C   UNL A   1      43.809  20.842  25.444  1.00  0.00     0.274 C 
ENDROOT
BRANCH   1   2
ATOM      2  O   UNL A   1      42.429  21.189  25.694  1.00  0.00    -0.462 OA
BRANCH   2   3
ATOM      3  C   UNL A   1      41.760  20.427  26.609  1.00  0.00     0.313 C 
ATOM      4  O   UNL A   1      41.849  19.207  26.685  1.00  0.00    -0.252 OA
BRANCH   3   5
ATOM      5  C   UNL A   1      40.823  21.282  27.469  1.00  0.00     0.126 C 
ATOM      6  C   UNL A   1      41.718  22.217  28.283  1.00  0.00     0.025 C 
BRANCH   5   7
ATOM      7  C   UNL A   1      39.790  22.034  26.636  1.00  0.00    -0.034 A 
ATOM      8  C   UNL A   1      39.544  23.399  26.881  1.00  0.00     0.005 A 
ATOM      9  C   UNL A   1      38.975  21.363  25.712  1.00  0.00     0.005 A 
ATOM     10  C   UNL A   1      38.410  24.018  26.352  1.00  0.00     0.004 A 
ATOM     11  C   UNL A   1      37.848  21.977  25.187  1.00  0.00     0.004 A 
ATOM     12  C   UNL A   1      37.505  23.263  25.600  1.00  0.00    -0.048 A 
BRANCH  12  13
ATOM     13  C   UNL A   1      36.115  23.732  25.340  1.00  0.00     0.041 C 
BRANCH  13  14
ATOM     14  C   UNL A   1      35.002  22.836  24.648  1.00  0.00     0.022 C 
ATOM     15  C   UNL A   1      33.651  23.908  23.598  1.00  0.00     0.007 C 
ATOM     16  C   UNL A   1      34.118  20.963  24.996  1.00  0.00     0.117 C 
ATOM     17  C   UNL A   1      32.182  22.594  22.973  1.00  0.00     0.003 C 
ATOM     18  C   UNL A   1      32.454  20.844  23.895  1.00  0.00     0.032 C 
BRANCH  16  19
ATOM     19  O   UNL A   1      34.672  19.650  25.122  1.00  0.00    -0.393 OA
ATOM     20  H   UNL A   1      35.624  19.682  24.935  1.00  0.00     0.210 HD
ENDBRANCH  16  19
ENDBRANCH  13  14
ENDBRANCH  12  13
ENDBRANCH   5   7
ENDBRANCH   3   5
ENDBRANCH   2   3
ENDBRANCH   1   2
BRANCH   1  21
ATOM     21  C   UNL A   1      44.668  22.085  25.207  1.00  0.00     0.275 C 
BRANCH  21  22
ATOM     22  O   UNL A   1      44.424  23.067  26.222  1.00  0.00    -0.458 OA
BRANCH  22  23
ATOM     23  C   UNL A   1      43.816  24.194  25.790  1.00  0.00     0.338 C 
ATOM     24  O   UNL A   1      43.457  24.471  24.660  1.00  0.00    -0.246 OA
BRANCH  23  25
ATOM     25  C   UNL A   1      43.501  24.998  26.965  1.00  0.00     0.060 A 
ATOM     26  C   UNL A   1      42.410  25.805  26.920  1.00  0.00     0.016 A 
ATOM     27  C   UNL A   1      44.207  24.966  28.131  1.00  0.00     0.016 A 
ATOM     28  C   UNL A   1      42.152  26.723  27.959  1.00  0.00     0.010 A 
ATOM     29  C   UNL A   1      43.801  25.787  29.241  1.00  0.00     0.010 A 
ATOM     30  C   UNL A   1      42.771  26.939  29.351  1.00  0.00    -0.014 A 
BRANCH  30  31
ATOM     31  C   UNL A   1      42.278  28.352  30.866  1.00  0.00     0.031 A 
ATOM     32  C   UNL A   1      40.954  29.670  30.758  1.00  0.00     0.074 A 
ATOM     33  C   UNL A   1      42.456  28.478  32.355  1.00  0.00     0.049 A 
ATOM     34  N   UNL A   1      40.398  30.404  31.719  1.00  0.00    -0.248 NA
ATOM     35  C   UNL A   1      40.232  30.002  29.437  1.00  0.00     0.031 C 
ATOM     36  C   UNL A   1      42.694  27.346  33.358  1.00  0.00     0.029 A 
ATOM     37  N   UNL A   1      42.531  29.539  33.267  1.00  0.00    -0.354 N 
ATOM     38  C   UNL A   1      39.288  31.078  31.159  1.00  0.00     0.074 A 
ATOM     39  C   UNL A   1      39.225  30.764  29.770  1.00  0.00     0.031 C 
ATOM     40  C   UNL A   1      43.270  27.779  34.473  1.00  0.00     0.029 A 
ATOM     41  C   UNL A   1      43.207  29.209  34.456  1.00  0.00     0.049 A 
ATOM     42  H   UNL A   1      42.148  30.430  33.093  1.00  0.00     0.167 HD
ATOM     43  C   UNL A   1      38.369  31.941  31.661  1.00  0.00     0.037 A 
ATOM     44  C   UNL A   1      43.654  29.851  35.555  1.00  0.00     0.037 A 
ATOM     45  C   UNL A   1      38.486  32.588  32.924  1.00  0.00     0.049 A 
ATOM     46  C   UNL A   1      42.897  31.057  35.948  1.00  0.00     0.074 A 
ATOM     47  C   UNL A   1      37.732  33.639  33.411  1.00  0.00     0.029 A 
ATOM     48  N   UNL A   1      39.482  32.327  33.847  1.00  0.00    -0.354 N 
ATOM     49  N   UNL A   1      41.878  31.580  35.320  1.00  0.00    -0.248 NA
ATOM     50  C   UNL A   1      43.206  31.657  37.249  1.00  0.00     0.031 C 
ATOM     51  C   UNL A   1      38.345  34.096  34.577  1.00  0.00     0.029 A 
ATOM     52  C   UNL A   1      39.411  33.260  34.864  1.00  0.00     0.049 A 
ATOM     53  H   UNL A   1      40.136  31.592  33.790  1.00  0.00     0.167 HD
ATOM     54  C   UNL A   1      41.372  32.529  36.179  1.00  0.00     0.074 A 
ATOM     55  C   UNL A   1      42.208  32.522  37.365  1.00  0.00     0.031 C 
ATOM     56  C   UNL A   1      40.281  33.301  36.005  1.00  0.00     0.037 A 
BRANCH  43  57
ATOM     57  C   UNL A   1      37.250  32.369  30.720  1.00  0.00     0.058 A 
ATOM     58  C   UNL A   1      37.393  33.467  29.851  1.00  0.00     0.135 A 
ATOM     59  C   UNL A   1      35.980  31.773  30.810  1.00  0.00     0.135 A 
ATOM     60  F   UNL A   1      38.567  34.112  29.765  1.00  0.00    -0.206 F 
ATOM     61  C   UNL A   1      36.309  33.979  29.136  1.00  0.00     0.059 A 
ATOM     62  C   UNL A   1      34.889  32.257  30.091  1.00  0.00     0.059 A 
ATOM     63  F   UNL A   1      35.773  30.752  31.655  1.00  0.00    -0.206 F 
ATOM     64  C   UNL A   1      35.057  33.374  29.274  1.00  0.00     0.060 A 
BRANCH  64  65
ATOM     65  S   UNL A   1      33.643  34.094  28.408  1.00  0.00     0.124 S 
ATOM     66  O   UNL A   1      32.845  34.602  29.521  1.00  0.00    -0.237 OA
ATOM     67  O   UNL A   1      34.273  35.105  27.567  1.00  0.00    -0.237 OA
ATOM     68  O   UNL A   1      33.066  32.958  27.695  1.00  0.00    -0.744 OA
ENDBRANCH  64  65
ENDBRANCH  43  57
BRANCH  44  69
ATOM     69  C   UNL A   1      44.712  29.245  36.439  1.00  0.00     0.058 A 
ATOM     70  C   UNL A   1      44.477  28.220  37.372  1.00  0.00     0.135 A 
ATOM     71  C   UNL A   1      46.037  29.711  36.333  1.00  0.00     0.135 A 
ATOM     72  F   UNL A   1      43.245  27.709  37.509  1.00  0.00    -0.206 F 
ATOM     73  C   UNL A   1      45.497  27.710  38.183  1.00  0.00     0.059 A 
ATOM     74  C   UNL A   1      47.073  29.213  37.125  1.00  0.00     0.059 A 
ATOM     75  F   UNL A   1      46.335  30.675  35.446  1.00  0.00    -0.206 F 
ATOM     76  C   UNL A   1      46.792  28.219  38.059  1.00  0.00     0.060 A 
BRANCH  76  77
ATOM     77  S   UNL A   1      48.103  27.562  39.124  1.00  0.00     0.124 S 
ATOM     78  O   UNL A   1      48.058  26.138  38.808  1.00  0.00    -0.237 OA
ATOM     79  O   UNL A   1      49.278  28.284  38.648  1.00  0.00    -0.237 OA
ATOM     80  O   UNL A   1      47.659  27.918  40.470  1.00  0.00    -0.744 OA
ENDBRANCH  76  77
ENDBRANCH  44  69
BRANCH  56  81
ATOM     81  C   UNL A   1      39.956  34.262  37.091  1.00  0.00     0.058 A 
ATOM     82  C   UNL A   1      39.175  33.868  38.185  1.00  0.00     0.135 A 
ATOM     83  C   UNL A   1      40.489  35.558  37.069  1.00  0.00     0.135 A 
ATOM     84  F   UNL A   1      38.646  32.635  38.234  1.00  0.00    -0.206 F 
ATOM     85  C   UNL A   1      38.912  34.744  39.223  1.00  0.00     0.059 A 
ATOM     86  C   UNL A   1      40.269  36.438  38.116  1.00  0.00     0.059 A 
ATOM     87  F   UNL A   1      41.250  35.964  36.041  1.00  0.00    -0.206 F 
ATOM     88  C   UNL A   1      39.471  36.023  39.182  1.00  0.00     0.060 A 
BRANCH  88  89
ATOM     89  S   UNL A   1      39.168  37.128  40.570  1.00  0.00     0.124 S 
ATOM     90  O   UNL A   1      38.278  38.114  39.965  1.00  0.00    -0.237 OA
ATOM     91  O   UNL A   1      38.555  36.234  41.548  1.00  0.00    -0.237 OA
ATOM     92  O   UNL A   1      40.501  37.609  40.916  1.00  0.00    -0.744 OA
ENDBRANCH  88  89
ENDBRANCH  56  81
ENDBRANCH  30  31
ENDBRANCH  23  25
ENDBRANCH  22  23
ENDBRANCH  21  22
ENDBRANCH   1  21
TORSDOF 18
ENDMDL
MODEL 3
REMARK VINA RESULT:     -11.3      1.202      1.951
REMARK SMILES C[C@H](C(=O)OCCOC(=O)c1ccc(-c2c3nc(c(-c4c(F)cc(S(=O)(=O)[O-])cc4F)c4ccc([nH]4)c(-c4c(F)cc(S(=O)(=O)[O-])cc4F)c4nc(c(-c5c(F)cc(S(=O)(=O)[O-])cc5F)c5ccc2[nH]5)C=C4)C=C3)cc1)c1ccc(C[C@@H]2CCC[C@H]2O)cc1
REMARK SMILES IDX 6 1 5 2 3 3 4 4 2 5 1 6 77 7 78 8 89 9 79 10 88 11 80 12
REMARK SMILES IDX 81 13 82 14 83 15 86 16 84 17 85 18 87 19 7 21 8 22 9 23
REMARK SMILES IDX 10 24 11 25 12 26 76 27 13 28 75 29 14 30 15 31 16 32 69 33
REMARK SMILES IDX 17 34 74 35 68 36 70 37 18 38 73 39 67 40 66 41 19 43 53 44
REMARK SMILES IDX 32 45 52 46 33 47 36 48 51 49 71 50 34 51 35 52 50 54 72 55
REMARK SMILES IDX 37 56 20 57 21 58 30 59 22 60 23 61 29 62 31 63 24 64 25 65
REMARK SMILES IDX 26 66 27 67 28 68 54 69 55 70 64 71 56 72 57 73 63 74 65 75
REMARK SMILES IDX 58 76 59 77 60 78 61 79 62 80 38 81 39 82 48 83 40 84 41 85
REMARK SMILES IDX 47 86 49 87 42 88 43 89 44 90 45 91 46 92
REMARK H PARENT 87 20 70 42 36 53
REMARK Flexibility Score: inf
ROOT
ATOM      1  C   UNL A   1      32.249  28.719  23.763  1.00  0.00     0.274 C 
ENDROOT
BRANCH   1   2
ATOM      2  O   UNL A   1      31.359  28.098  22.810  1.00  0.00    -0.462 OA
BRANCH   2   3
ATOM      3  C   UNL A   1      31.601  26.788  22.507  1.00  0.00     0.313 C 
ATOM      4  O   UNL A   1      31.634  26.340  21.367  1.00  0.00    -0.252 OA
BRANCH   3   5
ATOM      5  C   UNL A   1      31.741  25.938  23.775  1.00  0.00     0.126 C 
ATOM      6  C   UNL A   1      30.415  25.195  23.943  1.00  0.00     0.025 C 
BRANCH   5   7
ATOM      7  C   UNL A   1      32.939  24.996  23.715  1.00  0.00    -0.034 A 
ATOM      8  C   UNL A   1      33.005  23.999  22.723  1.00  0.00     0.005 A 
ATOM      9  C   UNL A   1      33.923  25.008  24.716  1.00  0.00     0.005 A 
ATOM     10  C   UNL A   1      33.921  22.950  22.834  1.00  0.00     0.004 A 
ATOM     11  C   UNL A   1      34.832  23.968  24.828  1.00  0.00     0.004 A 
ATOM     12  C   UNL A   1      34.752  22.883  23.956  1.00  0.00    -0.048 A 
BRANCH  12  13
ATOM     13  C   UNL A   1      35.457  21.626  24.338  1.00  0.00     0.041 C 
BRANCH  13  14
ATOM     14  C   UNL A   1      36.972  21.580  24.808  1.00  0.00     0.022 C 
ATOM     15  C   UNL A   1      37.713  19.706  24.933  1.00  0.00     0.007 C 
ATOM     16  C   UNL A   1      38.253  22.792  25.949  1.00  0.00     0.117 C 
ATOM     17  C   UNL A   1      39.600  19.850  25.766  1.00  0.00     0.003 C 
ATOM     18  C   UNL A   1      39.864  21.713  26.435  1.00  0.00     0.032 C 
BRANCH  16  19
ATOM     19  O   UNL A   1      38.648  24.161  25.816  1.00  0.00    -0.393 OA
ATOM     20  H   UNL A   1      39.152  24.273  24.995  1.00  0.00     0.210 HD
ENDBRANCH  16  19
ENDBRANCH  13  14
ENDBRANCH  12  13
ENDBRANCH   5   7
ENDBRANCH   3   5
ENDBRANCH   2   3
ENDBRANCH   1   2
BRANCH   1  21
ATOM     21  C   UNL A   1      31.477  29.469  24.849  1.00  0.00     0.275 C 
BRANCH  21  22
ATOM     22  O   UNL A   1      32.183  29.419  26.095  1.00  0.00    -0.458 OA
BRANCH  22  23
ATOM     23  C   UNL A   1      32.511  30.625  26.613  1.00  0.00     0.338 C 
ATOM     24  O   UNL A   1      31.825  31.629  26.676  1.00  0.00    -0.246 OA
BRANCH  23  25
ATOM     25  C   UNL A   1      33.813  30.485  27.254  1.00  0.00     0.060 A 
ATOM     26  C   UNL A   1      34.453  29.292  27.162  1.00  0.00     0.016 A 
ATOM     27  C   UNL A   1      34.459  31.491  27.912  1.00  0.00     0.016 A 
ATOM     28  C   UNL A   1      35.631  29.049  27.897  1.00  0.00     0.010 A 
ATOM     29  C   UNL A   1      35.753  31.254  28.495  1.00  0.00     0.010 A 
ATOM     30  C   UNL A   1      36.557  29.952  28.730  1.00  0.00    -0.014 A 
BRANCH  30  31
ATOM     31  C   UNL A   1      38.346  29.479  29.784  1.00  0.00     0.031 A 
ATOM     32  C   UNL A   1      39.538  28.096  29.373  1.00  0.00     0.074 A 
ATOM     33  C   UNL A   1      39.292  30.183  30.719  1.00  0.00     0.049 A 
ATOM     34  N   UNL A   1      40.785  27.891  29.789  1.00  0.00    -0.248 NA
ATOM     35  C   UNL A   1      39.203  27.006  28.336  1.00  0.00     0.031 C 
ATOM     36  C   UNL A   1      39.490  31.693  30.873  1.00  0.00     0.029 A 
ATOM     37  N   UNL A   1      40.186  29.785  31.723  1.00  0.00    -0.354 N 
ATOM     38  C   UNL A   1      41.334  26.846  29.008  1.00  0.00     0.074 A 
ATOM     39  C   UNL A   1      40.324  26.372  28.120  1.00  0.00     0.031 C 
ATOM     40  C   UNL A   1      40.006  32.012  32.054  1.00  0.00     0.029 A 
ATOM     41  C   UNL A   1      40.460  30.798  32.661  1.00  0.00     0.049 A 
ATOM     42  H   UNL A   1      40.583  28.885  31.769  1.00  0.00     0.167 HD
ATOM     43  C   UNL A   1      42.543  26.231  28.988  1.00  0.00     0.037 A 
ATOM     44  C   UNL A   1      41.113  30.912  33.837  1.00  0.00     0.037 A 
ATOM     45  C   UNL A   1      43.528  26.371  30.007  1.00  0.00     0.049 A 
ATOM     46  C   UNL A   1      42.241  29.981  34.038  1.00  0.00     0.074 A 
ATOM     47  C   UNL A   1      44.674  25.620  30.186  1.00  0.00     0.029 A 
ATOM     48  N   UNL A   1      43.428  27.242  31.076  1.00  0.00    -0.354 N 
ATOM     49  N   UNL A   1      42.637  29.042  33.221  1.00  0.00    -0.248 NA
ATOM     50  C   UNL A   1      43.112  30.213  35.195  1.00  0.00     0.031 C 
ATOM     51  C   UNL A   1      45.207  25.952  31.431  1.00  0.00     0.029 A 
ATOM     52  C   UNL A   1      44.452  26.981  31.967  1.00  0.00     0.049 A 
ATOM     53  H   UNL A   1      42.739  27.936  31.186  1.00  0.00     0.167 HD
ATOM     54  C   UNL A   1      43.845  28.613  33.722  1.00  0.00     0.074 A 
ATOM     55  C   UNL A   1      44.108  29.380  34.924  1.00  0.00     0.031 C 
ATOM     56  C   UNL A   1      44.676  27.691  33.194  1.00  0.00     0.037 A 
BRANCH  43  57
ATOM     57  C   UNL A   1      42.761  25.192  27.896  1.00  0.00     0.058 A 
ATOM     58  C   UNL A   1      42.584  23.816  28.138  1.00  0.00     0.135 A 
ATOM     59  C   UNL A   1      43.303  25.569  26.654  1.00  0.00     0.135 A 
ATOM     60  F   UNL A   1      42.123  23.392  29.325  1.00  0.00    -0.206 F 
ATOM     61  C   UNL A   1      42.971  22.855  27.203  1.00  0.00     0.059 A 
ATOM     62  C   UNL A   1      43.679  24.625  25.701  1.00  0.00     0.059 A 
ATOM     63  F   UNL A   1      43.535  26.862  26.386  1.00  0.00    -0.206 F 
ATOM     64  C   UNL A   1      43.531  23.270  25.992  1.00  0.00     0.060 A 
BRANCH  64  65
ATOM     65  S   UNL A   1      44.104  22.016  24.823  1.00  0.00     0.124 S 
ATOM     66  O   UNL A   1      45.526  21.940  25.148  1.00  0.00    -0.237 OA
ATOM     67  O   UNL A   1      43.305  20.854  25.194  1.00  0.00    -0.237 OA
ATOM     68  O   UNL A   1      43.793  22.598  23.520  1.00  0.00    -0.744 OA
ENDBRANCH  64  65
ENDBRANCH  43  57
BRANCH  44  69
ATOM     69  C   UNL A   1      40.842  32.060  34.773  1.00  0.00     0.058 A 
ATOM     70  C   UNL A   1      39.883  32.039  35.800  1.00  0.00     0.135 A 
ATOM     71  C   UNL A   1      41.596  33.242  34.637  1.00  0.00     0.135 A 
ATOM     72  F   UNL A   1      39.146  30.937  36.005  1.00  0.00    -0.206 F 
ATOM     73  C   UNL A   1      39.659  33.146  36.627  1.00  0.00     0.059 A 
ATOM     74  C   UNL A   1      41.397  34.357  35.454  1.00  0.00     0.059 A 
ATOM     75  F   UNL A   1      42.544  33.323  33.688  1.00  0.00    -0.206 F 
ATOM     76  C   UNL A   1      40.415  34.306  36.441  1.00  0.00     0.060 A 
BRANCH  76  77
ATOM     77  S   UNL A   1      40.108  35.739  37.506  1.00  0.00     0.124 S 
ATOM     78  O   UNL A   1      39.734  36.759  36.532  1.00  0.00    -0.237 OA
ATOM     79  O   UNL A   1      39.034  35.258  38.368  1.00  0.00    -0.237 OA
ATOM     80  O   UNL A   1      41.392  35.950  38.171  1.00  0.00    -0.744 OA
ENDBRANCH  76  77
ENDBRANCH  44  69
BRANCH  56  81
ATOM     81  C   UNL A   1      45.924  27.401  33.946  1.00  0.00     0.058 A 
ATOM     82  C   UNL A   1      47.094  28.129  33.699  1.00  0.00     0.135 A 
ATOM     83  C   UNL A   1      45.925  26.440  34.967  1.00  0.00     0.135 A 
ATOM     84  F   UNL A   1      47.127  29.053  32.726  1.00  0.00    -0.206 F 
ATOM     85  C   UNL A   1      48.245  27.898  34.432  1.00  0.00     0.059 A 
ATOM     86  C   UNL A   1      47.055  26.219  35.737  1.00  0.00     0.059 A 
ATOM     87  F   UNL A   1      44.818  25.732  35.237  1.00  0.00    -0.206 F 
ATOM     88  C   UNL A   1      48.211  26.946  35.453  1.00  0.00     0.060 A 
BRANCH  88  89
ATOM     89  S   UNL A   1      49.699  26.700  36.435  1.00  0.00     0.124 S 
ATOM     90  O   UNL A   1      50.696  27.397  35.629  1.00  0.00    -0.237 OA
ATOM     91  O   UNL A   1      49.344  27.340  37.699  1.00  0.00    -0.237 OA
ATOM     92  O   UNL A   1      49.833  25.248  36.489  1.00  0.00    -0.744 OA
ENDBRANCH  88  89
ENDBRANCH  56  81
ENDBRANCH  30  31
ENDBRANCH  23  25
ENDBRANCH  22  23
ENDBRANCH  21  22
ENDBRANCH   1  21
TORSDOF 18
ENDMDL
