MODEL 1
REMARK VINA RESULT:     -10.6      0.000      0.000
REMARK SMILES CN(CC(N)=O)C(=O)Cn1cccc1C(=O)OCCOC(=O)c1ccc(-c2c3nc(c(-c4c(F)cc(S(=O)(=O)[O-])cc4F)c4ccc([nH]4)c(-c4c(F)cc(S(=O)(=O)[O-])cc4F)c4nc(c(-c5c(F)cc(S(=O)(=O)[O-])cc5F)c5ccc2[nH]5)C=C4)C=C3)cc1
REMARK SMILES IDX 18 1 17 2 15 3 16 4 14 5 10 6 11 7 12 8 13 9 9 10 7 11 8 12
REMARK SMILES IDX 2 13 1 14 3 15 4 16 5 17 6 18 19 21 20 22 21 23 22 24 23 25
REMARK SMILES IDX 24 26 88 27 25 28 87 29 26 30 27 31 28 32 81 33 29 34 86 35
REMARK SMILES IDX 80 36 82 37 30 38 85 39 79 40 78 41 31 43 65 44 44 45 64 46
REMARK SMILES IDX 45 47 48 48 63 49 83 50 46 51 47 52 62 54 84 55 49 56 32 57
REMARK SMILES IDX 33 58 42 59 34 60 35 61 41 62 43 63 36 64 37 65 38 66 39 67
REMARK SMILES IDX 40 68 66 69 67 70 76 71 68 72 69 73 75 74 77 75 70 76 71 77
REMARK SMILES IDX 72 78 73 79 74 80 50 81 51 82 60 83 52 84 53 85 59 86 61 87
REMARK SMILES IDX 54 88 55 89 56 90 57 91 58 92
REMARK H PARENT 5 19 5 20 82 42 48 53
REMARK Flexibility Score: inf
ROOT
ATOM      1  C   UNL A   1      33.688  29.069  25.793  1.00  0.00     0.275 C 
ENDROOT
BRANCH   1   2
ATOM      2  O   UNL A   1      33.685  27.627  25.802  1.00  0.00    -0.457 OA
BRANCH   2   3
ATOM      3  C   UNL A   1      33.741  27.007  24.599  1.00  0.00     0.355 C 
ATOM      4  O   UNL A   1      33.874  27.601  23.531  1.00  0.00    -0.244 OA
BRANCH   3   5
ATOM      5  C   UNL A   1      33.788  25.555  24.732  1.00  0.00     0.128 A 
ATOM      6  N   UNL A   1      32.902  24.554  24.364  1.00  0.00    -0.333 N 
ATOM      7  C   UNL A   1      33.442  23.323  24.726  1.00  0.00     0.087 A 
ATOM      8  C   UNL A   1      34.596  23.530  25.434  1.00  0.00     0.020 A 
ATOM      9  C   UNL A   1      34.813  24.916  25.436  1.00  0.00     0.035 A 
BRANCH   6  10
ATOM     10  C   UNL A   1      31.652  24.568  23.595  1.00  0.00     0.222 C 
BRANCH  10  11
ATOM     11  C   UNL A   1      31.229  25.766  22.778  1.00  0.00     0.242 C 
ATOM     12  O   UNL A   1      31.676  25.886  21.629  1.00  0.00    -0.273 OA
BRANCH  11  13
ATOM     13  N   UNL A   1      30.251  26.629  23.251  1.00  0.00    -0.335 N 
ATOM     14  C   UNL A   1      29.486  26.207  24.413  1.00  0.00     0.147 C 
BRANCH  13  15
ATOM     15  C   UNL A   1      29.906  27.917  22.650  1.00  0.00     0.218 C 
BRANCH  15  16
ATOM     16  C   UNL A   1      30.760  29.073  23.157  1.00  0.00     0.237 C 
ATOM     17  N   UNL A   1      31.686  29.532  22.259  1.00  0.00    -0.368 N 
ATOM     18  O   UNL A   1      30.662  29.565  24.275  1.00  0.00    -0.273 OA
ATOM     19  H   UNL A   1      31.750  29.123  21.365  1.00  0.00     0.159 HD
ATOM     20  H   UNL A   1      32.288  30.270  22.506  1.00  0.00     0.159 HD
ENDBRANCH  15  16
ENDBRANCH  13  15
ENDBRANCH  11  13
ENDBRANCH  10  11
ENDBRANCH   6  10
ENDBRANCH   3   5
ENDBRANCH   2   3
ENDBRANCH   1   2
BRANCH   1  21
ATOM     21  C   UNL A   1      33.861  29.661  27.199  1.00  0.00     0.275 C 
BRANCH  21  22
ATOM     22  O   UNL A   1      34.993  29.193  27.951  1.00  0.00    -0.458 OA
BRANCH  22  23
ATOM     23  C   UNL A   1      35.959  30.122  28.079  1.00  0.00     0.338 C 
ATOM     24  O   UNL A   1      35.964  31.245  27.610  1.00  0.00    -0.246 OA
BRANCH  23  25
ATOM     25  C   UNL A   1      37.227  29.615  28.578  1.00  0.00     0.060 A 
ATOM     26  C   UNL A   1      38.294  29.615  27.669  1.00  0.00     0.016 A 
ATOM     27  C   UNL A   1      37.250  28.857  29.752  1.00  0.00     0.016 A 
ATOM     28  C   UNL A   1      39.393  28.825  27.924  1.00  0.00     0.010 A 
ATOM     29  C   UNL A   1      38.346  28.048  30.002  1.00  0.00     0.010 A 
ATOM     30  C   UNL A   1      39.416  28.051  29.094  1.00  0.00    -0.014 A 
BRANCH  30  31
ATOM     31  C   UNL A   1      40.735  27.556  29.519  1.00  0.00     0.031 A 
ATOM     32  C   UNL A   1      41.035  26.253  28.687  1.00  0.00     0.074 A 
ATOM     33  C   UNL A   1      41.350  28.244  30.540  1.00  0.00     0.049 A 
ATOM     34  N   UNL A   1      41.681  25.177  29.010  1.00  0.00    -0.248 NA
ATOM     35  C   UNL A   1      40.406  26.070  27.334  1.00  0.00     0.031 C 
ATOM     36  C   UNL A   1      40.860  29.507  31.160  1.00  0.00     0.029 A 
ATOM     37  N   UNL A   1      42.503  28.050  31.272  1.00  0.00    -0.354 N 
ATOM     38  C   UNL A   1      41.751  24.344  27.861  1.00  0.00     0.074 A 
ATOM     39  C   UNL A   1      40.814  24.867  26.926  1.00  0.00     0.031 C 
ATOM     40  C   UNL A   1      41.640  29.885  32.205  1.00  0.00     0.029 A 
ATOM     41  C   UNL A   1      42.724  28.937  32.376  1.00  0.00     0.049 A 
ATOM     42  H   UNL A   1      43.143  27.336  31.048  1.00  0.00     0.167 HD
ATOM     43  C   UNL A   1      42.705  23.376  27.698  1.00  0.00     0.037 A 
ATOM     44  C   UNL A   1      43.684  28.855  33.365  1.00  0.00     0.037 A 
ATOM     45  C   UNL A   1      43.528  23.352  28.858  1.00  0.00     0.049 A 
ATOM     46  C   UNL A   1      44.516  27.729  32.922  1.00  0.00     0.074 A 
ATOM     47  C   UNL A   1      43.275  22.916  30.130  1.00  0.00     0.029 A 
ATOM     48  N   UNL A   1      44.584  24.233  28.865  1.00  0.00    -0.354 N 
ATOM     49  N   UNL A   1      45.333  27.763  31.913  1.00  0.00    -0.248 NA
ATOM     50  C   UNL A   1      44.303  26.425  33.561  1.00  0.00     0.031 C 
ATOM     51  C   UNL A   1      43.799  23.965  30.907  1.00  0.00     0.029 A 
ATOM     52  C   UNL A   1      44.637  24.770  30.125  1.00  0.00     0.049 A 
ATOM     53  H   UNL A   1      45.184  24.438  28.113  1.00  0.00     0.167 HD
ATOM     54  C   UNL A   1      45.455  26.435  31.599  1.00  0.00     0.074 A 
ATOM     55  C   UNL A   1      45.091  25.688  32.787  1.00  0.00     0.031 C 
ATOM     56  C   UNL A   1      45.317  26.028  30.311  1.00  0.00     0.037 A 
BRANCH  43  57
ATOM     57  C   UNL A   1      43.201  22.581  26.517  1.00  0.00     0.058 A 
ATOM     58  C   UNL A   1      42.638  21.292  26.320  1.00  0.00     0.135 A 
ATOM     59  C   UNL A   1      44.401  22.837  25.842  1.00  0.00     0.135 A 
ATOM     60  F   UNL A   1      41.446  20.971  26.852  1.00  0.00    -0.206 F 
ATOM     61  C   UNL A   1      43.306  20.275  25.651  1.00  0.00     0.059 A 
ATOM     62  C   UNL A   1      45.067  21.840  25.118  1.00  0.00     0.059 A 
ATOM     63  F   UNL A   1      45.000  24.033  25.927  1.00  0.00    -0.206 F 
ATOM     64  C   UNL A   1      44.540  20.548  25.081  1.00  0.00     0.060 A 
BRANCH  64  65
ATOM     65  S   UNL A   1      45.440  19.181  24.321  1.00  0.00     0.124 S 
ATOM     66  O   UNL A   1      44.722  19.014  23.061  1.00  0.00    -0.237 OA
ATOM     67  O   UNL A   1      46.789  19.727  24.210  1.00  0.00    -0.237 OA
ATOM     68  O   UNL A   1      45.288  18.099  25.287  1.00  0.00    -0.744 OA
ENDBRANCH  64  65
ENDBRANCH  43  57
BRANCH  44  69
ATOM     69  C   UNL A   1      44.052  29.421  34.742  1.00  0.00     0.058 A 
ATOM     70  C   UNL A   1      43.228  29.509  35.871  1.00  0.00     0.135 A 
ATOM     71  C   UNL A   1      45.406  29.811  35.004  1.00  0.00     0.135 A 
ATOM     72  F   UNL A   1      41.904  29.337  35.761  1.00  0.00    -0.206 F 
ATOM     73  C   UNL A   1      43.742  29.775  37.168  1.00  0.00     0.059 A 
ATOM     74  C   UNL A   1      45.949  30.010  36.273  1.00  0.00     0.059 A 
ATOM     75  F   UNL A   1      46.295  29.991  34.017  1.00  0.00    -0.206 F 
ATOM     76  C   UNL A   1      45.115  29.952  37.365  1.00  0.00     0.060 A 
BRANCH  76  77
ATOM     77  S   UNL A   1      45.842  29.968  39.026  1.00  0.00     0.124 S 
ATOM     78  O   UNL A   1      45.177  28.843  39.669  1.00  0.00    -0.237 OA
ATOM     79  O   UNL A   1      47.263  29.794  38.742  1.00  0.00    -0.237 OA
ATOM     80  O   UNL A   1      45.481  31.288  39.541  1.00  0.00    -0.744 OA
ENDBRANCH  76  77
ENDBRANCH  44  69
BRANCH  56  81
ATOM     81  C   UNL A   1      45.621  27.073  29.248  1.00  0.00     0.058 A 
ATOM     82  C   UNL A   1      46.924  27.586  29.147  1.00  0.00     0.135 A 
ATOM     83  C   UNL A   1      44.678  27.638  28.369  1.00  0.00     0.135 A 
ATOM     84  F   UNL A   1      47.892  27.104  29.942  1.00  0.00    -0.206 F 
ATOM     85  C   UNL A   1      47.273  28.581  28.228  1.00  0.00     0.059 A 
ATOM     86  C   UNL A   1      44.997  28.636  27.438  1.00  0.00     0.059 A 
ATOM     87  F   UNL A   1      43.408  27.233  28.384  1.00  0.00    -0.206 F 
ATOM     88  C   UNL A   1      46.305  29.098  27.369  1.00  0.00     0.060 A 
BRANCH  88  89
ATOM     89  S   UNL A   1      46.797  30.335  26.145  1.00  0.00     0.124 S 
ATOM     90  O   UNL A   1      46.631  29.615  24.886  1.00  0.00    -0.237 OA
ATOM     91  O   UNL A   1      45.836  31.405  26.390  1.00  0.00    -0.237 OA
ATOM     92  O   UNL A   1      48.179  30.647  26.501  1.00  0.00    -0.744 OA
ENDBRANCH  88  89
ENDBRANCH  56  81
ENDBRANCH  30  31
ENDBRANCH  23  25
ENDBRANCH  22  23
ENDBRANCH  21  22
ENDBRANCH   1  21
TORSDOF 19
ENDMDL
MODEL 2
REMARK VINA RESULT:     -10.5      7.057     11.869
REMARK SMILES CN(CC(N)=O)C(=O)Cn1cccc1C(=O)OCCOC(=O)c1ccc(-c2c3nc(c(-c4c(F)cc(S(=O)(=O)[O-])cc4F)c4ccc([nH]4)c(-c4c(F)cc(S(=O)(=O)[O-])cc4F)c4nc(c(-c5c(F)cc(S(=O)(=O)[O-])cc5F)c5ccc2[nH]5)C=C4)C=C3)cc1
REMARK SMILES IDX 18 1 17 2 15 3 16 4 14 5 10 6 11 7 12 8 13 9 9 10 7 11 8 12
REMARK SMILES IDX 2 13 1 14 3 15 4 16 5 17 6 18 19 21 20 22 21 23 22 24 23 25
REMARK SMILES IDX 24 26 88 27 25 28 87 29 26 30 27 31 28 32 81 33 29 34 86 35
REMARK SMILES IDX 80 36 82 37 30 38 85 39 79 40 78 41 31 43 65 44 44 45 64 46
REMARK SMILES IDX 45 47 48 48 63 49 83 50 46 51 47 52 62 54 84 55 49 56 32 57
REMARK SMILES IDX 33 58 42 59 34 60 35 61 41 62 43 63 36 64 37 65 38 66 39 67
REMARK SMILES IDX 40 68 66 69 67 70 76 71 68 72 69 73 75 74 77 75 70 76 71 77
REMARK SMILES IDX 72 78 73 79 74 80 50 81 51 82 60 83 52 84 53 85 59 86 61 87
REMARK SMILES IDX 54 88 55 89 56 90 57 91 58 92
REMARK H PARENT 5 19 5 20 82 42 48 53
REMARK Flexibility Score: inf
ROOT
ATOM      1  C   UNL A   1      45.747  40.215  32.113  1.00  0.00     0.275 C 
ENDROOT
BRANCH   1   2
ATOM      2  O   UNL A   1      44.970  40.125  33.324  1.00  0.00    -0.457 OA
BRANCH   2   3
ATOM      3  C   UNL A   1      43.622  40.129  33.190  1.00  0.00     0.355 C 
ATOM      4  O   UNL A   1      42.927  39.117  33.262  1.00  0.00    -0.244 OA
BRANCH   3   5
ATOM      5  C   UNL A   1      43.082  41.482  33.115  1.00  0.00     0.128 A 
ATOM      6  N   UNL A   1      42.848  42.336  32.048  1.00  0.00    -0.333 N 
ATOM      7  C   UNL A   1      42.314  43.526  32.537  1.00  0.00     0.087 A 
ATOM      8  C   UNL A   1      42.323  43.493  33.906  1.00  0.00     0.020 A 
ATOM      9  C   UNL A   1      42.797  42.222  34.266  1.00  0.00     0.035 A 
BRANCH   6  10
ATOM     10  C   UNL A   1      42.937  42.157  30.595  1.00  0.00     0.222 C 
BRANCH  10  11
ATOM     11  C   UNL A   1      42.054  41.182  29.854  1.00  0.00     0.242 C 
ATOM     12  O   UNL A   1      40.875  41.059  30.214  1.00  0.00    -0.273 OA
BRANCH  11  13
ATOM     13  N   UNL A   1      42.514  40.549  28.707  1.00  0.00    -0.335 N 
ATOM     14  C   UNL A   1      43.946  40.563  28.459  1.00  0.00     0.147 C 
BRANCH  13  15
ATOM     15  C   UNL A   1      41.665  39.898  27.709  1.00  0.00     0.218 C 
BRANCH  15  16
ATOM     16  C   UNL A   1      41.380  40.770  26.492  1.00  0.00     0.237 C 
ATOM     17  N   UNL A   1      40.187  41.440  26.540  1.00  0.00    -0.368 N 
ATOM     18  O   UNL A   1      42.129  40.875  25.528  1.00  0.00    -0.273 OA
ATOM     19  H   UNL A   1      39.599  41.343  27.323  1.00  0.00     0.159 HD
ATOM     20  H   UNL A   1      39.917  42.018  25.791  1.00  0.00     0.159 HD
ENDBRANCH  15  16
ENDBRANCH  13  15
ENDBRANCH  11  13
ENDBRANCH  10  11
ENDBRANCH   6  10
ENDBRANCH   3   5
ENDBRANCH   2   3
ENDBRANCH   1   2
BRANCH   1  21
ATOM     21  C   UNL A   1      46.150  38.836  31.574  1.00  0.00     0.275 C 
BRANCH  21  22
ATOM     22  O   UNL A   1      45.246  38.231  30.635  1.00  0.00    -0.458 OA
BRANCH  22  23
ATOM     23  C   UNL A   1      45.672  37.033  30.192  1.00  0.00     0.338 C 
ATOM     24  O   UNL A   1      46.726  36.790  29.632  1.00  0.00    -0.246 OA
BRANCH  23  25
ATOM     25  C   UNL A   1      44.643  36.008  30.124  1.00  0.00     0.060 A 
ATOM     26  C   UNL A   1      44.658  35.049  31.146  1.00  0.00     0.016 A 
ATOM     27  C   UNL A   1      43.948  35.811  28.928  1.00  0.00     0.016 A 
ATOM     28  C   UNL A   1      43.986  33.861  30.961  1.00  0.00     0.010 A 
ATOM     29  C   UNL A   1      43.286  34.610  28.732  1.00  0.00     0.010 A 
ATOM     30  C   UNL A   1      43.297  33.651  29.757  1.00  0.00    -0.014 A 
BRANCH  30  31
ATOM     31  C   UNL A   1      42.288  32.580  29.764  1.00  0.00     0.031 A 
ATOM     32  C   UNL A   1      42.899  31.358  28.982  1.00  0.00     0.074 A 
ATOM     33  C   UNL A   1      41.078  32.880  30.346  1.00  0.00     0.049 A 
ATOM     34  N   UNL A   1      42.329  30.469  28.231  1.00  0.00    -0.248 NA
ATOM     35  C   UNL A   1      44.390  31.179  28.922  1.00  0.00     0.031 C 
ATOM     36  C   UNL A   1      40.745  34.138  31.071  1.00  0.00     0.029 A 
ATOM     37  N   UNL A   1      39.875  32.213  30.463  1.00  0.00    -0.354 N 
ATOM     38  C   UNL A   1      43.315  29.521  27.844  1.00  0.00     0.074 A 
ATOM     39  C   UNL A   1      44.577  30.102  28.157  1.00  0.00     0.031 C 
ATOM     40  C   UNL A   1      39.441  34.170  31.446  1.00  0.00     0.029 A 
ATOM     41  C   UNL A   1      38.782  32.946  31.030  1.00  0.00     0.049 A 
ATOM     42  H   UNL A   1      39.773  31.279  30.170  1.00  0.00     0.167 HD
ATOM     43  C   UNL A   1      43.012  28.248  27.446  1.00  0.00     0.037 A 
ATOM     44  C   UNL A   1      37.450  32.589  31.095  1.00  0.00     0.037 A 
ATOM     45  C   UNL A   1      41.598  28.095  27.458  1.00  0.00     0.049 A 
ATOM     46  C   UNL A   1      37.454  31.212  30.584  1.00  0.00     0.074 A 
ATOM     47  C   UNL A   1      40.632  28.604  26.633  1.00  0.00     0.029 A 
ATOM     48  N   UNL A   1      41.042  27.731  28.662  1.00  0.00    -0.354 N 
ATOM     49  N   UNL A   1      37.923  30.185  31.225  1.00  0.00    -0.248 NA
ATOM     50  C   UNL A   1      37.043  30.996  29.191  1.00  0.00     0.031 C 
ATOM     51  C   UNL A   1      39.667  29.050  27.555  1.00  0.00     0.029 A 
ATOM     52  C   UNL A   1      39.907  28.483  28.814  1.00  0.00     0.049 A 
ATOM     53  H   UNL A   1      41.391  27.060  29.292  1.00  0.00     0.167 HD
ATOM     54  C   UNL A   1      38.174  29.303  30.206  1.00  0.00     0.074 A 
ATOM     55  C   UNL A   1      37.345  29.707  29.088  1.00  0.00     0.031 C 
ATOM     56  C   UNL A   1      39.371  28.667  30.140  1.00  0.00     0.037 A 
BRANCH  43  57
ATOM     57  C   UNL A   1      43.813  26.982  27.279  1.00  0.00     0.058 A 
ATOM     58  C   UNL A   1      44.365  26.727  25.995  1.00  0.00     0.135 A 
ATOM     59  C   UNL A   1      43.745  25.884  28.146  1.00  0.00     0.135 A 
ATOM     60  F   UNL A   1      44.555  27.727  25.116  1.00  0.00    -0.206 F 
ATOM     61  C   UNL A   1      44.657  25.448  25.543  1.00  0.00     0.059 A 
ATOM     62  C   UNL A   1      44.083  24.592  27.728  1.00  0.00     0.059 A 
ATOM     63  F   UNL A   1      43.276  26.019  29.395  1.00  0.00    -0.206 F 
ATOM     64  C   UNL A   1      44.480  24.377  26.407  1.00  0.00     0.060 A 
BRANCH  64  65
ATOM     65  S   UNL A   1      44.753  22.716  25.759  1.00  0.00     0.124 S 
ATOM     66  O   UNL A   1      44.480  22.901  24.338  1.00  0.00    -0.237 OA
ATOM     67  O   UNL A   1      46.151  22.479  26.107  1.00  0.00    -0.237 OA
ATOM     68  O   UNL A   1      43.788  21.904  26.492  1.00  0.00    -0.744 OA
ENDBRANCH  64  65
ENDBRANCH  43  57
BRANCH  44  69
ATOM     69  C   UNL A   1      36.057  33.166  31.371  1.00  0.00     0.058 A 
ATOM     70  C   UNL A   1      35.335  33.106  32.569  1.00  0.00     0.135 A 
ATOM     71  C   UNL A   1      35.415  33.968  30.370  1.00  0.00     0.135 A 
ATOM     72  F   UNL A   1      35.712  32.271  33.548  1.00  0.00    -0.206 F 
ATOM     73  C   UNL A   1      34.192  33.913  32.810  1.00  0.00     0.059 A 
ATOM     74  C   UNL A   1      34.336  34.819  30.600  1.00  0.00     0.059 A 
ATOM     75  F   UNL A   1      35.838  33.985  29.098  1.00  0.00    -0.206 F 
ATOM     76  C   UNL A   1      33.746  34.819  31.843  1.00  0.00     0.060 A 
BRANCH  76  77
ATOM     77  S   UNL A   1      32.507  36.086  32.227  1.00  0.00     0.124 S 
ATOM     78  O   UNL A   1      31.344  35.285  32.590  1.00  0.00    -0.237 OA
ATOM     79  O   UNL A   1      33.143  36.820  33.316  1.00  0.00    -0.237 OA
ATOM     80  O   UNL A   1      32.387  36.833  30.975  1.00  0.00    -0.744 OA
ENDBRANCH  76  77
ENDBRANCH  44  69
BRANCH  56  81
ATOM     81  C   UNL A   1      40.113  28.508  31.459  1.00  0.00     0.058 A 
ATOM     82  C   UNL A   1      39.518  27.768  32.493  1.00  0.00     0.135 A 
ATOM     83  C   UNL A   1      41.350  29.102  31.774  1.00  0.00     0.135 A 
ATOM     84  F   UNL A   1      38.339  27.161  32.283  1.00  0.00    -0.206 F 
ATOM     85  C   UNL A   1      40.113  27.614  33.749  1.00  0.00     0.059 A 
ATOM     86  C   UNL A   1      41.971  28.966  33.023  1.00  0.00     0.059 A 
ATOM     87  F   UNL A   1      42.001  29.835  30.870  1.00  0.00    -0.206 F 
ATOM     88  C   UNL A   1      41.346  28.211  34.007  1.00  0.00     0.060 A 
BRANCH  88  89
ATOM     89  S   UNL A   1      42.126  27.941  35.616  1.00  0.00     0.124 S 
ATOM     90  O   UNL A   1      40.979  27.687  36.482  1.00  0.00    -0.237 OA
ATOM     91  O   UNL A   1      42.982  26.790  35.350  1.00  0.00    -0.237 OA
ATOM     92  O   UNL A   1      42.831  29.194  35.875  1.00  0.00    -0.744 OA
ENDBRANCH  88  89
ENDBRANCH  56  81
ENDBRANCH  30  31
ENDBRANCH  23  25
ENDBRANCH  22  23
ENDBRANCH  21  22
ENDBRANCH   1  21
TORSDOF 19
ENDMDL
MODEL 3
REMARK VINA RESULT:     -10.5      3.545      5.916
REMARK SMILES CN(CC(N)=O)C(=O)Cn1cccc1C(=O)OCCOC(=O)c1ccc(-c2c3nc(c(-c4c(F)cc(S(=O)(=O)[O-])cc4F)c4ccc([nH]4)c(-c4c(F)cc(S(=O)(=O)[O-])cc4F)c4nc(c(-c5c(F)cc(S(=O)(=O)[O-])cc5F)c5ccc2[nH]5)C=C4)C=C3)cc1
REMARK SMILES IDX 18 1 17 2 15 3 16 4 14 5 10 6 11 7 12 8 13 9 9 10 7 11 8 12
REMARK SMILES IDX 2 13 1 14 3 15 4 16 5 17 6 18 19 21 20 22 21 23 22 24 23 25
REMARK SMILES IDX 24 26 88 27 25 28 87 29 26 30 27 31 28 32 81 33 29 34 86 35
REMARK SMILES IDX 80 36 82 37 30 38 85 39 79 40 78 41 31 43 65 44 44 45 64 46
REMARK SMILES IDX 45 47 48 48 63 49 83 50 46 51 47 52 62 54 84 55 49 56 32 57
REMARK SMILES IDX 33 58 42 59 34 60 35 61 41 62 43 63 36 64 37 65 38 66 39 67
REMARK SMILES IDX 40 68 66 69 67 70 76 71 68 72 69 73 75 74 77 75 70 76 71 77
REMARK SMILES IDX 72 78 73 79 74 80 50 81 51 82 60 83 52 84 53 85 59 86 61 87
REMARK SMILES IDX 54 88 55 89 56 90 57 91 58 92
REMARK H PARENT 5 19 5 20 82 42 48 53
REMARK Flexibility Score: inf
ROOT
ATOM      1  C   UNL A   1      35.870  33.822  29.073  1.00  0.00     0.275 C 
ENDROOT
BRANCH   1   2
ATOM      2  O   UNL A   1      34.930  34.857  28.722  1.00  0.00    -0.457 OA
BRANCH   2   3
ATOM      3  C   UNL A   1      33.716  34.813  29.323  1.00  0.00     0.355 C 
ATOM      4  O   UNL A   1      32.793  34.094  28.943  1.00  0.00    -0.244 OA
BRANCH   3   5
ATOM      5  C   UNL A   1      33.687  35.587  30.558  1.00  0.00     0.128 A 
ATOM      6  N   UNL A   1      33.951  35.252  31.878  1.00  0.00    -0.333 N 
ATOM      7  C   UNL A   1      33.772  36.382  32.670  1.00  0.00     0.087 A 
ATOM      8  C   UNL A   1      33.274  37.398  31.899  1.00  0.00     0.020 A 
ATOM      9  C   UNL A   1      33.224  36.906  30.586  1.00  0.00     0.035 A 
BRANCH   6  10
ATOM     10  C   UNL A   1      34.476  34.035  32.506  1.00  0.00     0.222 C 
BRANCH  10  11
ATOM     11  C   UNL A   1      35.959  33.780  32.640  1.00  0.00     0.242 C 
ATOM     12  O   UNL A   1      36.738  34.736  32.515  1.00  0.00    -0.273 OA
BRANCH  11  13
ATOM     13  N   UNL A   1      36.425  32.535  33.037  1.00  0.00    -0.335 N 
ATOM     14  C   UNL A   1      36.173  31.409  32.154  1.00  0.00     0.147 C 
BRANCH  13  15
ATOM     15  C   UNL A   1      37.122  32.261  34.294  1.00  0.00     0.218 C 
BRANCH  15  16
ATOM     16  C   UNL A   1      38.619  32.028  34.121  1.00  0.00     0.237 C 
ATOM     17  N   UNL A   1      39.022  30.739  34.346  1.00  0.00    -0.368 N 
ATOM     18  O   UNL A   1      39.423  32.902  33.819  1.00  0.00    -0.273 OA
ATOM     19  H   UNL A   1      38.362  30.050  34.587  1.00  0.00     0.159 HD
ATOM     20  H   UNL A   1      39.974  30.501  34.266  1.00  0.00     0.159 HD
ENDBRANCH  15  16
ENDBRANCH  13  15
ENDBRANCH  11  13
ENDBRANCH  10  11
ENDBRANCH   6  10
ENDBRANCH   3   5
ENDBRANCH   2   3
ENDBRANCH   1   2
BRANCH   1  21
ATOM     21  C   UNL A   1      35.788  32.614  28.130  1.00  0.00     0.275 C 
BRANCH  21  22
ATOM     22  O   UNL A   1      35.606  31.332  28.753  1.00  0.00    -0.458 OA
BRANCH  22  23
ATOM     23  C   UNL A   1      36.099  30.316  28.020  1.00  0.00     0.338 C 
ATOM     24  O   UNL A   1      35.517  29.685  27.157  1.00  0.00    -0.246 OA
BRANCH  23  25
ATOM     25  C   UNL A   1      37.339  29.749  28.523  1.00  0.00     0.060 A 
ATOM     26  C   UNL A   1      38.411  29.709  27.620  1.00  0.00     0.016 A 
ATOM     27  C   UNL A   1      37.320  28.981  29.690  1.00  0.00     0.016 A 
ATOM     28  C   UNL A   1      39.472  28.867  27.875  1.00  0.00     0.010 A 
ATOM     29  C   UNL A   1      38.377  28.122  29.940  1.00  0.00     0.010 A 
ATOM     30  C   UNL A   1      39.452  28.084  29.039  1.00  0.00    -0.014 A 
BRANCH  30  31
ATOM     31  C   UNL A   1      40.745  27.527  29.468  1.00  0.00     0.031 A 
ATOM     32  C   UNL A   1      40.997  26.225  28.619  1.00  0.00     0.074 A 
ATOM     33  C   UNL A   1      41.378  28.173  30.504  1.00  0.00     0.049 A 
ATOM     34  N   UNL A   1      41.594  25.118  28.931  1.00  0.00    -0.248 NA
ATOM     35  C   UNL A   1      40.374  26.089  27.258  1.00  0.00     0.031 C 
ATOM     36  C   UNL A   1      40.937  29.446  31.140  1.00  0.00     0.029 A 
ATOM     37  N   UNL A   1      42.515  27.918  31.244  1.00  0.00    -0.354 N 
ATOM     38  C   UNL A   1      41.639  24.299  27.770  1.00  0.00     0.074 A 
ATOM     39  C   UNL A   1      40.734  24.876  26.834  1.00  0.00     0.031 C 
ATOM     40  C   UNL A   1      41.722  29.775  32.198  1.00  0.00     0.029 A 
ATOM     41  C   UNL A   1      42.764  28.779  32.364  1.00  0.00     0.049 A 
ATOM     42  H   UNL A   1      43.127  27.182  31.015  1.00  0.00     0.167 HD
ATOM     43  C   UNL A   1      42.552  23.294  27.600  1.00  0.00     0.037 A 
ATOM     44  C   UNL A   1      43.709  28.641  33.360  1.00  0.00     0.037 A 
ATOM     45  C   UNL A   1      43.362  23.217  28.767  1.00  0.00     0.049 A 
ATOM     46  C   UNL A   1      44.497  27.487  32.907  1.00  0.00     0.074 A 
ATOM     47  C   UNL A   1      43.079  22.774  30.030  1.00  0.00     0.029 A 
ATOM     48  N   UNL A   1      44.455  24.052  28.798  1.00  0.00    -0.354 N 
ATOM     49  N   UNL A   1      45.325  27.502  31.906  1.00  0.00    -0.248 NA
ATOM     50  C   UNL A   1      44.223  26.184  33.524  1.00  0.00     0.031 C 
ATOM     51  C   UNL A   1      43.640  23.787  30.828  1.00  0.00     0.029 A 
ATOM     52  C   UNL A   1      44.519  24.568  30.066  1.00  0.00     0.049 A 
ATOM     53  H   UNL A   1      45.070  24.242  28.054  1.00  0.00     0.167 HD
ATOM     54  C   UNL A   1      45.393  26.174  31.573  1.00  0.00     0.074 A 
ATOM     55  C   UNL A   1      44.986  25.426  32.745  1.00  0.00     0.031 C 
ATOM     56  C   UNL A   1      45.250  25.793  30.278  1.00  0.00     0.037 A 
BRANCH  43  57
ATOM     57  C   UNL A   1      43.025  22.496  26.412  1.00  0.00     0.058 A 
ATOM     58  C   UNL A   1      42.621  21.137  26.340  1.00  0.00     0.135 A 
ATOM     59  C   UNL A   1      44.105  22.860  25.597  1.00  0.00     0.135 A 
ATOM     60  F   UNL A   1      41.543  20.702  27.016  1.00  0.00    -0.206 F 
ATOM     61  C   UNL A   1      43.345  20.173  25.652  1.00  0.00     0.059 A 
ATOM     62  C   UNL A   1      44.819  21.912  24.853  1.00  0.00     0.059 A 
ATOM     63  F   UNL A   1      44.546  24.125  25.558  1.00  0.00    -0.206 F 
ATOM     64  C   UNL A   1      44.467  20.564  24.937  1.00  0.00     0.060 A 
BRANCH  64  65
ATOM     65  S   UNL A   1      45.457  19.277  24.150  1.00  0.00     0.124 S 
ATOM     66  O   UNL A   1      44.864  19.217  22.818  1.00  0.00    -0.237 OA
ATOM     67  O   UNL A   1      46.802  19.842  24.217  1.00  0.00    -0.237 OA
ATOM     68  O   UNL A   1      45.232  18.112  24.999  1.00  0.00    -0.744 OA
ENDBRANCH  64  65
ENDBRANCH  43  57
BRANCH  44  69
ATOM     69  C   UNL A   1      44.088  29.170  34.748  1.00  0.00     0.058 A 
ATOM     70  C   UNL A   1      45.315  29.716  35.143  1.00  0.00     0.135 A 
ATOM     71  C   UNL A   1      43.084  29.251  35.768  1.00  0.00     0.135 A 
ATOM     72  F   UNL A   1      46.401  29.576  34.371  1.00  0.00    -0.206 F 
ATOM     73  C   UNL A   1      45.471  30.437  36.357  1.00  0.00     0.059 A 
ATOM     74  C   UNL A   1      43.189  30.008  36.935  1.00  0.00     0.059 A 
ATOM     75  F   UNL A   1      41.912  28.607  35.663  1.00  0.00    -0.206 F 
ATOM     76  C   UNL A   1      44.381  30.638  37.209  1.00  0.00     0.060 A 
BRANCH  76  77
ATOM     77  S   UNL A   1      44.455  31.814  38.587  1.00  0.00     0.124 S 
ATOM     78  O   UNL A   1      43.199  31.560  39.281  1.00  0.00    -0.237 OA
ATOM     79  O   UNL A   1      45.667  31.396  39.285  1.00  0.00    -0.237 OA
ATOM     80  O   UNL A   1      44.552  33.111  37.920  1.00  0.00    -0.744 OA
ENDBRANCH  76  77
ENDBRANCH  44  69
BRANCH  56  81
ATOM     81  C   UNL A   1      45.609  26.839  29.233  1.00  0.00     0.058 A 
ATOM     82  C   UNL A   1      44.610  27.312  28.368  1.00  0.00     0.135 A 
ATOM     83  C   UNL A   1      46.900  27.351  29.004  1.00  0.00     0.135 A 
ATOM     84  F   UNL A   1      43.346  26.884  28.514  1.00  0.00    -0.206 F 
ATOM     85  C   UNL A   1      44.868  28.238  27.353  1.00  0.00     0.059 A 
ATOM     86  C   UNL A   1      47.190  28.280  27.995  1.00  0.00     0.059 A 
ATOM     87  F   UNL A   1      47.928  26.965  29.761  1.00  0.00    -0.206 F 
ATOM     88  C   UNL A   1      46.162  28.726  27.175  1.00  0.00     0.060 A 
BRANCH  88  89
ATOM     89  S   UNL A   1      46.457  29.973  25.899  1.00  0.00     0.124 S 
ATOM     90  O   UNL A   1      47.736  30.545  26.308  1.00  0.00    -0.237 OA
ATOM     91  O   UNL A   1      46.488  29.165  24.685  1.00  0.00    -0.237 OA
ATOM     92  O   UNL A   1      45.311  30.871  26.019  1.00  0.00    -0.744 OA
ENDBRANCH  88  89
ENDBRANCH  56  81
ENDBRANCH  30  31
ENDBRANCH  23  25
ENDBRANCH  22  23
ENDBRANCH  21  22
ENDBRANCH   1  21
TORSDOF 19
ENDMDL
