MODEL 1
REMARK VINA RESULT:     -11.8      0.000      0.000
REMARK SMILES Cc1oc2c(c1C(=O)NCCCC(=O)OCCOC(=O)c1ccc(-c3c4nc(c(-c5c(F)cc(S(=O)(=O)[O-])cc5F)c5ccc([nH]5)c(-c5c(F)cc(S(=O)(=O)[O-])cc5F)c5nc(c(-c6c(F)cc(S(=O)(=O)[O-])cc6F)c6ccc3[nH]6)C=C5)C=C4)cc1)CCCC2
REMARK SMILES IDX 16 1 15 2 13 3 14 4 12 5 11 6 10 7 9 8 7 9 8 10 6 12 1 13
REMARK SMILES IDX 2 14 3 15 4 16 5 17 90 18 87 19 89 20 88 21 17 22 18 23
REMARK SMILES IDX 19 24 20 25 21 26 22 27 86 28 23 29 85 30 24 31 25 32 26 33
REMARK SMILES IDX 79 34 27 35 84 36 78 37 80 38 28 39 83 40 77 41 76 42 29 44
REMARK SMILES IDX 63 45 42 46 62 47 43 48 46 49 61 50 81 51 44 52 45 53 60 55
REMARK SMILES IDX 82 56 47 57 30 58 31 59 40 60 32 61 33 62 39 63 41 64 34 65
REMARK SMILES IDX 35 66 36 67 37 68 38 69 64 70 65 71 74 72 66 73 67 74 73 75
REMARK SMILES IDX 75 76 68 77 69 78 70 79 71 80 72 81 48 82 49 83 58 84 50 85
REMARK SMILES IDX 51 86 57 87 59 88 52 89 53 90 54 91 55 92 56 93
REMARK H PARENT 9 11 80 43 46 54
REMARK Flexibility Score: inf
ROOT
ATOM      1  C   UNL A   1      32.595  29.857  25.717  1.00  0.00     0.274 C 
ENDROOT
BRANCH   1   2
ATOM      2  O   UNL A   1      31.413  29.035  25.663  1.00  0.00    -0.462 OA
BRANCH   2   3
ATOM      3  C   UNL A   1      31.579  27.729  26.005  1.00  0.00     0.305 C 
ATOM      4  O   UNL A   1      31.133  27.208  27.019  1.00  0.00    -0.252 OA
BRANCH   3   5
ATOM      5  C   UNL A   1      32.490  27.010  25.039  1.00  0.00     0.124 C 
BRANCH   5   6
ATOM      6  C   UNL A   1      33.164  25.733  25.532  1.00  0.00     0.033 C 
BRANCH   6   7
ATOM      7  C   UNL A   1      32.354  24.436  25.497  1.00  0.00     0.117 C 
BRANCH   7   8
ATOM      8  N   UNL A   1      32.339  23.710  26.743  1.00  0.00    -0.352 N 
ATOM      9  C   UNL A   1      33.005  22.591  27.164  1.00  0.00     0.255 C 
ATOM     10  O   UNL A   1      32.743  22.241  28.320  1.00  0.00    -0.269 OA
ATOM     11  H   UNL A   1      31.736  24.094  27.421  1.00  0.00     0.163 HD
BRANCH   9  12
ATOM     12  C   UNL A   1      33.921  21.798  26.338  1.00  0.00     0.084 A 
ATOM     13  C   UNL A   1      32.670  19.668  25.288  1.00  0.00     0.088 C 
ATOM     14  C   UNL A   1      33.762  20.615  25.608  1.00  0.00     0.114 A 
ATOM     15  O   UNL A   1      34.933  20.269  24.984  1.00  0.00    -0.465 OA
ATOM     16  C   UNL A   1      35.824  21.236  25.250  1.00  0.00     0.108 A 
ATOM     17  C   UNL A   1      35.271  22.215  26.034  1.00  0.00     0.007 A 
ATOM     18  C   UNL A   1      37.176  21.181  24.657  1.00  0.00     0.076 C 
ATOM     19  C   UNL A   1      36.056  23.422  26.429  1.00  0.00     0.040 C 
ATOM     20  C   UNL A   1      38.064  22.237  25.342  1.00  0.00     0.008 C 
ATOM     21  C   UNL A   1      37.322  23.574  25.553  1.00  0.00     0.005 C 
ENDBRANCH   9  12
ENDBRANCH   7   8
ENDBRANCH   6   7
ENDBRANCH   5   6
ENDBRANCH   3   5
ENDBRANCH   2   3
ENDBRANCH   1   2
BRANCH   1  22
ATOM     22  C   UNL A   1      32.527  30.902  26.823  1.00  0.00     0.275 C 
BRANCH  22  23
ATOM     23  O   UNL A   1      33.568  30.742  27.786  1.00  0.00    -0.458 OA
BRANCH  23  24
ATOM     24  C   UNL A   1      34.349  31.832  27.954  1.00  0.00     0.338 C 
ATOM     25  O   UNL A   1      33.993  32.997  27.932  1.00  0.00    -0.246 OA
BRANCH  24  26
ATOM     26  C   UNL A   1      35.761  31.446  27.991  1.00  0.00     0.060 A 
ATOM     27  C   UNL A   1      36.088  30.130  27.641  1.00  0.00     0.016 A 
ATOM     28  C   UNL A   1      36.698  32.305  28.580  1.00  0.00     0.016 A 
ATOM     29  C   UNL A   1      37.337  29.644  27.976  1.00  0.00     0.010 A 
ATOM     30  C   UNL A   1      37.938  31.814  28.922  1.00  0.00     0.010 A 
ATOM     31  C   UNL A   1      38.229  30.475  28.661  1.00  0.00    -0.014 A 
BRANCH  31  32
ATOM     32  C   UNL A   1      39.535  29.942  29.008  1.00  0.00     0.031 A 
ATOM     33  C   UNL A   1      39.809  29.947  30.463  1.00  0.00     0.074 A 
ATOM     34  C   UNL A   1      40.340  29.336  28.113  1.00  0.00     0.049 A 
ATOM     35  N   UNL A   1      40.711  30.611  31.104  1.00  0.00    -0.248 NA
ATOM     36  C   UNL A   1      38.872  29.214  31.332  1.00  0.00     0.031 C 
ATOM     37  C   UNL A   1      39.989  28.963  26.738  1.00  0.00     0.029 A 
ATOM     38  N   UNL A   1      41.591  28.812  28.269  1.00  0.00    -0.354 N 
ATOM     39  C   UNL A   1      40.619  30.170  32.421  1.00  0.00     0.074 A 
ATOM     40  C   UNL A   1      39.357  29.491  32.542  1.00  0.00     0.031 C 
ATOM     41  C   UNL A   1      40.902  28.085  26.271  1.00  0.00     0.029 A 
ATOM     42  C   UNL A   1      41.971  27.953  27.247  1.00  0.00     0.049 A 
ATOM     43  H   UNL A   1      42.170  29.023  29.037  1.00  0.00     0.167 HD
ATOM     44  C   UNL A   1      41.724  30.108  33.212  1.00  0.00     0.037 A 
ATOM     45  C   UNL A   1      43.061  27.149  27.214  1.00  0.00     0.037 A 
ATOM     46  C   UNL A   1      42.815  30.862  32.654  1.00  0.00     0.049 A 
ATOM     47  C   UNL A   1      44.061  27.673  28.174  1.00  0.00     0.074 A 
ATOM     48  C   UNL A   1      43.207  32.179  32.598  1.00  0.00     0.029 A 
ATOM     49  N   UNL A   1      43.544  30.176  31.722  1.00  0.00    -0.354 N 
ATOM     50  N   UNL A   1      44.659  28.825  28.042  1.00  0.00    -0.248 NA
ATOM     51  C   UNL A   1      44.193  27.048  29.487  1.00  0.00     0.031 C 
ATOM     52  C   UNL A   1      44.125  32.283  31.509  1.00  0.00     0.029 A 
ATOM     53  C   UNL A   1      44.280  31.025  30.937  1.00  0.00     0.049 A 
ATOM     54  H   UNL A   1      43.541  29.197  31.628  1.00  0.00     0.167 HD
ATOM     55  C   UNL A   1      44.878  29.247  29.336  1.00  0.00     0.074 A 
ATOM     56  C   UNL A   1      44.739  28.061  30.167  1.00  0.00     0.031 C 
ATOM     57  C   UNL A   1      44.804  30.566  29.669  1.00  0.00     0.037 A 
BRANCH  44  58
ATOM     58  C   UNL A   1      41.989  28.999  34.208  1.00  0.00     0.058 A 
ATOM     59  C   UNL A   1      42.154  27.680  33.738  1.00  0.00     0.135 A 
ATOM     60  C   UNL A   1      41.783  29.127  35.601  1.00  0.00     0.135 A 
ATOM     61  F   UNL A   1      42.337  27.439  32.430  1.00  0.00    -0.206 F 
ATOM     62  C   UNL A   1      42.066  26.570  34.581  1.00  0.00     0.059 A 
ATOM     63  C   UNL A   1      41.750  28.040  36.466  1.00  0.00     0.059 A 
ATOM     64  F   UNL A   1      41.501  30.302  36.177  1.00  0.00    -0.206 F 
ATOM     65  C   UNL A   1      41.850  26.762  35.942  1.00  0.00     0.060 A 
BRANCH  65  66
ATOM     66  S   UNL A   1      41.643  25.336  37.023  1.00  0.00     0.124 S 
ATOM     67  O   UNL A   1      41.489  24.257  36.054  1.00  0.00    -0.237 OA
ATOM     68  O   UNL A   1      42.891  25.344  37.781  1.00  0.00    -0.237 OA
ATOM     69  O   UNL A   1      40.449  25.670  37.793  1.00  0.00    -0.744 OA
ENDBRANCH  65  66
ENDBRANCH  44  58
BRANCH  45  70
ATOM     70  C   UNL A   1      43.206  25.821  26.568  1.00  0.00     0.058 A 
ATOM     71  C   UNL A   1      44.079  25.630  25.484  1.00  0.00     0.135 A 
ATOM     72  C   UNL A   1      42.700  24.657  27.179  1.00  0.00     0.135 A 
ATOM     73  F   UNL A   1      44.621  26.686  24.859  1.00  0.00    -0.206 F 
ATOM     74  C   UNL A   1      44.470  24.357  25.061  1.00  0.00     0.059 A 
ATOM     75  C   UNL A   1      43.066  23.377  26.768  1.00  0.00     0.059 A 
ATOM     76  F   UNL A   1      41.904  24.733  28.257  1.00  0.00    -0.206 F 
ATOM     77  C   UNL A   1      43.974  23.235  25.725  1.00  0.00     0.060 A 
BRANCH  77  78
ATOM     78  S   UNL A   1      44.615  21.600  25.296  1.00  0.00     0.124 S 
ATOM     79  O   UNL A   1      45.954  21.642  25.874  1.00  0.00    -0.237 OA
ATOM     80  O   UNL A   1      43.662  20.714  25.955  1.00  0.00    -0.237 OA
ATOM     81  O   UNL A   1      44.565  21.590  23.836  1.00  0.00    -0.744 OA
ENDBRANCH  77  78
ENDBRANCH  45  70
BRANCH  57  82
ATOM     82  C   UNL A   1      45.130  31.575  28.612  1.00  0.00     0.058 A 
ATOM     83  C   UNL A   1      44.185  32.272  27.844  1.00  0.00     0.135 A 
ATOM     84  C   UNL A   1      46.484  31.891  28.417  1.00  0.00     0.135 A 
ATOM     85  F   UNL A   1      42.871  32.076  28.026  1.00  0.00    -0.206 F 
ATOM     86  C   UNL A   1      44.575  33.223  26.899  1.00  0.00     0.059 A 
ATOM     87  C   UNL A   1      46.893  32.854  27.503  1.00  0.00     0.059 A 
ATOM     88  F   UNL A   1      47.430  31.282  29.152  1.00  0.00    -0.206 F 
ATOM     89  C   UNL A   1      45.932  33.508  26.737  1.00  0.00     0.060 A 
BRANCH  89  90
ATOM     90  S   UNL A   1      46.433  34.789  25.567  1.00  0.00     0.124 S 
ATOM     91  O   UNL A   1      47.849  34.495  25.377  1.00  0.00    -0.237 OA
ATOM     92  O   UNL A   1      45.570  34.525  24.419  1.00  0.00    -0.237 OA
ATOM     93  O   UNL A   1      46.143  36.032  26.277  1.00  0.00    -0.744 OA
ENDBRANCH  89  90
ENDBRANCH  57  82
ENDBRANCH  31  32
ENDBRANCH  24  26
ENDBRANCH  23  24
ENDBRANCH  22  23
ENDBRANCH   1  22
TORSDOF 18
ENDMDL
MODEL 2
REMARK VINA RESULT:     -11.8      2.492      9.618
REMARK SMILES Cc1oc2c(c1C(=O)NCCCC(=O)OCCOC(=O)c1ccc(-c3c4nc(c(-c5c(F)cc(S(=O)(=O)[O-])cc5F)c5ccc([nH]5)c(-c5c(F)cc(S(=O)(=O)[O-])cc5F)c5nc(c(-c6c(F)cc(S(=O)(=O)[O-])cc6F)c6ccc3[nH]6)C=C5)C=C4)cc1)CCCC2
REMARK SMILES IDX 16 1 15 2 13 3 14 4 12 5 11 6 10 7 9 8 7 9 8 10 6 12 1 13
REMARK SMILES IDX 2 14 3 15 4 16 5 17 90 18 87 19 89 20 88 21 17 22 18 23
REMARK SMILES IDX 19 24 20 25 21 26 22 27 86 28 23 29 85 30 24 31 25 32 26 33
REMARK SMILES IDX 79 34 27 35 84 36 78 37 80 38 28 39 83 40 77 41 76 42 29 44
REMARK SMILES IDX 63 45 42 46 62 47 43 48 46 49 61 50 81 51 44 52 45 53 60 55
REMARK SMILES IDX 82 56 47 57 30 58 31 59 40 60 32 61 33 62 39 63 41 64 34 65
REMARK SMILES IDX 35 66 36 67 37 68 38 69 64 70 65 71 74 72 66 73 67 74 73 75
REMARK SMILES IDX 75 76 68 77 69 78 70 79 71 80 72 81 48 82 49 83 58 84 50 85
REMARK SMILES IDX 51 86 57 87 59 88 52 89 53 90 54 91 55 92 56 93
REMARK H PARENT 9 11 80 43 46 54
REMARK Flexibility Score: inf
ROOT
ATOM      1  C   UNL A   1      42.154  19.591  25.811  1.00  0.00     0.274 C 
ENDROOT
BRANCH   1   2
ATOM      2  O   UNL A   1      41.448  20.819  26.071  1.00  0.00    -0.462 OA
BRANCH   2   3
ATOM      3  C   UNL A   1      40.986  20.984  27.340  1.00  0.00     0.305 C 
ATOM      4  O   UNL A   1      40.770  20.075  28.131  1.00  0.00    -0.252 OA
BRANCH   3   5
ATOM      5  C   UNL A   1      40.650  22.428  27.628  1.00  0.00     0.124 C 
BRANCH   5   6
ATOM      6  C   UNL A   1      39.963  23.220  26.519  1.00  0.00     0.033 C 
BRANCH   6   7
ATOM      7  C   UNL A   1      38.452  23.057  26.352  1.00  0.00     0.117 C 
BRANCH   7   8
ATOM      8  N   UNL A   1      37.954  23.424  25.049  1.00  0.00    -0.352 N 
ATOM      9  C   UNL A   1      37.024  22.850  24.224  1.00  0.00     0.255 C 
ATOM     10  O   UNL A   1      36.844  23.449  23.158  1.00  0.00    -0.269 OA
ATOM     11  H   UNL A   1      38.359  24.244  24.684  1.00  0.00     0.163 HD
BRANCH   9  12
ATOM     12  C   UNL A   1      36.312  21.600  24.502  1.00  0.00     0.084 A 
ATOM     13  C   UNL A   1      38.035  19.596  24.976  1.00  0.00     0.088 C 
ATOM     14  C   UNL A   1      36.746  20.300  24.785  1.00  0.00     0.114 A 
ATOM     15  O   UNL A   1      35.677  19.464  24.982  1.00  0.00    -0.465 OA
ATOM     16  C   UNL A   1      34.568  20.211  24.891  1.00  0.00     0.108 A 
ATOM     17  C   UNL A   1      34.875  21.524  24.639  1.00  0.00     0.007 A 
ATOM     18  C   UNL A   1      33.242  19.602  25.124  1.00  0.00     0.076 C 
ATOM     19  C   UNL A   1      33.806  22.560  24.537  1.00  0.00     0.040 C 
ATOM     20  C   UNL A   1      32.152  20.596  24.682  1.00  0.00     0.008 C 
ATOM     21  C   UNL A   1      32.470  22.041  25.119  1.00  0.00     0.005 C 
ENDBRANCH   9  12
ENDBRANCH   7   8
ENDBRANCH   6   7
ENDBRANCH   5   6
ENDBRANCH   3   5
ENDBRANCH   2   3
ENDBRANCH   1   2
BRANCH   1  22
ATOM     22  C   UNL A   1      43.621  19.825  25.472  1.00  0.00     0.275 C 
BRANCH  22  23
ATOM     23  O   UNL A   1      43.864  21.147  24.993  1.00  0.00    -0.458 OA
BRANCH  23  24
ATOM     24  C   UNL A   1      44.815  21.825  25.674  1.00  0.00     0.338 C 
ATOM     25  O   UNL A   1      45.987  21.519  25.792  1.00  0.00    -0.246 OA
BRANCH  24  26
ATOM     26  C   UNL A   1      44.212  22.923  26.433  1.00  0.00     0.060 A 
ATOM     27  C   UNL A   1      43.572  23.939  25.714  1.00  0.00     0.016 A 
ATOM     28  C   UNL A   1      44.480  23.046  27.802  1.00  0.00     0.016 A 
ATOM     29  C   UNL A   1      43.289  25.130  26.355  1.00  0.00     0.010 A 
ATOM     30  C   UNL A   1      44.207  24.238  28.435  1.00  0.00     0.010 A 
ATOM     31  C   UNL A   1      43.658  25.285  27.695  1.00  0.00    -0.014 A 
BRANCH  31  32
ATOM     32  C   UNL A   1      43.356  26.547  28.349  1.00  0.00     0.031 A 
ATOM     33  C   UNL A   1      44.433  27.554  28.218  1.00  0.00     0.074 A 
ATOM     34  C   UNL A   1      42.144  26.833  28.864  1.00  0.00     0.049 A 
ATOM     35  N   UNL A   1      45.159  28.075  29.150  1.00  0.00    -0.248 NA
ATOM     36  C   UNL A   1      44.842  27.937  26.855  1.00  0.00     0.031 C 
ATOM     37  C   UNL A   1      40.922  26.037  28.708  1.00  0.00     0.029 A 
ATOM     38  N   UNL A   1      41.711  27.946  29.525  1.00  0.00    -0.354 N 
ATOM     39  C   UNL A   1      45.929  29.042  28.512  1.00  0.00     0.074 A 
ATOM     40  C   UNL A   1      45.854  28.768  27.103  1.00  0.00     0.031 C 
ATOM     41  C   UNL A   1      39.856  26.790  29.054  1.00  0.00     0.029 A 
ATOM     42  C   UNL A   1      40.328  28.056  29.592  1.00  0.00     0.049 A 
ATOM     43  H   UNL A   1      42.322  28.611  29.917  1.00  0.00     0.167 HD
ATOM     44  C   UNL A   1      46.294  30.180  29.163  1.00  0.00     0.037 A 
ATOM     45  C   UNL A   1      39.609  29.124  30.014  1.00  0.00     0.037 A 
ATOM     46  C   UNL A   1      46.110  30.057  30.584  1.00  0.00     0.049 A 
ATOM     47  C   UNL A   1      40.479  29.967  30.869  1.00  0.00     0.074 A 
ATOM     48  C   UNL A   1      46.787  29.503  31.646  1.00  0.00     0.029 A 
ATOM     49  N   UNL A   1      44.835  30.323  31.004  1.00  0.00    -0.354 N 
ATOM     50  N   UNL A   1      40.959  29.581  32.019  1.00  0.00    -0.248 NA
ATOM     51  C   UNL A   1      41.093  31.167  30.307  1.00  0.00     0.031 C 
ATOM     52  C   UNL A   1      45.832  29.338  32.694  1.00  0.00     0.029 A 
ATOM     53  C   UNL A   1      44.600  29.808  32.251  1.00  0.00     0.049 A 
ATOM     54  H   UNL A   1      44.171  30.822  30.476  1.00  0.00     0.167 HD
ATOM     55  C   UNL A   1      42.173  30.226  32.117  1.00  0.00     0.074 A 
ATOM     56  C   UNL A   1      42.127  31.305  31.142  1.00  0.00     0.031 C 
ATOM     57  C   UNL A   1      43.241  29.629  32.716  1.00  0.00     0.037 A 
BRANCH  44  58
ATOM     58  C   UNL A   1      46.345  31.547  28.512  1.00  0.00     0.058 A 
ATOM     59  C   UNL A   1      45.178  32.066  27.916  1.00  0.00     0.135 A 
ATOM     60  C   UNL A   1      47.546  32.217  28.184  1.00  0.00     0.135 A 
ATOM     61  F   UNL A   1      43.984  31.496  28.143  1.00  0.00    -0.206 F 
ATOM     62  C   UNL A   1      45.210  33.137  27.020  1.00  0.00     0.059 A 
ATOM     63  C   UNL A   1      47.592  33.320  27.340  1.00  0.00     0.059 A 
ATOM     64  F   UNL A   1      48.744  31.773  28.583  1.00  0.00    -0.206 F 
ATOM     65  C   UNL A   1      46.426  33.747  26.729  1.00  0.00     0.060 A 
BRANCH  65  66
ATOM     66  S   UNL A   1      46.491  35.067  25.506  1.00  0.00     0.124 S 
ATOM     67  O   UNL A   1      47.906  35.065  25.150  1.00  0.00    -0.237 OA
ATOM     68  O   UNL A   1      45.571  34.580  24.482  1.00  0.00    -0.237 OA
ATOM     69  O   UNL A   1      46.028  36.236  26.248  1.00  0.00    -0.744 OA
ENDBRANCH  65  66
ENDBRANCH  44  58
BRANCH  45  70
ATOM     70  C   UNL A   1      38.281  29.584  29.542  1.00  0.00     0.058 A 
ATOM     71  C   UNL A   1      37.260  29.916  30.449  1.00  0.00     0.135 A 
ATOM     72  C   UNL A   1      38.080  29.971  28.202  1.00  0.00     0.135 A 
ATOM     73  F   UNL A   1      37.382  29.601  31.747  1.00  0.00    -0.206 F 
ATOM     74  C   UNL A   1      36.128  30.635  30.061  1.00  0.00     0.059 A 
ATOM     75  C   UNL A   1      36.953  30.679  27.789  1.00  0.00     0.059 A 
ATOM     76  F   UNL A   1      39.021  29.750  27.272  1.00  0.00    -0.206 F 
ATOM     77  C   UNL A   1      35.993  31.032  28.731  1.00  0.00     0.060 A 
BRANCH  77  78
ATOM     78  S   UNL A   1      34.621  32.113  28.266  1.00  0.00     0.124 S 
ATOM     79  O   UNL A   1      35.309  33.181  27.550  1.00  0.00    -0.237 OA
ATOM     80  O   UNL A   1      33.794  31.228  27.452  1.00  0.00    -0.237 OA
ATOM     81  O   UNL A   1      34.041  32.495  29.551  1.00  0.00    -0.744 OA
ENDBRANCH  77  78
ENDBRANCH  45  70
BRANCH  57  82
ATOM     82  C   UNL A   1      42.970  28.627  33.794  1.00  0.00     0.058 A 
ATOM     83  C   UNL A   1      42.638  28.941  35.121  1.00  0.00     0.135 A 
ATOM     84  C   UNL A   1      42.992  27.270  33.436  1.00  0.00     0.135 A 
ATOM     85  F   UNL A   1      42.526  30.217  35.519  1.00  0.00    -0.206 F 
ATOM     86  C   UNL A   1      42.368  27.943  36.059  1.00  0.00     0.059 A 
ATOM     87  C   UNL A   1      42.700  26.262  34.345  1.00  0.00     0.059 A 
ATOM     88  F   UNL A   1      43.267  26.913  32.170  1.00  0.00    -0.206 F 
ATOM     89  C   UNL A   1      42.400  26.605  35.661  1.00  0.00     0.060 A 
BRANCH  89  90
ATOM     90  S   UNL A   1      41.981  25.316  36.855  1.00  0.00     0.124 S 
ATOM     91  O   UNL A   1      40.965  25.971  37.671  1.00  0.00    -0.237 OA
ATOM     92  O   UNL A   1      41.507  24.233  35.997  1.00  0.00    -0.237 OA
ATOM     93  O   UNL A   1      43.249  25.051  37.530  1.00  0.00    -0.744 OA
ENDBRANCH  89  90
ENDBRANCH  57  82
ENDBRANCH  31  32
ENDBRANCH  24  26
ENDBRANCH  23  24
ENDBRANCH  22  23
ENDBRANCH   1  22
TORSDOF 18
ENDMDL
MODEL 3
REMARK VINA RESULT:     -11.8      2.549      9.591
REMARK SMILES Cc1oc2c(c1C(=O)NCCCC(=O)OCCOC(=O)c1ccc(-c3c4nc(c(-c5c(F)cc(S(=O)(=O)[O-])cc5F)c5ccc([nH]5)c(-c5c(F)cc(S(=O)(=O)[O-])cc5F)c5nc(c(-c6c(F)cc(S(=O)(=O)[O-])cc6F)c6ccc3[nH]6)C=C5)C=C4)cc1)CCCC2
REMARK SMILES IDX 16 1 15 2 13 3 14 4 12 5 11 6 10 7 9 8 7 9 8 10 6 12 1 13
REMARK SMILES IDX 2 14 3 15 4 16 5 17 90 18 87 19 89 20 88 21 17 22 18 23
REMARK SMILES IDX 19 24 20 25 21 26 22 27 86 28 23 29 85 30 24 31 25 32 26 33
REMARK SMILES IDX 79 34 27 35 84 36 78 37 80 38 28 39 83 40 77 41 76 42 29 44
REMARK SMILES IDX 63 45 42 46 62 47 43 48 46 49 61 50 81 51 44 52 45 53 60 55
REMARK SMILES IDX 82 56 47 57 30 58 31 59 40 60 32 61 33 62 39 63 41 64 34 65
REMARK SMILES IDX 35 66 36 67 37 68 38 69 64 70 65 71 74 72 66 73 67 74 73 75
REMARK SMILES IDX 75 76 68 77 69 78 70 79 71 80 72 81 48 82 49 83 58 84 50 85
REMARK SMILES IDX 51 86 57 87 59 88 52 89 53 90 54 91 55 92 56 93
REMARK H PARENT 9 11 80 43 46 54
REMARK Flexibility Score: inf
ROOT
ATOM      1  C   UNL A   1      42.098  19.178  26.621  1.00  0.00     0.274 C 
ENDROOT
BRANCH   1   2
ATOM      2  O   UNL A   1      41.183  20.158  26.096  1.00  0.00    -0.462 OA
BRANCH   2   3
ATOM      3  C   UNL A   1      40.977  21.257  26.870  1.00  0.00     0.305 C 
ATOM      4  O   UNL A   1      41.637  21.552  27.858  1.00  0.00    -0.252 OA
BRANCH   3   5
ATOM      5  C   UNL A   1      39.748  22.021  26.438  1.00  0.00     0.124 C 
BRANCH   5   6
ATOM      6  C   UNL A   1      38.693  21.258  25.643  1.00  0.00     0.033 C 
BRANCH   6   7
ATOM      7  C   UNL A   1      37.432  22.011  25.217  1.00  0.00     0.117 C 
BRANCH   7   8
ATOM      8  N   UNL A   1      36.457  22.179  26.265  1.00  0.00    -0.352 N 
ATOM      9  C   UNL A   1      35.103  22.384  26.239  1.00  0.00     0.255 C 
ATOM     10  O   UNL A   1      34.577  22.485  27.353  1.00  0.00    -0.269 OA
ATOM     11  H   UNL A   1      36.836  22.136  27.173  1.00  0.00     0.163 HD
BRANCH   9  12
ATOM     12  C   UNL A   1      34.301  22.538  25.022  1.00  0.00     0.084 A 
ATOM     13  C   UNL A   1      33.172  20.207  24.314  1.00  0.00     0.088 C 
ATOM     14  C   UNL A   1      33.547  21.639  24.259  1.00  0.00     0.114 A 
ATOM     15  O   UNL A   1      32.963  22.277  23.195  1.00  0.00    -0.465 OA
ATOM     16  C   UNL A   1      33.276  23.577  23.292  1.00  0.00     0.108 A 
ATOM     17  C   UNL A   1      34.054  23.817  24.396  1.00  0.00     0.007 A 
ATOM     18  C   UNL A   1      32.734  24.545  22.316  1.00  0.00     0.076 C 
ATOM     19  C   UNL A   1      34.496  25.200  24.742  1.00  0.00     0.040 C 
ATOM     20  C   UNL A   1      33.468  25.888  22.487  1.00  0.00     0.008 C 
ATOM     21  C   UNL A   1      33.670  26.257  23.971  1.00  0.00     0.005 C 
ENDBRANCH   9  12
ENDBRANCH   7   8
ENDBRANCH   6   7
ENDBRANCH   5   6
ENDBRANCH   3   5
ENDBRANCH   2   3
ENDBRANCH   1   2
BRANCH   1  22
ATOM     22  C   UNL A   1      43.186  18.803  25.623  1.00  0.00     0.275 C 
BRANCH  22  23
ATOM     23  O   UNL A   1      44.300  19.694  25.674  1.00  0.00    -0.458 OA
BRANCH  23  24
ATOM     24  C   UNL A   1      44.393  20.537  24.622  1.00  0.00     0.338 C 
ATOM     25  O   UNL A   1      44.586  20.235  23.458  1.00  0.00    -0.246 OA
BRANCH  24  26
ATOM     26  C   UNL A   1      44.411  21.927  25.084  1.00  0.00     0.060 A 
ATOM     27  C   UNL A   1      45.242  22.245  26.164  1.00  0.00     0.016 A 
ATOM     28  C   UNL A   1      43.455  22.829  24.600  1.00  0.00     0.016 A 
ATOM     29  C   UNL A   1      45.043  23.442  26.827  1.00  0.00     0.010 A 
ATOM     30  C   UNL A   1      43.252  24.016  25.269  1.00  0.00     0.010 A 
ATOM     31  C   UNL A   1      44.014  24.290  26.405  1.00  0.00    -0.014 A 
BRANCH  31  32
ATOM     32  C   UNL A   1      43.819  25.540  27.118  1.00  0.00     0.031 A 
ATOM     33  C   UNL A   1      44.902  26.525  26.893  1.00  0.00     0.074 A 
ATOM     34  C   UNL A   1      42.680  25.840  27.771  1.00  0.00     0.049 A 
ATOM     35  N   UNL A   1      45.740  27.002  27.752  1.00  0.00    -0.248 NA
ATOM     36  C   UNL A   1      45.168  26.934  25.503  1.00  0.00     0.031 C 
ATOM     37  C   UNL A   1      41.427  25.078  27.732  1.00  0.00     0.029 A 
ATOM     38  N   UNL A   1      42.351  26.945  28.503  1.00  0.00    -0.354 N 
ATOM     39  C   UNL A   1      46.460  27.968  27.056  1.00  0.00     0.074 A 
ATOM     40  C   UNL A   1      46.223  27.735  25.657  1.00  0.00     0.031 C 
ATOM     41  C   UNL A   1      40.426  25.846  28.212  1.00  0.00     0.029 A 
ATOM     42  C   UNL A   1      40.988  27.085  28.726  1.00  0.00     0.049 A 
ATOM     43  H   UNL A   1      43.019  27.584  28.841  1.00  0.00     0.167 HD
ATOM     44  C   UNL A   1      46.924  29.079  27.690  1.00  0.00     0.037 A 
ATOM     45  C   UNL A   1      40.348  28.158  29.251  1.00  0.00     0.037 A 
ATOM     46  C   UNL A   1      46.894  28.922  29.120  1.00  0.00     0.049 A 
ATOM     47  C   UNL A   1      41.329  28.957  30.024  1.00  0.00     0.074 A 
ATOM     48  C   UNL A   1      47.669  28.323  30.086  1.00  0.00     0.029 A 
ATOM     49  N   UNL A   1      45.681  29.207  29.684  1.00  0.00    -0.354 N 
ATOM     50  N   UNL A   1      41.922  28.529  31.105  1.00  0.00    -0.248 NA
ATOM     51  C   UNL A   1      41.909  30.157  29.427  1.00  0.00     0.031 C 
ATOM     52  C   UNL A   1      46.832  28.153  31.229  1.00  0.00     0.029 A 
ATOM     53  C   UNL A   1      45.571  28.663  30.937  1.00  0.00     0.049 A 
ATOM     54  H   UNL A   1      44.977  29.735  29.245  1.00  0.00     0.167 HD
ATOM     55  C   UNL A   1      43.157  29.142  31.082  1.00  0.00     0.074 A 
ATOM     56  C   UNL A   1      43.031  30.248  30.146  1.00  0.00     0.031 C 
ATOM     57  C   UNL A   1      44.268  28.504  31.545  1.00  0.00     0.037 A 
BRANCH  44  58
ATOM     58  C   UNL A   1      46.939  30.461  27.071  1.00  0.00     0.058 A 
ATOM     59  C   UNL A   1      48.120  31.229  27.138  1.00  0.00     0.135 A 
ATOM     60  C   UNL A   1      45.774  31.169  26.699  1.00  0.00     0.135 A 
ATOM     61  F   UNL A   1      49.283  30.663  27.500  1.00  0.00    -0.206 F 
ATOM     62  C   UNL A   1      48.130  32.606  26.906  1.00  0.00     0.059 A 
ATOM     63  C   UNL A   1      45.773  32.528  26.407  1.00  0.00     0.059 A 
ATOM     64  F   UNL A   1      44.562  30.602  26.700  1.00  0.00    -0.206 F 
ATOM     65  C   UNL A   1      46.946  33.247  26.553  1.00  0.00     0.060 A 
BRANCH  65  66
ATOM     66  S   UNL A   1      46.930  35.035  26.341  1.00  0.00     0.124 S 
ATOM     67  O   UNL A   1      45.499  35.305  26.254  1.00  0.00    -0.237 OA
ATOM     68  O   UNL A   1      47.595  35.493  27.557  1.00  0.00    -0.237 OA
ATOM     69  O   UNL A   1      47.687  35.234  25.109  1.00  0.00    -0.744 OA
ENDBRANCH  65  66
ENDBRANCH  44  58
BRANCH  45  70
ATOM     70  C   UNL A   1      38.988  28.662  28.940  1.00  0.00     0.058 A 
ATOM     71  C   UNL A   1      38.005  28.767  29.938  1.00  0.00     0.135 A 
ATOM     72  C   UNL A   1      38.714  29.309  27.719  1.00  0.00     0.135 A 
ATOM     73  F   UNL A   1      38.196  28.198  31.137  1.00  0.00    -0.206 F 
ATOM     74  C   UNL A   1      36.839  29.514  29.756  1.00  0.00     0.059 A 
ATOM     75  C   UNL A   1      37.553  30.050  27.509  1.00  0.00     0.059 A 
ATOM     76  F   UNL A   1      39.615  29.314  26.724  1.00  0.00    -0.206 F 
ATOM     77  C   UNL A   1      36.632  30.171  28.542  1.00  0.00     0.060 A 
BRANCH  77  78
ATOM     78  S   UNL A   1      35.214  31.280  28.369  1.00  0.00     0.124 S 
ATOM     79  O   UNL A   1      35.763  32.339  27.531  1.00  0.00    -0.237 OA
ATOM     80  O   UNL A   1      34.223  30.415  27.738  1.00  0.00    -0.237 OA
ATOM     81  O   UNL A   1      34.915  31.663  29.746  1.00  0.00    -0.744 OA
ENDBRANCH  77  78
ENDBRANCH  45  70
BRANCH  57  82
ATOM     82  C   UNL A   1      44.091  27.480  32.622  1.00  0.00     0.058 A 
ATOM     83  C   UNL A   1      43.847  27.766  33.974  1.00  0.00     0.135 A 
ATOM     84  C   UNL A   1      44.111  26.129  32.239  1.00  0.00     0.135 A 
ATOM     85  F   UNL A   1      43.742  29.033  34.402  1.00  0.00    -0.206 F 
ATOM     86  C   UNL A   1      43.662  26.748  34.911  1.00  0.00     0.059 A 
ATOM     87  C   UNL A   1      43.901  25.101  33.149  1.00  0.00     0.059 A 
ATOM     88  F   UNL A   1      44.302  25.798  30.951  1.00  0.00    -0.206 F 
ATOM     89  C   UNL A   1      43.689  25.417  34.488  1.00  0.00     0.060 A 
BRANCH  89  90
ATOM     90  S   UNL A   1      43.377  24.102  35.685  1.00  0.00     0.124 S 
ATOM     91  O   UNL A   1      44.285  23.054  35.234  1.00  0.00    -0.237 OA
ATOM     92  O   UNL A   1      43.722  24.739  36.953  1.00  0.00    -0.237 OA
ATOM     93  O   UNL A   1      41.955  23.813  35.513  1.00  0.00    -0.744 OA
ENDBRANCH  89  90
ENDBRANCH  57  82
ENDBRANCH  31  32
ENDBRANCH  24  26
ENDBRANCH  23  24
ENDBRANCH  22  23
ENDBRANCH   1  22
TORSDOF 18
ENDMDL
