MODEL 1
REMARK VINA RESULT:     -10.1      0.000      0.000
REMARK SMILES COc1cccc(S(=O)(=O)N[C@H](CC(C)C)C(=O)OCCOC(=O)c2ccc(-c3c4nc(c(-c5c(F)cc(S(=O)(=O)[O-])cc5F)c5ccc([nH]5)c(-c5c(F)cc(S(=O)(=O)[O-])cc5F)c5nc(c(-c6c(F)cc(S(=O)(=O)[O-])cc6F)c6ccc3[nH]6)C=C5)C=C4)cc2)c1
REMARK SMILES IDX 20 1 19 2 17 3 18 4 12 5 11 6 8 8 9 9 10 10 7 11 3 12 4 13
REMARK SMILES IDX 91 14 5 15 6 16 2 17 1 18 13 19 14 20 15 21 16 22 21 23
REMARK SMILES IDX 22 24 23 25 24 26 25 27 26 28 90 29 27 30 89 31 28 32 29 33
REMARK SMILES IDX 30 34 83 35 31 36 88 37 82 38 84 39 32 40 87 41 81 42 80 43
REMARK SMILES IDX 33 45 67 46 46 47 66 48 47 49 50 50 65 51 85 52 48 53 49 54
REMARK SMILES IDX 64 56 86 57 51 58 34 59 35 60 44 61 36 62 37 63 43 64 45 65
REMARK SMILES IDX 38 66 39 67 40 68 41 69 42 70 68 71 69 72 78 73 70 74 71 75
REMARK SMILES IDX 77 76 79 77 72 78 73 79 74 80 75 81 76 82 52 83 53 84 62 85
REMARK SMILES IDX 54 86 55 87 61 88 63 89 56 90 57 91 58 92 59 93 60 94
REMARK H PARENT 11 7 84 44 50 55
REMARK Flexibility Score: inf
ROOT
ATOM      1  C   UNL A   1      31.813  29.364  26.389  1.00  0.00     0.274 C 
ENDROOT
BRANCH   1   2
ATOM      2  O   UNL A   1      32.320  28.943  25.105  1.00  0.00    -0.461 OA
BRANCH   2   3
ATOM      3  C   UNL A   1      31.442  28.300  24.286  1.00  0.00     0.324 C 
ATOM      4  O   UNL A   1      30.546  28.859  23.661  1.00  0.00    -0.250 OA
BRANCH   3   5
ATOM      5  C   UNL A   1      31.555  26.759  24.354  1.00  0.00     0.180 C 
BRANCH   5   6
ATOM      6  N   UNL A   1      31.480  26.418  22.910  1.00  0.00    -0.197 NA
ATOM      7  H   UNL A   1      30.839  25.627  22.857  1.00  0.00     0.142 HD
BRANCH   6   8
ATOM      8  S   UNL A   1      32.758  26.008  21.935  1.00  0.00     0.241 S 
ATOM      9  O   UNL A   1      33.770  27.033  22.076  1.00  0.00    -0.207 OA
ATOM     10  O   UNL A   1      32.190  25.662  20.663  1.00  0.00    -0.207 OA
BRANCH   8  11
ATOM     11  C   UNL A   1      33.390  24.500  22.629  1.00  0.00     0.086 A 
ATOM     12  C   UNL A   1      33.090  22.194  23.272  1.00  0.00     0.120 A 
ATOM     13  C   UNL A   1      34.304  22.250  23.964  1.00  0.00     0.046 A 
ATOM     14  C   UNL A   1      32.647  23.311  22.567  1.00  0.00     0.068 A 
ATOM     15  C   UNL A   1      35.055  23.426  23.994  1.00  0.00     0.005 A 
ATOM     16  C   UNL A   1      34.592  24.560  23.338  1.00  0.00     0.022 A 
BRANCH  12  17
ATOM     17  O   UNL A   1      32.433  20.996  23.354  1.00  0.00    -0.497 OA
ATOM     18  C   UNL A   1      32.197  20.513  24.672  1.00  0.00     0.278 C 
ENDBRANCH  12  17
ENDBRANCH   8  11
ENDBRANCH   6   8
ENDBRANCH   5   6
BRANCH   5  19
ATOM     19  C   UNL A   1      30.530  26.094  25.287  1.00  0.00     0.035 C 
BRANCH  19  20
ATOM     20  C   UNL A   1      31.130  25.011  26.220  1.00  0.00    -0.015 C 
ATOM     21  C   UNL A   1      30.750  23.600  25.772  1.00  0.00     0.007 C 
ATOM     22  C   UNL A   1      32.657  25.125  26.257  1.00  0.00     0.007 C 
ENDBRANCH  19  20
ENDBRANCH   5  19
ENDBRANCH   3   5
ENDBRANCH   2   3
ENDBRANCH   1   2
BRANCH   1  23
ATOM     23  C   UNL A   1      32.565  28.664  27.519  1.00  0.00     0.275 C 
BRANCH  23  24
ATOM     24  O   UNL A   1      33.976  28.878  27.363  1.00  0.00    -0.458 OA
BRANCH  24  25
ATOM     25  C   UNL A   1      34.442  30.039  27.872  1.00  0.00     0.338 C 
ATOM     26  O   UNL A   1      33.809  31.045  28.136  1.00  0.00    -0.246 OA
BRANCH  25  27
ATOM     27  C   UNL A   1      35.855  29.858  28.216  1.00  0.00     0.060 A 
ATOM     28  C   UNL A   1      36.806  30.052  27.214  1.00  0.00     0.016 A 
ATOM     29  C   UNL A   1      36.233  29.418  29.481  1.00  0.00     0.016 A 
ATOM     30  C   UNL A   1      38.139  29.754  27.449  1.00  0.00     0.010 A 
ATOM     31  C   UNL A   1      37.586  29.180  29.735  1.00  0.00     0.010 A 
ATOM     32  C   UNL A   1      38.544  29.328  28.716  1.00  0.00    -0.014 A 
BRANCH  32  33
ATOM     33  C   UNL A   1      39.972  29.025  28.965  1.00  0.00     0.031 A 
ATOM     34  C   UNL A   1      40.874  30.089  29.515  1.00  0.00     0.074 A 
ATOM     35  C   UNL A   1      40.444  27.792  28.701  1.00  0.00     0.049 A 
ATOM     36  N   UNL A   1      42.175  30.088  29.632  1.00  0.00    -0.248 NA
ATOM     37  C   UNL A   1      40.228  31.324  29.989  1.00  0.00     0.031 C 
ATOM     38  C   UNL A   1      39.641  26.663  28.220  1.00  0.00     0.029 A 
ATOM     39  N   UNL A   1      41.712  27.281  28.791  1.00  0.00    -0.354 N 
ATOM     40  C   UNL A   1      42.510  31.336  30.144  1.00  0.00     0.074 A 
ATOM     41  C   UNL A   1      41.275  32.068  30.319  1.00  0.00     0.031 C 
ATOM     42  C   UNL A   1      40.434  25.593  28.067  1.00  0.00     0.029 A 
ATOM     43  C   UNL A   1      41.810  25.978  28.363  1.00  0.00     0.049 A 
ATOM     44  H   UNL A   1      42.479  27.796  29.131  1.00  0.00     0.167 HD
ATOM     45  C   UNL A   1      43.741  31.820  30.433  1.00  0.00     0.037 A 
ATOM     46  C   UNL A   1      42.891  25.199  28.181  1.00  0.00     0.037 A 
ATOM     47  C   UNL A   1      44.955  31.059  30.282  1.00  0.00     0.049 A 
ATOM     48  C   UNL A   1      44.248  25.769  28.474  1.00  0.00     0.074 A 
ATOM     49  C   UNL A   1      46.256  31.447  30.551  1.00  0.00     0.029 A 
ATOM     50  N   UNL A   1      45.013  29.746  29.833  1.00  0.00    -0.354 N 
ATOM     51  N   UNL A   1      44.560  26.968  28.909  1.00  0.00    -0.248 NA
ATOM     52  C   UNL A   1      45.402  24.893  28.240  1.00  0.00     0.031 C 
ATOM     53  C   UNL A   1      47.103  30.379  30.232  1.00  0.00     0.029 A 
ATOM     54  C   UNL A   1      46.327  29.313  29.804  1.00  0.00     0.049 A 
ATOM     55  H   UNL A   1      44.234  29.203  29.574  1.00  0.00     0.167 HD
ATOM     56  C   UNL A   1      45.945  26.986  29.011  1.00  0.00     0.074 A 
ATOM     57  C   UNL A   1      46.409  25.673  28.607  1.00  0.00     0.031 C 
ATOM     58  C   UNL A   1      46.760  27.999  29.399  1.00  0.00     0.037 A 
BRANCH  45  59
ATOM     59  C   UNL A   1      43.839  33.246  30.896  1.00  0.00     0.058 A 
ATOM     60  C   UNL A   1      43.800  33.592  32.255  1.00  0.00     0.135 A 
ATOM     61  C   UNL A   1      43.994  34.283  29.961  1.00  0.00     0.135 A 
ATOM     62  F   UNL A   1      43.632  32.644  33.190  1.00  0.00    -0.206 F 
ATOM     63  C   UNL A   1      43.887  34.919  32.671  1.00  0.00     0.059 A 
ATOM     64  C   UNL A   1      44.106  35.614  30.355  1.00  0.00     0.059 A 
ATOM     65  F   UNL A   1      44.032  34.008  28.648  1.00  0.00    -0.206 F 
ATOM     66  C   UNL A   1      44.037  35.923  31.712  1.00  0.00     0.060 A 
BRANCH  66  67
ATOM     67  S   UNL A   1      44.145  37.639  32.262  1.00  0.00     0.124 S 
ATOM     68  O   UNL A   1      45.553  37.737  32.633  1.00  0.00    -0.237 OA
ATOM     69  O   UNL A   1      43.752  38.378  31.066  1.00  0.00    -0.237 OA
ATOM     70  O   UNL A   1      43.199  37.701  33.371  1.00  0.00    -0.744 OA
ENDBRANCH  66  67
ENDBRANCH  45  59
BRANCH  46  71
ATOM     71  C   UNL A   1      42.726  23.819  27.656  1.00  0.00     0.058 A 
ATOM     72  C   UNL A   1      42.610  22.724  28.524  1.00  0.00     0.135 A 
ATOM     73  C   UNL A   1      42.642  23.571  26.277  1.00  0.00     0.135 A 
ATOM     74  F   UNL A   1      42.691  22.909  29.851  1.00  0.00    -0.206 F 
ATOM     75  C   UNL A   1      42.418  21.432  28.046  1.00  0.00     0.059 A 
ATOM     76  C   UNL A   1      42.427  22.292  25.774  1.00  0.00     0.059 A 
ATOM     77  F   UNL A   1      42.732  24.587  25.404  1.00  0.00    -0.206 F 
ATOM     78  C   UNL A   1      42.324  21.227  26.668  1.00  0.00     0.060 A 
BRANCH  78  79
ATOM     79  S   UNL A   1      42.010  19.557  26.055  1.00  0.00     0.124 S 
ATOM     80  O   UNL A   1      42.886  19.503  24.890  1.00  0.00    -0.237 OA
ATOM     81  O   UNL A   1      42.407  18.731  27.191  1.00  0.00    -0.237 OA
ATOM     82  O   UNL A   1      40.578  19.569  25.771  1.00  0.00    -0.744 OA
ENDBRANCH  78  79
ENDBRANCH  46  71
BRANCH  58  83
ATOM     83  C   UNL A   1      48.233  27.709  29.430  1.00  0.00     0.058 A 
ATOM     84  C   UNL A   1      48.859  27.217  30.585  1.00  0.00     0.135 A 
ATOM     85  C   UNL A   1      49.015  27.889  28.279  1.00  0.00     0.135 A 
ATOM     86  F   UNL A   1      48.154  27.038  31.712  1.00  0.00    -0.206 F 
ATOM     87  C   UNL A   1      50.219  26.933  30.603  1.00  0.00     0.059 A 
ATOM     88  C   UNL A   1      50.372  27.589  28.268  1.00  0.00     0.059 A 
ATOM     89  F   UNL A   1      48.457  28.350  27.147  1.00  0.00    -0.206 F 
ATOM     90  C   UNL A   1      50.968  27.122  29.440  1.00  0.00     0.060 A 
BRANCH  90  91
ATOM     91  S   UNL A   1      52.728  26.721  29.465  1.00  0.00     0.124 S 
ATOM     92  O   UNL A   1      53.330  28.049  29.527  1.00  0.00    -0.237 OA
ATOM     93  O   UNL A   1      52.849  25.913  30.675  1.00  0.00    -0.237 OA
ATOM     94  O   UNL A   1      52.929  25.998  28.214  1.00  0.00    -0.744 OA
ENDBRANCH  90  91
ENDBRANCH  58  83
ENDBRANCH  32  33
ENDBRANCH  25  27
ENDBRANCH  24  25
ENDBRANCH  23  24
ENDBRANCH   1  23
TORSDOF 20
ENDMDL
MODEL 2
REMARK VINA RESULT:     -10.0      2.511      3.445
REMARK SMILES COc1cccc(S(=O)(=O)N[C@H](CC(C)C)C(=O)OCCOC(=O)c2ccc(-c3c4nc(c(-c5c(F)cc(S(=O)(=O)[O-])cc5F)c5ccc([nH]5)c(-c5c(F)cc(S(=O)(=O)[O-])cc5F)c5nc(c(-c6c(F)cc(S(=O)(=O)[O-])cc6F)c6ccc3[nH]6)C=C5)C=C4)cc2)c1
REMARK SMILES IDX 20 1 19 2 17 3 18 4 12 5 11 6 8 8 9 9 10 10 7 11 3 12 4 13
REMARK SMILES IDX 91 14 5 15 6 16 2 17 1 18 13 19 14 20 15 21 16 22 21 23
REMARK SMILES IDX 22 24 23 25 24 26 25 27 26 28 90 29 27 30 89 31 28 32 29 33
REMARK SMILES IDX 30 34 83 35 31 36 88 37 82 38 84 39 32 40 87 41 81 42 80 43
REMARK SMILES IDX 33 45 67 46 46 47 66 48 47 49 50 50 65 51 85 52 48 53 49 54
REMARK SMILES IDX 64 56 86 57 51 58 34 59 35 60 44 61 36 62 37 63 43 64 45 65
REMARK SMILES IDX 38 66 39 67 40 68 41 69 42 70 68 71 69 72 78 73 70 74 71 75
REMARK SMILES IDX 77 76 79 77 72 78 73 79 74 80 75 81 76 82 52 83 53 84 62 85
REMARK SMILES IDX 54 86 55 87 61 88 63 89 56 90 57 91 58 92 59 93 60 94
REMARK H PARENT 11 7 84 44 50 55
REMARK Flexibility Score: inf
ROOT
ATOM      1  C   UNL A   1      33.236  30.174  27.097  1.00  0.00     0.274 C 
ENDROOT
BRANCH   1   2
ATOM      2  O   UNL A   1      33.366  28.752  27.313  1.00  0.00    -0.461 OA
BRANCH   2   3
ATOM      3  C   UNL A   1      32.224  28.017  27.227  1.00  0.00     0.324 C 
ATOM      4  O   UNL A   1      31.309  28.065  28.042  1.00  0.00    -0.250 OA
BRANCH   3   5
ATOM      5  C   UNL A   1      32.256  26.964  26.094  1.00  0.00     0.180 C 
BRANCH   5   6
ATOM      6  N   UNL A   1      32.052  25.717  26.877  1.00  0.00    -0.197 NA
ATOM      7  H   UNL A   1      32.936  25.558  27.358  1.00  0.00     0.142 HD
BRANCH   6   8
ATOM      8  S   UNL A   1      31.618  24.238  26.263  1.00  0.00     0.241 S 
ATOM      9  O   UNL A   1      31.136  24.442  24.913  1.00  0.00    -0.207 OA
ATOM     10  O   UNL A   1      30.816  23.611  27.275  1.00  0.00    -0.207 OA
BRANCH   8  11
ATOM     11  C   UNL A   1      33.135  23.319  26.182  1.00  0.00     0.086 A 
ATOM     12  C   UNL A   1      35.498  23.200  25.709  1.00  0.00     0.120 A 
ATOM     13  C   UNL A   1      35.425  21.807  25.798  1.00  0.00     0.046 A 
ATOM     14  C   UNL A   1      34.358  23.966  25.941  1.00  0.00     0.068 A 
ATOM     15  C   UNL A   1      34.213  21.171  26.072  1.00  0.00     0.005 A 
ATOM     16  C   UNL A   1      33.060  21.926  26.250  1.00  0.00     0.022 A 
BRANCH  12  17
ATOM     17  O   UNL A   1      36.735  23.696  25.397  1.00  0.00    -0.497 OA
ATOM     18  C   UNL A   1      37.836  23.013  25.986  1.00  0.00     0.278 C 
ENDBRANCH  12  17
ENDBRANCH   8  11
ENDBRANCH   6   8
ENDBRANCH   5   6
BRANCH   5  19
ATOM     19  C   UNL A   1      33.508  27.037  25.204  1.00  0.00     0.035 C 
BRANCH  19  20
ATOM     20  C   UNL A   1      33.212  27.378  23.720  1.00  0.00    -0.015 C 
ATOM     21  C   UNL A   1      33.972  28.622  23.260  1.00  0.00     0.007 C 
ATOM     22  C   UNL A   1      33.591  26.202  22.816  1.00  0.00     0.007 C 
ENDBRANCH  19  20
ENDBRANCH   5  19
ENDBRANCH   3   5
ENDBRANCH   2   3
ENDBRANCH   1   2
BRANCH   1  23
ATOM     23  C   UNL A   1      34.396  30.925  27.747  1.00  0.00     0.275 C 
BRANCH  23  24
ATOM     24  O   UNL A   1      35.329  29.984  28.300  1.00  0.00    -0.458 OA
BRANCH  24  25
ATOM     25  C   UNL A   1      36.159  30.482  29.241  1.00  0.00     0.338 C 
ATOM     26  O   UNL A   1      35.867  31.155  30.213  1.00  0.00    -0.246 OA
BRANCH  25  27
ATOM     27  C   UNL A   1      37.504  29.952  28.997  1.00  0.00     0.060 A 
ATOM     28  C   UNL A   1      38.302  29.649  30.100  1.00  0.00     0.016 A 
ATOM     29  C   UNL A   1      38.003  29.838  27.704  1.00  0.00     0.016 A 
ATOM     30  C   UNL A   1      39.627  29.283  29.924  1.00  0.00     0.010 A 
ATOM     31  C   UNL A   1      39.321  29.407  27.525  1.00  0.00     0.010 A 
ATOM     32  C   UNL A   1      40.145  29.144  28.635  1.00  0.00    -0.014 A 
BRANCH  32  33
ATOM     33  C   UNL A   1      41.558  28.739  28.452  1.00  0.00     0.031 A 
ATOM     34  C   UNL A   1      42.645  29.769  28.541  1.00  0.00     0.074 A 
ATOM     35  C   UNL A   1      41.852  27.447  28.215  1.00  0.00     0.049 A 
ATOM     36  N   UNL A   1      43.910  29.661  28.234  1.00  0.00    -0.248 NA
ATOM     37  C   UNL A   1      42.255  31.102  29.030  1.00  0.00     0.031 C 
ATOM     38  C   UNL A   1      40.878  26.352  28.168  1.00  0.00     0.029 A 
ATOM     39  N   UNL A   1      43.051  26.834  27.961  1.00  0.00    -0.354 N 
ATOM     40  C   UNL A   1      44.459  30.920  28.445  1.00  0.00     0.074 A 
ATOM     41  C   UNL A   1      43.389  31.777  28.907  1.00  0.00     0.031 C 
ATOM     42  C   UNL A   1      41.520  25.203  27.911  1.00  0.00     0.029 A 
ATOM     43  C   UNL A   1      42.934  25.490  27.698  1.00  0.00     0.049 A 
ATOM     44  H   UNL A   1      43.912  27.310  27.967  1.00  0.00     0.167 HD
ATOM     45  C   UNL A   1      45.740  31.317  28.258  1.00  0.00     0.037 A 
ATOM     46  C   UNL A   1      43.854  24.599  27.284  1.00  0.00     0.037 A 
ATOM     47  C   UNL A   1      46.795  30.436  27.829  1.00  0.00     0.049 A 
ATOM     48  C   UNL A   1      45.260  25.071  27.051  1.00  0.00     0.074 A 
ATOM     49  C   UNL A   1      48.131  30.729  27.614  1.00  0.00     0.029 A 
ATOM     50  N   UNL A   1      46.634  29.083  27.561  1.00  0.00    -0.354 N 
ATOM     51  N   UNL A   1      45.759  26.276  27.202  1.00  0.00    -0.248 NA
ATOM     52  C   UNL A   1      46.226  24.072  26.577  1.00  0.00     0.031 C 
ATOM     53  C   UNL A   1      48.770  29.561  27.184  1.00  0.00     0.029 A 
ATOM     54  C   UNL A   1      47.842  28.530  27.170  1.00  0.00     0.049 A 
ATOM     55  H   UNL A   1      45.786  28.590  27.637  1.00  0.00     0.167 HD
ATOM     56  C   UNL A   1      47.100  26.177  26.853  1.00  0.00     0.074 A 
ATOM     57  C   UNL A   1      47.336  24.792  26.498  1.00  0.00     0.031 C 
ATOM     58  C   UNL A   1      48.049  27.146  26.824  1.00  0.00     0.037 A 
BRANCH  45  59
ATOM     59  C   UNL A   1      46.059  32.769  28.475  1.00  0.00     0.058 A 
ATOM     60  C   UNL A   1      45.925  33.722  27.454  1.00  0.00     0.135 A 
ATOM     61  C   UNL A   1      46.488  33.218  29.736  1.00  0.00     0.135 A 
ATOM     62  F   UNL A   1      45.539  33.346  26.224  1.00  0.00    -0.206 F 
ATOM     63  C   UNL A   1      46.228  35.065  27.667  1.00  0.00     0.059 A 
ATOM     64  C   UNL A   1      46.774  34.558  29.977  1.00  0.00     0.059 A 
ATOM     65  F   UNL A   1      46.638  32.348  30.746  1.00  0.00    -0.206 F 
ATOM     66  C   UNL A   1      46.655  35.472  28.932  1.00  0.00     0.060 A 
BRANCH  66  67
ATOM     67  S   UNL A   1      47.049  37.214  29.196  1.00  0.00     0.124 S 
ATOM     68  O   UNL A   1      45.884  37.868  28.607  1.00  0.00    -0.237 OA
ATOM     69  O   UNL A   1      47.154  37.297  30.650  1.00  0.00    -0.237 OA
ATOM     70  O   UNL A   1      48.302  37.393  28.471  1.00  0.00    -0.744 OA
ENDBRANCH  66  67
ENDBRANCH  45  59
BRANCH  46  71
ATOM     71  C   UNL A   1      43.454  23.192  27.025  1.00  0.00     0.058 A 
ATOM     72  C   UNL A   1      43.191  22.310  28.082  1.00  0.00     0.135 A 
ATOM     73  C   UNL A   1      43.289  22.713  25.716  1.00  0.00     0.135 A 
ATOM     74  F   UNL A   1      43.342  22.719  29.351  1.00  0.00    -0.206 F 
ATOM     75  C   UNL A   1      42.781  21.000  27.852  1.00  0.00     0.059 A 
ATOM     76  C   UNL A   1      42.856  21.416  25.460  1.00  0.00     0.059 A 
ATOM     77  F   UNL A   1      43.513  23.523  24.670  1.00  0.00    -0.206 F 
ATOM     78  C   UNL A   1      42.611  20.564  26.537  1.00  0.00     0.060 A 
BRANCH  78  79
ATOM     79  S   UNL A   1      42.016  18.884  26.245  1.00  0.00     0.124 S 
ATOM     80  O   UNL A   1      42.170  18.285  27.566  1.00  0.00    -0.237 OA
ATOM     81  O   UNL A   1      40.644  19.114  25.805  1.00  0.00    -0.237 OA
ATOM     82  O   UNL A   1      42.920  18.384  25.214  1.00  0.00    -0.744 OA
ENDBRANCH  78  79
ENDBRANCH  46  71
BRANCH  58  83
ATOM     83  C   UNL A   1      49.433  26.727  26.420  1.00  0.00     0.058 A 
ATOM     84  C   UNL A   1      50.311  26.123  27.332  1.00  0.00     0.135 A 
ATOM     85  C   UNL A   1      49.867  26.898  25.097  1.00  0.00     0.135 A 
ATOM     86  F   UNL A   1      49.943  25.947  28.610  1.00  0.00    -0.206 F 
ATOM     87  C   UNL A   1      51.585  25.720  26.948  1.00  0.00     0.059 A 
ATOM     88  C   UNL A   1      51.127  26.481  24.686  1.00  0.00     0.059 A 
ATOM     89  F   UNL A   1      49.057  27.464  24.186  1.00  0.00    -0.206 F 
ATOM     90  C   UNL A   1      51.984  25.903  25.623  1.00  0.00     0.060 A 
BRANCH  90  91
ATOM     91  S   UNL A   1      53.630  25.349  25.128  1.00  0.00     0.124 S 
ATOM     92  O   UNL A   1      54.484  26.172  25.978  1.00  0.00    -0.237 OA
ATOM     93  O   UNL A   1      53.593  23.927  25.454  1.00  0.00    -0.237 OA
ATOM     94  O   UNL A   1      53.676  25.657  23.702  1.00  0.00    -0.744 OA
ENDBRANCH  90  91
ENDBRANCH  58  83
ENDBRANCH  32  33
ENDBRANCH  25  27
ENDBRANCH  24  25
ENDBRANCH  23  24
ENDBRANCH   1  23
TORSDOF 20
ENDMDL
MODEL 3
REMARK VINA RESULT:     -10.0      3.362      9.506
REMARK SMILES COc1cccc(S(=O)(=O)N[C@H](CC(C)C)C(=O)OCCOC(=O)c2ccc(-c3c4nc(c(-c5c(F)cc(S(=O)(=O)[O-])cc5F)c5ccc([nH]5)c(-c5c(F)cc(S(=O)(=O)[O-])cc5F)c5nc(c(-c6c(F)cc(S(=O)(=O)[O-])cc6F)c6ccc3[nH]6)C=C5)C=C4)cc2)c1
REMARK SMILES IDX 20 1 19 2 17 3 18 4 12 5 11 6 8 8 9 9 10 10 7 11 3 12 4 13
REMARK SMILES IDX 91 14 5 15 6 16 2 17 1 18 13 19 14 20 15 21 16 22 21 23
REMARK SMILES IDX 22 24 23 25 24 26 25 27 26 28 90 29 27 30 89 31 28 32 29 33
REMARK SMILES IDX 30 34 83 35 31 36 88 37 82 38 84 39 32 40 87 41 81 42 80 43
REMARK SMILES IDX 33 45 67 46 46 47 66 48 47 49 50 50 65 51 85 52 48 53 49 54
REMARK SMILES IDX 64 56 86 57 51 58 34 59 35 60 44 61 36 62 37 63 43 64 45 65
REMARK SMILES IDX 38 66 39 67 40 68 41 69 42 70 68 71 69 72 78 73 70 74 71 75
REMARK SMILES IDX 77 76 79 77 72 78 73 79 74 80 75 81 76 82 52 83 53 84 62 85
REMARK SMILES IDX 54 86 55 87 61 88 63 89 56 90 57 91 58 92 59 93 60 94
REMARK H PARENT 11 7 84 44 50 55
REMARK Flexibility Score: inf
ROOT
ATOM      1  C   UNL A   1      36.269  21.067  25.342  1.00  0.00     0.274 C 
ENDROOT
BRANCH   1   2
ATOM      2  O   UNL A   1      35.094  20.909  24.518  1.00  0.00    -0.461 OA
BRANCH   2   3
ATOM      3  C   UNL A   1      33.891  21.023  25.145  1.00  0.00     0.324 C 
ATOM      4  O   UNL A   1      33.377  20.135  25.819  1.00  0.00    -0.250 OA
BRANCH   3   5
ATOM      5  C   UNL A   1      33.129  22.319  24.781  1.00  0.00     0.180 C 
BRANCH   5   6
ATOM      6  N   UNL A   1      31.847  22.090  25.496  1.00  0.00    -0.197 NA
ATOM      7  H   UNL A   1      31.138  22.053  24.764  1.00  0.00     0.142 HD
BRANCH   6   8
ATOM      8  S   UNL A   1      31.202  23.058  26.679  1.00  0.00     0.241 S 
ATOM      9  O   UNL A   1      32.088  23.012  27.822  1.00  0.00    -0.207 OA
ATOM     10  O   UNL A   1      29.815  22.697  26.771  1.00  0.00    -0.207 OA
BRANCH   8  11
ATOM     11  C   UNL A   1      31.251  24.697  25.998  1.00  0.00     0.086 A 
ATOM     12  C   UNL A   1      31.980  26.995  26.101  1.00  0.00     0.120 A 
ATOM     13  C   UNL A   1      31.085  27.303  25.072  1.00  0.00     0.046 A 
ATOM     14  C   UNL A   1      32.095  25.679  26.542  1.00  0.00     0.068 A 
ATOM     15  C   UNL A   1      30.273  26.316  24.511  1.00  0.00     0.005 A 
ATOM     16  C   UNL A   1      30.343  25.012  24.984  1.00  0.00     0.022 A 
BRANCH  12  17
ATOM     17  O   UNL A   1      32.689  28.059  26.590  1.00  0.00    -0.497 OA
ATOM     18  C   UNL A   1      31.909  29.159  27.045  1.00  0.00     0.278 C 
ENDBRANCH  12  17
ENDBRANCH   8  11
ENDBRANCH   6   8
ENDBRANCH   5   6
BRANCH   5  19
ATOM     19  C   UNL A   1      33.052  22.599  23.271  1.00  0.00     0.035 C 
BRANCH  19  20
ATOM     20  C   UNL A   1      33.787  23.890  22.827  1.00  0.00    -0.015 C 
ATOM     21  C   UNL A   1      32.831  24.900  22.192  1.00  0.00     0.007 C 
ATOM     22  C   UNL A   1      34.481  24.548  24.023  1.00  0.00     0.007 C 
ENDBRANCH  19  20
ENDBRANCH   5  19
ENDBRANCH   3   5
ENDBRANCH   2   3
ENDBRANCH   1   2
BRANCH   1  23
ATOM     23  C   UNL A   1      37.274  22.000  24.671  1.00  0.00     0.275 C 
BRANCH  23  24
ATOM     24  O   UNL A   1      37.669  23.026  25.595  1.00  0.00    -0.458 OA
BRANCH  24  25
ATOM     25  C   UNL A   1      38.948  22.952  26.024  1.00  0.00     0.338 C 
ATOM     26  O   UNL A   1      39.781  22.109  25.746  1.00  0.00    -0.246 OA
BRANCH  25  27
ATOM     27  C   UNL A   1      39.248  24.167  26.787  1.00  0.00     0.060 A 
ATOM     28  C   UNL A   1      40.148  25.083  26.241  1.00  0.00     0.016 A 
ATOM     29  C   UNL A   1      38.721  24.359  28.060  1.00  0.00     0.016 A 
ATOM     30  C   UNL A   1      40.574  26.172  26.985  1.00  0.00     0.010 A 
ATOM     31  C   UNL A   1      39.102  25.493  28.784  1.00  0.00     0.010 A 
ATOM     32  C   UNL A   1      40.045  26.395  28.258  1.00  0.00    -0.014 A 
BRANCH  32  33
ATOM     33  C   UNL A   1      40.493  27.569  29.042  1.00  0.00     0.031 A 
ATOM     34  C   UNL A   1      41.824  27.537  29.733  1.00  0.00     0.074 A 
ATOM     35  C   UNL A   1      39.702  28.656  29.120  1.00  0.00     0.049 A 
ATOM     36  N   UNL A   1      42.318  28.371  30.608  1.00  0.00    -0.248 NA
ATOM     37  C   UNL A   1      42.713  26.411  29.404  1.00  0.00     0.031 C 
ATOM     38  C   UNL A   1      38.415  28.817  28.438  1.00  0.00     0.029 A 
ATOM     39  N   UNL A   1      39.859  29.828  29.813  1.00  0.00    -0.354 N 
ATOM     40  C   UNL A   1      43.553  27.849  30.973  1.00  0.00     0.074 A 
ATOM     41  C   UNL A   1      43.735  26.626  30.222  1.00  0.00     0.031 C 
ATOM     42  C   UNL A   1      37.905  30.020  28.739  1.00  0.00     0.029 A 
ATOM     43  C   UNL A   1      38.788  30.681  29.694  1.00  0.00     0.049 A 
ATOM     44  H   UNL A   1      40.661  30.038  30.343  1.00  0.00     0.167 HD
ATOM     45  C   UNL A   1      44.445  28.349  31.861  1.00  0.00     0.037 A 
ATOM     46  C   UNL A   1      38.524  31.842  30.321  1.00  0.00     0.037 A 
ATOM     47  C   UNL A   1      44.257  29.588  32.571  1.00  0.00     0.049 A 
ATOM     48  C   UNL A   1      39.511  32.358  31.327  1.00  0.00     0.074 A 
ATOM     49  C   UNL A   1      45.098  30.193  33.489  1.00  0.00     0.029 A 
ATOM     50  N   UNL A   1      43.153  30.418  32.432  1.00  0.00    -0.354 N 
ATOM     51  N   UNL A   1      40.653  31.831  31.704  1.00  0.00    -0.248 NA
ATOM     52  C   UNL A   1      39.174  33.616  32.005  1.00  0.00     0.031 C 
ATOM     53  C   UNL A   1      44.486  31.372  33.929  1.00  0.00     0.029 A 
ATOM     54  C   UNL A   1      43.284  31.522  33.256  1.00  0.00     0.049 A 
ATOM     55  H   UNL A   1      42.389  30.246  31.836  1.00  0.00     0.167 HD
ATOM     56  C   UNL A   1      41.175  32.698  32.655  1.00  0.00     0.074 A 
ATOM     57  C   UNL A   1      40.231  33.792  32.784  1.00  0.00     0.031 C 
ATOM     58  C   UNL A   1      42.328  32.597  33.362  1.00  0.00     0.037 A 
BRANCH  45  59
ATOM     59  C   UNL A   1      45.678  27.537  32.144  1.00  0.00     0.058 A 
ATOM     60  C   UNL A   1      45.716  26.569  33.159  1.00  0.00     0.135 A 
ATOM     61  C   UNL A   1      46.836  27.720  31.370  1.00  0.00     0.135 A 
ATOM     62  F   UNL A   1      44.645  26.368  33.942  1.00  0.00    -0.206 F 
ATOM     63  C   UNL A   1      46.867  25.827  33.413  1.00  0.00     0.059 A 
ATOM     64  C   UNL A   1      47.990  26.973  31.592  1.00  0.00     0.059 A 
ATOM     65  F   UNL A   1      46.856  28.636  30.390  1.00  0.00    -0.206 F 
ATOM     66  C   UNL A   1      48.000  26.039  32.625  1.00  0.00     0.060 A 
BRANCH  66  67
ATOM     67  S   UNL A   1      49.487  25.074  32.967  1.00  0.00     0.124 S 
ATOM     68  O   UNL A   1      48.938  23.953  33.725  1.00  0.00    -0.237 OA
ATOM     69  O   UNL A   1      49.970  24.755  31.627  1.00  0.00    -0.237 OA
ATOM     70  O   UNL A   1      50.324  25.995  33.727  1.00  0.00    -0.744 OA
ENDBRANCH  66  67
ENDBRANCH  45  59
BRANCH  46  71
ATOM     71  C   UNL A   1      37.253  32.559  30.041  1.00  0.00     0.058 A 
ATOM     72  C   UNL A   1      36.071  32.223  30.716  1.00  0.00     0.135 A 
ATOM     73  C   UNL A   1      37.204  33.619  29.122  1.00  0.00     0.135 A 
ATOM     74  F   UNL A   1      36.066  31.213  31.598  1.00  0.00    -0.206 F 
ATOM     75  C   UNL A   1      34.883  32.911  30.489  1.00  0.00     0.059 A 
ATOM     76  C   UNL A   1      36.035  34.338  28.895  1.00  0.00     0.059 A 
ATOM     77  F   UNL A   1      38.312  33.989  28.462  1.00  0.00    -0.206 F 
ATOM     78  C   UNL A   1      34.876  33.971  29.579  1.00  0.00     0.060 A 
BRANCH  78  79
ATOM     79  S   UNL A   1      33.348  34.902  29.337  1.00  0.00     0.124 S 
ATOM     80  O   UNL A   1      33.858  36.190  28.884  1.00  0.00    -0.237 OA
ATOM     81  O   UNL A   1      32.654  34.101  28.333  1.00  0.00    -0.237 OA
ATOM     82  O   UNL A   1      32.738  34.893  30.663  1.00  0.00    -0.744 OA
ENDBRANCH  78  79
ENDBRANCH  46  71
BRANCH  58  83
ATOM     83  C   UNL A   1      42.640  33.715  34.315  1.00  0.00     0.058 A 
ATOM     84  C   UNL A   1      43.237  34.906  33.876  1.00  0.00     0.135 A 
ATOM     85  C   UNL A   1      42.299  33.606  35.671  1.00  0.00     0.135 A 
ATOM     86  F   UNL A   1      43.589  35.052  32.590  1.00  0.00    -0.206 F 
ATOM     87  C   UNL A   1      43.506  35.946  34.758  1.00  0.00     0.059 A 
ATOM     88  C   UNL A   1      42.538  34.643  36.566  1.00  0.00     0.059 A 
ATOM     89  F   UNL A   1      41.717  32.488  36.136  1.00  0.00    -0.206 F 
ATOM     90  C   UNL A   1      43.153  35.805  36.101  1.00  0.00     0.060 A 
BRANCH  90  91
ATOM     91  S   UNL A   1      43.480  37.173  37.234  1.00  0.00     0.124 S 
ATOM     92  O   UNL A   1      43.813  38.248  36.305  1.00  0.00    -0.237 OA
ATOM     93  O   UNL A   1      42.206  37.313  37.934  1.00  0.00    -0.237 OA
ATOM     94  O   UNL A   1      44.585  36.681  38.050  1.00  0.00    -0.744 OA
ENDBRANCH  90  91
ENDBRANCH  58  83
ENDBRANCH  32  33
ENDBRANCH  25  27
ENDBRANCH  24  25
ENDBRANCH  23  24
ENDBRANCH   1  23
TORSDOF 20
ENDMDL
