MODEL 1
REMARK VINA RESULT:      -9.3      0.000      0.000
REMARK SMILES C=CCCCOC(F)(F)C(=O)OCCOC(=O)c1ccc(-c2c3nc(c(-c4c(F)cc(S(=O)(=O)[O-])cc4F)c4ccc([nH]4)c(-c4c(F)cc(S(=O)(=O)[O-])cc4F)c4nc(c(-c5c(F)cc(S(=O)(=O)[O-])cc5F)c5ccc2[nH]5)C=C4)C=C3)cc1
REMARK SMILES IDX 13 1 12 2 10 3 11 4 7 5 8 6 9 7 6 8 5 9 4 10 3 11 2 12 1 13
REMARK SMILES IDX 14 14 15 15 16 16 17 17 18 18 19 19 83 20 20 21 82 22 21 23
REMARK SMILES IDX 22 24 23 25 76 26 24 27 81 28 75 29 77 30 25 31 80 32 74 33
REMARK SMILES IDX 73 34 26 36 60 37 39 38 59 39 40 40 43 41 58 42 78 43 41 44
REMARK SMILES IDX 42 45 57 47 79 48 44 49 27 50 28 51 37 52 29 53 30 54 36 55
REMARK SMILES IDX 38 56 31 57 32 58 33 59 34 60 35 61 61 62 62 63 71 64 63 65
REMARK SMILES IDX 64 66 70 67 72 68 65 69 66 70 67 71 68 72 69 73 45 74 46 75
REMARK SMILES IDX 55 76 47 77 48 78 54 79 56 80 49 81 50 82 51 83 52 84 53 85
REMARK H PARENT 77 35 43 46
REMARK Flexibility Score: inf
ROOT
ATOM      1  C   UNL A   1      34.508  34.185  29.064  1.00  0.00     0.275 C 
ENDROOT
BRANCH   1   2
ATOM      2  O   UNL A   1      33.217  34.317  29.689  1.00  0.00    -0.456 OA
BRANCH   2   3
ATOM      3  C   UNL A   1      32.859  35.575  30.094  1.00  0.00     0.408 C 
ATOM      4  O   UNL A   1      32.452  36.448  29.331  1.00  0.00    -0.242 OA
BRANCH   3   5
ATOM      5  C   UNL A   1      32.991  35.747  31.624  1.00  0.00     0.456 C 
ATOM      6  F   UNL A   1      31.852  36.282  32.151  1.00  0.00    -0.164 F 
ATOM      7  F   UNL A   1      33.998  36.593  31.976  1.00  0.00    -0.164 F 
BRANCH   5   8
ATOM      8  O   UNL A   1      33.250  34.490  32.239  1.00  0.00    -0.311 OA
BRANCH   8   9
ATOM      9  C   UNL A   1      34.556  34.282  32.748  1.00  0.00     0.168 C 
BRANCH   9  10
ATOM     10  C   UNL A   1      34.990  32.831  32.544  1.00  0.00     0.033 C 
BRANCH  10  11
ATOM     11  C   UNL A   1      36.349  32.661  31.858  1.00  0.00     0.029 C 
BRANCH  11  12
ATOM     12  C   UNL A   1      37.145  33.934  31.761  1.00  0.00    -0.035 C 
ATOM     13  C   UNL A   1      38.285  34.163  32.424  1.00  0.00     0.004 C 
ENDBRANCH  11  12
ENDBRANCH  10  11
ENDBRANCH   9  10
ENDBRANCH   8   9
ENDBRANCH   5   8
ENDBRANCH   3   5
ENDBRANCH   2   3
ENDBRANCH   1   2
BRANCH   1  14
ATOM     14  C   UNL A   1      34.547  32.982  28.119  1.00  0.00     0.275 C 
BRANCH  14  15
ATOM     15  O   UNL A   1      34.378  31.738  28.826  1.00  0.00    -0.458 OA
BRANCH  15  16
ATOM     16  C   UNL A   1      34.551  30.624  28.081  1.00  0.00     0.338 C 
ATOM     17  O   UNL A   1      33.749  30.143  27.288  1.00  0.00    -0.246 OA
BRANCH  16  18
ATOM     18  C   UNL A   1      35.909  30.099  28.271  1.00  0.00     0.060 A 
ATOM     19  C   UNL A   1      36.284  29.665  29.544  1.00  0.00     0.016 A 
ATOM     20  C   UNL A   1      36.837  30.117  27.230  1.00  0.00     0.016 A 
ATOM     21  C   UNL A   1      37.599  29.290  29.799  1.00  0.00     0.010 A 
ATOM     22  C   UNL A   1      38.151  29.706  27.478  1.00  0.00     0.010 A 
ATOM     23  C   UNL A   1      38.546  29.307  28.769  1.00  0.00    -0.014 A 
BRANCH  23  24
ATOM     24  C   UNL A   1      39.958  28.949  29.047  1.00  0.00     0.031 A 
ATOM     25  C   UNL A   1      40.876  29.967  29.664  1.00  0.00     0.074 A 
ATOM     26  C   UNL A   1      40.411  27.712  28.762  1.00  0.00     0.049 A 
ATOM     27  N   UNL A   1      42.172  29.923  29.820  1.00  0.00    -0.248 NA
ATOM     28  C   UNL A   1      40.249  31.200  30.167  1.00  0.00     0.031 C 
ATOM     29  C   UNL A   1      39.601  26.616  28.227  1.00  0.00     0.029 A 
ATOM     30  N   UNL A   1      41.667  27.172  28.877  1.00  0.00    -0.354 N 
ATOM     31  C   UNL A   1      42.525  31.134  30.407  1.00  0.00     0.074 A 
ATOM     32  C   UNL A   1      41.303  31.893  30.576  1.00  0.00     0.031 C 
ATOM     33  C   UNL A   1      40.379  25.532  28.069  1.00  0.00     0.029 A 
ATOM     34  C   UNL A   1      41.751  25.877  28.425  1.00  0.00     0.049 A 
ATOM     35  H   UNL A   1      42.434  27.664  29.249  1.00  0.00     0.167 HD
ATOM     36  C   UNL A   1      43.756  31.569  30.766  1.00  0.00     0.037 A 
ATOM     37  C   UNL A   1      42.822  25.072  28.276  1.00  0.00     0.037 A 
ATOM     38  C   UNL A   1      44.959  30.793  30.616  1.00  0.00     0.049 A 
ATOM     39  C   UNL A   1      44.185  25.596  28.634  1.00  0.00     0.074 A 
ATOM     40  C   UNL A   1      46.262  31.154  30.910  1.00  0.00     0.029 A 
ATOM     41  N   UNL A   1      45.003  29.489  30.145  1.00  0.00    -0.354 N 
ATOM     42  N   UNL A   1      44.515  26.770  29.115  1.00  0.00    -0.248 NA
ATOM     43  C   UNL A   1      45.324  24.694  28.414  1.00  0.00     0.031 C 
ATOM     44  C   UNL A   1      47.096  30.074  30.600  1.00  0.00     0.029 A 
ATOM     45  C   UNL A   1      46.308  29.030  30.144  1.00  0.00     0.049 A 
ATOM     46  H   UNL A   1      44.220  28.967  29.853  1.00  0.00     0.167 HD
ATOM     47  C   UNL A   1      45.895  26.740  29.279  1.00  0.00     0.074 A 
ATOM     48  C   UNL A   1      46.339  25.429  28.851  1.00  0.00     0.031 C 
ATOM     49  C   UNL A   1      46.721  27.710  29.741  1.00  0.00     0.037 A 
BRANCH  36  50
ATOM     50  C   UNL A   1      43.867  32.957  31.330  1.00  0.00     0.058 A 
ATOM     51  C   UNL A   1      43.859  34.092  30.506  1.00  0.00     0.135 A 
ATOM     52  C   UNL A   1      43.950  33.155  32.719  1.00  0.00     0.135 A 
ATOM     53  F   UNL A   1      43.800  33.957  29.172  1.00  0.00    -0.206 F 
ATOM     54  C   UNL A   1      43.948  35.375  31.035  1.00  0.00     0.059 A 
ATOM     55  C   UNL A   1      44.019  34.430  33.271  1.00  0.00     0.059 A 
ATOM     56  F   UNL A   1      43.965  32.102  33.552  1.00  0.00    -0.206 F 
ATOM     57  C   UNL A   1      44.031  35.534  32.420  1.00  0.00     0.060 A 
BRANCH  57  58
ATOM     58  S   UNL A   1      44.144  37.204  33.097  1.00  0.00     0.124 S 
ATOM     59  O   UNL A   1      45.261  37.065  34.028  1.00  0.00    -0.237 OA
ATOM     60  O   UNL A   1      44.407  38.009  31.908  1.00  0.00    -0.237 OA
ATOM     61  O   UNL A   1      42.838  37.411  33.713  1.00  0.00    -0.744 OA
ENDBRANCH  57  58
ENDBRANCH  36  50
BRANCH  37  62
ATOM     62  C   UNL A   1      42.653  23.700  27.727  1.00  0.00     0.058 A 
ATOM     63  C   UNL A   1      42.635  23.473  26.344  1.00  0.00     0.135 A 
ATOM     64  C   UNL A   1      42.504  22.591  28.574  1.00  0.00     0.135 A 
ATOM     65  F   UNL A   1      42.765  24.503  25.494  1.00  0.00    -0.206 F 
ATOM     66  C   UNL A   1      42.456  22.198  25.817  1.00  0.00     0.059 A 
ATOM     67  C   UNL A   1      42.349  21.303  28.072  1.00  0.00     0.059 A 
ATOM     68  F   UNL A   1      42.527  22.753  29.907  1.00  0.00    -0.206 F 
ATOM     69  C   UNL A   1      42.311  21.118  26.691  1.00  0.00     0.060 A 
BRANCH  69  70
ATOM     70  S   UNL A   1      42.114  19.459  26.004  1.00  0.00     0.124 S 
ATOM     71  O   UNL A   1      42.959  19.533  24.818  1.00  0.00    -0.237 OA
ATOM     72  O   UNL A   1      42.606  18.614  27.087  1.00  0.00    -0.237 OA
ATOM     73  O   UNL A   1      40.678  19.372  25.754  1.00  0.00    -0.744 OA
ENDBRANCH  69  70
ENDBRANCH  37  62
BRANCH  49  74
ATOM     74  C   UNL A   1      48.179  27.374  29.862  1.00  0.00     0.058 A 
ATOM     75  C   UNL A   1      49.089  27.665  28.836  1.00  0.00     0.135 A 
ATOM     76  C   UNL A   1      48.677  26.814  31.049  1.00  0.00     0.135 A 
ATOM     77  F   UNL A   1      48.659  28.193  27.679  1.00  0.00    -0.206 F 
ATOM     78  C   UNL A   1      50.448  27.403  28.979  1.00  0.00     0.059 A 
ATOM     79  C   UNL A   1      50.034  26.562  31.221  1.00  0.00     0.059 A 
ATOM     80  F   UNL A   1      47.844  26.525  32.062  1.00  0.00    -0.206 F 
ATOM     81  C   UNL A   1      50.911  26.853  30.177  1.00  0.00     0.060 A 
BRANCH  81  82
ATOM     82  S   UNL A   1      52.683  26.566  30.373  1.00  0.00     0.124 S 
ATOM     83  O   UNL A   1      52.698  25.462  31.328  1.00  0.00    -0.237 OA
ATOM     84  O   UNL A   1      53.100  26.234  29.014  1.00  0.00    -0.237 OA
ATOM     85  O   UNL A   1      53.178  27.842  30.879  1.00  0.00    -0.744 OA
ENDBRANCH  81  82
ENDBRANCH  49  74
ENDBRANCH  23  24
ENDBRANCH  16  18
ENDBRANCH  15  16
ENDBRANCH  14  15
ENDBRANCH   1  14
TORSDOF 19
ENDMDL
MODEL 2
REMARK VINA RESULT:      -9.2      3.045      4.800
REMARK SMILES C=CCCCOC(F)(F)C(=O)OCCOC(=O)c1ccc(-c2c3nc(c(-c4c(F)cc(S(=O)(=O)[O-])cc4F)c4ccc([nH]4)c(-c4c(F)cc(S(=O)(=O)[O-])cc4F)c4nc(c(-c5c(F)cc(S(=O)(=O)[O-])cc5F)c5ccc2[nH]5)C=C4)C=C3)cc1
REMARK SMILES IDX 13 1 12 2 10 3 11 4 7 5 8 6 9 7 6 8 5 9 4 10 3 11 2 12 1 13
REMARK SMILES IDX 14 14 15 15 16 16 17 17 18 18 19 19 83 20 20 21 82 22 21 23
REMARK SMILES IDX 22 24 23 25 76 26 24 27 81 28 75 29 77 30 25 31 80 32 74 33
REMARK SMILES IDX 73 34 26 36 60 37 39 38 59 39 40 40 43 41 58 42 78 43 41 44
REMARK SMILES IDX 42 45 57 47 79 48 44 49 27 50 28 51 37 52 29 53 30 54 36 55
REMARK SMILES IDX 38 56 31 57 32 58 33 59 34 60 35 61 61 62 62 63 71 64 63 65
REMARK SMILES IDX 64 66 70 67 72 68 65 69 66 70 67 71 68 72 69 73 45 74 46 75
REMARK SMILES IDX 55 76 47 77 48 78 54 79 56 80 49 81 50 82 51 83 52 84 53 85
REMARK H PARENT 77 35 43 46
REMARK Flexibility Score: inf
ROOT
ATOM      1  C   UNL A   1      33.554  28.386  25.365  1.00  0.00     0.275 C 
ENDROOT
BRANCH   1   2
ATOM      2  O   UNL A   1      32.831  27.429  24.568  1.00  0.00    -0.456 OA
BRANCH   2   3
ATOM      3  C   UNL A   1      32.280  27.894  23.404  1.00  0.00     0.408 C 
ATOM      4  O   UNL A   1      32.871  27.908  22.326  1.00  0.00    -0.242 OA
BRANCH   3   5
ATOM      5  C   UNL A   1      30.821  28.360  23.603  1.00  0.00     0.456 C 
ATOM      6  F   UNL A   1      30.780  29.583  24.205  1.00  0.00    -0.164 F 
ATOM      7  F   UNL A   1      30.103  27.525  24.405  1.00  0.00    -0.164 F 
BRANCH   5   8
ATOM      8  O   UNL A   1      30.153  28.430  22.348  1.00  0.00    -0.311 OA
BRANCH   8   9
ATOM      9  C   UNL A   1      29.535  29.661  22.017  1.00  0.00     0.168 C 
BRANCH   9  10
ATOM     10  C   UNL A   1      28.111  29.717  22.573  1.00  0.00     0.033 C 
BRANCH  10  11
ATOM     11  C   UNL A   1      27.656  31.109  23.022  1.00  0.00     0.029 C 
BRANCH  11  12
ATOM     12  C   UNL A   1      28.786  32.024  23.409  1.00  0.00    -0.035 C 
ATOM     13  C   UNL A   1      28.874  33.309  23.045  1.00  0.00     0.004 C 
ENDBRANCH  11  12
ENDBRANCH  10  11
ENDBRANCH   9  10
ENDBRANCH   8   9
ENDBRANCH   5   8
ENDBRANCH   3   5
ENDBRANCH   2   3
ENDBRANCH   1   2
BRANCH   1  14
ATOM     14  C   UNL A   1      32.836  28.662  26.689  1.00  0.00     0.275 C 
BRANCH  14  15
ATOM     15  O   UNL A   1      33.762  28.802  27.783  1.00  0.00    -0.458 OA
BRANCH  15  16
ATOM     16  C   UNL A   1      34.350  30.013  27.889  1.00  0.00     0.338 C 
ATOM     17  O   UNL A   1      33.794  31.105  27.824  1.00  0.00    -0.246 OA
BRANCH  16  18
ATOM     18  C   UNL A   1      35.775  29.853  28.204  1.00  0.00     0.060 A 
ATOM     19  C   UNL A   1      36.709  30.033  27.182  1.00  0.00     0.016 A 
ATOM     20  C   UNL A   1      36.188  29.440  29.471  1.00  0.00     0.016 A 
ATOM     21  C   UNL A   1      38.054  29.758  27.403  1.00  0.00     0.010 A 
ATOM     22  C   UNL A   1      37.546  29.197  29.703  1.00  0.00     0.010 A 
ATOM     23  C   UNL A   1      38.487  29.337  28.665  1.00  0.00    -0.014 A 
BRANCH  23  24
ATOM     24  C   UNL A   1      39.913  29.001  28.892  1.00  0.00     0.031 A 
ATOM     25  C   UNL A   1      40.843  30.043  29.449  1.00  0.00     0.074 A 
ATOM     26  C   UNL A   1      40.370  27.764  28.615  1.00  0.00     0.049 A 
ATOM     27  N   UNL A   1      42.145  30.018  29.552  1.00  0.00    -0.248 NA
ATOM     28  C   UNL A   1      40.222  31.279  29.952  1.00  0.00     0.031 C 
ATOM     29  C   UNL A   1      39.553  26.647  28.138  1.00  0.00     0.029 A 
ATOM     30  N   UNL A   1      41.636  27.241  28.690  1.00  0.00    -0.354 N 
ATOM     31  C   UNL A   1      42.506  31.246  30.098  1.00  0.00     0.074 A 
ATOM     32  C   UNL A   1      41.283  31.993  30.301  1.00  0.00     0.031 C 
ATOM     33  C   UNL A   1      40.337  25.569  27.971  1.00  0.00     0.029 A 
ATOM     34  C   UNL A   1      41.718  25.938  28.262  1.00  0.00     0.049 A 
ATOM     35  H   UNL A   1      42.412  27.751  29.018  1.00  0.00     0.167 HD
ATOM     36  C   UNL A   1      43.745  31.703  30.397  1.00  0.00     0.037 A 
ATOM     37  C   UNL A   1      42.791  25.142  28.086  1.00  0.00     0.037 A 
ATOM     38  C   UNL A   1      44.951  30.938  30.213  1.00  0.00     0.049 A 
ATOM     39  C   UNL A   1      44.162  25.690  28.376  1.00  0.00     0.074 A 
ATOM     40  C   UNL A   1      46.260  31.321  30.446  1.00  0.00     0.029 A 
ATOM     41  N   UNL A   1      44.991  29.625  29.768  1.00  0.00    -0.354 N 
ATOM     42  N   UNL A   1      44.496  26.879  28.817  1.00  0.00    -0.248 NA
ATOM     43  C   UNL A   1      45.302  24.797  28.128  1.00  0.00     0.031 C 
ATOM     44  C   UNL A   1      47.094  30.245  30.124  1.00  0.00     0.029 A 
ATOM     45  C   UNL A   1      46.302  29.181  29.723  1.00  0.00     0.049 A 
ATOM     46  H   UNL A   1      44.204  29.087  29.520  1.00  0.00     0.167 HD
ATOM     47  C   UNL A   1      45.882  26.868  28.925  1.00  0.00     0.074 A 
ATOM     48  C   UNL A   1      46.324  25.553  28.507  1.00  0.00     0.031 C 
ATOM     49  C   UNL A   1      46.714  27.858  29.331  1.00  0.00     0.037 A 
BRANCH  36  50
ATOM     50  C   UNL A   1      43.862  33.103  30.926  1.00  0.00     0.058 A 
ATOM     51  C   UNL A   1      43.920  33.372  32.301  1.00  0.00     0.135 A 
ATOM     52  C   UNL A   1      43.949  34.192  30.041  1.00  0.00     0.135 A 
ATOM     53  F   UNL A   1      43.821  32.370  33.190  1.00  0.00    -0.206 F 
ATOM     54  C   UNL A   1      44.043  34.671  32.784  1.00  0.00     0.059 A 
ATOM     55  C   UNL A   1      44.093  35.497  30.501  1.00  0.00     0.059 A 
ATOM     56  F   UNL A   1      43.896  33.991  28.715  1.00  0.00    -0.206 F 
ATOM     57  C   UNL A   1      44.126  35.728  31.876  1.00  0.00     0.060 A 
BRANCH  57  58
ATOM     58  S   UNL A   1      44.287  37.410  32.513  1.00  0.00     0.124 S 
ATOM     59  O   UNL A   1      43.194  37.459  33.481  1.00  0.00    -0.237 OA
ATOM     60  O   UNL A   1      45.633  37.405  33.078  1.00  0.00    -0.237 OA
ATOM     61  O   UNL A   1      44.111  38.241  31.327  1.00  0.00    -0.744 OA
ENDBRANCH  57  58
ENDBRANCH  36  50
BRANCH  37  62
ATOM     62  C   UNL A   1      42.618  23.757  27.574  1.00  0.00     0.058 A 
ATOM     63  C   UNL A   1      42.466  22.676  28.454  1.00  0.00     0.135 A 
ATOM     64  C   UNL A   1      42.605  23.487  26.197  1.00  0.00     0.135 A 
ATOM     65  F   UNL A   1      42.481  22.883  29.779  1.00  0.00    -0.206 F 
ATOM     66  C   UNL A   1      42.326  21.373  27.988  1.00  0.00     0.059 A 
ATOM     67  C   UNL A   1      42.441  22.195  25.707  1.00  0.00     0.059 A 
ATOM     68  F   UNL A   1      42.734  24.488  25.313  1.00  0.00    -0.206 F 
ATOM     69  C   UNL A   1      42.317  21.142  26.612  1.00  0.00     0.060 A 
BRANCH  69  70
ATOM     70  S   UNL A   1      42.100  19.453  26.010  1.00  0.00     0.124 S 
ATOM     71  O   UNL A   1      42.951  19.454  24.826  1.00  0.00    -0.237 OA
ATOM     72  O   UNL A   1      42.576  18.657  27.137  1.00  0.00    -0.237 OA
ATOM     73  O   UNL A   1      40.664  19.371  25.758  1.00  0.00    -0.744 OA
ENDBRANCH  69  70
ENDBRANCH  37  62
BRANCH  49  74
ATOM     74  C   UNL A   1      48.180  27.542  29.399  1.00  0.00     0.058 A 
ATOM     75  C   UNL A   1      49.038  27.795  28.320  1.00  0.00     0.135 A 
ATOM     76  C   UNL A   1      48.739  27.041  30.586  1.00  0.00     0.135 A 
ATOM     77  F   UNL A   1      48.548  28.266  27.162  1.00  0.00    -0.206 F 
ATOM     78  C   UNL A   1      50.405  27.553  28.411  1.00  0.00     0.059 A 
ATOM     79  C   UNL A   1      50.105  26.810  30.705  1.00  0.00     0.059 A 
ATOM     80  F   UNL A   1      47.958  26.790  31.648  1.00  0.00    -0.206 F 
ATOM     81  C   UNL A   1      50.929  27.062  29.609  1.00  0.00     0.060 A 
BRANCH  81  82
ATOM     82  S   UNL A   1      52.712  26.801  29.735  1.00  0.00     0.124 S 
ATOM     83  O   UNL A   1      53.018  26.227  28.428  1.00  0.00    -0.237 OA
ATOM     84  O   UNL A   1      53.212  28.152  29.967  1.00  0.00    -0.237 OA
ATOM     85  O   UNL A   1      52.841  25.890  30.867  1.00  0.00    -0.744 OA
ENDBRANCH  81  82
ENDBRANCH  49  74
ENDBRANCH  23  24
ENDBRANCH  16  18
ENDBRANCH  15  16
ENDBRANCH  14  15
ENDBRANCH   1  14
TORSDOF 19
ENDMDL
MODEL 3
REMARK VINA RESULT:      -9.0      2.822     11.608
REMARK SMILES C=CCCCOC(F)(F)C(=O)OCCOC(=O)c1ccc(-c2c3nc(c(-c4c(F)cc(S(=O)(=O)[O-])cc4F)c4ccc([nH]4)c(-c4c(F)cc(S(=O)(=O)[O-])cc4F)c4nc(c(-c5c(F)cc(S(=O)(=O)[O-])cc5F)c5ccc2[nH]5)C=C4)C=C3)cc1
REMARK SMILES IDX 13 1 12 2 10 3 11 4 7 5 8 6 9 7 6 8 5 9 4 10 3 11 2 12 1 13
REMARK SMILES IDX 14 14 15 15 16 16 17 17 18 18 19 19 83 20 20 21 82 22 21 23
REMARK SMILES IDX 22 24 23 25 76 26 24 27 81 28 75 29 77 30 25 31 80 32 74 33
REMARK SMILES IDX 73 34 26 36 60 37 39 38 59 39 40 40 43 41 58 42 78 43 41 44
REMARK SMILES IDX 42 45 57 47 79 48 44 49 27 50 28 51 37 52 29 53 30 54 36 55
REMARK SMILES IDX 38 56 31 57 32 58 33 59 34 60 35 61 61 62 62 63 71 64 63 65
REMARK SMILES IDX 64 66 70 67 72 68 65 69 66 70 67 71 68 72 69 73 45 74 46 75
REMARK SMILES IDX 55 76 47 77 48 78 54 79 56 80 49 81 50 82 51 83 52 84 53 85
REMARK H PARENT 77 35 43 46
REMARK Flexibility Score: inf
ROOT
ATOM      1  C   UNL A   1      41.296  19.921  26.507  1.00  0.00     0.275 C 
ENDROOT
BRANCH   1   2
ATOM      2  O   UNL A   1      41.995  19.283  25.421  1.00  0.00    -0.456 OA
BRANCH   2   3
ATOM      3  C   UNL A   1      43.162  18.642  25.737  1.00  0.00     0.408 C 
ATOM      4  O   UNL A   1      43.240  17.728  26.555  1.00  0.00    -0.242 OA
BRANCH   3   5
ATOM      5  C   UNL A   1      44.356  19.180  24.917  1.00  0.00     0.456 C 
ATOM      6  F   UNL A   1      44.526  18.453  23.776  1.00  0.00    -0.164 F 
ATOM      7  F   UNL A   1      45.538  19.102  25.589  1.00  0.00    -0.164 F 
BRANCH   5   8
ATOM      8  O   UNL A   1      44.144  20.546  24.579  1.00  0.00    -0.311 OA
BRANCH   8   9
ATOM      9  C   UNL A   1      44.863  21.511  25.326  1.00  0.00     0.168 C 
BRANCH   9  10
ATOM     10  C   UNL A   1      43.941  22.648  25.769  1.00  0.00     0.033 C 
BRANCH  10  11
ATOM     11  C   UNL A   1      44.198  23.162  27.189  1.00  0.00     0.029 C 
BRANCH  11  12
ATOM     12  C   UNL A   1      42.945  23.496  27.952  1.00  0.00    -0.035 C 
ATOM     13  C   UNL A   1      42.612  22.955  29.129  1.00  0.00     0.004 C 
ENDBRANCH  11  12
ENDBRANCH  10  11
ENDBRANCH   9  10
ENDBRANCH   8   9
ENDBRANCH   5   8
ENDBRANCH   3   5
ENDBRANCH   2   3
ENDBRANCH   1   2
BRANCH   1  14
ATOM     14  C   UNL A   1      40.750  21.289  26.089  1.00  0.00     0.275 C 
BRANCH  14  15
ATOM     15  O   UNL A   1      39.690  21.733  26.958  1.00  0.00    -0.458 OA
BRANCH  15  16
ATOM     16  C   UNL A   1      38.892  22.695  26.448  1.00  0.00     0.338 C 
ATOM     17  O   UNL A   1      37.879  22.526  25.777  1.00  0.00    -0.246 OA
BRANCH  16  18
ATOM     18  C   UNL A   1      39.347  24.016  26.899  1.00  0.00     0.060 A 
ATOM     19  C   UNL A   1      39.935  24.873  25.966  1.00  0.00     0.016 A 
ATOM     20  C   UNL A   1      39.281  24.377  28.245  1.00  0.00     0.016 A 
ATOM     21  C   UNL A   1      40.503  26.074  26.376  1.00  0.00     0.010 A 
ATOM     22  C   UNL A   1      39.821  25.601  28.652  1.00  0.00     0.010 A 
ATOM     23  C   UNL A   1      40.452  26.451  27.723  1.00  0.00    -0.014 A 
BRANCH  23  24
ATOM     24  C   UNL A   1      41.094  27.711  28.171  1.00  0.00     0.031 A 
ATOM     25  C   UNL A   1      42.588  27.857  28.081  1.00  0.00     0.074 A 
ATOM     26  C   UNL A   1      40.340  28.724  28.642  1.00  0.00     0.049 A 
ATOM     27  N   UNL A   1      43.357  28.788  28.579  1.00  0.00    -0.248 NA
ATOM     28  C   UNL A   1      43.308  26.813  27.335  1.00  0.00     0.031 C 
ATOM     29  C   UNL A   1      38.878  28.730  28.712  1.00  0.00     0.029 A 
ATOM     30  N   UNL A   1      40.703  29.944  29.155  1.00  0.00    -0.354 N 
ATOM     31  C   UNL A   1      44.657  28.427  28.239  1.00  0.00     0.074 A 
ATOM     32  C   UNL A   1      44.570  27.189  27.494  1.00  0.00     0.031 C 
ATOM     33  C   UNL A   1      38.468  29.899  29.231  1.00  0.00     0.029 A 
ATOM     34  C   UNL A   1      39.637  30.694  29.591  1.00  0.00     0.049 A 
ATOM     35  H   UNL A   1      41.636  30.252  29.206  1.00  0.00     0.167 HD
ATOM     36  C   UNL A   1      45.812  29.072  28.527  1.00  0.00     0.037 A 
ATOM     37  C   UNL A   1      39.608  31.873  30.244  1.00  0.00     0.037 A 
ATOM     38  C   UNL A   1      45.882  30.317  29.247  1.00  0.00     0.049 A 
ATOM     39  C   UNL A   1      40.907  32.543  30.598  1.00  0.00     0.074 A 
ATOM     40  C   UNL A   1      47.003  31.033  29.626  1.00  0.00     0.029 A 
ATOM     41  N   UNL A   1      44.780  31.040  29.679  1.00  0.00    -0.354 N 
ATOM     42  N   UNL A   1      42.132  32.153  30.340  1.00  0.00    -0.248 NA
ATOM     43  C   UNL A   1      40.822  33.805  31.347  1.00  0.00     0.031 C 
ATOM     44  C   UNL A   1      46.580  32.181  30.305  1.00  0.00     0.029 A 
ATOM     45  C   UNL A   1      45.194  32.196  30.318  1.00  0.00     0.049 A 
ATOM     46  H   UNL A   1      43.841  30.771  29.551  1.00  0.00     0.167 HD
ATOM     47  C   UNL A   1      42.963  33.133  30.871  1.00  0.00     0.074 A 
ATOM     48  C   UNL A   1      42.101  34.137  31.462  1.00  0.00     0.031 C 
ATOM     49  C   UNL A   1      44.317  33.195  30.872  1.00  0.00     0.037 A 
BRANCH  36  50
ATOM     50  C   UNL A   1      47.097  28.427  28.089  1.00  0.00     0.058 A 
ATOM     51  C   UNL A   1      47.646  28.662  26.820  1.00  0.00     0.135 A 
ATOM     52  C   UNL A   1      47.805  27.588  28.965  1.00  0.00     0.135 A 
ATOM     53  F   UNL A   1      47.000  29.441  25.937  1.00  0.00    -0.206 F 
ATOM     54  C   UNL A   1      48.844  28.074  26.426  1.00  0.00     0.059 A 
ATOM     55  C   UNL A   1      49.015  27.005  28.600  1.00  0.00     0.059 A 
ATOM     56  F   UNL A   1      47.322  27.328  30.191  1.00  0.00    -0.206 F 
ATOM     57  C   UNL A   1      49.520  27.243  27.323  1.00  0.00     0.060 A 
BRANCH  57  58
ATOM     58  S   UNL A   1      51.074  26.486  26.803  1.00  0.00     0.124 S 
ATOM     59  O   UNL A   1      51.084  26.796  25.376  1.00  0.00    -0.237 OA
ATOM     60  O   UNL A   1      52.058  27.199  27.612  1.00  0.00    -0.237 OA
ATOM     61  O   UNL A   1      50.895  25.078  27.137  1.00  0.00    -0.744 OA
ENDBRANCH  57  58
ENDBRANCH  36  50
BRANCH  37  62
ATOM     62  C   UNL A   1      38.307  32.475  30.641  1.00  0.00     0.058 A 
ATOM     63  C   UNL A   1      37.719  32.172  31.877  1.00  0.00     0.135 A 
ATOM     64  C   UNL A   1      37.627  33.360  29.791  1.00  0.00     0.135 A 
ATOM     65  F   UNL A   1      38.328  31.323  32.719  1.00  0.00    -0.206 F 
ATOM     66  C   UNL A   1      36.492  32.711  32.251  1.00  0.00     0.059 A 
ATOM     67  C   UNL A   1      36.411  33.931  30.154  1.00  0.00     0.059 A 
ATOM     68  F   UNL A   1      38.154  33.692  28.602  1.00  0.00    -0.206 F 
ATOM     69  C   UNL A   1      35.844  33.588  31.380  1.00  0.00     0.060 A 
BRANCH  69  70
ATOM     70  S   UNL A   1      34.268  34.313  31.883  1.00  0.00     0.124 S 
ATOM     71  O   UNL A   1      34.708  35.537  32.542  1.00  0.00    -0.237 OA
ATOM     72  O   UNL A   1      33.584  34.487  30.606  1.00  0.00    -0.237 OA
ATOM     73  O   UNL A   1      33.697  33.294  32.758  1.00  0.00    -0.744 OA
ENDBRANCH  69  70
ENDBRANCH  37  62
BRANCH  49  74
ATOM     74  C   UNL A   1      44.951  34.412  31.478  1.00  0.00     0.058 A 
ATOM     75  C   UNL A   1      45.194  35.569  30.724  1.00  0.00     0.135 A 
ATOM     76  C   UNL A   1      45.259  34.439  32.848  1.00  0.00     0.135 A 
ATOM     77  F   UNL A   1      44.924  35.588  29.409  1.00  0.00    -0.206 F 
ATOM     78  C   UNL A   1      45.730  36.713  31.307  1.00  0.00     0.059 A 
ATOM     79  C   UNL A   1      45.777  35.578  33.455  1.00  0.00     0.059 A 
ATOM     80  F   UNL A   1      45.037  33.357  33.612  1.00  0.00    -0.206 F 
ATOM     81  C   UNL A   1      46.016  36.708  32.674  1.00  0.00     0.060 A 
BRANCH  81  82
ATOM     82  S   UNL A   1      46.662  38.215  33.432  1.00  0.00     0.124 S 
ATOM     83  O   UNL A   1      47.455  37.674  34.532  1.00  0.00    -0.237 OA
ATOM     84  O   UNL A   1      47.420  38.816  32.340  1.00  0.00    -0.237 OA
ATOM     85  O   UNL A   1      45.457  38.939  33.823  1.00  0.00    -0.744 OA
ENDBRANCH  81  82
ENDBRANCH  49  74
ENDBRANCH  23  24
ENDBRANCH  16  18
ENDBRANCH  15  16
ENDBRANCH  14  15
ENDBRANCH   1  14
TORSDOF 19
ENDMDL
