MODEL 1
REMARK VINA RESULT:     -10.6      0.000      0.000
REMARK SMILES CCc1ncc(CC(=O)OCCOC(=O)c2ccc(-c3c4nc(c(-c5c(F)cc(S(=O)(=O)[O-])cc5F)c5ccc([nH]5)c(-c5c(F)cc(S(=O)(=O)[O-])cc5F)c5nc(c(-c6c(F)cc(S(=O)(=O)[O-])cc6F)c6ccc3[nH]6)C=C5)C=C4)cc2)c(=O)[nH]1
REMARK SMILES IDX 12 1 11 2 10 3 8 4 9 5 7 6 6 7 3 8 4 9 84 10 5 11 82 12
REMARK SMILES IDX 83 14 2 15 1 16 13 17 14 18 15 19 16 20 17 21 81 22 18 23
REMARK SMILES IDX 80 24 19 25 20 26 21 27 74 28 22 29 79 30 73 31 75 32 23 33
REMARK SMILES IDX 78 34 72 35 71 36 24 38 58 39 37 40 57 41 38 42 41 43 56 44
REMARK SMILES IDX 76 45 39 46 40 47 55 49 77 50 42 51 25 52 26 53 35 54 27 55
REMARK SMILES IDX 28 56 34 57 36 58 29 59 30 60 31 61 32 62 33 63 59 64 60 65
REMARK SMILES IDX 69 66 61 67 62 68 68 69 70 70 63 71 64 72 65 73 66 74 67 75
REMARK SMILES IDX 43 76 44 77 53 78 45 79 46 80 52 81 54 82 47 83 48 84 49 85
REMARK SMILES IDX 50 86 51 87
REMARK H PARENT 84 13 75 37 41 48
REMARK Flexibility Score: inf
ROOT
ATOM      1  C   UNL A   1      34.673  30.339  27.827  1.00  0.00     0.275 C 
ENDROOT
BRANCH   1   2
ATOM      2  C   UNL A   1      33.523  31.312  27.579  1.00  0.00     0.274 C 
BRANCH   2   3
ATOM      3  O   UNL A   1      33.696  32.523  28.342  1.00  0.00    -0.462 OA
BRANCH   3   4
ATOM      4  C   UNL A   1      32.953  33.585  27.931  1.00  0.00     0.310 C 
ATOM      5  O   UNL A   1      31.926  33.500  27.265  1.00  0.00    -0.252 OA
BRANCH   4   6
ATOM      6  C   UNL A   1      33.514  34.927  28.352  1.00  0.00     0.165 C 
BRANCH   6   7
ATOM      7  C   UNL A   1      33.997  35.024  29.764  1.00  0.00     0.047 A 
ATOM      8  C   UNL A   1      34.706  35.063  32.406  1.00  0.00     0.108 A 
ATOM      9  N   UNL A   1      35.378  34.307  31.603  1.00  0.00    -0.243 NA
ATOM     10  N   UNL A   1      33.662  35.843  31.998  1.00  0.00    -0.310 N 
ATOM     11  C   UNL A   1      34.994  34.299  30.290  1.00  0.00     0.123 A 
ATOM     12  C   UNL A   1      33.265  35.907  30.695  1.00  0.00     0.254 A 
ATOM     13  H   UNL A   1      33.179  36.378  32.669  1.00  0.00     0.171 HD
ATOM     14  O   UNL A   1      32.347  36.635  30.331  1.00  0.00    -0.269 OA
BRANCH   8  15
ATOM     15  C   UNL A   1      35.026  35.092  33.880  1.00  0.00     0.072 C 
ATOM     16  C   UNL A   1      35.286  33.682  34.384  1.00  0.00     0.012 C 
ENDBRANCH   8  15
ENDBRANCH   6   7
ENDBRANCH   4   6
ENDBRANCH   3   4
ENDBRANCH   2   3
ENDBRANCH   1   2
BRANCH   1  17
ATOM     17  O   UNL A   1      35.862  31.055  28.204  1.00  0.00    -0.458 OA
BRANCH  17  18
ATOM     18  C   UNL A   1      36.411  30.688  29.384  1.00  0.00     0.338 C 
ATOM     19  O   UNL A   1      35.937  30.817  30.498  1.00  0.00    -0.246 OA
BRANCH  18  20
ATOM     20  C   UNL A   1      37.725  30.077  29.142  1.00  0.00     0.060 A 
ATOM     21  C   UNL A   1      38.572  29.805  30.218  1.00  0.00     0.016 A 
ATOM     22  C   UNL A   1      38.157  29.883  27.829  1.00  0.00     0.016 A 
ATOM     23  C   UNL A   1      39.876  29.377  29.982  1.00  0.00     0.010 A 
ATOM     24  C   UNL A   1      39.449  29.406  27.597  1.00  0.00     0.010 A 
ATOM     25  C   UNL A   1      40.327  29.174  28.669  1.00  0.00    -0.014 A 
BRANCH  25  26
ATOM     26  C   UNL A   1      41.723  28.741  28.408  1.00  0.00     0.031 A 
ATOM     27  C   UNL A   1      42.841  29.747  28.428  1.00  0.00     0.074 A 
ATOM     28  C   UNL A   1      41.985  27.448  28.140  1.00  0.00     0.049 A 
ATOM     29  N   UNL A   1      44.096  29.594  28.097  1.00  0.00    -0.248 NA
ATOM     30  C   UNL A   1      42.496  31.108  28.871  1.00  0.00     0.031 C 
ATOM     31  C   UNL A   1      40.994  26.371  28.118  1.00  0.00     0.029 A 
ATOM     32  N   UNL A   1      43.165  26.822  27.826  1.00  0.00    -0.354 N 
ATOM     33  C   UNL A   1      44.689  30.839  28.267  1.00  0.00     0.074 A 
ATOM     34  C   UNL A   1      43.652  31.741  28.720  1.00  0.00     0.031 C 
ATOM     35  C   UNL A   1      41.607  25.217  27.808  1.00  0.00     0.029 A 
ATOM     36  C   UNL A   1      43.022  25.480  27.562  1.00  0.00     0.049 A 
ATOM     37  H   UNL A   1      44.031  27.288  27.793  1.00  0.00     0.167 HD
ATOM     38  C   UNL A   1      45.981  31.196  28.065  1.00  0.00     0.037 A 
ATOM     39  C   UNL A   1      43.921  24.571  27.140  1.00  0.00     0.037 A 
ATOM     40  C   UNL A   1      47.015  30.292  27.634  1.00  0.00     0.049 A 
ATOM     41  C   UNL A   1      45.341  24.997  26.894  1.00  0.00     0.074 A 
ATOM     42  C   UNL A   1      48.354  30.559  27.402  1.00  0.00     0.029 A 
ATOM     43  N   UNL A   1      46.828  28.943  27.375  1.00  0.00    -0.354 N 
ATOM     44  N   UNL A   1      45.880  26.184  27.033  1.00  0.00    -0.248 NA
ATOM     45  C   UNL A   1      46.274  23.963  26.424  1.00  0.00     0.031 C 
ATOM     46  C   UNL A   1      48.971  29.376  26.983  1.00  0.00     0.029 A 
ATOM     47  C   UNL A   1      48.024  28.365  26.981  1.00  0.00     0.049 A 
ATOM     48  H   UNL A   1      45.971  28.465  27.460  1.00  0.00     0.167 HD
ATOM     49  C   UNL A   1      47.216  26.039  26.679  1.00  0.00     0.074 A 
ATOM     50  C   UNL A   1      47.408  24.646  26.332  1.00  0.00     0.031 C 
ATOM     51  C   UNL A   1      48.194  26.975  26.641  1.00  0.00     0.037 A 
BRANCH  38  52
ATOM     52  C   UNL A   1      46.342  32.637  28.291  1.00  0.00     0.058 A 
ATOM     53  C   UNL A   1      46.798  33.095  29.535  1.00  0.00     0.135 A 
ATOM     54  C   UNL A   1      46.253  33.565  27.241  1.00  0.00     0.135 A 
ATOM     55  F   UNL A   1      46.886  32.251  30.576  1.00  0.00    -0.206 F 
ATOM     56  C   UNL A   1      47.132  34.430  29.740  1.00  0.00     0.059 A 
ATOM     57  C   UNL A   1      46.599  34.901  27.417  1.00  0.00     0.059 A 
ATOM     58  F   UNL A   1      45.821  33.177  26.031  1.00  0.00    -0.206 F 
ATOM     59  C   UNL A   1      47.023  35.328  28.676  1.00  0.00     0.060 A 
BRANCH  59  60
ATOM     60  S   UNL A   1      47.454  37.059  28.951  1.00  0.00     0.124 S 
ATOM     61  O   UNL A   1      48.667  37.188  28.150  1.00  0.00    -0.237 OA
ATOM     62  O   UNL A   1      46.282  37.763  28.441  1.00  0.00    -0.237 OA
ATOM     63  O   UNL A   1      47.645  37.135  30.397  1.00  0.00    -0.744 OA
ENDBRANCH  59  60
ENDBRANCH  38  52
BRANCH  39  64
ATOM     64  C   UNL A   1      43.493  23.171  26.896  1.00  0.00     0.058 A 
ATOM     65  C   UNL A   1      43.392  22.664  25.594  1.00  0.00     0.135 A 
ATOM     66  C   UNL A   1      43.197  22.308  27.963  1.00  0.00     0.135 A 
ATOM     67  F   UNL A   1      43.657  23.456  24.544  1.00  0.00    -0.206 F 
ATOM     68  C   UNL A   1      43.006  21.349  25.354  1.00  0.00     0.059 A 
ATOM     69  C   UNL A   1      42.829  20.985  27.750  1.00  0.00     0.059 A 
ATOM     70  F   UNL A   1      43.292  22.746  29.228  1.00  0.00    -0.206 F 
ATOM     71  C   UNL A   1      42.727  20.516  26.440  1.00  0.00     0.060 A 
BRANCH  71  72
ATOM     72  S   UNL A   1      42.285  18.793  26.129  1.00  0.00     0.124 S 
ATOM     73  O   UNL A   1      42.526  18.190  27.434  1.00  0.00    -0.237 OA
ATOM     74  O   UNL A   1      40.888  18.898  25.722  1.00  0.00    -0.237 OA
ATOM     75  O   UNL A   1      43.209  18.400  25.069  1.00  0.00    -0.744 OA
ENDBRANCH  71  72
ENDBRANCH  39  64
BRANCH  51  76
ATOM     76  C   UNL A   1      49.563  26.518  26.230  1.00  0.00     0.058 A 
ATOM     77  C   UNL A   1      50.038  26.718  24.924  1.00  0.00     0.135 A 
ATOM     78  C   UNL A   1      50.421  25.911  27.159  1.00  0.00     0.135 A 
ATOM     79  F   UNL A   1      49.252  27.288  23.999  1.00  0.00    -0.206 F 
ATOM     80  C   UNL A   1      51.315  26.312  24.549  1.00  0.00     0.059 A 
ATOM     81  C   UNL A   1      51.708  25.514  26.809  1.00  0.00     0.059 A 
ATOM     82  F   UNL A   1      50.014  25.705  28.421  1.00  0.00    -0.206 F 
ATOM     83  C   UNL A   1      52.142  25.710  25.499  1.00  0.00     0.060 A 
BRANCH  83  84
ATOM     84  S   UNL A   1      53.810  25.214  25.014  1.00  0.00     0.124 S 
ATOM     85  O   UNL A   1      53.662  23.767  24.890  1.00  0.00    -0.237 OA
ATOM     86  O   UNL A   1      54.006  25.940  23.762  1.00  0.00    -0.237 OA
ATOM     87  O   UNL A   1      54.635  25.670  26.129  1.00  0.00    -0.744 OA
ENDBRANCH  83  84
ENDBRANCH  51  76
ENDBRANCH  25  26
ENDBRANCH  18  20
ENDBRANCH  17  18
ENDBRANCH   1  17
TORSDOF 16
ENDMDL
MODEL 2
REMARK VINA RESULT:     -10.6      2.803      4.160
REMARK SMILES CCc1ncc(CC(=O)OCCOC(=O)c2ccc(-c3c4nc(c(-c5c(F)cc(S(=O)(=O)[O-])cc5F)c5ccc([nH]5)c(-c5c(F)cc(S(=O)(=O)[O-])cc5F)c5nc(c(-c6c(F)cc(S(=O)(=O)[O-])cc6F)c6ccc3[nH]6)C=C5)C=C4)cc2)c(=O)[nH]1
REMARK SMILES IDX 12 1 11 2 10 3 8 4 9 5 7 6 6 7 3 8 4 9 84 10 5 11 82 12
REMARK SMILES IDX 83 14 2 15 1 16 13 17 14 18 15 19 16 20 17 21 81 22 18 23
REMARK SMILES IDX 80 24 19 25 20 26 21 27 74 28 22 29 79 30 73 31 75 32 23 33
REMARK SMILES IDX 78 34 72 35 71 36 24 38 58 39 37 40 57 41 38 42 41 43 56 44
REMARK SMILES IDX 76 45 39 46 40 47 55 49 77 50 42 51 25 52 26 53 35 54 27 55
REMARK SMILES IDX 28 56 34 57 36 58 29 59 30 60 31 61 32 62 33 63 59 64 60 65
REMARK SMILES IDX 69 66 61 67 62 68 68 69 70 70 63 71 64 72 65 73 66 74 67 75
REMARK SMILES IDX 43 76 44 77 53 78 45 79 46 80 52 81 54 82 47 83 48 84 49 85
REMARK SMILES IDX 50 86 51 87
REMARK H PARENT 84 13 75 37 41 48
REMARK Flexibility Score: inf
ROOT
ATOM      1  C   UNL A   1      34.480  29.735  27.266  1.00  0.00     0.275 C 
ENDROOT
BRANCH   1   2
ATOM      2  C   UNL A   1      33.723  28.600  26.582  1.00  0.00     0.274 C 
BRANCH   2   3
ATOM      3  O   UNL A   1      34.155  28.441  25.215  1.00  0.00    -0.462 OA
BRANCH   3   4
ATOM      4  C   UNL A   1      33.306  27.750  24.410  1.00  0.00     0.310 C 
ATOM      5  O   UNL A   1      33.643  27.153  23.392  1.00  0.00    -0.252 OA
BRANCH   4   6
ATOM      6  C   UNL A   1      31.861  27.788  24.861  1.00  0.00     0.165 C 
BRANCH   6   7
ATOM      7  C   UNL A   1      30.920  28.558  23.991  1.00  0.00     0.047 A 
ATOM      8  C   UNL A   1      29.384  30.070  22.306  1.00  0.00     0.108 A 
ATOM      9  N   UNL A   1      29.589  28.832  22.002  1.00  0.00    -0.243 NA
ATOM     10  N   UNL A   1      29.896  30.658  23.427  1.00  0.00    -0.310 N 
ATOM     11  C   UNL A   1      30.370  28.103  22.857  1.00  0.00     0.123 A 
ATOM     12  C   UNL A   1      30.643  29.968  24.335  1.00  0.00     0.254 A 
ATOM     13  H   UNL A   1      29.718  31.614  23.586  1.00  0.00     0.171 HD
ATOM     14  O   UNL A   1      31.072  30.495  25.357  1.00  0.00    -0.269 OA
BRANCH   8  15
ATOM     15  C   UNL A   1      28.580  30.961  21.392  1.00  0.00     0.072 C 
ATOM     16  C   UNL A   1      28.403  32.331  22.024  1.00  0.00     0.012 C 
ENDBRANCH   8  15
ENDBRANCH   6   7
ENDBRANCH   4   6
ENDBRANCH   3   4
ENDBRANCH   2   3
ENDBRANCH   1   2
BRANCH   1  17
ATOM     17  O   UNL A   1      35.337  29.215  28.298  1.00  0.00    -0.458 OA
BRANCH  17  18
ATOM     18  C   UNL A   1      36.051  30.139  28.979  1.00  0.00     0.338 C 
ATOM     19  O   UNL A   1      35.626  31.048  29.670  1.00  0.00    -0.246 OA
BRANCH  18  20
ATOM     20  C   UNL A   1      37.485  29.898  28.773  1.00  0.00     0.060 A 
ATOM     21  C   UNL A   1      37.990  29.785  27.477  1.00  0.00     0.016 A 
ATOM     22  C   UNL A   1      38.306  29.670  29.879  1.00  0.00     0.016 A 
ATOM     23  C   UNL A   1      39.314  29.398  27.280  1.00  0.00     0.010 A 
ATOM     24  C   UNL A   1      39.646  29.331  29.679  1.00  0.00     0.010 A 
ATOM     25  C   UNL A   1      40.154  29.167  28.380  1.00  0.00    -0.014 A 
BRANCH  25  26
ATOM     26  C   UNL A   1      41.559  28.731  28.179  1.00  0.00     0.031 A 
ATOM     27  C   UNL A   1      42.675  29.740  28.219  1.00  0.00     0.074 A 
ATOM     28  C   UNL A   1      41.831  27.433  27.947  1.00  0.00     0.049 A 
ATOM     29  N   UNL A   1      43.942  29.582  27.937  1.00  0.00    -0.248 NA
ATOM     30  C   UNL A   1      42.313  31.108  28.621  1.00  0.00     0.031 C 
ATOM     31  C   UNL A   1      40.843  26.355  27.911  1.00  0.00     0.029 A 
ATOM     32  N   UNL A   1      43.023  26.803  27.689  1.00  0.00    -0.354 N 
ATOM     33  C   UNL A   1      44.527  30.831  28.103  1.00  0.00     0.074 A 
ATOM     34  C   UNL A   1      43.473  31.741  28.500  1.00  0.00     0.031 C 
ATOM     35  C   UNL A   1      41.468  25.196  27.647  1.00  0.00     0.029 A 
ATOM     36  C   UNL A   1      42.890  25.456  27.447  1.00  0.00     0.049 A 
ATOM     37  H   UNL A   1      43.889  27.270  27.678  1.00  0.00     0.167 HD
ATOM     38  C   UNL A   1      45.825  31.186  27.941  1.00  0.00     0.037 A 
ATOM     39  C   UNL A   1      43.805  24.540  27.076  1.00  0.00     0.037 A 
ATOM     40  C   UNL A   1      46.875  30.275  27.567  1.00  0.00     0.049 A 
ATOM     41  C   UNL A   1      45.233  24.963  26.874  1.00  0.00     0.074 A 
ATOM     42  C   UNL A   1      48.221  30.539  27.378  1.00  0.00     0.029 A 
ATOM     43  N   UNL A   1      46.698  28.920  27.328  1.00  0.00    -0.354 N 
ATOM     44  N   UNL A   1      45.765  26.154  27.009  1.00  0.00    -0.248 NA
ATOM     45  C   UNL A   1      46.183  23.921  26.460  1.00  0.00     0.031 C 
ATOM     46  C   UNL A   1      48.854  29.348  27.006  1.00  0.00     0.029 A 
ATOM     47  C   UNL A   1      47.908  28.336  26.990  1.00  0.00     0.049 A 
ATOM     48  H   UNL A   1      45.839  28.443  27.392  1.00  0.00     0.167 HD
ATOM     49  C   UNL A   1      47.113  26.003  26.706  1.00  0.00     0.074 A 
ATOM     50  C   UNL A   1      47.319  24.603  26.395  1.00  0.00     0.031 C 
ATOM     51  C   UNL A   1      48.092  26.940  26.685  1.00  0.00     0.037 A 
BRANCH  38  52
ATOM     52  C   UNL A   1      46.176  32.631  28.151  1.00  0.00     0.058 A 
ATOM     53  C   UNL A   1      46.633  33.106  29.389  1.00  0.00     0.135 A 
ATOM     54  C   UNL A   1      46.077  33.547  27.091  1.00  0.00     0.135 A 
ATOM     55  F   UNL A   1      46.730  32.273  30.437  1.00  0.00    -0.206 F 
ATOM     56  C   UNL A   1      46.958  34.446  29.578  1.00  0.00     0.059 A 
ATOM     57  C   UNL A   1      46.414  34.888  27.252  1.00  0.00     0.059 A 
ATOM     58  F   UNL A   1      45.645  33.144  25.886  1.00  0.00    -0.206 F 
ATOM     59  C   UNL A   1      46.840  35.331  28.505  1.00  0.00     0.060 A 
BRANCH  59  60
ATOM     60  S   UNL A   1      47.259  37.068  28.760  1.00  0.00     0.124 S 
ATOM     61  O   UNL A   1      46.932  37.641  27.458  1.00  0.00    -0.237 OA
ATOM     62  O   UNL A   1      46.376  37.450  29.858  1.00  0.00    -0.237 OA
ATOM     63  O   UNL A   1      48.681  37.028  29.090  1.00  0.00    -0.744 OA
ENDBRANCH  59  60
ENDBRANCH  38  52
BRANCH  39  64
ATOM     64  C   UNL A   1      43.387  23.135  26.846  1.00  0.00     0.058 A 
ATOM     65  C   UNL A   1      43.313  22.608  25.550  1.00  0.00     0.135 A 
ATOM     66  C   UNL A   1      43.075  22.287  27.920  1.00  0.00     0.135 A 
ATOM     67  F   UNL A   1      43.594  23.385  24.493  1.00  0.00    -0.206 F 
ATOM     68  C   UNL A   1      42.937  21.288  25.323  1.00  0.00     0.059 A 
ATOM     69  C   UNL A   1      42.716  20.959  27.721  1.00  0.00     0.059 A 
ATOM     70  F   UNL A   1      43.143  22.744  29.180  1.00  0.00    -0.206 F 
ATOM     71  C   UNL A   1      42.641  20.470  26.416  1.00  0.00     0.060 A 
BRANCH  71  72
ATOM     72  S   UNL A   1      42.211  18.740  26.123  1.00  0.00     0.124 S 
ATOM     73  O   UNL A   1      40.805  18.848  25.751  1.00  0.00    -0.237 OA
ATOM     74  O   UNL A   1      43.128  18.369  25.050  1.00  0.00    -0.237 OA
ATOM     75  O   UNL A   1      42.479  18.110  27.412  1.00  0.00    -0.744 OA
ENDBRANCH  71  72
ENDBRANCH  39  64
BRANCH  51  76
ATOM     76  C   UNL A   1      49.475  26.477  26.333  1.00  0.00     0.058 A 
ATOM     77  C   UNL A   1      49.972  26.587  25.025  1.00  0.00     0.135 A 
ATOM     78  C   UNL A   1      50.325  25.954  27.320  1.00  0.00     0.135 A 
ATOM     79  F   UNL A   1      49.194  27.074  24.046  1.00  0.00    -0.206 F 
ATOM     80  C   UNL A   1      51.262  26.177  24.704  1.00  0.00     0.059 A 
ATOM     81  C   UNL A   1      51.624  25.554  27.024  1.00  0.00     0.059 A 
ATOM     82  F   UNL A   1      49.897  25.836  28.586  1.00  0.00    -0.206 F 
ATOM     83  C   UNL A   1      52.079  25.660  25.710  1.00  0.00     0.060 A 
BRANCH  83  84
ATOM     84  S   UNL A   1      53.763  25.157  25.293  1.00  0.00     0.124 S 
ATOM     85  O   UNL A   1      53.666  23.704  25.379  1.00  0.00    -0.237 OA
ATOM     86  O   UNL A   1      53.934  25.702  23.949  1.00  0.00    -0.237 OA
ATOM     87  O   UNL A   1      54.572  25.797  26.327  1.00  0.00    -0.744 OA
ENDBRANCH  83  84
ENDBRANCH  51  76
ENDBRANCH  25  26
ENDBRANCH  18  20
ENDBRANCH  17  18
ENDBRANCH   1  17
TORSDOF 16
ENDMDL
MODEL 3
REMARK VINA RESULT:     -10.4      4.176      5.954
REMARK SMILES CCc1ncc(CC(=O)OCCOC(=O)c2ccc(-c3c4nc(c(-c5c(F)cc(S(=O)(=O)[O-])cc5F)c5ccc([nH]5)c(-c5c(F)cc(S(=O)(=O)[O-])cc5F)c5nc(c(-c6c(F)cc(S(=O)(=O)[O-])cc6F)c6ccc3[nH]6)C=C5)C=C4)cc2)c(=O)[nH]1
REMARK SMILES IDX 12 1 11 2 10 3 8 4 9 5 7 6 6 7 3 8 4 9 84 10 5 11 82 12
REMARK SMILES IDX 83 14 2 15 1 16 13 17 14 18 15 19 16 20 17 21 81 22 18 23
REMARK SMILES IDX 80 24 19 25 20 26 21 27 74 28 22 29 79 30 73 31 75 32 23 33
REMARK SMILES IDX 78 34 72 35 71 36 24 38 58 39 37 40 57 41 38 42 41 43 56 44
REMARK SMILES IDX 76 45 39 46 40 47 55 49 77 50 42 51 25 52 26 53 35 54 27 55
REMARK SMILES IDX 28 56 34 57 36 58 29 59 30 60 31 61 32 62 33 63 59 64 60 65
REMARK SMILES IDX 69 66 61 67 62 68 68 69 70 70 63 71 64 72 65 73 66 74 67 75
REMARK SMILES IDX 43 76 44 77 53 78 45 79 46 80 52 81 54 82 47 83 48 84 49 85
REMARK SMILES IDX 50 86 51 87
REMARK H PARENT 84 13 75 37 41 48
REMARK Flexibility Score: inf
ROOT
ATOM      1  C   UNL A   1      33.621  29.236  26.210  1.00  0.00     0.275 C 
ENDROOT
BRANCH   1   2
ATOM      2  C   UNL A   1      33.394  27.772  25.843  1.00  0.00     0.274 C 
BRANCH   2   3
ATOM      3  O   UNL A   1      32.054  27.563  25.352  1.00  0.00    -0.462 OA
BRANCH   3   4
ATOM      4  C   UNL A   1      31.231  26.865  26.177  1.00  0.00     0.310 C 
ATOM      5  O   UNL A   1      31.007  27.156  27.348  1.00  0.00    -0.252 OA
BRANCH   4   6
ATOM      6  C   UNL A   1      30.603  25.647  25.533  1.00  0.00     0.165 C 
BRANCH   6   7
ATOM      7  C   UNL A   1      31.382  24.375  25.633  1.00  0.00     0.047 A 
ATOM      8  C   UNL A   1      32.643  21.947  25.690  1.00  0.00     0.108 A 
ATOM      9  N   UNL A   1      33.083  22.846  24.874  1.00  0.00    -0.243 NA
ATOM     10  N   UNL A   1      31.581  22.152  26.524  1.00  0.00    -0.310 N 
ATOM     11  C   UNL A   1      32.427  24.047  24.859  1.00  0.00     0.123 A 
ATOM     12  C   UNL A   1      30.918  23.342  26.581  1.00  0.00     0.254 A 
ATOM     13  H   UNL A   1      31.284  21.414  27.105  1.00  0.00     0.171 HD
ATOM     14  O   UNL A   1      29.986  23.529  27.357  1.00  0.00    -0.269 OA
BRANCH   8  15
ATOM     15  C   UNL A   1      33.273  20.577  25.733  1.00  0.00     0.072 C 
ATOM     16  C   UNL A   1      32.500  19.620  24.843  1.00  0.00     0.012 C 
ENDBRANCH   8  15
ENDBRANCH   6   7
ENDBRANCH   4   6
ENDBRANCH   3   4
ENDBRANCH   2   3
ENDBRANCH   1   2
BRANCH   1  17
ATOM     17  O   UNL A   1      33.722  29.386  27.636  1.00  0.00    -0.458 OA
BRANCH  17  18
ATOM     18  C   UNL A   1      34.506  30.403  28.059  1.00  0.00     0.338 C 
ATOM     19  O   UNL A   1      34.180  31.559  28.264  1.00  0.00    -0.246 OA
BRANCH  18  20
ATOM     20  C   UNL A   1      35.877  29.915  28.254  1.00  0.00     0.060 A 
ATOM     21  C   UNL A   1      36.270  29.431  29.503  1.00  0.00     0.016 A 
ATOM     22  C   UNL A   1      36.803  30.049  27.219  1.00  0.00     0.016 A 
ATOM     23  C   UNL A   1      37.608  29.119  29.735  1.00  0.00     0.010 A 
ATOM     24  C   UNL A   1      38.134  29.688  27.439  1.00  0.00     0.010 A 
ATOM     25  C   UNL A   1      38.553  29.245  28.705  1.00  0.00    -0.014 A 
BRANCH  25  26
ATOM     26  C   UNL A   1      39.984  28.937  28.952  1.00  0.00     0.031 A 
ATOM     27  C   UNL A   1      40.900  29.997  29.499  1.00  0.00     0.074 A 
ATOM     28  C   UNL A   1      40.464  27.711  28.671  1.00  0.00     0.049 A 
ATOM     29  N   UNL A   1      42.197  29.967  29.657  1.00  0.00    -0.248 NA
ATOM     30  C   UNL A   1      40.272  31.261  29.916  1.00  0.00     0.031 C 
ATOM     31  C   UNL A   1      39.674  26.589  28.163  1.00  0.00     0.029 A 
ATOM     32  N   UNL A   1      41.737  27.206  28.766  1.00  0.00    -0.354 N 
ATOM     33  C   UNL A   1      42.548  31.211  30.167  1.00  0.00     0.074 A 
ATOM     34  C   UNL A   1      41.325  31.978  30.282  1.00  0.00     0.031 C 
ATOM     35  C   UNL A   1      40.478  25.528  27.991  1.00  0.00     0.029 A 
ATOM     36  C   UNL A   1      41.846  25.907  28.330  1.00  0.00     0.049 A 
ATOM     37  H   UNL A   1      42.498  27.725  29.114  1.00  0.00     0.167 HD
ATOM     38  C   UNL A   1      43.776  31.670  30.509  1.00  0.00     0.037 A 
ATOM     39  C   UNL A   1      42.930  25.121  28.190  1.00  0.00     0.037 A 
ATOM     40  C   UNL A   1      44.987  30.898  30.413  1.00  0.00     0.049 A 
ATOM     41  C   UNL A   1      44.286  25.661  28.547  1.00  0.00     0.074 A 
ATOM     42  C   UNL A   1      46.280  31.275  30.736  1.00  0.00     0.029 A 
ATOM     43  N   UNL A   1      45.056  29.587  29.964  1.00  0.00    -0.354 N 
ATOM     44  N   UNL A   1      44.604  26.849  29.004  1.00  0.00    -0.248 NA
ATOM     45  C   UNL A   1      45.431  24.760  28.364  1.00  0.00     0.031 C 
ATOM     46  C   UNL A   1      47.132  30.199  30.463  1.00  0.00     0.029 A 
ATOM     47  C   UNL A   1      46.367  29.143  29.996  1.00  0.00     0.049 A 
ATOM     48  H   UNL A   1      44.284  29.052  29.667  1.00  0.00     0.167 HD
ATOM     49  C   UNL A   1      45.983  26.835  29.171  1.00  0.00     0.074 A 
ATOM     50  C   UNL A   1      46.439  25.516  28.780  1.00  0.00     0.031 C 
ATOM     51  C   UNL A   1      46.800  27.825  29.605  1.00  0.00     0.037 A 
BRANCH  38  52
ATOM     52  C   UNL A   1      43.871  33.086  31.003  1.00  0.00     0.058 A 
ATOM     53  C   UNL A   1      43.990  34.167  30.119  1.00  0.00     0.135 A 
ATOM     54  C   UNL A   1      43.816  33.364  32.378  1.00  0.00     0.135 A 
ATOM     55  F   UNL A   1      44.062  33.953  28.795  1.00  0.00    -0.206 F 
ATOM     56  C   UNL A   1      44.077  35.477  30.581  1.00  0.00     0.059 A 
ATOM     57  C   UNL A   1      43.883  34.667  32.862  1.00  0.00     0.059 A 
ATOM     58  F   UNL A   1      43.703  32.364  33.267  1.00  0.00    -0.206 F 
ATOM     59  C   UNL A   1      44.029  35.717  31.955  1.00  0.00     0.060 A 
BRANCH  59  60
ATOM     60  S   UNL A   1      44.147  37.418  32.546  1.00  0.00     0.124 S 
ATOM     61  O   UNL A   1      43.823  38.169  31.337  1.00  0.00    -0.237 OA
ATOM     62  O   UNL A   1      43.141  37.458  33.603  1.00  0.00    -0.237 OA
ATOM     63  O   UNL A   1      45.531  37.524  32.999  1.00  0.00    -0.744 OA
ENDBRANCH  59  60
ENDBRANCH  38  52
BRANCH  39  64
ATOM     64  C   UNL A   1      42.776  23.744  27.658  1.00  0.00     0.058 A 
ATOM     65  C   UNL A   1      42.493  22.669  28.511  1.00  0.00     0.135 A 
ATOM     66  C   UNL A   1      42.887  23.481  26.284  1.00  0.00     0.135 A 
ATOM     67  F   UNL A   1      42.386  22.872  29.832  1.00  0.00    -0.206 F 
ATOM     68  C   UNL A   1      42.331  21.376  28.022  1.00  0.00     0.059 A 
ATOM     69  C   UNL A   1      42.711  22.202  25.768  1.00  0.00     0.059 A 
ATOM     70  F   UNL A   1      43.146  24.481  25.426  1.00  0.00    -0.206 F 
ATOM     71  C   UNL A   1      42.441  21.153  26.648  1.00  0.00     0.060 A 
BRANCH  71  72
ATOM     72  S   UNL A   1      42.171  19.486  26.009  1.00  0.00     0.124 S 
ATOM     73  O   UNL A   1      43.005  19.493  24.812  1.00  0.00    -0.237 OA
ATOM     74  O   UNL A   1      42.641  18.650  27.108  1.00  0.00    -0.237 OA
ATOM     75  O   UNL A   1      40.730  19.449  25.777  1.00  0.00    -0.744 OA
ENDBRANCH  71  72
ENDBRANCH  39  64
BRANCH  51  76
ATOM     76  C   UNL A   1      48.265  27.512  29.700  1.00  0.00     0.058 A 
ATOM     77  C   UNL A   1      49.141  27.792  28.640  1.00  0.00     0.135 A 
ATOM     78  C   UNL A   1      48.802  26.965  30.875  1.00  0.00     0.135 A 
ATOM     79  F   UNL A   1      48.673  28.309  27.494  1.00  0.00    -0.206 F 
ATOM     80  C   UNL A   1      50.502  27.521  28.736  1.00  0.00     0.059 A 
ATOM     81  C   UNL A   1      50.163  26.702  30.999  1.00  0.00     0.059 A 
ATOM     82  F   UNL A   1      48.004  26.687  31.917  1.00  0.00    -0.206 F 
ATOM     83  C   UNL A   1      51.003  26.974  29.919  1.00  0.00     0.060 A 
BRANCH  83  84
ATOM     84  S   UNL A   1      52.776  26.653  30.050  1.00  0.00     0.124 S 
ATOM     85  O   UNL A   1      52.816  25.651  31.109  1.00  0.00    -0.237 OA
ATOM     86  O   UNL A   1      53.111  26.174  28.712  1.00  0.00    -0.237 OA
ATOM     87  O   UNL A   1      53.330  27.959  30.396  1.00  0.00    -0.744 OA
ENDBRANCH  83  84
ENDBRANCH  51  76
ENDBRANCH  25  26
ENDBRANCH  18  20
ENDBRANCH  17  18
ENDBRANCH   1  17
TORSDOF 16
ENDMDL
