MODEL 1
REMARK VINA RESULT:     -12.0      0.000      0.000
REMARK SMILES O=C(Nc1ccc(C(=O)OCCOC(=O)c2ccc(-c3c4nc(c(-c5c(F)cc(S(=O)(=O)[O-])cc5F)c5ccc([nH]5)c(-c5c(F)cc(S(=O)(=O)[O-])cc5F)c5nc(c(-c6c(F)cc(S(=O)(=O)[O-])cc6F)c6ccc3[nH]6)C=C5)C=C4)cc2)cc1)c1cc(F)cc(Br)c1
REMARK SMILES IDX 12 1 11 2 10 3 8 4 9 5 7 6 4 7 5 8 83 9 6 10 82 11 3 12 1 13
REMARK SMILES IDX 2 14 84 16 85 17 91 18 86 19 89 20 87 21 88 22 90 23 13 24
REMARK SMILES IDX 14 25 15 26 16 27 17 28 81 29 18 30 80 31 19 32 20 33 21 34
REMARK SMILES IDX 74 35 22 36 79 37 73 38 75 39 23 40 78 41 72 42 71 43 24 45
REMARK SMILES IDX 58 46 37 47 57 48 38 49 41 50 56 51 76 52 39 53 40 54 55 56
REMARK SMILES IDX 77 57 42 58 25 59 26 60 35 61 27 62 28 63 34 64 36 65 29 66
REMARK SMILES IDX 30 67 31 68 32 69 33 70 59 71 60 72 69 73 61 74 62 75 68 76
REMARK SMILES IDX 70 77 63 78 64 79 65 80 66 81 67 82 43 83 44 84 53 85 45 86
REMARK SMILES IDX 46 87 52 88 54 89 47 90 48 91 49 92 50 93 51 94
REMARK H PARENT 3 15 75 44 41 55
REMARK Flexibility Score: inf
ROOT
ATOM      1  C   UNL A   1      40.190  22.818  26.595  1.00  0.00     0.275 C 
ENDROOT
BRANCH   1   2
ATOM      2  C   UNL A   1      39.266  21.710  26.084  1.00  0.00     0.275 C 
BRANCH   2   3
ATOM      3  O   UNL A   1      37.961  22.220  25.736  1.00  0.00    -0.458 OA
BRANCH   3   4
ATOM      4  C   UNL A   1      37.096  21.296  25.250  1.00  0.00     0.338 C 
ATOM      5  O   UNL A   1      37.392  20.225  24.749  1.00  0.00    -0.246 OA
BRANCH   4   6
ATOM      6  C   UNL A   1      35.686  21.715  25.430  1.00  0.00     0.060 A 
ATOM      7  C   UNL A   1      33.040  22.190  26.188  1.00  0.00     0.041 A 
ATOM      8  C   UNL A   1      34.059  22.886  26.816  1.00  0.00     0.027 A 
ATOM      9  C   UNL A   1      33.329  21.384  25.074  1.00  0.00     0.027 A 
ATOM     10  C   UNL A   1      35.375  22.595  26.477  1.00  0.00     0.018 A 
ATOM     11  C   UNL A   1      34.654  21.148  24.688  1.00  0.00     0.018 A 
BRANCH   7  12
ATOM     12  N   UNL A   1      31.784  22.224  26.814  1.00  0.00    -0.322 N 
ATOM     13  O   UNL A   1      29.825  23.200  27.446  1.00  0.00    -0.269 OA
ATOM     14  C   UNL A   1      30.851  23.241  26.776  1.00  0.00     0.255 C 
ATOM     15  H   UNL A   1      31.541  21.431  27.344  1.00  0.00     0.170 HD
BRANCH  14  16
ATOM     16  C   UNL A   1      31.056  24.381  25.854  1.00  0.00     0.044 A 
ATOM     17  C   UNL A   1      30.919  24.228  24.468  1.00  0.00     0.053 A 
ATOM     18  C   UNL A   1      31.475  25.596  26.400  1.00  0.00     0.029 A 
ATOM     19  C   UNL A   1      31.308  25.270  23.637  1.00  0.00     0.125 A 
ATOM     20  C   UNL A   1      31.846  26.630  25.544  1.00  0.00     0.021 A 
ATOM     21  F   UNL A   1      31.266  25.107  22.309  1.00  0.00    -0.207 F 
ATOM     22  C   UNL A   1      31.784  26.467  24.161  1.00  0.00     0.055 A 
ATOM     23  Br  UNL A   1      32.493  28.250  26.269  1.00  0.00    -0.051 Br
ENDBRANCH  14  16
ENDBRANCH   7  12
ENDBRANCH   4   6
ENDBRANCH   3   4
ENDBRANCH   2   3
ENDBRANCH   1   2
BRANCH   1  24
ATOM     24  O   UNL A   1      39.550  24.107  26.526  1.00  0.00    -0.458 OA
BRANCH  24  25
ATOM     25  C   UNL A   1      40.394  25.150  26.361  1.00  0.00     0.338 C 
ATOM     26  O   UNL A   1      40.840  25.576  25.306  1.00  0.00    -0.246 OA
BRANCH  25  27
ATOM     27  C   UNL A   1      40.653  25.838  27.636  1.00  0.00     0.060 A 
ATOM     28  C   UNL A   1      39.639  25.814  28.578  1.00  0.00     0.016 A 
ATOM     29  C   UNL A   1      41.721  26.714  27.798  1.00  0.00     0.016 A 
ATOM     30  C   UNL A   1      39.571  26.799  29.556  1.00  0.00     0.010 A 
ATOM     31  C   UNL A   1      41.742  27.584  28.903  1.00  0.00     0.010 A 
ATOM     32  C   UNL A   1      40.634  27.689  29.764  1.00  0.00    -0.014 A 
BRANCH  32  33
ATOM     33  C   UNL A   1      40.546  28.710  30.861  1.00  0.00     0.031 A 
ATOM     34  C   UNL A   1      41.487  28.672  32.047  1.00  0.00     0.074 A 
ATOM     35  C   UNL A   1      39.649  29.718  30.775  1.00  0.00     0.049 A 
ATOM     36  N   UNL A   1      41.472  29.399  33.138  1.00  0.00    -0.248 NA
ATOM     37  C   UNL A   1      42.575  27.681  32.016  1.00  0.00     0.031 C 
ATOM     38  C   UNL A   1      38.679  29.903  29.688  1.00  0.00     0.029 A 
ATOM     39  N   UNL A   1      39.410  30.793  31.600  1.00  0.00    -0.354 N 
ATOM     40  C   UNL A   1      42.508  28.923  33.937  1.00  0.00     0.074 A 
ATOM     41  C   UNL A   1      43.119  27.827  33.215  1.00  0.00     0.031 C 
ATOM     42  C   UNL A   1      38.012  31.049  29.872  1.00  0.00     0.029 A 
ATOM     43  C   UNL A   1      38.404  31.621  31.152  1.00  0.00     0.049 A 
ATOM     44  H   UNL A   1      39.912  30.956  32.431  1.00  0.00     0.167 HD
ATOM     45  C   UNL A   1      42.918  29.360  35.155  1.00  0.00     0.037 A 
ATOM     46  C   UNL A   1      37.810  32.688  31.719  1.00  0.00     0.037 A 
ATOM     47  C   UNL A   1      42.338  30.483  35.851  1.00  0.00     0.049 A 
ATOM     48  C   UNL A   1      38.264  33.135  33.078  1.00  0.00     0.074 A 
ATOM     49  C   UNL A   1      42.687  31.004  37.086  1.00  0.00     0.029 A 
ATOM     50  N   UNL A   1      41.303  31.271  35.369  1.00  0.00    -0.354 N 
ATOM     51  N   UNL A   1      39.211  32.634  33.836  1.00  0.00    -0.248 NA
ATOM     52  C   UNL A   1      37.562  34.283  33.666  1.00  0.00     0.031 C 
ATOM     53  C   UNL A   1      41.836  32.078  37.370  1.00  0.00     0.029 A 
ATOM     54  C   UNL A   1      40.994  32.264  36.287  1.00  0.00     0.049 A 
ATOM     55  H   UNL A   1      40.855  31.145  34.502  1.00  0.00     0.167 HD
ATOM     56  C   UNL A   1      39.221  33.410  34.988  1.00  0.00     0.074 A 
ATOM     57  C   UNL A   1      38.214  34.437  34.809  1.00  0.00     0.031 C 
ATOM     58  C   UNL A   1      39.984  33.277  36.101  1.00  0.00     0.037 A 
BRANCH  45  59
ATOM     59  C   UNL A   1      44.043  28.617  35.834  1.00  0.00     0.058 A 
ATOM     60  C   UNL A   1      45.389  28.975  35.655  1.00  0.00     0.135 A 
ATOM     61  C   UNL A   1      43.764  27.568  36.728  1.00  0.00     0.135 A 
ATOM     62  F   UNL A   1      45.719  29.958  34.802  1.00  0.00    -0.206 F 
ATOM     63  C   UNL A   1      46.416  28.310  36.320  1.00  0.00     0.059 A 
ATOM     64  C   UNL A   1      44.773  26.909  37.427  1.00  0.00     0.059 A 
ATOM     65  F   UNL A   1      42.496  27.182  36.942  1.00  0.00    -0.206 F 
ATOM     66  C   UNL A   1      46.098  27.281  37.207  1.00  0.00     0.060 A 
BRANCH  66  67
ATOM     67  S   UNL A   1      47.442  26.445  38.078  1.00  0.00     0.124 S 
ATOM     68  O   UNL A   1      47.292  26.980  39.428  1.00  0.00    -0.237 OA
ATOM     69  O   UNL A   1      47.093  25.039  37.911  1.00  0.00    -0.237 OA
ATOM     70  O   UNL A   1      48.637  26.881  37.362  1.00  0.00    -0.744 OA
ENDBRANCH  66  67
ENDBRANCH  45  59
BRANCH  46  71
ATOM     71  C   UNL A   1      36.673  33.362  31.032  1.00  0.00     0.058 A 
ATOM     72  C   UNL A   1      36.876  34.192  29.919  1.00  0.00     0.135 A 
ATOM     73  C   UNL A   1      35.351  33.183  31.475  1.00  0.00     0.135 A 
ATOM     74  F   UNL A   1      38.119  34.406  29.460  1.00  0.00    -0.206 F 
ATOM     75  C   UNL A   1      35.817  34.834  29.286  1.00  0.00     0.059 A 
ATOM     76  C   UNL A   1      34.273  33.780  30.834  1.00  0.00     0.059 A 
ATOM     77  F   UNL A   1      35.096  32.387  32.527  1.00  0.00    -0.206 F 
ATOM     78  C   UNL A   1      34.518  34.619  29.749  1.00  0.00     0.060 A 
BRANCH  78  79
ATOM     79  S   UNL A   1      33.144  35.425  28.898  1.00  0.00     0.124 S 
ATOM     80  O   UNL A   1      33.844  36.407  28.078  1.00  0.00    -0.237 OA
ATOM     81  O   UNL A   1      32.532  34.312  28.180  1.00  0.00    -0.237 OA
ATOM     82  O   UNL A   1      32.346  35.970  29.993  1.00  0.00    -0.744 OA
ENDBRANCH  78  79
ENDBRANCH  46  71
BRANCH  58  83
ATOM     83  C   UNL A   1      39.772  34.289  37.193  1.00  0.00     0.058 A 
ATOM     84  C   UNL A   1      40.348  35.569  37.138  1.00  0.00     0.135 A 
ATOM     85  C   UNL A   1      38.995  33.970  38.318  1.00  0.00     0.135 A 
ATOM     86  F   UNL A   1      41.106  35.924  36.088  1.00  0.00    -0.206 F 
ATOM     87  C   UNL A   1      40.206  36.476  38.182  1.00  0.00     0.059 A 
ATOM     88  C   UNL A   1      38.810  34.875  39.359  1.00  0.00     0.059 A 
ATOM     89  F   UNL A   1      38.410  32.766  38.418  1.00  0.00    -0.206 F 
ATOM     90  C   UNL A   1      39.441  36.117  39.292  1.00  0.00     0.060 A 
BRANCH  90  91
ATOM     91  S   UNL A   1      39.278  37.295  40.650  1.00  0.00     0.124 S 
ATOM     92  O   UNL A   1      38.724  36.453  41.704  1.00  0.00    -0.237 OA
ATOM     93  O   UNL A   1      40.656  37.735  40.848  1.00  0.00    -0.237 OA
ATOM     94  O   UNL A   1      38.375  38.308  40.114  1.00  0.00    -0.744 OA
ENDBRANCH  90  91
ENDBRANCH  58  83
ENDBRANCH  32  33
ENDBRANCH  25  27
ENDBRANCH  24  25
ENDBRANCH   1  24
TORSDOF 16
ENDMDL
MODEL 2
REMARK VINA RESULT:     -12.0      6.922     12.268
REMARK SMILES O=C(Nc1ccc(C(=O)OCCOC(=O)c2ccc(-c3c4nc(c(-c5c(F)cc(S(=O)(=O)[O-])cc5F)c5ccc([nH]5)c(-c5c(F)cc(S(=O)(=O)[O-])cc5F)c5nc(c(-c6c(F)cc(S(=O)(=O)[O-])cc6F)c6ccc3[nH]6)C=C5)C=C4)cc2)cc1)c1cc(F)cc(Br)c1
REMARK SMILES IDX 12 1 11 2 10 3 8 4 9 5 7 6 4 7 5 8 83 9 6 10 82 11 3 12 1 13
REMARK SMILES IDX 2 14 84 16 85 17 91 18 86 19 89 20 87 21 88 22 90 23 13 24
REMARK SMILES IDX 14 25 15 26 16 27 17 28 81 29 18 30 80 31 19 32 20 33 21 34
REMARK SMILES IDX 74 35 22 36 79 37 73 38 75 39 23 40 78 41 72 42 71 43 24 45
REMARK SMILES IDX 58 46 37 47 57 48 38 49 41 50 56 51 76 52 39 53 40 54 55 56
REMARK SMILES IDX 77 57 42 58 25 59 26 60 35 61 27 62 28 63 34 64 36 65 29 66
REMARK SMILES IDX 30 67 31 68 32 69 33 70 59 71 60 72 69 73 61 74 62 75 68 76
REMARK SMILES IDX 70 77 63 78 64 79 65 80 66 81 67 82 43 83 44 84 53 85 45 86
REMARK SMILES IDX 46 87 52 88 54 89 47 90 48 91 49 92 50 93 51 94
REMARK H PARENT 3 15 75 44 41 55
REMARK Flexibility Score: inf
ROOT
ATOM      1  C   UNL A   1      34.363  31.926  28.353  1.00  0.00     0.275 C 
ENDROOT
BRANCH   1   2
ATOM      2  C   UNL A   1      33.320  31.185  27.513  1.00  0.00     0.275 C 
BRANCH   2   3
ATOM      3  O   UNL A   1      33.517  29.756  27.555  1.00  0.00    -0.458 OA
BRANCH   3   4
ATOM      4  C   UNL A   1      32.503  29.023  27.032  1.00  0.00     0.338 C 
ATOM      5  O   UNL A   1      31.545  28.579  27.641  1.00  0.00    -0.246 OA
BRANCH   4   6
ATOM      6  C   UNL A   1      32.656  28.838  25.570  1.00  0.00     0.060 A 
ATOM      7  C   UNL A   1      32.802  27.996  22.910  1.00  0.00     0.041 A 
ATOM      8  C   UNL A   1      31.572  28.343  23.444  1.00  0.00     0.027 A 
ATOM      9  C   UNL A   1      33.974  28.228  23.650  1.00  0.00     0.027 A 
ATOM     10  C   UNL A   1      31.502  28.698  24.786  1.00  0.00     0.018 A 
ATOM     11  C   UNL A   1      33.904  28.654  24.982  1.00  0.00     0.018 A 
BRANCH   7  12
ATOM     12  N   UNL A   1      32.778  27.286  21.700  1.00  0.00    -0.322 N 
ATOM     13  O   UNL A   1      32.973  25.425  20.402  1.00  0.00    -0.269 OA
ATOM     14  C   UNL A   1      32.911  25.924  21.520  1.00  0.00     0.255 C 
ATOM     15  H   UNL A   1      32.653  27.822  20.884  1.00  0.00     0.170 HD
BRANCH  14  16
ATOM     16  C   UNL A   1      32.912  25.031  22.701  1.00  0.00     0.044 A 
ATOM     17  C   UNL A   1      31.716  24.551  23.250  1.00  0.00     0.053 A 
ATOM     18  C   UNL A   1      34.139  24.750  23.306  1.00  0.00     0.029 A 
ATOM     19  C   UNL A   1      31.759  23.879  24.464  1.00  0.00     0.125 A 
ATOM     20  C   UNL A   1      34.154  24.063  24.517  1.00  0.00     0.021 A 
ATOM     21  F   UNL A   1      30.616  23.491  25.044  1.00  0.00    -0.207 F 
ATOM     22  C   UNL A   1      32.966  23.642  25.112  1.00  0.00     0.055 A 
ATOM     23  Br  UNL A   1      35.801  23.749  25.389  1.00  0.00    -0.051 Br
ENDBRANCH  14  16
ENDBRANCH   7  12
ENDBRANCH   4   6
ENDBRANCH   3   4
ENDBRANCH   2   3
ENDBRANCH   1   2
BRANCH   1  24
ATOM     24  O   UNL A   1      35.679  31.370  28.163  1.00  0.00    -0.458 OA
BRANCH  24  25
ATOM     25  C   UNL A   1      36.323  31.037  29.304  1.00  0.00     0.338 C 
ATOM     26  O   UNL A   1      35.971  31.286  30.448  1.00  0.00    -0.246 OA
BRANCH  25  27
ATOM     27  C   UNL A   1      37.501  30.198  29.030  1.00  0.00     0.060 A 
ATOM     28  C   UNL A   1      38.403  30.027  30.066  1.00  0.00     0.016 A 
ATOM     29  C   UNL A   1      37.861  29.832  27.738  1.00  0.00     0.016 A 
ATOM     30  C   UNL A   1      39.726  29.699  29.794  1.00  0.00     0.010 A 
ATOM     31  C   UNL A   1      39.147  29.318  27.496  1.00  0.00     0.010 A 
ATOM     32  C   UNL A   1      40.125  29.307  28.508  1.00  0.00    -0.014 A 
BRANCH  32  33
ATOM     33  C   UNL A   1      41.553  28.915  28.260  1.00  0.00     0.031 A 
ATOM     34  C   UNL A   1      42.675  29.928  28.364  1.00  0.00     0.074 A 
ATOM     35  C   UNL A   1      41.863  27.626  27.991  1.00  0.00     0.049 A 
ATOM     36  N   UNL A   1      43.945  29.788  28.065  1.00  0.00    -0.248 NA
ATOM     37  C   UNL A   1      42.329  31.274  28.847  1.00  0.00     0.031 C 
ATOM     38  C   UNL A   1      40.898  26.528  27.870  1.00  0.00     0.029 A 
ATOM     39  N   UNL A   1      43.075  27.008  27.787  1.00  0.00    -0.354 N 
ATOM     40  C   UNL A   1      44.532  31.033  28.275  1.00  0.00     0.074 A 
ATOM     41  C   UNL A   1      43.475  31.924  28.706  1.00  0.00     0.031 C 
ATOM     42  C   UNL A   1      41.552  25.374  27.691  1.00  0.00     0.029 A 
ATOM     43  C   UNL A   1      42.973  25.655  27.551  1.00  0.00     0.049 A 
ATOM     44  H   UNL A   1      43.935  27.488  27.808  1.00  0.00     0.167 HD
ATOM     45  C   UNL A   1      45.830  31.400  28.131  1.00  0.00     0.037 A 
ATOM     46  C   UNL A   1      43.897  24.739  27.202  1.00  0.00     0.037 A 
ATOM     47  C   UNL A   1      46.891  30.499  27.749  1.00  0.00     0.049 A 
ATOM     48  C   UNL A   1      45.321  25.176  27.023  1.00  0.00     0.074 A 
ATOM     49  C   UNL A   1      48.237  30.776  27.579  1.00  0.00     0.029 A 
ATOM     50  N   UNL A   1      46.731  29.145  27.493  1.00  0.00    -0.354 N 
ATOM     51  N   UNL A   1      45.841  26.371  27.177  1.00  0.00    -0.248 NA
ATOM     52  C   UNL A   1      46.283  24.146  26.612  1.00  0.00     0.031 C 
ATOM     53  C   UNL A   1      48.884  29.601  27.180  1.00  0.00     0.029 A 
ATOM     54  C   UNL A   1      47.952  28.577  27.156  1.00  0.00     0.049 A 
ATOM     55  H   UNL A   1      45.878  28.657  27.544  1.00  0.00     0.167 HD
ATOM     56  C   UNL A   1      47.193  26.233  26.885  1.00  0.00     0.074 A 
ATOM     57  C   UNL A   1      47.415  24.833  26.586  1.00  0.00     0.031 C 
ATOM     58  C   UNL A   1      48.160  27.183  26.853  1.00  0.00     0.037 A 
BRANCH  45  59
ATOM     59  C   UNL A   1      46.190  32.847  28.372  1.00  0.00     0.058 A 
ATOM     60  C   UNL A   1      46.625  33.309  29.624  1.00  0.00     0.135 A 
ATOM     61  C   UNL A   1      46.159  33.772  27.314  1.00  0.00     0.135 A 
ATOM     62  F   UNL A   1      46.662  32.475  30.677  1.00  0.00    -0.206 F 
ATOM     63  C   UNL A   1      46.996  34.636  29.824  1.00  0.00     0.059 A 
ATOM     64  C   UNL A   1      46.553  35.097  27.483  1.00  0.00     0.059 A 
ATOM     65  F   UNL A   1      45.753  33.389  26.092  1.00  0.00    -0.206 F 
ATOM     66  C   UNL A   1      46.960  35.522  28.747  1.00  0.00     0.060 A 
BRANCH  66  67
ATOM     67  S   UNL A   1      47.466  37.235  29.019  1.00  0.00     0.124 S 
ATOM     68  O   UNL A   1      47.380  37.783  27.669  1.00  0.00    -0.237 OA
ATOM     69  O   UNL A   1      46.458  37.710  29.961  1.00  0.00    -0.237 OA
ATOM     70  O   UNL A   1      48.816  37.111  29.559  1.00  0.00    -0.744 OA
ENDBRANCH  66  67
ENDBRANCH  45  59
BRANCH  46  71
ATOM     71  C   UNL A   1      43.487  23.332  26.931  1.00  0.00     0.058 A 
ATOM     72  C   UNL A   1      43.160  22.450  27.971  1.00  0.00     0.135 A 
ATOM     73  C   UNL A   1      43.411  22.843  25.615  1.00  0.00     0.135 A 
ATOM     74  F   UNL A   1      43.226  22.863  29.247  1.00  0.00    -0.206 F 
ATOM     75  C   UNL A   1      42.793  21.132  27.720  1.00  0.00     0.059 A 
ATOM     76  C   UNL A   1      43.006  21.543  25.337  1.00  0.00     0.059 A 
ATOM     77  F   UNL A   1      43.699  23.648  24.580  1.00  0.00    -0.206 F 
ATOM     78  C   UNL A   1      42.715  20.689  26.398  1.00  0.00     0.060 A 
BRANCH  78  79
ATOM     79  S   UNL A   1      42.200  18.988  26.077  1.00  0.00     0.124 S 
ATOM     80  O   UNL A   1      43.037  18.640  24.934  1.00  0.00    -0.237 OA
ATOM     81  O   UNL A   1      42.529  18.326  27.335  1.00  0.00    -0.237 OA
ATOM     82  O   UNL A   1      40.773  19.117  25.799  1.00  0.00    -0.744 OA
ENDBRANCH  78  79
ENDBRANCH  46  71
BRANCH  58  83
ATOM     83  C   UNL A   1      49.550  26.723  26.508  1.00  0.00     0.058 A 
ATOM     84  C   UNL A   1      50.075  26.862  25.213  1.00  0.00     0.135 A 
ATOM     85  C   UNL A   1      50.363  26.121  27.482  1.00  0.00     0.135 A 
ATOM     86  F   UNL A   1      49.338  27.426  24.243  1.00  0.00    -0.206 F 
ATOM     87  C   UNL A   1      51.334  26.373  24.883  1.00  0.00     0.059 A 
ATOM     88  C   UNL A   1      51.640  25.655  27.182  1.00  0.00     0.059 A 
ATOM     89  F   UNL A   1      49.918  25.973  28.740  1.00  0.00    -0.206 F 
ATOM     90  C   UNL A   1      52.107  25.765  25.873  1.00  0.00     0.060 A 
BRANCH  90  91
ATOM     91  S   UNL A   1      53.732  25.117  25.427  1.00  0.00     0.124 S 
ATOM     92  O   UNL A   1      54.565  25.660  26.494  1.00  0.00    -0.237 OA
ATOM     93  O   UNL A   1      53.514  23.674  25.465  1.00  0.00    -0.237 OA
ATOM     94  O   UNL A   1      53.967  25.675  24.100  1.00  0.00    -0.744 OA
ENDBRANCH  90  91
ENDBRANCH  58  83
ENDBRANCH  32  33
ENDBRANCH  25  27
ENDBRANCH  24  25
ENDBRANCH   1  24
TORSDOF 16
ENDMDL
MODEL 3
REMARK VINA RESULT:     -11.9      6.849     12.297
REMARK SMILES O=C(Nc1ccc(C(=O)OCCOC(=O)c2ccc(-c3c4nc(c(-c5c(F)cc(S(=O)(=O)[O-])cc5F)c5ccc([nH]5)c(-c5c(F)cc(S(=O)(=O)[O-])cc5F)c5nc(c(-c6c(F)cc(S(=O)(=O)[O-])cc6F)c6ccc3[nH]6)C=C5)C=C4)cc2)cc1)c1cc(F)cc(Br)c1
REMARK SMILES IDX 12 1 11 2 10 3 8 4 9 5 7 6 4 7 5 8 83 9 6 10 82 11 3 12 1 13
REMARK SMILES IDX 2 14 84 16 85 17 91 18 86 19 89 20 87 21 88 22 90 23 13 24
REMARK SMILES IDX 14 25 15 26 16 27 17 28 81 29 18 30 80 31 19 32 20 33 21 34
REMARK SMILES IDX 74 35 22 36 79 37 73 38 75 39 23 40 78 41 72 42 71 43 24 45
REMARK SMILES IDX 58 46 37 47 57 48 38 49 41 50 56 51 76 52 39 53 40 54 55 56
REMARK SMILES IDX 77 57 42 58 25 59 26 60 35 61 27 62 28 63 34 64 36 65 29 66
REMARK SMILES IDX 30 67 31 68 32 69 33 70 59 71 60 72 69 73 61 74 62 75 68 76
REMARK SMILES IDX 70 77 63 78 64 79 65 80 66 81 67 82 43 83 44 84 53 85 45 86
REMARK SMILES IDX 46 87 52 88 54 89 47 90 48 91 49 92 50 93 51 94
REMARK H PARENT 3 15 75 44 41 55
REMARK Flexibility Score: inf
ROOT
ATOM      1  C   UNL A   1      34.819  32.078  28.669  1.00  0.00     0.275 C 
ENDROOT
BRANCH   1   2
ATOM      2  C   UNL A   1      33.676  32.158  27.654  1.00  0.00     0.275 C 
BRANCH   2   3
ATOM      3  O   UNL A   1      33.251  30.847  27.223  1.00  0.00    -0.458 OA
BRANCH   3   4
ATOM      4  C   UNL A   1      32.147  30.834  26.436  1.00  0.00     0.338 C 
ATOM      5  O   UNL A   1      31.220  31.623  26.481  1.00  0.00    -0.246 OA
BRANCH   4   6
ATOM      6  C   UNL A   1      32.197  29.739  25.438  1.00  0.00     0.060 A 
ATOM      7  C   UNL A   1      32.442  28.050  23.227  1.00  0.00     0.041 A 
ATOM      8  C   UNL A   1      33.573  28.383  23.953  1.00  0.00     0.027 A 
ATOM      9  C   UNL A   1      31.174  28.424  23.701  1.00  0.00     0.027 A 
ATOM     10  C   UNL A   1      33.449  29.276  25.012  1.00  0.00     0.018 A 
ATOM     11  C   UNL A   1      31.047  29.267  24.813  1.00  0.00     0.018 A 
BRANCH   7  12
ATOM     12  N   UNL A   1      32.659  27.477  21.965  1.00  0.00    -0.322 N 
ATOM     13  O   UNL A   1      33.228  25.795  20.538  1.00  0.00    -0.269 OA
ATOM     14  C   UNL A   1      32.962  26.161  21.678  1.00  0.00     0.255 C 
ATOM     15  H   UNL A   1      32.587  28.084  21.193  1.00  0.00     0.170 HD
BRANCH  14  16
ATOM     16  C   UNL A   1      32.902  25.149  22.757  1.00  0.00     0.044 A 
ATOM     17  C   UNL A   1      31.686  24.570  23.142  1.00  0.00     0.053 A 
ATOM     18  C   UNL A   1      34.083  24.851  23.441  1.00  0.00     0.029 A 
ATOM     19  C   UNL A   1      31.653  23.775  24.281  1.00  0.00     0.125 A 
ATOM     20  C   UNL A   1      34.024  24.041  24.571  1.00  0.00     0.021 A 
ATOM     21  F   UNL A   1      30.483  23.286  24.711  1.00  0.00    -0.207 F 
ATOM     22  C   UNL A   1      32.809  23.516  25.009  1.00  0.00     0.055 A 
ATOM     23  Br  UNL A   1      35.601  23.698  25.554  1.00  0.00    -0.051 Br
ENDBRANCH  14  16
ENDBRANCH   7  12
ENDBRANCH   4   6
ENDBRANCH   3   4
ENDBRANCH   2   3
ENDBRANCH   1   2
BRANCH   1  24
ATOM     24  O   UNL A   1      35.333  30.736  28.774  1.00  0.00    -0.458 OA
BRANCH  24  25
ATOM     25  C   UNL A   1      36.212  30.543  29.784  1.00  0.00     0.338 C 
ATOM     26  O   UNL A   1      36.061  30.845  30.958  1.00  0.00    -0.246 OA
BRANCH  25  27
ATOM     27  C   UNL A   1      37.392  29.789  29.331  1.00  0.00     0.060 A 
ATOM     28  C   UNL A   1      38.225  29.280  30.312  1.00  0.00     0.016 A 
ATOM     29  C   UNL A   1      37.827  29.824  28.010  1.00  0.00     0.016 A 
ATOM     30  C   UNL A   1      39.557  29.008  30.027  1.00  0.00     0.010 A 
ATOM     31  C   UNL A   1      39.119  29.365  27.695  1.00  0.00     0.010 A 
ATOM     32  C   UNL A   1      40.031  29.013  28.707  1.00  0.00    -0.014 A 
BRANCH  32  33
ATOM     33  C   UNL A   1      41.465  28.669  28.430  1.00  0.00     0.031 A 
ATOM     34  C   UNL A   1      42.558  29.712  28.536  1.00  0.00     0.074 A 
ATOM     35  C   UNL A   1      41.809  27.395  28.132  1.00  0.00     0.049 A 
ATOM     36  N   UNL A   1      43.827  29.616  28.216  1.00  0.00    -0.248 NA
ATOM     37  C   UNL A   1      42.180  31.038  29.049  1.00  0.00     0.031 C 
ATOM     38  C   UNL A   1      40.874  26.270  28.005  1.00  0.00     0.029 A 
ATOM     39  N   UNL A   1      43.035  26.816  27.898  1.00  0.00    -0.354 N 
ATOM     40  C   UNL A   1      44.381  30.873  28.441  1.00  0.00     0.074 A 
ATOM     41  C   UNL A   1      43.305  31.724  28.904  1.00  0.00     0.031 C 
ATOM     42  C   UNL A   1      41.559  25.140  27.795  1.00  0.00     0.029 A 
ATOM     43  C   UNL A   1      42.969  25.465  27.639  1.00  0.00     0.049 A 
ATOM     44  H   UNL A   1      43.880  27.321  27.916  1.00  0.00     0.167 HD
ATOM     45  C   UNL A   1      45.665  31.281  28.284  1.00  0.00     0.037 A 
ATOM     46  C   UNL A   1      43.913  24.584  27.259  1.00  0.00     0.037 A 
ATOM     47  C   UNL A   1      46.745  30.419  27.869  1.00  0.00     0.049 A 
ATOM     48  C   UNL A   1      45.322  25.066  27.067  1.00  0.00     0.074 A 
ATOM     49  C   UNL A   1      48.081  30.739  27.685  1.00  0.00     0.029 A 
ATOM     50  N   UNL A   1      46.622  29.065  27.590  1.00  0.00    -0.354 N 
ATOM     51  N   UNL A   1      45.809  26.272  27.235  1.00  0.00    -0.248 NA
ATOM     52  C   UNL A   1      46.307  24.072  26.622  1.00  0.00     0.031 C 
ATOM     53  C   UNL A   1      48.755  29.591  27.254  1.00  0.00     0.029 A 
ATOM     54  C   UNL A   1      47.853  28.541  27.224  1.00  0.00     0.049 A 
ATOM     55  H   UNL A   1      45.784  28.552  27.645  1.00  0.00     0.167 HD
ATOM     56  C   UNL A   1      47.159  26.181  26.920  1.00  0.00     0.074 A 
ATOM     57  C   UNL A   1      47.417  24.794  26.592  1.00  0.00     0.031 C 
ATOM     58  C   UNL A   1      48.098  27.159  26.892  1.00  0.00     0.037 A 
BRANCH  45  59
ATOM     59  C   UNL A   1      45.986  32.733  28.547  1.00  0.00     0.058 A 
ATOM     60  C   UNL A   1      45.906  33.709  27.540  1.00  0.00     0.135 A 
ATOM     61  C   UNL A   1      46.319  33.164  29.843  1.00  0.00     0.135 A 
ATOM     62  F   UNL A   1      45.608  33.356  26.279  1.00  0.00    -0.206 F 
ATOM     63  C   UNL A   1      46.162  35.051  27.803  1.00  0.00     0.059 A 
ATOM     64  C   UNL A   1      46.550  34.506  30.135  1.00  0.00     0.059 A 
ATOM     65  F   UNL A   1      46.409  32.277  30.847  1.00  0.00    -0.206 F 
ATOM     66  C   UNL A   1      46.480  35.442  29.105  1.00  0.00     0.060 A 
BRANCH  66  67
ATOM     67  S   UNL A   1      46.787  37.192  29.432  1.00  0.00     0.124 S 
ATOM     68  O   UNL A   1      47.150  37.164  30.846  1.00  0.00    -0.237 OA
ATOM     69  O   UNL A   1      47.872  37.495  28.506  1.00  0.00    -0.237 OA
ATOM     70  O   UNL A   1      45.509  37.826  29.126  1.00  0.00    -0.744 OA
ENDBRANCH  66  67
ENDBRANCH  45  59
BRANCH  46  71
ATOM     71  C   UNL A   1      43.541  23.171  26.968  1.00  0.00     0.058 A 
ATOM     72  C   UNL A   1      43.226  22.269  27.994  1.00  0.00     0.135 A 
ATOM     73  C   UNL A   1      43.489  22.696  25.646  1.00  0.00     0.135 A 
ATOM     74  F   UNL A   1      43.270  22.667  29.275  1.00  0.00    -0.206 F 
ATOM     75  C   UNL A   1      42.894  20.945  27.724  1.00  0.00     0.059 A 
ATOM     76  C   UNL A   1      43.119  21.389  25.349  1.00  0.00     0.059 A 
ATOM     77  F   UNL A   1      43.766  23.520  24.623  1.00  0.00    -0.206 F 
ATOM     78  C   UNL A   1      42.839  20.516  26.397  1.00  0.00     0.060 A 
BRANCH  78  79
ATOM     79  S   UNL A   1      42.369  18.807  26.051  1.00  0.00     0.124 S 
ATOM     80  O   UNL A   1      43.316  18.450  25.001  1.00  0.00    -0.237 OA
ATOM     81  O   UNL A   1      42.577  18.164  27.344  1.00  0.00    -0.237 OA
ATOM     82  O   UNL A   1      40.975  18.921  25.632  1.00  0.00    -0.744 OA
ENDBRANCH  78  79
ENDBRANCH  46  71
BRANCH  58  83
ATOM     83  C   UNL A   1      49.495  26.746  26.518  1.00  0.00     0.058 A 
ATOM     84  C   UNL A   1      50.393  26.233  27.468  1.00  0.00     0.135 A 
ATOM     85  C   UNL A   1      49.947  26.880  25.196  1.00  0.00     0.135 A 
ATOM     86  F   UNL A   1      50.014  26.089  28.748  1.00  0.00    -0.206 F 
ATOM     87  C   UNL A   1      51.705  25.917  27.132  1.00  0.00     0.059 A 
ATOM     88  C   UNL A   1      51.246  26.538  24.830  1.00  0.00     0.059 A 
ATOM     89  F   UNL A   1      49.128  27.354  24.244  1.00  0.00    -0.206 F 
ATOM     90  C   UNL A   1      52.124  26.080  25.811  1.00  0.00     0.060 A 
BRANCH  90  91
ATOM     91  S   UNL A   1      53.835  25.686  25.390  1.00  0.00     0.124 S 
ATOM     92  O   UNL A   1      54.507  26.947  25.685  1.00  0.00    -0.237 OA
ATOM     93  O   UNL A   1      54.133  24.582  26.297  1.00  0.00    -0.237 OA
ATOM     94  O   UNL A   1      53.762  25.327  23.978  1.00  0.00    -0.744 OA
ENDBRANCH  90  91
ENDBRANCH  58  83
ENDBRANCH  32  33
ENDBRANCH  25  27
ENDBRANCH  24  25
ENDBRANCH   1  24
TORSDOF 16
ENDMDL
