MODEL 1
REMARK VINA RESULT:      -9.7      0.000      0.000
REMARK SMILES Cn1ccnc(N[C@H]2C=C[C@H](C(=O)OCCOC(=O)c3ccc(-c4c5nc(c(-c6c(F)cc(S(=O)(=O)[O-])cc6F)c6ccc([nH]6)c(-c6c(F)cc(S(=O)(=O)[O-])cc6F)c6nc(c(-c7c(F)cc(S(=O)(=O)[O-])cc7F)c7ccc4[nH]7)C=C6)C=C5)cc3)C2)c1=O
REMARK SMILES IDX 16 1 15 2 14 3 12 4 13 5 11 6 8 7 9 8 86 9 10 10 7 11 6 13
REMARK SMILES IDX 1 14 2 15 3 16 87 17 4 18 88 19 5 20 17 21 18 22 19 23 20 24
REMARK SMILES IDX 21 25 85 26 22 27 84 28 23 29 24 30 25 31 78 32 26 33 83 34
REMARK SMILES IDX 77 35 79 36 27 37 82 38 76 39 75 40 28 42 62 43 41 44 61 45
REMARK SMILES IDX 42 46 45 47 60 48 80 49 43 50 44 51 59 53 81 54 46 55 29 56
REMARK SMILES IDX 30 57 39 58 31 59 32 60 38 61 40 62 33 63 34 64 35 65 36 66
REMARK SMILES IDX 37 67 63 68 64 69 73 70 65 71 66 72 72 73 74 74 67 75 68 76
REMARK SMILES IDX 69 77 70 78 71 79 47 80 48 81 57 82 49 83 50 84 56 85 58 86
REMARK SMILES IDX 51 87 52 88 53 89 54 90 55 91
REMARK H PARENT 7 12 79 41 45 52
REMARK Flexibility Score: inf
ROOT
ATOM      1  C   UNL A   1      40.455  20.775  26.115  1.00  0.00     0.275 C 
ENDROOT
BRANCH   1   2
ATOM      2  C   UNL A   1      41.921  20.416  26.363  1.00  0.00     0.274 C 
BRANCH   2   3
ATOM      3  O   UNL A   1      42.784  20.978  25.356  1.00  0.00    -0.462 OA
BRANCH   3   4
ATOM      4  C   UNL A   1      43.735  21.852  25.792  1.00  0.00     0.312 C 
ATOM      5  O   UNL A   1      44.915  21.569  25.968  1.00  0.00    -0.252 OA
BRANCH   4   6
ATOM      6  C   UNL A   1      43.130  23.224  26.059  1.00  0.00     0.124 C 
ATOM      7  C   UNL A   1      44.649  24.973  25.307  1.00  0.00     0.105 C 
ATOM      8  C   UNL A   1      44.681  24.840  26.790  1.00  0.00    -0.006 C 
ATOM      9  C   UNL A   1      43.393  24.197  24.900  1.00  0.00     0.048 C 
ATOM     10  C   UNL A   1      43.852  23.875  27.207  1.00  0.00    -0.014 C 
BRANCH   7  11
ATOM     11  N   UNL A   1      44.694  26.348  24.895  1.00  0.00    -0.359 N 
ATOM     12  H   UNL A   1      45.325  26.530  24.161  1.00  0.00     0.162 HD
BRANCH  11  13
ATOM     13  C   UNL A   1      44.014  27.457  25.343  1.00  0.00     0.193 A 
ATOM     14  C   UNL A   1      43.952  30.031  28.167  1.00  0.00     0.153 C 
ATOM     15  N   UNL A   1      43.602  29.268  26.991  1.00  0.00    -0.314 N 
ATOM     16  C   UNL A   1      42.350  29.351  26.433  1.00  0.00     0.109 A 
ATOM     17  C   UNL A   1      44.567  28.440  26.424  1.00  0.00     0.293 A 
ATOM     18  C   UNL A   1      42.025  28.601  25.374  1.00  0.00     0.131 A 
ATOM     19  O   UNL A   1      45.749  28.459  26.739  1.00  0.00    -0.265 OA
ATOM     20  N   UNL A   1      42.819  27.630  24.827  1.00  0.00    -0.233 NA
ENDBRANCH  11  13
ENDBRANCH   7  11
ENDBRANCH   4   6
ENDBRANCH   3   4
ENDBRANCH   2   3
ENDBRANCH   1   2
BRANCH   1  21
ATOM     21  O   UNL A   1      40.025  21.868  26.947  1.00  0.00    -0.458 OA
BRANCH  21  22
ATOM     22  C   UNL A   1      39.158  22.717  26.352  1.00  0.00     0.338 C 
ATOM     23  O   UNL A   1      38.341  22.453  25.485  1.00  0.00    -0.246 OA
BRANCH  22  24
ATOM     24  C   UNL A   1      39.251  24.052  26.955  1.00  0.00     0.060 A 
ATOM     25  C   UNL A   1      40.112  24.974  26.367  1.00  0.00     0.016 A 
ATOM     26  C   UNL A   1      38.675  24.319  28.195  1.00  0.00     0.016 A 
ATOM     27  C   UNL A   1      40.529  26.091  27.079  1.00  0.00     0.010 A 
ATOM     28  C   UNL A   1      38.994  25.514  28.850  1.00  0.00     0.010 A 
ATOM     29  C   UNL A   1      39.962  26.392  28.324  1.00  0.00    -0.014 A 
BRANCH  29  30
ATOM     30  C   UNL A   1      40.394  27.599  29.084  1.00  0.00     0.031 A 
ATOM     31  C   UNL A   1      41.723  27.605  29.798  1.00  0.00     0.074 A 
ATOM     32  C   UNL A   1      39.602  28.690  29.147  1.00  0.00     0.049 A 
ATOM     33  N   UNL A   1      42.169  28.427  30.712  1.00  0.00    -0.248 NA
ATOM     34  C   UNL A   1      42.667  26.528  29.450  1.00  0.00     0.031 C 
ATOM     35  C   UNL A   1      38.321  28.854  28.455  1.00  0.00     0.029 A 
ATOM     36  N   UNL A   1      39.755  29.871  29.832  1.00  0.00    -0.354 N 
ATOM     37  C   UNL A   1      43.411  27.929  31.100  1.00  0.00     0.074 A 
ATOM     38  C   UNL A   1      43.649  26.736  30.317  1.00  0.00     0.031 C 
ATOM     39  C   UNL A   1      37.821  30.068  28.725  1.00  0.00     0.029 A 
ATOM     40  C   UNL A   1      38.685  30.727  29.694  1.00  0.00     0.049 A 
ATOM     41  H   UNL A   1      40.552  30.086  30.368  1.00  0.00     0.167 HD
ATOM     42  C   UNL A   1      44.264  28.425  32.028  1.00  0.00     0.037 A 
ATOM     43  C   UNL A   1      38.394  31.882  30.323  1.00  0.00     0.037 A 
ATOM     44  C   UNL A   1      44.039  29.651  32.750  1.00  0.00     0.049 A 
ATOM     45  C   UNL A   1      39.337  32.398  31.372  1.00  0.00     0.074 A 
ATOM     46  C   UNL A   1      44.841  30.247  33.709  1.00  0.00     0.029 A 
ATOM     47  N   UNL A   1      42.939  30.480  32.579  1.00  0.00    -0.354 N 
ATOM     48  N   UNL A   1      40.467  31.878  31.787  1.00  0.00    -0.248 NA
ATOM     49  C   UNL A   1      38.960  33.643  32.054  1.00  0.00     0.031 C 
ATOM     50  C   UNL A   1      44.211  31.418  34.141  1.00  0.00     0.029 A 
ATOM     51  C   UNL A   1      43.040  31.579  33.416  1.00  0.00     0.049 A 
ATOM     52  H   UNL A   1      42.198  30.312  31.955  1.00  0.00     0.167 HD
ATOM     53  C   UNL A   1      40.951  32.748  32.756  1.00  0.00     0.074 A 
ATOM     54  C   UNL A   1      39.992  33.827  32.866  1.00  0.00     0.031 C 
ATOM     55  C   UNL A   1      42.089  32.659  33.488  1.00  0.00     0.037 A 
BRANCH  42  56
ATOM     56  C   UNL A   1      45.502  27.628  32.348  1.00  0.00     0.058 A 
ATOM     57  C   UNL A   1      46.696  27.776  31.628  1.00  0.00     0.135 A 
ATOM     58  C   UNL A   1      45.498  26.727  33.427  1.00  0.00     0.135 A 
ATOM     59  F   UNL A   1      46.755  28.612  30.579  1.00  0.00    -0.206 F 
ATOM     60  C   UNL A   1      47.834  27.040  31.947  1.00  0.00     0.059 A 
ATOM     61  C   UNL A   1      46.631  26.001  33.781  1.00  0.00     0.059 A 
ATOM     62  F   UNL A   1      44.383  26.546  34.153  1.00  0.00    -0.206 F 
ATOM     63  C   UNL A   1      47.792  26.153  33.025  1.00  0.00     0.060 A 
BRANCH  63  64
ATOM     64  S   UNL A   1      49.275  25.203  33.425  1.00  0.00     0.124 S 
ATOM     65  O   UNL A   1      49.943  26.095  34.370  1.00  0.00    -0.237 OA
ATOM     66  O   UNL A   1      48.720  23.980  33.994  1.00  0.00    -0.237 OA
ATOM     67  O   UNL A   1      49.939  25.047  32.135  1.00  0.00    -0.744 OA
ENDBRANCH  63  64
ENDBRANCH  42  56
BRANCH  43  68
ATOM     68  C   UNL A   1      37.125  32.594  30.009  1.00  0.00     0.058 A 
ATOM     69  C   UNL A   1      35.946  32.315  30.713  1.00  0.00     0.135 A 
ATOM     70  C   UNL A   1      37.076  33.591  29.020  1.00  0.00     0.135 A 
ATOM     71  F   UNL A   1      35.939  31.366  31.660  1.00  0.00    -0.206 F 
ATOM     72  C   UNL A   1      34.761  32.992  30.444  1.00  0.00     0.059 A 
ATOM     73  C   UNL A   1      35.911  34.302  28.754  1.00  0.00     0.059 A 
ATOM     74  F   UNL A   1      38.181  33.907  28.326  1.00  0.00    -0.206 F 
ATOM     75  C   UNL A   1      34.754  33.988  29.466  1.00  0.00     0.060 A 
BRANCH  75  76
ATOM     76  S   UNL A   1      33.225  34.898  29.161  1.00  0.00     0.124 S 
ATOM     77  O   UNL A   1      32.636  34.937  30.494  1.00  0.00    -0.237 OA
ATOM     78  O   UNL A   1      33.722  36.171  28.645  1.00  0.00    -0.237 OA
ATOM     79  O   UNL A   1      32.528  34.065  28.185  1.00  0.00    -0.744 OA
ENDBRANCH  75  76
ENDBRANCH  43  68
BRANCH  55  80
ATOM     80  C   UNL A   1      42.400  33.790  34.425  1.00  0.00     0.058 A 
ATOM     81  C   UNL A   1      42.046  33.749  35.780  1.00  0.00     0.135 A 
ATOM     82  C   UNL A   1      43.136  34.896  33.968  1.00  0.00     0.135 A 
ATOM     83  F   UNL A   1      41.332  32.719  36.262  1.00  0.00    -0.206 F 
ATOM     84  C   UNL A   1      42.408  34.770  36.654  1.00  0.00     0.059 A 
ATOM     85  C   UNL A   1      43.529  35.915  34.828  1.00  0.00     0.059 A 
ATOM     86  F   UNL A   1      43.504  34.978  32.680  1.00  0.00    -0.206 F 
ATOM     87  C   UNL A   1      43.156  35.845  36.169  1.00  0.00     0.060 A 
BRANCH  87  88
ATOM     88  S   UNL A   1      43.678  37.128  37.327  1.00  0.00     0.124 S 
ATOM     89  O   UNL A   1      43.968  38.238  36.426  1.00  0.00    -0.237 OA
ATOM     90  O   UNL A   1      42.497  37.288  38.169  1.00  0.00    -0.237 OA
ATOM     91  O   UNL A   1      44.836  36.537  37.990  1.00  0.00    -0.744 OA
ENDBRANCH  87  88
ENDBRANCH  55  80
ENDBRANCH  29  30
ENDBRANCH  22  24
ENDBRANCH  21  22
ENDBRANCH   1  21
TORSDOF 16
ENDMDL
MODEL 2
REMARK VINA RESULT:      -9.7      4.372     10.834
REMARK SMILES Cn1ccnc(N[C@H]2C=C[C@H](C(=O)OCCOC(=O)c3ccc(-c4c5nc(c(-c6c(F)cc(S(=O)(=O)[O-])cc6F)c6ccc([nH]6)c(-c6c(F)cc(S(=O)(=O)[O-])cc6F)c6nc(c(-c7c(F)cc(S(=O)(=O)[O-])cc7F)c7ccc4[nH]7)C=C6)C=C5)cc3)C2)c1=O
REMARK SMILES IDX 16 1 15 2 14 3 12 4 13 5 11 6 8 7 9 8 86 9 10 10 7 11 6 13
REMARK SMILES IDX 1 14 2 15 3 16 87 17 4 18 88 19 5 20 17 21 18 22 19 23 20 24
REMARK SMILES IDX 21 25 85 26 22 27 84 28 23 29 24 30 25 31 78 32 26 33 83 34
REMARK SMILES IDX 77 35 79 36 27 37 82 38 76 39 75 40 28 42 62 43 41 44 61 45
REMARK SMILES IDX 42 46 45 47 60 48 80 49 43 50 44 51 59 53 81 54 46 55 29 56
REMARK SMILES IDX 30 57 39 58 31 59 32 60 38 61 40 62 33 63 34 64 35 65 36 66
REMARK SMILES IDX 37 67 63 68 64 69 73 70 65 71 66 72 72 73 74 74 67 75 68 76
REMARK SMILES IDX 69 77 70 78 71 79 47 80 48 81 57 82 49 83 50 84 56 85 58 86
REMARK SMILES IDX 51 87 52 88 53 89 54 90 55 91
REMARK H PARENT 7 12 79 41 45 52
REMARK Flexibility Score: inf
ROOT
ATOM      1  C   UNL A   1      32.707  30.896  27.121  1.00  0.00     0.275 C 
ENDROOT
BRANCH   1   2
ATOM      2  C   UNL A   1      31.707  30.031  26.350  1.00  0.00     0.274 C 
BRANCH   2   3
ATOM      3  O   UNL A   1      32.134  29.805  24.994  1.00  0.00    -0.462 OA
BRANCH   3   4
ATOM      4  C   UNL A   1      32.158  28.509  24.574  1.00  0.00     0.312 C 
ATOM      5  O   UNL A   1      31.164  27.839  24.319  1.00  0.00    -0.252 OA
BRANCH   4   6
ATOM      6  C   UNL A   1      33.589  27.992  24.489  1.00  0.00     0.124 C 
ATOM      7  C   UNL A   1      33.593  25.574  24.203  1.00  0.00     0.105 C 
ATOM      8  C   UNL A   1      33.947  25.946  25.601  1.00  0.00    -0.006 C 
ATOM      9  C   UNL A   1      33.732  26.888  23.430  1.00  0.00     0.048 C 
ATOM     10  C   UNL A   1      33.939  27.275  25.764  1.00  0.00    -0.014 C 
BRANCH   7  11
ATOM     11  N   UNL A   1      34.393  24.481  23.725  1.00  0.00    -0.359 N 
ATOM     12  H   UNL A   1      34.797  24.632  22.840  1.00  0.00     0.162 HD
BRANCH  11  13
ATOM     13  C   UNL A   1      34.696  23.260  24.283  1.00  0.00     0.193 A 
ATOM     14  C   UNL A   1      37.603  20.859  24.909  1.00  0.00     0.153 C 
ATOM     15  N   UNL A   1      36.275  21.425  24.835  1.00  0.00    -0.314 N 
ATOM     16  C   UNL A   1      35.156  20.641  24.969  1.00  0.00     0.109 A 
ATOM     17  C   UNL A   1      36.147  22.795  24.626  1.00  0.00     0.293 A 
ATOM     18  C   UNL A   1      33.934  21.171  24.850  1.00  0.00     0.131 A 
ATOM     19  O   UNL A   1      37.082  23.583  24.692  1.00  0.00    -0.265 OA
ATOM     20  N   UNL A   1      33.672  22.463  24.481  1.00  0.00    -0.233 NA
ENDBRANCH  11  13
ENDBRANCH   7  11
ENDBRANCH   4   6
ENDBRANCH   3   4
ENDBRANCH   2   3
ENDBRANCH   1   2
BRANCH   1  21
ATOM     21  O   UNL A   1      33.687  30.096  27.806  1.00  0.00    -0.458 OA
BRANCH  21  22
ATOM     22  C   UNL A   1      34.581  30.805  28.530  1.00  0.00     0.338 C 
ATOM     23  O   UNL A   1      34.377  31.826  29.164  1.00  0.00    -0.246 OA
BRANCH  22  24
ATOM     24  C   UNL A   1      35.885  30.129  28.541  1.00  0.00     0.060 A 
ATOM     25  C   UNL A   1      36.387  29.702  29.766  1.00  0.00     0.016 A 
ATOM     26  C   UNL A   1      36.692  30.114  27.406  1.00  0.00     0.016 A 
ATOM     27  C   UNL A   1      37.738  29.408  29.902  1.00  0.00     0.010 A 
ATOM     28  C   UNL A   1      38.020  29.686  27.521  1.00  0.00     0.010 A 
ATOM     29  C   UNL A   1      38.573  29.375  28.779  1.00  0.00    -0.014 A 
BRANCH  29  30
ATOM     30  C   UNL A   1      40.021  29.045  28.917  1.00  0.00     0.031 A 
ATOM     31  C   UNL A   1      40.998  30.107  29.355  1.00  0.00     0.074 A 
ATOM     32  C   UNL A   1      40.469  27.801  28.647  1.00  0.00     0.049 A 
ATOM     33  N   UNL A   1      42.304  30.109  29.289  1.00  0.00    -0.248 NA
ATOM     34  C   UNL A   1      40.426  31.339  29.924  1.00  0.00     0.031 C 
ATOM     35  C   UNL A   1      39.633  26.656  28.275  1.00  0.00     0.029 A 
ATOM     36  N   UNL A   1      41.744  27.289  28.636  1.00  0.00    -0.354 N 
ATOM     37  C   UNL A   1      42.707  31.363  29.740  1.00  0.00     0.074 A 
ATOM     38  C   UNL A   1      41.506  32.094  30.080  1.00  0.00     0.031 C 
ATOM     39  C   UNL A   1      40.408  25.576  28.103  1.00  0.00     0.029 A 
ATOM     40  C   UNL A   1      41.802  25.972  28.240  1.00  0.00     0.049 A 
ATOM     41  H   UNL A   1      42.538  27.813  28.888  1.00  0.00     0.167 HD
ATOM     42  C   UNL A   1      43.965  31.855  29.850  1.00  0.00     0.037 A 
ATOM     43  C   UNL A   1      42.857  25.184  27.954  1.00  0.00     0.037 A 
ATOM     44  C   UNL A   1      45.152  31.089  29.568  1.00  0.00     0.049 A 
ATOM     45  C   UNL A   1      44.242  25.757  28.051  1.00  0.00     0.074 A 
ATOM     46  C   UNL A   1      46.475  31.487  29.652  1.00  0.00     0.029 A 
ATOM     47  N   UNL A   1      45.160  29.760  29.166  1.00  0.00    -0.354 N 
ATOM     48  N   UNL A   1      44.607  26.967  28.401  1.00  0.00    -0.248 NA
ATOM     49  C   UNL A   1      45.357  24.869  27.697  1.00  0.00     0.031 C 
ATOM     50  C   UNL A   1      47.282  30.410  29.269  1.00  0.00     0.029 A 
ATOM     51  C   UNL A   1      46.464  29.325  28.995  1.00  0.00     0.049 A 
ATOM     52  H   UNL A   1      44.358  29.208  29.025  1.00  0.00     0.167 HD
ATOM     53  C   UNL A   1      45.995  26.977  28.338  1.00  0.00     0.074 A 
ATOM     54  C   UNL A   1      46.404  25.653  27.918  1.00  0.00     0.031 C 
ATOM     55  C   UNL A   1      46.852  27.993  28.605  1.00  0.00     0.037 A 
BRANCH  42  56
ATOM     56  C   UNL A   1      44.129  33.296  30.256  1.00  0.00     0.058 A 
ATOM     57  C   UNL A   1      44.146  34.340  29.320  1.00  0.00     0.135 A 
ATOM     58  C   UNL A   1      44.230  33.637  31.616  1.00  0.00     0.135 A 
ATOM     59  F   UNL A   1      44.067  34.075  28.007  1.00  0.00    -0.206 F 
ATOM     60  C   UNL A   1      44.285  35.669  29.715  1.00  0.00     0.059 A 
ATOM     61  C   UNL A   1      44.342  34.959  32.035  1.00  0.00     0.059 A 
ATOM     62  F   UNL A   1      44.217  32.678  32.556  1.00  0.00    -0.206 F 
ATOM     63  C   UNL A   1      44.384  35.968  31.076  1.00  0.00     0.060 A 
BRANCH  63  64
ATOM     64  S   UNL A   1      44.566  37.695  31.573  1.00  0.00     0.124 S 
ATOM     65  O   UNL A   1      46.011  37.876  31.467  1.00  0.00    -0.237 OA
ATOM     66  O   UNL A   1      43.766  38.395  30.573  1.00  0.00    -0.237 OA
ATOM     67  O   UNL A   1      44.030  37.717  32.930  1.00  0.00    -0.744 OA
ENDBRANCH  63  64
ENDBRANCH  42  56
BRANCH  43  68
ATOM     68  C   UNL A   1      42.631  23.785  27.499  1.00  0.00     0.058 A 
ATOM     69  C   UNL A   1      42.550  23.473  26.135  1.00  0.00     0.135 A 
ATOM     70  C   UNL A   1      42.524  22.728  28.418  1.00  0.00     0.135 A 
ATOM     71  F   UNL A   1      42.637  24.448  25.218  1.00  0.00    -0.206 F 
ATOM     72  C   UNL A   1      42.364  22.166  25.696  1.00  0.00     0.059 A 
ATOM     73  C   UNL A   1      42.368  21.410  28.004  1.00  0.00     0.059 A 
ATOM     74  F   UNL A   1      42.610  22.970  29.735  1.00  0.00    -0.206 F 
ATOM     75  C   UNL A   1      42.279  21.140  26.639  1.00  0.00     0.060 A 
BRANCH  75  76
ATOM     76  S   UNL A   1      42.091  19.440  26.060  1.00  0.00     0.124 S 
ATOM     77  O   UNL A   1      42.539  18.683  27.222  1.00  0.00    -0.237 OA
ATOM     78  O   UNL A   1      40.662  19.372  25.765  1.00  0.00    -0.237 OA
ATOM     79  O   UNL A   1      42.967  19.385  24.892  1.00  0.00    -0.744 OA
ENDBRANCH  75  76
ENDBRANCH  43  68
BRANCH  55  80
ATOM     80  C   UNL A   1      48.321  27.700  28.521  1.00  0.00     0.058 A 
ATOM     81  C   UNL A   1      48.995  26.992  29.526  1.00  0.00     0.135 A 
ATOM     82  C   UNL A   1      49.045  28.065  27.374  1.00  0.00     0.135 A 
ATOM     83  F   UNL A   1      48.350  26.629  30.647  1.00  0.00    -0.206 F 
ATOM     84  C   UNL A   1      50.340  26.658  29.400  1.00  0.00     0.059 A 
ATOM     85  C   UNL A   1      50.383  27.722  27.216  1.00  0.00     0.059 A 
ATOM     86  F   UNL A   1      48.442  28.739  26.381  1.00  0.00    -0.206 F 
ATOM     87  C   UNL A   1      51.023  27.022  28.237  1.00  0.00     0.060 A 
BRANCH  87  88
ATOM     88  S   UNL A   1      52.749  26.525  28.056  1.00  0.00     0.124 S 
ATOM     89  O   UNL A   1      53.324  27.692  27.395  1.00  0.00    -0.237 OA
ATOM     90  O   UNL A   1      53.160  26.314  29.440  1.00  0.00    -0.237 OA
ATOM     91  O   UNL A   1      52.670  25.316  27.241  1.00  0.00    -0.744 OA
ENDBRANCH  87  88
ENDBRANCH  55  80
ENDBRANCH  29  30
ENDBRANCH  22  24
ENDBRANCH  21  22
ENDBRANCH   1  21
TORSDOF 16
ENDMDL
MODEL 3
REMARK VINA RESULT:      -9.5      5.790     12.207
REMARK SMILES Cn1ccnc(N[C@H]2C=C[C@H](C(=O)OCCOC(=O)c3ccc(-c4c5nc(c(-c6c(F)cc(S(=O)(=O)[O-])cc6F)c6ccc([nH]6)c(-c6c(F)cc(S(=O)(=O)[O-])cc6F)c6nc(c(-c7c(F)cc(S(=O)(=O)[O-])cc7F)c7ccc4[nH]7)C=C6)C=C5)cc3)C2)c1=O
REMARK SMILES IDX 16 1 15 2 14 3 12 4 13 5 11 6 8 7 9 8 86 9 10 10 7 11 6 13
REMARK SMILES IDX 1 14 2 15 3 16 87 17 4 18 88 19 5 20 17 21 18 22 19 23 20 24
REMARK SMILES IDX 21 25 85 26 22 27 84 28 23 29 24 30 25 31 78 32 26 33 83 34
REMARK SMILES IDX 77 35 79 36 27 37 82 38 76 39 75 40 28 42 62 43 41 44 61 45
REMARK SMILES IDX 42 46 45 47 60 48 80 49 43 50 44 51 59 53 81 54 46 55 29 56
REMARK SMILES IDX 30 57 39 58 31 59 32 60 38 61 40 62 33 63 34 64 35 65 36 66
REMARK SMILES IDX 37 67 63 68 64 69 73 70 65 71 66 72 72 73 74 74 67 75 68 76
REMARK SMILES IDX 69 77 70 78 71 79 47 80 48 81 57 82 49 83 50 84 56 85 58 86
REMARK SMILES IDX 51 87 52 88 53 89 54 90 55 91
REMARK H PARENT 7 12 79 41 45 52
REMARK Flexibility Score: inf
ROOT
ATOM      1  C   UNL A   1      34.398  31.789  27.967  1.00  0.00     0.275 C 
ENDROOT
BRANCH   1   2
ATOM      2  C   UNL A   1      33.454  30.663  27.540  1.00  0.00     0.274 C 
BRANCH   2   3
ATOM      3  O   UNL A   1      33.764  30.182  26.219  1.00  0.00    -0.462 OA
BRANCH   3   4
ATOM      4  C   UNL A   1      33.986  28.843  26.099  1.00  0.00     0.312 C 
ATOM      5  O   UNL A   1      34.610  28.163  26.906  1.00  0.00    -0.252 OA
BRANCH   4   6
ATOM      6  C   UNL A   1      33.375  28.304  24.811  1.00  0.00     0.124 C 
ATOM      7  C   UNL A   1      31.071  29.059  24.593  1.00  0.00     0.105 C 
ATOM      8  C   UNL A   1      31.126  27.631  25.012  1.00  0.00    -0.006 C 
ATOM      9  C   UNL A   1      32.496  29.354  24.116  1.00  0.00     0.048 C 
ATOM     10  C   UNL A   1      32.392  27.214  25.140  1.00  0.00    -0.014 C 
BRANCH   7  11
ATOM     11  N   UNL A   1      30.030  29.290  23.630  1.00  0.00    -0.359 N 
ATOM     12  H   UNL A   1      29.720  28.478  23.167  1.00  0.00     0.162 HD
BRANCH  11  13
ATOM     13  C   UNL A   1      29.389  30.443  23.238  1.00  0.00     0.193 A 
ATOM     14  C   UNL A   1      27.917  32.193  20.176  1.00  0.00     0.153 C 
ATOM     15  N   UNL A   1      28.377  31.921  21.519  1.00  0.00    -0.314 N 
ATOM     16  C   UNL A   1      28.557  32.932  22.430  1.00  0.00     0.109 A 
ATOM     17  C   UNL A   1      28.637  30.602  21.878  1.00  0.00     0.293 A 
ATOM     18  C   UNL A   1      29.030  32.671  23.654  1.00  0.00     0.131 A 
ATOM     19  O   UNL A   1      28.319  29.636  21.197  1.00  0.00    -0.265 OA
ATOM     20  N   UNL A   1      29.480  31.450  24.076  1.00  0.00    -0.233 NA
ENDBRANCH  11  13
ENDBRANCH   7  11
ENDBRANCH   4   6
ENDBRANCH   3   4
ENDBRANCH   2   3
ENDBRANCH   1   2
BRANCH   1  21
ATOM     21  O   UNL A   1      35.773  31.364  27.958  1.00  0.00    -0.458 OA
BRANCH  21  22
ATOM     22  C   UNL A   1      36.238  30.948  29.156  1.00  0.00     0.338 C 
ATOM     23  O   UNL A   1      35.715  31.102  30.247  1.00  0.00    -0.246 OA
BRANCH  22  24
ATOM     24  C   UNL A   1      37.474  30.173  28.987  1.00  0.00     0.060 A 
ATOM     25  C   UNL A   1      38.266  29.957  30.110  1.00  0.00     0.016 A 
ATOM     26  C   UNL A   1      37.951  29.857  27.718  1.00  0.00     0.016 A 
ATOM     27  C   UNL A   1      39.594  29.575  29.963  1.00  0.00     0.010 A 
ATOM     28  C   UNL A   1      39.247  29.344  27.586  1.00  0.00     0.010 A 
ATOM     29  C   UNL A   1      40.102  29.242  28.702  1.00  0.00    -0.014 A 
BRANCH  29  30
ATOM     30  C   UNL A   1      41.522  28.817  28.541  1.00  0.00     0.031 A 
ATOM     31  C   UNL A   1      42.631  29.832  28.660  1.00  0.00     0.074 A 
ATOM     32  C   UNL A   1      41.826  27.528  28.282  1.00  0.00     0.049 A 
ATOM     33  N   UNL A   1      43.885  29.733  28.305  1.00  0.00    -0.248 NA
ATOM     34  C   UNL A   1      42.274  31.139  29.237  1.00  0.00     0.031 C 
ATOM     35  C   UNL A   1      40.864  26.424  28.203  1.00  0.00     0.029 A 
ATOM     36  N   UNL A   1      43.034  26.924  28.031  1.00  0.00    -0.354 N 
ATOM     37  C   UNL A   1      44.450  30.983  28.548  1.00  0.00     0.074 A 
ATOM     38  C   UNL A   1      43.401  31.821  29.085  1.00  0.00     0.031 C 
ATOM     39  C   UNL A   1      41.518  25.281  27.954  1.00  0.00     0.029 A 
ATOM     40  C   UNL A   1      42.927  25.582  27.744  1.00  0.00     0.049 A 
ATOM     41  H   UNL A   1      43.893  27.405  28.055  1.00  0.00     0.167 HD
ATOM     42  C   UNL A   1      45.726  31.387  28.334  1.00  0.00     0.037 A 
ATOM     43  C   UNL A   1      43.843  24.701  27.297  1.00  0.00     0.037 A 
ATOM     44  C   UNL A   1      46.773  30.518  27.859  1.00  0.00     0.049 A 
ATOM     45  C   UNL A   1      45.243  25.176  27.035  1.00  0.00     0.074 A 
ATOM     46  C   UNL A   1      48.101  30.823  27.613  1.00  0.00     0.029 A 
ATOM     47  N   UNL A   1      46.615  29.168  27.578  1.00  0.00    -0.354 N 
ATOM     48  N   UNL A   1      45.746  26.377  27.192  1.00  0.00    -0.248 NA
ATOM     49  C   UNL A   1      46.198  24.186  26.517  1.00  0.00     0.031 C 
ATOM     50  C   UNL A   1      48.737  29.666  27.151  1.00  0.00     0.029 A 
ATOM     51  C   UNL A   1      47.819  28.628  27.158  1.00  0.00     0.049 A 
ATOM     52  H   UNL A   1      45.772  28.668  27.666  1.00  0.00     0.167 HD
ATOM     53  C   UNL A   1      47.081  26.281  26.821  1.00  0.00     0.074 A 
ATOM     54  C   UNL A   1      47.309  24.905  26.433  1.00  0.00     0.031 C 
ATOM     55  C   UNL A   1      48.032  27.247  26.805  1.00  0.00     0.037 A 
BRANCH  42  56
ATOM     56  C   UNL A   1      46.058  32.836  28.571  1.00  0.00     0.058 A 
ATOM     57  C   UNL A   1      46.618  33.290  29.775  1.00  0.00     0.135 A 
ATOM     58  C   UNL A   1      45.846  33.782  27.553  1.00  0.00     0.135 A 
ATOM     59  F   UNL A   1      46.831  32.435  30.787  1.00  0.00    -0.206 F 
ATOM     60  C   UNL A   1      46.931  34.632  29.971  1.00  0.00     0.059 A 
ATOM     61  C   UNL A   1      46.177  35.124  27.718  1.00  0.00     0.059 A 
ATOM     62  F   UNL A   1      45.314  33.404  26.380  1.00  0.00    -0.206 F 
ATOM     63  C   UNL A   1      46.705  35.543  28.937  1.00  0.00     0.060 A 
BRANCH  63  64
ATOM     64  S   UNL A   1      47.114  37.282  29.207  1.00  0.00     0.124 S 
ATOM     65  O   UNL A   1      47.524  37.694  27.868  1.00  0.00    -0.237 OA
ATOM     66  O   UNL A   1      45.847  37.832  29.678  1.00  0.00    -0.237 OA
ATOM     67  O   UNL A   1      48.181  37.230  30.202  1.00  0.00    -0.744 OA
ENDBRANCH  63  64
ENDBRANCH  42  56
BRANCH  43  68
ATOM     68  C   UNL A   1      43.442  23.294  27.021  1.00  0.00     0.058 A 
ATOM     69  C   UNL A   1      43.183  22.398  28.067  1.00  0.00     0.135 A 
ATOM     70  C   UNL A   1      43.279  22.828  25.706  1.00  0.00     0.135 A 
ATOM     71  F   UNL A   1      43.333  22.793  29.341  1.00  0.00    -0.206 F 
ATOM     72  C   UNL A   1      42.784  21.088  27.822  1.00  0.00     0.059 A 
ATOM     73  C   UNL A   1      42.852  21.532  25.436  1.00  0.00     0.059 A 
ATOM     74  F   UNL A   1      43.500  23.649  24.668  1.00  0.00    -0.206 F 
ATOM     75  C   UNL A   1      42.616  20.666  26.502  1.00  0.00     0.060 A 
BRANCH  75  76
ATOM     76  S   UNL A   1      42.046  18.981  26.194  1.00  0.00     0.124 S 
ATOM     77  O   UNL A   1      40.638  19.199  25.887  1.00  0.00    -0.237 OA
ATOM     78  O   UNL A   1      42.889  18.571  25.073  1.00  0.00    -0.237 OA
ATOM     79  O   UNL A   1      42.321  18.298  27.455  1.00  0.00    -0.744 OA
ENDBRANCH  75  76
ENDBRANCH  43  68
BRANCH  55  80
ATOM     80  C   UNL A   1      49.425  26.841  26.420  1.00  0.00     0.058 A 
ATOM     81  C   UNL A   1      50.324  26.300  27.351  1.00  0.00     0.135 A 
ATOM     82  C   UNL A   1      49.834  26.922  25.079  1.00  0.00     0.135 A 
ATOM     83  F   UNL A   1      49.983  26.211  28.647  1.00  0.00    -0.206 F 
ATOM     84  C   UNL A   1      51.585  25.856  26.966  1.00  0.00     0.059 A 
ATOM     85  C   UNL A   1      51.080  26.463  24.667  1.00  0.00     0.059 A 
ATOM     86  F   UNL A   1      49.007  27.427  24.150  1.00  0.00    -0.206 F 
ATOM     87  C   UNL A   1      51.950  25.935  25.620  1.00  0.00     0.060 A 
BRANCH  87  88
ATOM     88  S   UNL A   1      53.562  25.293  25.122  1.00  0.00     0.124 S 
ATOM     89  O   UNL A   1      53.630  25.715  23.727  1.00  0.00    -0.237 OA
ATOM     90  O   UNL A   1      54.468  25.980  26.037  1.00  0.00    -0.237 OA
ATOM     91  O   UNL A   1      53.437  23.854  25.338  1.00  0.00    -0.744 OA
ENDBRANCH  87  88
ENDBRANCH  55  80
ENDBRANCH  29  30
ENDBRANCH  22  24
ENDBRANCH  21  22
ENDBRANCH   1  21
TORSDOF 16
ENDMDL
