MODEL 1
REMARK VINA RESULT:     -12.5      0.000      0.000
REMARK SMILES Cc1c(N[C@@H]2CC[C@@H]([NH3+])C2)cccc1C(=O)OCCOC(=O)c1ccc(-c2c3nc(c(-c4c(F)cc(S(=O)(=O)[O-])cc4F)c4ccc([nH]4)c(-c4c(F)cc(S(=O)(=O)[O-])cc4F)c4nc(c(-c5c(F)cc(S(=O)(=O)[O-])cc5F)c5ccc2[nH]5)C=C4)C=C3)cc1
REMARK SMILES IDX 18 1 17 2 15 3 16 4 14 5 1 6 2 7 3 8 11 9 13 10 12 11 4 12
REMARK SMILES IDX 5 14 6 15 10 16 7 17 8 18 9 19 19 23 20 24 21 25 22 26 23 27
REMARK SMILES IDX 24 28 88 29 25 30 87 31 26 32 27 33 28 34 81 35 29 36 86 37
REMARK SMILES IDX 80 38 82 39 30 40 85 41 79 42 78 43 31 45 65 46 44 47 64 48
REMARK SMILES IDX 45 49 48 50 63 51 83 52 46 53 47 54 62 56 84 57 49 58 32 59
REMARK SMILES IDX 33 60 42 61 34 62 35 63 41 64 43 65 36 66 37 67 38 68 39 69
REMARK SMILES IDX 40 70 66 71 67 72 76 73 68 74 69 75 75 76 77 77 70 78 71 79
REMARK SMILES IDX 72 80 73 81 74 82 50 83 51 84 60 85 52 86 53 87 59 88 61 89
REMARK SMILES IDX 54 90 55 91 56 92 57 93 58 94
REMARK H PARENT 4 13 9 20 9 21 9 22 82 44 48 55
REMARK Flexibility Score: inf
ROOT
ATOM      1  C   UNL A   1      33.221  29.741  26.863  1.00  0.00     0.275 C 
ENDROOT
BRANCH   1   2
ATOM      2  O   UNL A   1      32.311  28.748  26.353  1.00  0.00    -0.458 OA
BRANCH   2   3
ATOM      3  C   UNL A   1      32.386  28.617  25.002  1.00  0.00     0.338 C 
ATOM      4  O   UNL A   1      32.852  29.442  24.247  1.00  0.00    -0.246 OA
BRANCH   3   5
ATOM      5  C   UNL A   1      31.730  27.389  24.488  1.00  0.00     0.065 A 
ATOM      6  C   UNL A   1      33.930  26.163  24.816  1.00  0.00     0.047 C 
ATOM      7  C   UNL A   1      32.441  26.173  24.558  1.00  0.00    -0.013 A 
ATOM      8  C   UNL A   1      31.765  24.951  24.329  1.00  0.00     0.038 A 
ATOM      9  C   UNL A   1      30.389  24.992  24.066  1.00  0.00     0.026 A 
ATOM     10  C   UNL A   1      30.385  27.399  24.113  1.00  0.00     0.016 A 
ATOM     11  C   UNL A   1      29.703  26.200  23.944  1.00  0.00     0.003 A 
BRANCH   8  12
ATOM     12  N   UNL A   1      32.497  23.780  24.288  1.00  0.00    -0.382 N 
ATOM     13  H   UNL A   1      32.999  23.625  23.456  1.00  0.00     0.160 HD
BRANCH  12  14
ATOM     14  C   UNL A   1      32.628  22.749  25.294  1.00  0.00     0.085 C 
ATOM     15  C   UNL A   1      32.405  23.190  26.746  1.00  0.00     0.031 C 
ATOM     16  C   UNL A   1      33.971  22.030  25.248  1.00  0.00     0.089 C 
ATOM     17  C   UNL A   1      33.575  22.593  27.531  1.00  0.00     0.067 C 
ATOM     18  C   UNL A   1      34.119  21.459  26.659  1.00  0.00     0.182 C 
BRANCH  18  19
ATOM     19  N   UNL A   1      33.335  20.235  26.841  1.00  0.00    -0.355 N 
ATOM     20  H   UNL A   1      33.321  19.984  27.830  1.00  0.00     0.344 HD
ATOM     21  H   UNL A   1      33.757  19.477  26.305  1.00  0.00     0.344 HD
ATOM     22  H   UNL A   1      32.380  20.390  26.517  1.00  0.00     0.344 HD
ENDBRANCH  18  19
ENDBRANCH  12  14
ENDBRANCH   8  12
ENDBRANCH   3   5
ENDBRANCH   2   3
ENDBRANCH   1   2
BRANCH   1  23
ATOM     23  C   UNL A   1      34.611  29.164  27.183  1.00  0.00     0.275 C 
BRANCH  23  24
ATOM     24  O   UNL A   1      35.203  29.485  28.461  1.00  0.00    -0.458 OA
BRANCH  24  25
ATOM     25  C   UNL A   1      36.301  30.289  28.445  1.00  0.00     0.338 C 
ATOM     26  O   UNL A   1      36.282  31.473  28.746  1.00  0.00    -0.246 OA
BRANCH  25  27
ATOM     27  C   UNL A   1      37.509  29.415  28.382  1.00  0.00     0.060 A 
ATOM     28  C   UNL A   1      38.550  29.709  27.489  1.00  0.00     0.016 A 
ATOM     29  C   UNL A   1      37.728  28.545  29.453  1.00  0.00     0.016 A 
ATOM     30  C   UNL A   1      39.840  29.249  27.739  1.00  0.00     0.010 A 
ATOM     31  C   UNL A   1      39.013  28.221  29.790  1.00  0.00     0.010 A 
ATOM     32  C   UNL A   1      40.061  28.537  28.914  1.00  0.00    -0.014 A 
BRANCH  32  33
ATOM     33  C   UNL A   1      41.244  27.738  29.168  1.00  0.00     0.031 A 
ATOM     34  C   UNL A   1      41.403  26.362  28.676  1.00  0.00     0.074 A 
ATOM     35  C   UNL A   1      42.200  28.511  29.729  1.00  0.00     0.049 A 
ATOM     36  N   UNL A   1      42.380  25.604  29.017  1.00  0.00    -0.248 NA
ATOM     37  C   UNL A   1      40.474  25.686  27.777  1.00  0.00     0.031 C 
ATOM     38  C   UNL A   1      43.625  28.328  29.907  1.00  0.00     0.029 A 
ATOM     39  N   UNL A   1      41.928  29.695  30.434  1.00  0.00    -0.354 N 
ATOM     40  C   UNL A   1      42.375  24.479  28.212  1.00  0.00     0.074 A 
ATOM     41  C   UNL A   1      41.117  24.539  27.516  1.00  0.00     0.031 C 
ATOM     42  C   UNL A   1      44.030  29.142  30.907  1.00  0.00     0.029 A 
ATOM     43  C   UNL A   1      42.836  29.768  31.479  1.00  0.00     0.049 A 
ATOM     44  H   UNL A   1      41.224  30.351  30.226  1.00  0.00     0.167 HD
ATOM     45  C   UNL A   1      43.518  23.730  28.171  1.00  0.00     0.037 A 
ATOM     46  C   UNL A   1      42.333  29.544  32.730  1.00  0.00     0.037 A 
ATOM     47  C   UNL A   1      44.422  24.220  29.215  1.00  0.00     0.049 A 
ATOM     48  C   UNL A   1      42.876  28.235  33.249  1.00  0.00     0.074 A 
ATOM     49  C   UNL A   1      45.441  25.157  29.179  1.00  0.00     0.029 A 
ATOM     50  N   UNL A   1      44.050  24.083  30.549  1.00  0.00    -0.354 N 
ATOM     51  N   UNL A   1      43.098  27.173  32.515  1.00  0.00    -0.248 NA
ATOM     52  C   UNL A   1      43.383  28.112  34.609  1.00  0.00     0.031 C 
ATOM     53  C   UNL A   1      45.574  25.689  30.490  1.00  0.00     0.029 A 
ATOM     54  C   UNL A   1      44.654  25.062  31.319  1.00  0.00     0.049 A 
ATOM     55  H   UNL A   1      43.443  23.390  30.896  1.00  0.00     0.167 HD
ATOM     56  C   UNL A   1      43.853  26.288  33.242  1.00  0.00     0.074 A 
ATOM     57  C   UNL A   1      43.980  26.911  34.552  1.00  0.00     0.031 C 
ATOM     58  C   UNL A   1      44.405  25.139  32.748  1.00  0.00     0.037 A 
BRANCH  45  59
ATOM     59  C   UNL A   1      43.967  22.767  27.080  1.00  0.00     0.058 A 
ATOM     60  C   UNL A   1      43.171  21.632  26.781  1.00  0.00     0.135 A 
ATOM     61  C   UNL A   1      45.177  22.823  26.357  1.00  0.00     0.135 A 
ATOM     62  F   UNL A   1      41.967  21.454  27.344  1.00  0.00    -0.206 F 
ATOM     63  C   UNL A   1      43.567  20.615  25.908  1.00  0.00     0.059 A 
ATOM     64  C   UNL A   1      45.600  21.811  25.479  1.00  0.00     0.059 A 
ATOM     65  F   UNL A   1      46.007  23.865  26.448  1.00  0.00    -0.206 F 
ATOM     66  C   UNL A   1      44.796  20.699  25.273  1.00  0.00     0.060 A 
BRANCH  66  67
ATOM     67  S   UNL A   1      45.302  19.359  24.178  1.00  0.00     0.124 S 
ATOM     68  O   UNL A   1      44.504  19.623  22.985  1.00  0.00    -0.237 OA
ATOM     69  O   UNL A   1      46.737  19.591  24.047  1.00  0.00    -0.237 OA
ATOM     70  O   UNL A   1      44.933  18.154  24.918  1.00  0.00    -0.744 OA
ENDBRANCH  66  67
ENDBRANCH  45  59
BRANCH  46  71
ATOM     71  C   UNL A   1      40.957  30.123  32.965  1.00  0.00     0.058 A 
ATOM     72  C   UNL A   1      40.820  31.534  32.953  1.00  0.00     0.135 A 
ATOM     73  C   UNL A   1      39.760  29.392  32.941  1.00  0.00     0.135 A 
ATOM     74  F   UNL A   1      41.914  32.313  32.995  1.00  0.00    -0.206 F 
ATOM     75  C   UNL A   1      39.590  32.177  32.806  1.00  0.00     0.059 A 
ATOM     76  C   UNL A   1      38.505  30.020  32.816  1.00  0.00     0.059 A 
ATOM     77  F   UNL A   1      39.784  28.051  32.964  1.00  0.00    -0.206 F 
ATOM     78  C   UNL A   1      38.435  31.411  32.712  1.00  0.00     0.060 A 
BRANCH  78  79
ATOM     79  S   UNL A   1      36.888  32.254  32.268  1.00  0.00     0.124 S 
ATOM     80  O   UNL A   1      36.041  31.138  31.861  1.00  0.00    -0.237 OA
ATOM     81  O   UNL A   1      36.523  32.898  33.527  1.00  0.00    -0.237 OA
ATOM     82  O   UNL A   1      37.299  33.158  31.197  1.00  0.00    -0.744 OA
ENDBRANCH  78  79
ENDBRANCH  46  71
BRANCH  58  83
ATOM     83  C   UNL A   1      44.891  24.009  33.619  1.00  0.00     0.058 A 
ATOM     84  C   UNL A   1      44.063  22.946  34.018  1.00  0.00     0.135 A 
ATOM     85  C   UNL A   1      46.261  23.875  33.944  1.00  0.00     0.135 A 
ATOM     86  F   UNL A   1      42.776  22.880  33.646  1.00  0.00    -0.206 F 
ATOM     87  C   UNL A   1      44.533  21.886  34.784  1.00  0.00     0.059 A 
ATOM     88  C   UNL A   1      46.766  22.786  34.640  1.00  0.00     0.059 A 
ATOM     89  F   UNL A   1      47.169  24.794  33.580  1.00  0.00    -0.206 F 
ATOM     90  C   UNL A   1      45.884  21.818  35.096  1.00  0.00     0.060 A 
BRANCH  90  91
ATOM     91  S   UNL A   1      46.494  20.443  36.075  1.00  0.00     0.124 S 
ATOM     92  O   UNL A   1      46.321  20.959  37.430  1.00  0.00    -0.237 OA
ATOM     93  O   UNL A   1      45.599  19.354  35.696  1.00  0.00    -0.237 OA
ATOM     94  O   UNL A   1      47.874  20.295  35.624  1.00  0.00    -0.744 OA
ENDBRANCH  90  91
ENDBRANCH  58  83
ENDBRANCH  32  33
ENDBRANCH  25  27
ENDBRANCH  24  25
ENDBRANCH  23  24
ENDBRANCH   1  23
TORSDOF 17
ENDMDL
MODEL 2
REMARK VINA RESULT:     -12.4      0.785      1.695
REMARK SMILES Cc1c(N[C@@H]2CC[C@@H]([NH3+])C2)cccc1C(=O)OCCOC(=O)c1ccc(-c2c3nc(c(-c4c(F)cc(S(=O)(=O)[O-])cc4F)c4ccc([nH]4)c(-c4c(F)cc(S(=O)(=O)[O-])cc4F)c4nc(c(-c5c(F)cc(S(=O)(=O)[O-])cc5F)c5ccc2[nH]5)C=C4)C=C3)cc1
REMARK SMILES IDX 18 1 17 2 15 3 16 4 14 5 1 6 2 7 3 8 11 9 13 10 12 11 4 12
REMARK SMILES IDX 5 14 6 15 10 16 7 17 8 18 9 19 19 23 20 24 21 25 22 26 23 27
REMARK SMILES IDX 24 28 88 29 25 30 87 31 26 32 27 33 28 34 81 35 29 36 86 37
REMARK SMILES IDX 80 38 82 39 30 40 85 41 79 42 78 43 31 45 65 46 44 47 64 48
REMARK SMILES IDX 45 49 48 50 63 51 83 52 46 53 47 54 62 56 84 57 49 58 32 59
REMARK SMILES IDX 33 60 42 61 34 62 35 63 41 64 43 65 36 66 37 67 38 68 39 69
REMARK SMILES IDX 40 70 66 71 67 72 76 73 68 74 69 75 75 76 77 77 70 78 71 79
REMARK SMILES IDX 72 80 73 81 74 82 50 83 51 84 60 85 52 86 53 87 59 88 61 89
REMARK SMILES IDX 54 90 55 91 56 92 57 93 58 94
REMARK H PARENT 4 13 9 20 9 21 9 22 82 44 48 55
REMARK Flexibility Score: inf
ROOT
ATOM      1  C   UNL A   1      33.249  29.672  27.082  1.00  0.00     0.275 C 
ENDROOT
BRANCH   1   2
ATOM      2  O   UNL A   1      32.602  28.491  26.572  1.00  0.00    -0.458 OA
BRANCH   2   3
ATOM      3  C   UNL A   1      32.517  28.489  25.215  1.00  0.00     0.338 C 
ATOM      4  O   UNL A   1      32.867  29.396  24.493  1.00  0.00    -0.246 OA
BRANCH   3   5
ATOM      5  C   UNL A   1      31.836  27.290  24.666  1.00  0.00     0.065 A 
ATOM      6  C   UNL A   1      34.014  26.014  24.942  1.00  0.00     0.047 C 
ATOM      7  C   UNL A   1      32.524  26.059  24.694  1.00  0.00    -0.013 A 
ATOM      8  C   UNL A   1      31.824  24.857  24.430  1.00  0.00     0.038 A 
ATOM      9  C   UNL A   1      30.448  24.933  24.177  1.00  0.00     0.026 A 
ATOM     10  C   UNL A   1      30.489  27.336  24.299  1.00  0.00     0.016 A 
ATOM     11  C   UNL A   1      29.784  26.156  24.097  1.00  0.00     0.003 A 
BRANCH   8  12
ATOM     12  N   UNL A   1      32.534  23.675  24.348  1.00  0.00    -0.382 N 
ATOM     13  H   UNL A   1      33.036  23.542  23.512  1.00  0.00     0.160 HD
BRANCH  12  14
ATOM     14  C   UNL A   1      32.643  22.606  25.315  1.00  0.00     0.085 C 
ATOM     15  C   UNL A   1      32.477  23.006  26.787  1.00  0.00     0.031 C 
ATOM     16  C   UNL A   1      33.949  21.828  25.209  1.00  0.00     0.089 C 
ATOM     17  C   UNL A   1      33.638  22.330  27.519  1.00  0.00     0.067 C 
ATOM     18  C   UNL A   1      34.106  21.203  26.596  1.00  0.00     0.182 C 
BRANCH  18  19
ATOM     19  N   UNL A   1      33.270  20.010  26.759  1.00  0.00    -0.355 N 
ATOM     20  H   UNL A   1      33.660  19.244  26.210  1.00  0.00     0.344 HD
ATOM     21  H   UNL A   1      32.324  20.212  26.437  1.00  0.00     0.344 HD
ATOM     22  H   UNL A   1      33.246  19.744  27.744  1.00  0.00     0.344 HD
ENDBRANCH  18  19
ENDBRANCH  12  14
ENDBRANCH   8  12
ENDBRANCH   3   5
ENDBRANCH   2   3
ENDBRANCH   1   2
BRANCH   1  23
ATOM     23  C   UNL A   1      34.753  29.463  27.333  1.00  0.00     0.275 C 
BRANCH  23  24
ATOM     24  O   UNL A   1      35.269  29.749  28.653  1.00  0.00    -0.458 OA
BRANCH  24  25
ATOM     25  C   UNL A   1      36.411  30.484  28.719  1.00  0.00     0.338 C 
ATOM     26  O   UNL A   1      36.455  31.639  29.118  1.00  0.00    -0.246 OA
BRANCH  25  27
ATOM     27  C   UNL A   1      37.568  29.549  28.602  1.00  0.00     0.060 A 
ATOM     28  C   UNL A   1      38.509  29.712  27.576  1.00  0.00     0.016 A 
ATOM     29  C   UNL A   1      37.873  28.764  29.717  1.00  0.00     0.016 A 
ATOM     30  C   UNL A   1      39.800  29.210  27.721  1.00  0.00     0.010 A 
ATOM     31  C   UNL A   1      39.174  28.405  29.937  1.00  0.00     0.010 A 
ATOM     32  C   UNL A   1      40.126  28.591  28.924  1.00  0.00    -0.014 A 
BRANCH  32  33
ATOM     33  C   UNL A   1      41.297  27.758  29.117  1.00  0.00     0.031 A 
ATOM     34  C   UNL A   1      41.357  26.350  28.697  1.00  0.00     0.074 A 
ATOM     35  C   UNL A   1      42.330  28.520  29.540  1.00  0.00     0.049 A 
ATOM     36  N   UNL A   1      42.334  25.571  28.991  1.00  0.00    -0.248 NA
ATOM     37  C   UNL A   1      40.323  25.665  27.929  1.00  0.00     0.031 C 
ATOM     38  C   UNL A   1      43.758  28.286  29.597  1.00  0.00     0.029 A 
ATOM     39  N   UNL A   1      42.170  29.752  30.193  1.00  0.00    -0.354 N 
ATOM     40  C   UNL A   1      42.211  24.404  28.260  1.00  0.00     0.074 A 
ATOM     41  C   UNL A   1      40.896  24.478  27.680  1.00  0.00     0.031 C 
ATOM     42  C   UNL A   1      44.285  29.137  30.504  1.00  0.00     0.029 A 
ATOM     43  C   UNL A   1      43.174  29.845  31.144  1.00  0.00     0.049 A 
ATOM     44  H   UNL A   1      41.474  30.425  30.011  1.00  0.00     0.167 HD
ATOM     45  C   UNL A   1      43.316  23.605  28.160  1.00  0.00     0.037 A 
ATOM     46  C   UNL A   1      42.783  29.715  32.448  1.00  0.00     0.037 A 
ATOM     47  C   UNL A   1      44.331  24.115  29.085  1.00  0.00     0.049 A 
ATOM     48  C   UNL A   1      43.323  28.416  32.993  1.00  0.00     0.074 A 
ATOM     49  C   UNL A   1      45.377  25.004  28.899  1.00  0.00     0.029 A 
ATOM     50  N   UNL A   1      44.082  24.070  30.454  1.00  0.00    -0.354 N 
ATOM     51  N   UNL A   1      43.435  27.305  32.307  1.00  0.00    -0.248 NA
ATOM     52  C   UNL A   1      43.951  28.348  34.305  1.00  0.00     0.031 C 
ATOM     53  C   UNL A   1      45.652  25.603  30.157  1.00  0.00     0.029 A 
ATOM     54  C   UNL A   1      44.792  25.064  31.103  1.00  0.00     0.049 A 
ATOM     55  H   UNL A   1      43.484  23.424  30.896  1.00  0.00     0.167 HD
ATOM     56  C   UNL A   1      44.221  26.431  33.014  1.00  0.00     0.074 A 
ATOM     57  C   UNL A   1      44.495  27.121  34.266  1.00  0.00     0.031 C 
ATOM     58  C   UNL A   1      44.682  25.233  32.542  1.00  0.00     0.037 A 
BRANCH  45  59
ATOM     59  C   UNL A   1      43.624  22.564  27.092  1.00  0.00     0.058 A 
ATOM     60  C   UNL A   1      42.825  21.395  27.008  1.00  0.00     0.135 A 
ATOM     61  C   UNL A   1      44.709  22.580  26.192  1.00  0.00     0.135 A 
ATOM     62  F   UNL A   1      41.725  21.243  27.760  1.00  0.00    -0.206 F 
ATOM     63  C   UNL A   1      43.115  20.316  26.168  1.00  0.00     0.059 A 
ATOM     64  C   UNL A   1      45.025  21.506  25.343  1.00  0.00     0.059 A 
ATOM     65  F   UNL A   1      45.513  23.639  26.074  1.00  0.00    -0.206 F 
ATOM     66  C   UNL A   1      44.232  20.368  25.349  1.00  0.00     0.060 A 
BRANCH  66  67
ATOM     67  S   UNL A   1      44.607  18.951  24.299  1.00  0.00     0.124 S 
ATOM     68  O   UNL A   1      45.960  18.607  24.725  1.00  0.00    -0.237 OA
ATOM     69  O   UNL A   1      43.562  18.003  24.673  1.00  0.00    -0.237 OA
ATOM     70  O   UNL A   1      44.501  19.491  22.945  1.00  0.00    -0.744 OA
ENDBRANCH  66  67
ENDBRANCH  45  59
BRANCH  46  71
ATOM     71  C   UNL A   1      41.458  30.365  32.773  1.00  0.00     0.058 A 
ATOM     72  C   UNL A   1      40.417  29.540  33.267  1.00  0.00     0.135 A 
ATOM     73  C   UNL A   1      41.242  31.748  32.871  1.00  0.00     0.135 A 
ATOM     74  F   UNL A   1      40.532  28.203  33.195  1.00  0.00    -0.206 F 
ATOM     75  C   UNL A   1      39.294  30.044  33.924  1.00  0.00     0.059 A 
ATOM     76  C   UNL A   1      40.105  32.281  33.508  1.00  0.00     0.059 A 
ATOM     77  F   UNL A   1      42.162  32.611  32.418  1.00  0.00    -0.206 F 
ATOM     78  C   UNL A   1      39.155  31.419  34.064  1.00  0.00     0.060 A 
BRANCH  78  79
ATOM     79  S   UNL A   1      37.825  32.036  35.137  1.00  0.00     0.124 S 
ATOM     80  O   UNL A   1      38.319  33.358  35.502  1.00  0.00    -0.237 OA
ATOM     81  O   UNL A   1      36.677  32.018  34.233  1.00  0.00    -0.237 OA
ATOM     82  O   UNL A   1      37.788  31.054  36.217  1.00  0.00    -0.744 OA
ENDBRANCH  78  79
ENDBRANCH  46  71
BRANCH  58  83
ATOM     83  C   UNL A   1      45.205  24.135  33.432  1.00  0.00     0.058 A 
ATOM     84  C   UNL A   1      46.519  24.119  33.929  1.00  0.00     0.135 A 
ATOM     85  C   UNL A   1      44.339  23.144  33.953  1.00  0.00     0.135 A 
ATOM     86  F   UNL A   1      47.395  25.090  33.629  1.00  0.00    -0.206 F 
ATOM     87  C   UNL A   1      46.977  23.126  34.786  1.00  0.00     0.059 A 
ATOM     88  C   UNL A   1      44.755  22.190  34.871  1.00  0.00     0.059 A 
ATOM     89  F   UNL A   1      43.046  23.076  33.601  1.00  0.00    -0.206 F 
ATOM     90  C   UNL A   1      46.090  22.161  35.246  1.00  0.00     0.060 A 
BRANCH  90  91
ATOM     91  S   UNL A   1      46.678  20.884  36.362  1.00  0.00     0.124 S 
ATOM     92  O   UNL A   1      48.007  21.388  36.695  1.00  0.00    -0.237 OA
ATOM     93  O   UNL A   1      45.698  20.925  37.444  1.00  0.00    -0.237 OA
ATOM     94  O   UNL A   1      46.643  19.679  35.540  1.00  0.00    -0.744 OA
ENDBRANCH  90  91
ENDBRANCH  58  83
ENDBRANCH  32  33
ENDBRANCH  25  27
ENDBRANCH  24  25
ENDBRANCH  23  24
ENDBRANCH   1  23
TORSDOF 17
ENDMDL
MODEL 3
REMARK VINA RESULT:     -12.3      4.985     11.556
REMARK SMILES Cc1c(N[C@@H]2CC[C@@H]([NH3+])C2)cccc1C(=O)OCCOC(=O)c1ccc(-c2c3nc(c(-c4c(F)cc(S(=O)(=O)[O-])cc4F)c4ccc([nH]4)c(-c4c(F)cc(S(=O)(=O)[O-])cc4F)c4nc(c(-c5c(F)cc(S(=O)(=O)[O-])cc5F)c5ccc2[nH]5)C=C4)C=C3)cc1
REMARK SMILES IDX 18 1 17 2 15 3 16 4 14 5 1 6 2 7 3 8 11 9 13 10 12 11 4 12
REMARK SMILES IDX 5 14 6 15 10 16 7 17 8 18 9 19 19 23 20 24 21 25 22 26 23 27
REMARK SMILES IDX 24 28 88 29 25 30 87 31 26 32 27 33 28 34 81 35 29 36 86 37
REMARK SMILES IDX 80 38 82 39 30 40 85 41 79 42 78 43 31 45 65 46 44 47 64 48
REMARK SMILES IDX 45 49 48 50 63 51 83 52 46 53 47 54 62 56 84 57 49 58 32 59
REMARK SMILES IDX 33 60 42 61 34 62 35 63 41 64 43 65 36 66 37 67 38 68 39 69
REMARK SMILES IDX 40 70 66 71 67 72 76 73 68 74 69 75 75 76 77 77 70 78 71 79
REMARK SMILES IDX 72 80 73 81 74 82 50 83 51 84 60 85 52 86 53 87 59 88 61 89
REMARK SMILES IDX 54 90 55 91 56 92 57 93 58 94
REMARK H PARENT 4 13 9 20 9 21 9 22 82 44 48 55
REMARK Flexibility Score: inf
ROOT
ATOM      1  C   UNL A   1      37.389  22.393  25.837  1.00  0.00     0.275 C 
ENDROOT
BRANCH   1   2
ATOM      2  O   UNL A   1      37.273  21.830  24.516  1.00  0.00    -0.458 OA
BRANCH   2   3
ATOM      3  C   UNL A   1      36.266  22.393  23.797  1.00  0.00     0.338 C 
ATOM      4  O   UNL A   1      36.417  23.114  22.835  1.00  0.00    -0.246 OA
BRANCH   3   5
ATOM      5  C   UNL A   1      34.919  22.139  24.364  1.00  0.00     0.065 A 
ATOM      6  C   UNL A   1      34.656  24.646  24.676  1.00  0.00     0.047 C 
ATOM      7  C   UNL A   1      34.087  23.246  24.632  1.00  0.00    -0.013 A 
ATOM      8  C   UNL A   1      32.716  23.041  24.919  1.00  0.00     0.038 A 
ATOM      9  C   UNL A   1      32.222  21.730  24.896  1.00  0.00     0.026 A 
ATOM     10  C   UNL A   1      34.416  20.840  24.461  1.00  0.00     0.016 A 
ATOM     11  C   UNL A   1      33.060  20.636  24.684  1.00  0.00     0.003 A 
BRANCH   8  12
ATOM     12  N   UNL A   1      31.942  24.123  25.291  1.00  0.00    -0.382 N 
ATOM     13  H   UNL A   1      32.183  24.538  26.151  1.00  0.00     0.160 HD
BRANCH  12  14
ATOM     14  C   UNL A   1      30.828  24.731  24.598  1.00  0.00     0.085 C 
ATOM     15  C   UNL A   1      31.098  25.196  23.162  1.00  0.00     0.031 C 
ATOM     16  C   UNL A   1      30.228  25.917  25.345  1.00  0.00     0.089 C 
ATOM     17  C   UNL A   1      30.522  26.611  23.083  1.00  0.00     0.067 C 
ATOM     18  C   UNL A   1      29.531  26.716  24.245  1.00  0.00     0.182 C 
BRANCH  18  19
ATOM     19  N   UNL A   1      28.234  26.136  23.882  1.00  0.00    -0.355 N 
ATOM     20  H   UNL A   1      27.986  26.424  22.936  1.00  0.00     0.344 HD
ATOM     21  H   UNL A   1      27.521  26.463  24.534  1.00  0.00     0.344 HD
ATOM     22  H   UNL A   1      28.292  25.119  23.923  1.00  0.00     0.344 HD
ENDBRANCH  18  19
ENDBRANCH  12  14
ENDBRANCH   8  12
ENDBRANCH   3   5
ENDBRANCH   2   3
ENDBRANCH   1   2
BRANCH   1  23
ATOM     23  C   UNL A   1      38.836  22.776  26.193  1.00  0.00     0.275 C 
BRANCH  23  24
ATOM     24  O   UNL A   1      39.195  24.176  26.174  1.00  0.00    -0.458 OA
BRANCH  24  25
ATOM     25  C   UNL A   1      40.254  24.549  26.941  1.00  0.00     0.338 C 
ATOM     26  O   UNL A   1      41.364  24.042  26.861  1.00  0.00    -0.246 OA
BRANCH  25  27
ATOM     27  C   UNL A   1      39.930  25.865  27.563  1.00  0.00     0.060 A 
ATOM     28  C   UNL A   1      39.455  25.927  28.882  1.00  0.00     0.016 A 
ATOM     29  C   UNL A   1      40.443  27.010  26.947  1.00  0.00     0.016 A 
ATOM     30  C   UNL A   1      39.616  27.089  29.632  1.00  0.00     0.010 A 
ATOM     31  C   UNL A   1      40.745  28.098  27.719  1.00  0.00     0.010 A 
ATOM     32  C   UNL A   1      40.296  28.153  29.046  1.00  0.00    -0.014 A 
BRANCH  32  33
ATOM     33  C   UNL A   1      40.277  29.509  29.559  1.00  0.00     0.031 A 
ATOM     34  C   UNL A   1      39.142  30.423  29.367  1.00  0.00     0.074 A 
ATOM     35  C   UNL A   1      41.340  29.701  30.373  1.00  0.00     0.049 A 
ATOM     36  N   UNL A   1      39.177  31.663  29.693  1.00  0.00    -0.248 NA
ATOM     37  C   UNL A   1      37.865  30.051  28.768  1.00  0.00     0.031 C 
ATOM     38  C   UNL A   1      41.647  30.717  31.356  1.00  0.00     0.029 A 
ATOM     39  N   UNL A   1      42.519  28.941  30.302  1.00  0.00    -0.354 N 
ATOM     40  C   UNL A   1      37.898  32.183  29.611  1.00  0.00     0.074 A 
ATOM     41  C   UNL A   1      37.134  31.161  28.948  1.00  0.00     0.031 C 
ATOM     42  C   UNL A   1      42.984  30.726  31.546  1.00  0.00     0.029 A 
ATOM     43  C   UNL A   1      43.574  29.797  30.579  1.00  0.00     0.049 A 
ATOM     44  H   UNL A   1      42.584  27.981  30.093  1.00  0.00     0.167 HD
ATOM     45  C   UNL A   1      37.660  33.371  30.246  1.00  0.00     0.037 A 
ATOM     46  C   UNL A   1      44.368  30.136  29.520  1.00  0.00     0.037 A 
ATOM     47  C   UNL A   1      38.946  33.918  30.686  1.00  0.00     0.049 A 
ATOM     48  C   UNL A   1      44.160  31.596  29.200  1.00  0.00     0.074 A 
ATOM     49  C   UNL A   1      39.628  33.804  31.885  1.00  0.00     0.029 A 
ATOM     50  N   UNL A   1      39.880  34.300  29.727  1.00  0.00    -0.354 N 
ATOM     51  N   UNL A   1      43.016  32.226  29.292  1.00  0.00    -0.248 NA
ATOM     52  C   UNL A   1      45.286  32.481  28.937  1.00  0.00     0.031 C 
ATOM     53  C   UNL A   1      41.011  33.978  31.605  1.00  0.00     0.029 A 
ATOM     54  C   UNL A   1      41.161  34.217  30.245  1.00  0.00     0.049 A 
ATOM     55  H   UNL A   1      39.662  34.587  28.811  1.00  0.00     0.167 HD
ATOM     56  C   UNL A   1      43.251  33.576  29.215  1.00  0.00     0.074 A 
ATOM     57  C   UNL A   1      44.682  33.680  28.966  1.00  0.00     0.031 C 
ATOM     58  C   UNL A   1      42.314  34.549  29.427  1.00  0.00     0.037 A 
BRANCH  45  59
ATOM     59  C   UNL A   1      36.324  33.927  30.721  1.00  0.00     0.058 A 
ATOM     60  C   UNL A   1      35.333  34.269  29.766  1.00  0.00     0.135 A 
ATOM     61  C   UNL A   1      35.968  34.236  32.051  1.00  0.00     0.135 A 
ATOM     62  F   UNL A   1      35.492  33.996  28.463  1.00  0.00    -0.206 F 
ATOM     63  C   UNL A   1      34.139  34.922  30.088  1.00  0.00     0.059 A 
ATOM     64  C   UNL A   1      34.778  34.897  32.398  1.00  0.00     0.059 A 
ATOM     65  F   UNL A   1      36.744  33.903  33.085  1.00  0.00    -0.206 F 
ATOM     66  C   UNL A   1      33.875  35.254  31.407  1.00  0.00     0.060 A 
BRANCH  66  67
ATOM     67  S   UNL A   1      32.346  36.127  31.795  1.00  0.00     0.124 S 
ATOM     68  O   UNL A   1      31.585  35.105  32.509  1.00  0.00    -0.237 OA
ATOM     69  O   UNL A   1      32.823  37.244  32.603  1.00  0.00    -0.237 OA
ATOM     70  O   UNL A   1      31.817  36.491  30.483  1.00  0.00    -0.744 OA
ENDBRANCH  66  67
ENDBRANCH  45  59
BRANCH  46  71
ATOM     71  C   UNL A   1      44.625  29.011  28.544  1.00  0.00     0.058 A 
ATOM     72  C   UNL A   1      44.209  29.190  27.201  1.00  0.00     0.135 A 
ATOM     73  C   UNL A   1      45.464  27.913  28.783  1.00  0.00     0.135 A 
ATOM     74  F   UNL A   1      43.388  30.207  26.884  1.00  0.00    -0.206 F 
ATOM     75  C   UNL A   1      44.685  28.409  26.147  1.00  0.00     0.059 A 
ATOM     76  C   UNL A   1      45.939  27.096  27.738  1.00  0.00     0.059 A 
ATOM     77  F   UNL A   1      45.900  27.651  30.024  1.00  0.00    -0.206 F 
ATOM     78  C   UNL A   1      45.572  27.376  26.419  1.00  0.00     0.060 A 
BRANCH  78  79
ATOM     79  S   UNL A   1      46.369  26.544  25.015  1.00  0.00     0.124 S 
ATOM     80  O   UNL A   1      46.383  27.597  24.007  1.00  0.00    -0.237 OA
ATOM     81  O   UNL A   1      47.671  26.189  25.574  1.00  0.00    -0.237 OA
ATOM     82  O   UNL A   1      45.475  25.421  24.744  1.00  0.00    -0.744 OA
ENDBRANCH  78  79
ENDBRANCH  46  71
BRANCH  58  83
ATOM     83  C   UNL A   1      42.480  35.976  28.972  1.00  0.00     0.058 A 
ATOM     84  C   UNL A   1      43.320  36.891  29.629  1.00  0.00     0.135 A 
ATOM     85  C   UNL A   1      41.924  36.421  27.749  1.00  0.00     0.135 A 
ATOM     86  F   UNL A   1      44.024  36.543  30.716  1.00  0.00    -0.206 F 
ATOM     87  C   UNL A   1      43.501  38.191  29.174  1.00  0.00     0.059 A 
ATOM     88  C   UNL A   1      42.155  37.689  27.236  1.00  0.00     0.059 A 
ATOM     89  F   UNL A   1      41.144  35.630  26.996  1.00  0.00    -0.206 F 
ATOM     90  C   UNL A   1      42.909  38.584  27.980  1.00  0.00     0.060 A 
BRANCH  90  91
ATOM     91  S   UNL A   1      43.152  40.260  27.386  1.00  0.00     0.124 S 
ATOM     92  O   UNL A   1      43.493  40.954  28.624  1.00  0.00    -0.237 OA
ATOM     93  O   UNL A   1      44.242  40.108  26.426  1.00  0.00    -0.237 OA
ATOM     94  O   UNL A   1      41.857  40.600  26.803  1.00  0.00    -0.744 OA
ENDBRANCH  90  91
ENDBRANCH  58  83
ENDBRANCH  32  33
ENDBRANCH  25  27
ENDBRANCH  24  25
ENDBRANCH  23  24
ENDBRANCH   1  23
TORSDOF 17
ENDMDL
