MODEL 1
REMARK VINA RESULT:     -12.4      0.000      0.000
REMARK SMILES Cc1ccc(Nc2c(C)cccc2Cl)c(CC(=O)OCCOC(=O)c2ccc(-c3c4nc(c(-c5c(F)cc(S(=O)(=O)[O-])cc5F)c5ccc([nH]5)c(-c5c(F)cc(S(=O)(=O)[O-])cc5F)c5nc(c(-c6c(F)cc(S(=O)(=O)[O-])cc6F)c6ccc3[nH]6)C=C5)C=C4)cc2)c1
REMARK SMILES IDX 20 1 19 2 17 3 18 4 16 5 15 6 1 7 2 8 3 9 91 10 4 11 5 12
REMARK SMILES IDX 6 13 7 15 8 16 13 17 9 18 10 19 12 20 14 21 11 22 21 23
REMARK SMILES IDX 22 24 23 25 24 26 25 27 26 28 90 29 27 30 89 31 28 32 29 33
REMARK SMILES IDX 30 34 83 35 31 36 88 37 82 38 84 39 32 40 87 41 81 42 80 43
REMARK SMILES IDX 33 45 67 46 46 47 66 48 47 49 50 50 65 51 85 52 48 53 49 54
REMARK SMILES IDX 64 56 86 57 51 58 34 59 35 60 44 61 36 62 37 63 43 64 45 65
REMARK SMILES IDX 38 66 39 67 40 68 41 69 42 70 68 71 69 72 78 73 70 74 71 75
REMARK SMILES IDX 77 76 79 77 72 78 73 79 74 80 75 81 76 82 52 83 53 84 62 85
REMARK SMILES IDX 54 86 55 87 61 88 63 89 56 90 57 91 58 92 59 93 60 94
REMARK H PARENT 6 14 84 44 50 55
REMARK Flexibility Score: inf
ROOT
ATOM      1  C   UNL A   1      36.127  23.734  25.574  1.00  0.00     0.274 C 
ENDROOT
BRANCH   1   2
ATOM      2  O   UNL A   1      35.371  22.795  24.809  1.00  0.00    -0.462 OA
BRANCH   2   3
ATOM      3  C   UNL A   1      34.302  22.258  25.456  1.00  0.00     0.310 C 
ATOM      4  O   UNL A   1      33.673  21.309  25.065  1.00  0.00    -0.252 OA
BRANCH   3   5
ATOM      5  C   UNL A   1      34.071  23.061  26.729  1.00  0.00     0.160 C 
BRANCH   5   6
ATOM      6  C   UNL A   1      32.722  23.730  26.694  1.00  0.00    -0.013 A 
ATOM      7  C   UNL A   1      29.193  22.447  27.178  1.00  0.00     0.044 C 
ATOM      8  C   UNL A   1      30.330  23.366  26.858  1.00  0.00    -0.051 A 
ATOM      9  C   UNL A   1      30.126  24.579  26.198  1.00  0.00     0.005 A 
ATOM     10  C   UNL A   1      31.632  22.948  27.103  1.00  0.00     0.009 A 
ATOM     11  C   UNL A   1      31.211  25.390  25.840  1.00  0.00     0.026 A 
ATOM     12  C   UNL A   1      32.525  25.007  26.114  1.00  0.00     0.042 A 
BRANCH  12  13
ATOM     13  N   UNL A   1      33.612  25.792  25.691  1.00  0.00    -0.354 N 
ATOM     14  H   UNL A   1      34.466  25.550  26.117  1.00  0.00     0.167 HD
BRANCH  13  15
ATOM     15  C   UNL A   1      33.711  26.866  24.767  1.00  0.00     0.060 A 
ATOM     16  C   UNL A   1      33.636  26.624  23.377  1.00  0.00    -0.026 A 
ATOM     17  C   UNL A   1      33.566  28.195  25.218  1.00  0.00     0.064 A 
ATOM     18  C   UNL A   1      33.747  25.236  22.813  1.00  0.00     0.046 C 
ATOM     19  C   UNL A   1      33.446  27.701  22.490  1.00  0.00     0.005 A 
ATOM     20  C   UNL A   1      33.313  29.245  24.331  1.00  0.00     0.023 A 
ATOM     21  Cl  UNL A   1      33.778  28.608  26.886  1.00  0.00    -0.082 Cl
ATOM     22  C   UNL A   1      33.257  28.998  22.964  1.00  0.00     0.002 A 
ENDBRANCH  13  15
ENDBRANCH  12  13
ENDBRANCH   5   6
ENDBRANCH   3   5
ENDBRANCH   2   3
ENDBRANCH   1   2
BRANCH   1  23
ATOM     23  C   UNL A   1      37.579  23.251  25.781  1.00  0.00     0.275 C 
BRANCH  23  24
ATOM     24  O   UNL A   1      38.607  24.283  25.967  1.00  0.00    -0.458 OA
BRANCH  24  25
ATOM     25  C   UNL A   1      39.718  24.376  26.765  1.00  0.00     0.338 C 
ATOM     26  O   UNL A   1      40.628  23.561  26.624  1.00  0.00    -0.246 OA
BRANCH  25  27
ATOM     27  C   UNL A   1      40.021  25.655  27.445  1.00  0.00     0.060 A 
ATOM     28  C   UNL A   1      40.428  26.796  26.723  1.00  0.00     0.016 A 
ATOM     29  C   UNL A   1      39.614  25.807  28.741  1.00  0.00     0.016 A 
ATOM     30  C   UNL A   1      40.263  28.067  27.290  1.00  0.00     0.010 A 
ATOM     31  C   UNL A   1      39.077  27.007  29.100  1.00  0.00     0.010 A 
ATOM     32  C   UNL A   1      39.531  28.160  28.476  1.00  0.00    -0.014 A 
BRANCH  32  33
ATOM     33  C   UNL A   1      39.420  29.306  29.367  1.00  0.00     0.031 A 
ATOM     34  C   UNL A   1      38.350  30.304  29.260  1.00  0.00     0.074 A 
ATOM     35  C   UNL A   1      40.351  29.360  30.355  1.00  0.00     0.049 A 
ATOM     36  N   UNL A   1      38.557  31.573  29.177  1.00  0.00    -0.248 NA
ATOM     37  C   UNL A   1      36.933  29.936  29.310  1.00  0.00     0.031 C 
ATOM     38  C   UNL A   1      40.502  30.310  31.437  1.00  0.00     0.029 A 
ATOM     39  N   UNL A   1      41.453  28.522  30.557  1.00  0.00    -0.354 N 
ATOM     40  C   UNL A   1      37.363  32.173  29.516  1.00  0.00     0.074 A 
ATOM     41  C   UNL A   1      36.352  31.139  29.419  1.00  0.00     0.031 C 
ATOM     42  C   UNL A   1      41.767  30.217  31.902  1.00  0.00     0.029 A 
ATOM     43  C   UNL A   1      42.496  29.252  31.084  1.00  0.00     0.049 A 
ATOM     44  H   UNL A   1      41.479  27.559  30.355  1.00  0.00     0.167 HD
ATOM     45  C   UNL A   1      37.343  33.384  30.146  1.00  0.00     0.037 A 
ATOM     46  C   UNL A   1      43.621  29.456  30.334  1.00  0.00     0.037 A 
ATOM     47  C   UNL A   1      38.689  33.749  30.589  1.00  0.00     0.049 A 
ATOM     48  C   UNL A   1      43.690  30.890  29.867  1.00  0.00     0.074 A 
ATOM     49  C   UNL A   1      39.300  33.603  31.825  1.00  0.00     0.029 A 
ATOM     50  N   UNL A   1      39.719  33.957  29.673  1.00  0.00    -0.354 N 
ATOM     51  N   UNL A   1      42.680  31.713  29.942  1.00  0.00    -0.248 NA
ATOM     52  C   UNL A   1      44.877  31.527  29.309  1.00  0.00     0.031 C 
ATOM     53  C   UNL A   1      40.701  33.643  31.641  1.00  0.00     0.029 A 
ATOM     54  C   UNL A   1      40.952  33.830  30.295  1.00  0.00     0.049 A 
ATOM     55  H   UNL A   1      39.591  34.164  28.719  1.00  0.00     0.167 HD
ATOM     56  C   UNL A   1      43.052  32.954  29.521  1.00  0.00     0.074 A 
ATOM     57  C   UNL A   1      44.443  32.790  29.132  1.00  0.00     0.031 C 
ATOM     58  C   UNL A   1      42.195  34.016  29.558  1.00  0.00     0.037 A 
BRANCH  45  59
ATOM     59  C   UNL A   1      36.063  33.986  30.685  1.00  0.00     0.058 A 
ATOM     60  C   UNL A   1      35.089  34.572  29.853  1.00  0.00     0.135 A 
ATOM     61  C   UNL A   1      35.753  33.989  32.064  1.00  0.00     0.135 A 
ATOM     62  F   UNL A   1      35.223  34.601  28.522  1.00  0.00    -0.206 F 
ATOM     63  C   UNL A   1      33.933  35.177  30.346  1.00  0.00     0.059 A 
ATOM     64  C   UNL A   1      34.608  34.607  32.585  1.00  0.00     0.059 A 
ATOM     65  F   UNL A   1      36.571  33.391  32.946  1.00  0.00    -0.206 F 
ATOM     66  C   UNL A   1      33.703  35.203  31.714  1.00  0.00     0.060 A 
BRANCH  66  67
ATOM     67  S   UNL A   1      32.224  36.042  32.319  1.00  0.00     0.124 S 
ATOM     68  O   UNL A   1      31.761  36.749  31.128  1.00  0.00    -0.237 OA
ATOM     69  O   UNL A   1      31.395  34.921  32.752  1.00  0.00    -0.237 OA
ATOM     70  O   UNL A   1      32.730  36.898  33.387  1.00  0.00    -0.744 OA
ENDBRANCH  66  67
ENDBRANCH  45  59
BRANCH  46  71
ATOM     71  C   UNL A   1      44.108  28.241  29.600  1.00  0.00     0.058 A 
ATOM     72  C   UNL A   1      44.640  27.195  30.383  1.00  0.00     0.135 A 
ATOM     73  C   UNL A   1      43.730  27.915  28.286  1.00  0.00     0.135 A 
ATOM     74  F   UNL A   1      45.044  27.441  31.640  1.00  0.00    -0.206 F 
ATOM     75  C   UNL A   1      44.649  25.871  29.952  1.00  0.00     0.059 A 
ATOM     76  C   UNL A   1      43.741  26.588  27.826  1.00  0.00     0.059 A 
ATOM     77  F   UNL A   1      43.224  28.856  27.476  1.00  0.00    -0.206 F 
ATOM     78  C   UNL A   1      44.138  25.570  28.694  1.00  0.00     0.060 A 
BRANCH  78  79
ATOM     79  S   UNL A   1      43.799  23.826  28.330  1.00  0.00     0.124 S 
ATOM     80  O   UNL A   1      42.602  23.569  29.120  1.00  0.00    -0.237 OA
ATOM     81  O   UNL A   1      43.614  23.872  26.880  1.00  0.00    -0.237 OA
ATOM     82  O   UNL A   1      45.012  23.153  28.770  1.00  0.00    -0.744 OA
ENDBRANCH  78  79
ENDBRANCH  46  71
BRANCH  58  83
ATOM     83  C   UNL A   1      42.494  35.389  29.034  1.00  0.00     0.058 A 
ATOM     84  C   UNL A   1      41.884  35.939  27.899  1.00  0.00     0.135 A 
ATOM     85  C   UNL A   1      43.335  36.254  29.776  1.00  0.00     0.135 A 
ATOM     86  F   UNL A   1      40.996  35.239  27.178  1.00  0.00    -0.206 F 
ATOM     87  C   UNL A   1      42.137  37.246  27.489  1.00  0.00     0.059 A 
ATOM     88  C   UNL A   1      43.552  37.576  29.419  1.00  0.00     0.059 A 
ATOM     89  F   UNL A   1      43.971  35.841  30.883  1.00  0.00    -0.206 F 
ATOM     90  C   UNL A   1      42.969  38.056  28.257  1.00  0.00     0.060 A 
BRANCH  90  91
ATOM     91  S   UNL A   1      43.264  39.765  27.778  1.00  0.00     0.124 S 
ATOM     92  O   UNL A   1      43.735  39.602  26.406  1.00  0.00    -0.237 OA
ATOM     93  O   UNL A   1      41.946  40.376  27.923  1.00  0.00    -0.237 OA
ATOM     94  O   UNL A   1      44.263  40.209  28.744  1.00  0.00    -0.744 OA
ENDBRANCH  90  91
ENDBRANCH  58  83
ENDBRANCH  32  33
ENDBRANCH  25  27
ENDBRANCH  24  25
ENDBRANCH  23  24
ENDBRANCH   1  23
TORSDOF 17
ENDMDL
MODEL 2
REMARK VINA RESULT:     -12.2      1.665      2.583
REMARK SMILES Cc1ccc(Nc2c(C)cccc2Cl)c(CC(=O)OCCOC(=O)c2ccc(-c3c4nc(c(-c5c(F)cc(S(=O)(=O)[O-])cc5F)c5ccc([nH]5)c(-c5c(F)cc(S(=O)(=O)[O-])cc5F)c5nc(c(-c6c(F)cc(S(=O)(=O)[O-])cc6F)c6ccc3[nH]6)C=C5)C=C4)cc2)c1
REMARK SMILES IDX 20 1 19 2 17 3 18 4 16 5 15 6 1 7 2 8 3 9 91 10 4 11 5 12
REMARK SMILES IDX 6 13 7 15 8 16 13 17 9 18 10 19 12 20 14 21 11 22 21 23
REMARK SMILES IDX 22 24 23 25 24 26 25 27 26 28 90 29 27 30 89 31 28 32 29 33
REMARK SMILES IDX 30 34 83 35 31 36 88 37 82 38 84 39 32 40 87 41 81 42 80 43
REMARK SMILES IDX 33 45 67 46 46 47 66 48 47 49 50 50 65 51 85 52 48 53 49 54
REMARK SMILES IDX 64 56 86 57 51 58 34 59 35 60 44 61 36 62 37 63 43 64 45 65
REMARK SMILES IDX 38 66 39 67 40 68 41 69 42 70 68 71 69 72 78 73 70 74 71 75
REMARK SMILES IDX 77 76 79 77 72 78 73 79 74 80 75 81 76 82 52 83 53 84 62 85
REMARK SMILES IDX 54 86 55 87 61 88 63 89 56 90 57 91 58 92 59 93 60 94
REMARK H PARENT 6 14 84 44 50 55
REMARK Flexibility Score: inf
ROOT
ATOM      1  C   UNL A   1      36.901  23.088  25.546  1.00  0.00     0.274 C 
ENDROOT
BRANCH   1   2
ATOM      2  O   UNL A   1      36.108  22.148  26.268  1.00  0.00    -0.462 OA
BRANCH   2   3
ATOM      3  C   UNL A   1      35.609  21.126  25.522  1.00  0.00     0.310 C 
ATOM      4  O   UNL A   1      36.217  20.550  24.658  1.00  0.00    -0.252 OA
BRANCH   3   5
ATOM      5  C   UNL A   1      34.183  20.860  25.985  1.00  0.00     0.160 C 
BRANCH   5   6
ATOM      6  C   UNL A   1      33.431  20.065  24.948  1.00  0.00    -0.013 A 
ATOM      7  C   UNL A   1      34.132  16.776  23.211  1.00  0.00     0.044 C 
ATOM      8  C   UNL A   1      33.483  18.078  23.559  1.00  0.00    -0.051 A 
ATOM      9  C   UNL A   1      32.536  18.671  22.722  1.00  0.00     0.005 A 
ATOM     10  C   UNL A   1      33.926  18.782  24.671  1.00  0.00     0.009 A 
ATOM     11  C   UNL A   1      31.996  19.926  23.027  1.00  0.00     0.026 A 
ATOM     12  C   UNL A   1      32.397  20.632  24.163  1.00  0.00     0.042 A 
BRANCH  12  13
ATOM     13  N   UNL A   1      31.904  21.921  24.427  1.00  0.00    -0.354 N 
ATOM     14  H   UNL A   1      30.928  21.954  24.561  1.00  0.00     0.167 HD
BRANCH  13  15
ATOM     15  C   UNL A   1      32.544  23.184  24.540  1.00  0.00     0.060 A 
ATOM     16  C   UNL A   1      32.617  23.841  25.788  1.00  0.00    -0.026 A 
ATOM     17  C   UNL A   1      33.379  23.642  23.498  1.00  0.00     0.064 A 
ATOM     18  C   UNL A   1      31.789  23.399  26.961  1.00  0.00     0.046 C 
ATOM     19  C   UNL A   1      33.490  24.935  25.952  1.00  0.00     0.005 A 
ATOM     20  C   UNL A   1      34.287  24.687  23.694  1.00  0.00     0.023 A 
ATOM     21  Cl  UNL A   1      33.263  22.991  21.899  1.00  0.00    -0.082 Cl
ATOM     22  C   UNL A   1      34.339  25.336  24.922  1.00  0.00     0.002 A 
ENDBRANCH  13  15
ENDBRANCH  12  13
ENDBRANCH   5   6
ENDBRANCH   3   5
ENDBRANCH   2   3
ENDBRANCH   1   2
BRANCH   1  23
ATOM     23  C   UNL A   1      37.698  24.004  26.502  1.00  0.00     0.275 C 
BRANCH  23  24
ATOM     24  O   UNL A   1      39.011  24.472  26.040  1.00  0.00    -0.458 OA
BRANCH  24  25
ATOM     25  C   UNL A   1      40.206  24.702  26.670  1.00  0.00     0.338 C 
ATOM     26  O   UNL A   1      41.182  24.014  26.376  1.00  0.00    -0.246 OA
BRANCH  25  27
ATOM     27  C   UNL A   1      40.440  26.005  27.334  1.00  0.00     0.060 A 
ATOM     28  C   UNL A   1      40.764  27.161  26.596  1.00  0.00     0.016 A 
ATOM     29  C   UNL A   1      40.045  26.143  28.636  1.00  0.00     0.016 A 
ATOM     30  C   UNL A   1      40.530  28.425  27.155  1.00  0.00     0.010 A 
ATOM     31  C   UNL A   1      39.441  27.311  28.993  1.00  0.00     0.010 A 
ATOM     32  C   UNL A   1      39.812  28.483  28.351  1.00  0.00    -0.014 A 
BRANCH  32  33
ATOM     33  C   UNL A   1      39.645  29.629  29.235  1.00  0.00     0.031 A 
ATOM     34  C   UNL A   1      38.527  30.573  29.120  1.00  0.00     0.074 A 
ATOM     35  C   UNL A   1      40.571  29.735  30.223  1.00  0.00     0.049 A 
ATOM     36  N   UNL A   1      38.672  31.849  29.029  1.00  0.00    -0.248 NA
ATOM     37  C   UNL A   1      37.130  30.136  29.172  1.00  0.00     0.031 C 
ATOM     38  C   UNL A   1      40.674  30.699  31.298  1.00  0.00     0.029 A 
ATOM     39  N   UNL A   1      41.713  28.953  30.432  1.00  0.00    -0.354 N 
ATOM     40  C   UNL A   1      37.449  32.393  29.363  1.00  0.00     0.074 A 
ATOM     41  C   UNL A   1      36.491  31.310  29.273  1.00  0.00     0.031 C 
ATOM     42  C   UNL A   1      41.942  30.671  31.765  1.00  0.00     0.029 A 
ATOM     43  C   UNL A   1      42.718  29.737  30.954  1.00  0.00     0.049 A 
ATOM     44  H   UNL A   1      41.785  27.991  30.236  1.00  0.00     0.167 HD
ATOM     45  C   UNL A   1      37.370  33.606  29.984  1.00  0.00     0.037 A 
ATOM     46  C   UNL A   1      43.832  29.990  30.203  1.00  0.00     0.037 A 
ATOM     47  C   UNL A   1      38.697  34.039  30.425  1.00  0.00     0.049 A 
ATOM     48  C   UNL A   1      43.831  31.423  29.726  1.00  0.00     0.074 A 
ATOM     49  C   UNL A   1      39.312  33.932  31.663  1.00  0.00     0.029 A 
ATOM     50  N   UNL A   1      39.716  34.291  29.509  1.00  0.00    -0.354 N 
ATOM     51  N   UNL A   1      42.782  32.196  29.795  1.00  0.00    -0.248 NA
ATOM     52  C   UNL A   1      44.986  32.114  29.165  1.00  0.00     0.031 C 
ATOM     53  C   UNL A   1      40.710  34.039  31.479  1.00  0.00     0.029 A 
ATOM     54  C   UNL A   1      40.953  34.228  30.132  1.00  0.00     0.049 A 
ATOM     55  H   UNL A   1      39.578  34.485  28.553  1.00  0.00     0.167 HD
ATOM     56  C   UNL A   1      43.094  33.452  29.366  1.00  0.00     0.074 A 
ATOM     57  C   UNL A   1      44.492  33.352  28.978  1.00  0.00     0.031 C 
ATOM     58  C   UNL A   1      42.185  34.470  29.395  1.00  0.00     0.037 A 
BRANCH  45  59
ATOM     59  C   UNL A   1      36.062  34.148  30.519  1.00  0.00     0.058 A 
ATOM     60  C   UNL A   1      35.050  34.656  29.679  1.00  0.00     0.135 A 
ATOM     61  C   UNL A   1      35.762  34.171  31.899  1.00  0.00     0.135 A 
ATOM     62  F   UNL A   1      35.173  34.657  28.347  1.00  0.00    -0.206 F 
ATOM     63  C   UNL A   1      33.864  35.207  30.167  1.00  0.00     0.059 A 
ATOM     64  C   UNL A   1      34.587  34.736  32.414  1.00  0.00     0.059 A 
ATOM     65  F   UNL A   1      36.619  33.644  32.790  1.00  0.00    -0.206 F 
ATOM     66  C   UNL A   1      33.644  35.256  31.536  1.00  0.00     0.060 A 
BRANCH  66  67
ATOM     67  S   UNL A   1      32.123  36.026  32.131  1.00  0.00     0.124 S 
ATOM     68  O   UNL A   1      31.532  36.537  30.898  1.00  0.00    -0.237 OA
ATOM     69  O   UNL A   1      31.431  34.896  32.743  1.00  0.00    -0.237 OA
ATOM     70  O   UNL A   1      32.599  37.047  33.058  1.00  0.00    -0.744 OA
ENDBRANCH  66  67
ENDBRANCH  45  59
BRANCH  46  71
ATOM     71  C   UNL A   1      44.379  28.796  29.478  1.00  0.00     0.058 A 
ATOM     72  C   UNL A   1      44.949  27.776  30.269  1.00  0.00     0.135 A 
ATOM     73  C   UNL A   1      44.028  28.450  28.161  1.00  0.00     0.135 A 
ATOM     74  F   UNL A   1      45.329  28.043  31.529  1.00  0.00    -0.206 F 
ATOM     75  C   UNL A   1      45.019  26.453  29.843  1.00  0.00     0.059 A 
ATOM     76  C   UNL A   1      44.101  27.124  27.706  1.00  0.00     0.059 A 
ATOM     77  F   UNL A   1      43.489  29.366  27.343  1.00  0.00    -0.206 F 
ATOM     78  C   UNL A   1      44.534  26.126  28.581  1.00  0.00     0.060 A 
BRANCH  78  79
ATOM     79  S   UNL A   1      44.274  24.368  28.220  1.00  0.00     0.124 S 
ATOM     80  O   UNL A   1      43.064  24.069  28.975  1.00  0.00    -0.237 OA
ATOM     81  O   UNL A   1      44.133  24.398  26.765  1.00  0.00    -0.237 OA
ATOM     82  O   UNL A   1      45.499  23.746  28.702  1.00  0.00    -0.744 OA
ENDBRANCH  78  79
ENDBRANCH  46  71
BRANCH  58  83
ATOM     83  C   UNL A   1      42.418  35.852  28.862  1.00  0.00     0.058 A 
ATOM     84  C   UNL A   1      43.170  36.828  29.530  1.00  0.00     0.135 A 
ATOM     85  C   UNL A   1      41.981  36.183  27.557  1.00  0.00     0.135 A 
ATOM     86  F   UNL A   1      43.714  36.585  30.732  1.00  0.00    -0.206 F 
ATOM     87  C   UNL A   1      43.423  38.076  28.966  1.00  0.00     0.059 A 
ATOM     88  C   UNL A   1      42.274  37.396  26.952  1.00  0.00     0.059 A 
ATOM     89  F   UNL A   1      41.256  35.329  26.818  1.00  0.00    -0.206 F 
ATOM     90  C   UNL A   1      42.973  38.349  27.676  1.00  0.00     0.060 A 
BRANCH  90  91
ATOM     91  S   UNL A   1      43.339  39.932  26.905  1.00  0.00     0.124 S 
ATOM     92  O   UNL A   1      44.578  39.628  26.197  1.00  0.00    -0.237 OA
ATOM     93  O   UNL A   1      42.171  40.161  26.061  1.00  0.00    -0.237 OA
ATOM     94  O   UNL A   1      43.464  40.831  28.048  1.00  0.00    -0.744 OA
ENDBRANCH  90  91
ENDBRANCH  58  83
ENDBRANCH  32  33
ENDBRANCH  25  27
ENDBRANCH  24  25
ENDBRANCH  23  24
ENDBRANCH   1  23
TORSDOF 17
ENDMDL
MODEL 3
REMARK VINA RESULT:     -11.8      3.794     10.012
REMARK SMILES Cc1ccc(Nc2c(C)cccc2Cl)c(CC(=O)OCCOC(=O)c2ccc(-c3c4nc(c(-c5c(F)cc(S(=O)(=O)[O-])cc5F)c5ccc([nH]5)c(-c5c(F)cc(S(=O)(=O)[O-])cc5F)c5nc(c(-c6c(F)cc(S(=O)(=O)[O-])cc6F)c6ccc3[nH]6)C=C5)C=C4)cc2)c1
REMARK SMILES IDX 20 1 19 2 17 3 18 4 16 5 15 6 1 7 2 8 3 9 91 10 4 11 5 12
REMARK SMILES IDX 6 13 7 15 8 16 13 17 9 18 10 19 12 20 14 21 11 22 21 23
REMARK SMILES IDX 22 24 23 25 24 26 25 27 26 28 90 29 27 30 89 31 28 32 29 33
REMARK SMILES IDX 30 34 83 35 31 36 88 37 82 38 84 39 32 40 87 41 81 42 80 43
REMARK SMILES IDX 33 45 67 46 46 47 66 48 47 49 50 50 65 51 85 52 48 53 49 54
REMARK SMILES IDX 64 56 86 57 51 58 34 59 35 60 44 61 36 62 37 63 43 64 45 65
REMARK SMILES IDX 38 66 39 67 40 68 41 69 42 70 68 71 69 72 78 73 70 74 71 75
REMARK SMILES IDX 77 76 79 77 72 78 73 79 74 80 75 81 76 82 52 83 53 84 62 85
REMARK SMILES IDX 54 86 55 87 61 88 63 89 56 90 57 91 58 92 59 93 60 94
REMARK H PARENT 6 14 84 44 50 55
REMARK Flexibility Score: inf
ROOT
ATOM      1  C   UNL A   1      31.998  26.811  26.565  1.00  0.00     0.274 C 
ENDROOT
BRANCH   1   2
ATOM      2  O   UNL A   1      31.365  25.575  26.899  1.00  0.00    -0.462 OA
BRANCH   2   3
ATOM      3  C   UNL A   1      32.009  24.463  26.454  1.00  0.00     0.310 C 
ATOM      4  O   UNL A   1      31.565  23.346  26.514  1.00  0.00    -0.252 OA
BRANCH   3   5
ATOM      5  C   UNL A   1      33.351  24.896  25.881  1.00  0.00     0.160 C 
BRANCH   5   6
ATOM      6  C   UNL A   1      33.500  24.412  24.462  1.00  0.00    -0.013 A 
ATOM      7  C   UNL A   1      32.332  25.785  21.132  1.00  0.00     0.044 C 
ATOM      8  C   UNL A   1      32.919  24.857  22.149  1.00  0.00    -0.051 A 
ATOM      9  C   UNL A   1      33.185  23.520  21.852  1.00  0.00     0.005 A 
ATOM     10  C   UNL A   1      33.079  25.296  23.458  1.00  0.00     0.009 A 
ATOM     11  C   UNL A   1      33.663  22.648  22.839  1.00  0.00     0.026 A 
ATOM     12  C   UNL A   1      33.869  23.080  24.151  1.00  0.00     0.042 A 
BRANCH  12  13
ATOM     13  N   UNL A   1      34.283  22.185  25.152  1.00  0.00    -0.354 N 
ATOM     14  H   UNL A   1      33.662  22.126  25.914  1.00  0.00     0.167 HD
BRANCH  13  15
ATOM     15  C   UNL A   1      35.424  21.348  25.273  1.00  0.00     0.060 A 
ATOM     16  C   UNL A   1      35.346  19.978  24.943  1.00  0.00    -0.026 A 
ATOM     17  C   UNL A   1      36.705  21.926  25.413  1.00  0.00     0.064 A 
ATOM     18  C   UNL A   1      34.025  19.290  24.742  1.00  0.00     0.046 C 
ATOM     19  C   UNL A   1      36.528  19.228  24.787  1.00  0.00     0.005 A 
ATOM     20  C   UNL A   1      37.869  21.184  25.192  1.00  0.00     0.023 A 
ATOM     21  Cl  UNL A   1      36.902  23.560  25.947  1.00  0.00    -0.082 Cl
ATOM     22  C   UNL A   1      37.780  19.832  24.882  1.00  0.00     0.002 A 
ENDBRANCH  13  15
ENDBRANCH  12  13
ENDBRANCH   5   6
ENDBRANCH   3   5
ENDBRANCH   2   3
ENDBRANCH   1   2
BRANCH   1  23
ATOM     23  C   UNL A   1      31.687  27.902  27.612  1.00  0.00     0.275 C 
BRANCH  23  24
ATOM     24  O   UNL A   1      32.780  28.813  27.974  1.00  0.00    -0.458 OA
BRANCH  24  25
ATOM     25  C   UNL A   1      33.159  30.056  27.536  1.00  0.00     0.338 C 
ATOM     26  O   UNL A   1      32.321  30.955  27.486  1.00  0.00    -0.246 OA
BRANCH  25  27
ATOM     27  C   UNL A   1      34.591  30.430  27.555  1.00  0.00     0.060 A 
ATOM     28  C   UNL A   1      35.008  31.736  27.883  1.00  0.00     0.016 A 
ATOM     29  C   UNL A   1      35.518  29.425  27.547  1.00  0.00     0.016 A 
ATOM     30  C   UNL A   1      36.316  31.949  28.339  1.00  0.00     0.010 A 
ATOM     31  C   UNL A   1      36.601  29.556  28.362  1.00  0.00     0.010 A 
ATOM     32  C   UNL A   1      37.096  30.825  28.624  1.00  0.00    -0.014 A 
BRANCH  32  33
ATOM     33  C   UNL A   1      38.529  30.778  28.879  1.00  0.00     0.031 A 
ATOM     34  C   UNL A   1      39.401  29.722  28.355  1.00  0.00     0.074 A 
ATOM     35  C   UNL A   1      39.022  31.822  29.595  1.00  0.00     0.049 A 
ATOM     36  N   UNL A   1      40.196  29.018  29.085  1.00  0.00    -0.248 NA
ATOM     37  C   UNL A   1      39.492  29.425  26.923  1.00  0.00     0.031 C 
ATOM     38  C   UNL A   1      40.386  32.125  29.974  1.00  0.00     0.029 A 
ATOM     39  N   UNL A   1      38.319  32.870  30.201  1.00  0.00    -0.354 N 
ATOM     40  C   UNL A   1      41.115  28.465  28.218  1.00  0.00     0.074 A 
ATOM     41  C   UNL A   1      40.545  28.596  26.892  1.00  0.00     0.031 C 
ATOM     42  C   UNL A   1      40.350  33.002  31.002  1.00  0.00     0.029 A 
ATOM     43  C   UNL A   1      38.955  33.236  31.367  1.00  0.00     0.049 A 
ATOM     44  H   UNL A   1      37.497  33.281  29.849  1.00  0.00     0.167 HD
ATOM     45  C   UNL A   1      42.397  28.225  28.620  1.00  0.00     0.037 A 
ATOM     46  C   UNL A   1      38.344  33.006  32.568  1.00  0.00     0.037 A 
ATOM     47  C   UNL A   1      42.651  28.855  29.916  1.00  0.00     0.049 A 
ATOM     48  C   UNL A   1      39.028  31.875  33.299  1.00  0.00     0.074 A 
ATOM     49  C   UNL A   1      43.242  30.071  30.224  1.00  0.00     0.029 A 
ATOM     50  N   UNL A   1      41.953  28.466  31.057  1.00  0.00    -0.354 N 
ATOM     51  N   UNL A   1      39.885  31.074  32.729  1.00  0.00    -0.248 NA
ATOM     52  C   UNL A   1      38.837  31.562  34.710  1.00  0.00     0.031 C 
ATOM     53  C   UNL A   1      42.832  30.451  31.523  1.00  0.00     0.029 A 
ATOM     54  C   UNL A   1      42.004  29.463  32.019  1.00  0.00     0.049 A 
ATOM     55  H   UNL A   1      41.487  27.605  31.165  1.00  0.00     0.167 HD
ATOM     56  C   UNL A   1      40.397  30.204  33.644  1.00  0.00     0.074 A 
ATOM     57  C   UNL A   1      39.707  30.547  34.877  1.00  0.00     0.031 C 
ATOM     58  C   UNL A   1      41.363  29.297  33.317  1.00  0.00     0.037 A 
BRANCH  45  59
ATOM     59  C   UNL A   1      43.471  27.784  27.648  1.00  0.00     0.058 A 
ATOM     60  C   UNL A   1      43.888  26.443  27.533  1.00  0.00     0.135 A 
ATOM     61  C   UNL A   1      44.122  28.690  26.780  1.00  0.00     0.135 A 
ATOM     62  F   UNL A   1      43.329  25.466  28.257  1.00  0.00    -0.206 F 
ATOM     63  C   UNL A   1      44.914  26.037  26.679  1.00  0.00     0.059 A 
ATOM     64  C   UNL A   1      45.169  28.309  25.928  1.00  0.00     0.059 A 
ATOM     65  F   UNL A   1      43.756  29.982  26.747  1.00  0.00    -0.206 F 
ATOM     66  C   UNL A   1      45.560  26.976  25.889  1.00  0.00     0.060 A 
BRANCH  66  67
ATOM     67  S   UNL A   1      46.919  26.423  24.838  1.00  0.00     0.124 S 
ATOM     68  O   UNL A   1      48.051  26.442  25.760  1.00  0.00    -0.237 OA
ATOM     69  O   UNL A   1      46.462  25.100  24.423  1.00  0.00    -0.237 OA
ATOM     70  O   UNL A   1      46.965  27.430  23.783  1.00  0.00    -0.744 OA
ENDBRANCH  66  67
ENDBRANCH  45  59
BRANCH  46  71
ATOM     71  C   UNL A   1      36.884  33.350  32.599  1.00  0.00     0.058 A 
ATOM     72  C   UNL A   1      36.546  34.653  33.026  1.00  0.00     0.135 A 
ATOM     73  C   UNL A   1      35.896  32.643  31.893  1.00  0.00     0.135 A 
ATOM     74  F   UNL A   1      37.434  35.376  33.727  1.00  0.00    -0.206 F 
ATOM     75  C   UNL A   1      35.366  35.281  32.641  1.00  0.00     0.059 A 
ATOM     76  C   UNL A   1      34.692  33.254  31.502  1.00  0.00     0.059 A 
ATOM     77  F   UNL A   1      36.136  31.397  31.461  1.00  0.00    -0.206 F 
ATOM     78  C   UNL A   1      34.473  34.594  31.825  1.00  0.00     0.060 A 
BRANCH  78  79
ATOM     79  S   UNL A   1      33.164  35.561  31.026  1.00  0.00     0.124 S 
ATOM     80  O   UNL A   1      33.618  36.931  31.229  1.00  0.00    -0.237 OA
ATOM     81  O   UNL A   1      33.238  35.057  29.655  1.00  0.00    -0.237 OA
ATOM     82  O   UNL A   1      31.967  35.169  31.757  1.00  0.00    -0.744 OA
ENDBRANCH  78  79
ENDBRANCH  46  71
BRANCH  58  83
ATOM     83  C   UNL A   1      41.914  28.249  34.237  1.00  0.00     0.058 A 
ATOM     84  C   UNL A   1      41.303  27.007  34.457  1.00  0.00     0.135 A 
ATOM     85  C   UNL A   1      43.186  28.436  34.830  1.00  0.00     0.135 A 
ATOM     86  F   UNL A   1      40.142  26.688  33.865  1.00  0.00    -0.206 F 
ATOM     87  C   UNL A   1      41.887  26.033  35.263  1.00  0.00     0.059 A 
ATOM     88  C   UNL A   1      43.812  27.456  35.586  1.00  0.00     0.059 A 
ATOM     89  F   UNL A   1      43.869  29.582  34.688  1.00  0.00    -0.206 F 
ATOM     90  C   UNL A   1      43.142  26.266  35.820  1.00  0.00     0.060 A 
BRANCH  90  91
ATOM     91  S   UNL A   1      43.940  25.000  36.817  1.00  0.00     0.124 S 
ATOM     92  O   UNL A   1      43.067  23.854  36.579  1.00  0.00    -0.237 OA
ATOM     93  O   UNL A   1      45.272  24.911  36.227  1.00  0.00    -0.237 OA
ATOM     94  O   UNL A   1      43.893  25.564  38.162  1.00  0.00    -0.744 OA
ENDBRANCH  90  91
ENDBRANCH  58  83
ENDBRANCH  32  33
ENDBRANCH  25  27
ENDBRANCH  24  25
ENDBRANCH  23  24
ENDBRANCH   1  23
TORSDOF 17
ENDMDL
