MODEL 1
REMARK VINA RESULT:     -10.5      0.000      0.000
REMARK SMILES O=C(CS(=O)(=O)[C@@H]1CCOC2(CCCCC2)C1)OCCOC(=O)c1ccc(-c2c3nc(c(-c4c(F)cc(S(=O)(=O)[O-])cc4F)c4ccc([nH]4)c(-c4c(F)cc(S(=O)(=O)[O-])cc4F)c4nc(c(-c5c(F)cc(S(=O)(=O)[O-])cc5F)c5ccc2[nH]5)C=C4)C=C3)cc1
REMARK SMILES IDX 20 1 19 2 18 3 2 4 1 5 3 6 4 7 5 8 6 9 7 10 8 11 17 12 9 13
REMARK SMILES IDX 11 14 10 15 12 16 16 17 13 18 15 19 14 20 21 21 22 22 23 23
REMARK SMILES IDX 24 24 25 25 89 26 26 27 88 28 27 29 28 30 29 31 82 32 30 33
REMARK SMILES IDX 87 34 81 35 83 36 31 37 86 38 80 39 79 40 32 42 66 43 45 44
REMARK SMILES IDX 65 45 46 46 49 47 64 48 84 49 47 50 48 51 63 53 85 54 50 55
REMARK SMILES IDX 33 56 34 57 43 58 35 59 36 60 42 61 44 62 37 63 38 64 39 65
REMARK SMILES IDX 40 66 41 67 67 68 68 69 77 70 69 71 70 72 76 73 78 74 71 75
REMARK SMILES IDX 72 76 73 77 74 78 75 79 51 80 52 81 61 82 53 83 54 84 60 85
REMARK SMILES IDX 62 86 55 87 56 88 57 89 58 90 59 91
REMARK H PARENT 83 41 49 52
REMARK Flexibility Score: inf
ROOT
ATOM      1  C   UNL A   1      40.142  20.635  26.059  1.00  0.00     0.275 C 
ENDROOT
BRANCH   1   2
ATOM      2  C   UNL A   1      41.366  19.860  26.544  1.00  0.00     0.274 C 
BRANCH   2   3
ATOM      3  O   UNL A   1      42.154  19.381  25.427  1.00  0.00    -0.461 OA
BRANCH   3   4
ATOM      4  C   UNL A   1      43.421  18.918  25.455  1.00  0.00     0.321 C 
ATOM      5  O   UNL A   1      43.759  18.145  26.353  1.00  0.00    -0.251 OA
BRANCH   4   6
ATOM      6  C   UNL A   1      44.417  19.338  24.448  1.00  0.00     0.259 C 
BRANCH   6   7
ATOM      7  S   UNL A   1      45.031  20.976  24.588  1.00  0.00     0.164 S 
ATOM      8  O   UNL A   1      46.451  20.873  24.855  1.00  0.00    -0.228 OA
ATOM      9  O   UNL A   1      44.629  21.617  23.345  1.00  0.00    -0.228 OA
BRANCH   7  10
ATOM     10  C   UNL A   1      44.216  21.909  25.905  1.00  0.00     0.114 C 
ATOM     11  C   UNL A   1      43.126  22.808  25.303  1.00  0.00     0.048 C 
ATOM     12  C   UNL A   1      45.054  22.742  26.873  1.00  0.00     0.055 C 
ATOM     13  C   UNL A   1      43.693  24.128  24.794  1.00  0.00     0.162 C 
ATOM     14  C   UNL A   1      45.485  24.154  26.418  1.00  0.00     0.069 C 
ATOM     15  O   UNL A   1      44.374  24.837  25.829  1.00  0.00    -0.375 OA
ATOM     16  C   UNL A   1      46.709  24.139  25.483  1.00  0.00     0.035 C 
ATOM     17  C   UNL A   1      45.874  24.949  27.695  1.00  0.00     0.035 C 
ATOM     18  C   UNL A   1      47.284  25.519  25.185  1.00  0.00     0.003 C 
ATOM     19  C   UNL A   1      46.473  26.326  27.405  1.00  0.00     0.003 C 
ATOM     20  C   UNL A   1      47.668  26.234  26.467  1.00  0.00     0.000 C 
ENDBRANCH   7  10
ENDBRANCH   6   7
ENDBRANCH   4   6
ENDBRANCH   3   4
ENDBRANCH   2   3
ENDBRANCH   1   2
BRANCH   1  21
ATOM     21  O   UNL A   1      40.073  21.872  26.784  1.00  0.00    -0.458 OA
BRANCH  21  22
ATOM     22  C   UNL A   1      39.275  22.832  26.249  1.00  0.00     0.338 C 
ATOM     23  O   UNL A   1      38.350  22.665  25.485  1.00  0.00    -0.246 OA
BRANCH  22  24
ATOM     24  C   UNL A   1      39.550  24.098  26.976  1.00  0.00     0.060 A 
ATOM     25  C   UNL A   1      40.296  25.083  26.314  1.00  0.00     0.016 A 
ATOM     26  C   UNL A   1      38.983  24.368  28.227  1.00  0.00     0.016 A 
ATOM     27  C   UNL A   1      40.486  26.330  26.910  1.00  0.00     0.010 A 
ATOM     28  C   UNL A   1      39.173  25.616  28.821  1.00  0.00     0.010 A 
ATOM     29  C   UNL A   1      39.945  26.594  28.175  1.00  0.00    -0.014 A 
BRANCH  29  30
ATOM     30  C   UNL A   1      40.348  27.809  28.916  1.00  0.00     0.031 A 
ATOM     31  C   UNL A   1      41.708  27.819  29.556  1.00  0.00     0.074 A 
ATOM     32  C   UNL A   1      39.525  28.866  29.038  1.00  0.00     0.049 A 
ATOM     33  N   UNL A   1      42.282  28.752  30.267  1.00  0.00    -0.248 NA
ATOM     34  C   UNL A   1      42.527  26.608  29.373  1.00  0.00     0.031 C 
ATOM     35  C   UNL A   1      38.182  28.970  28.471  1.00  0.00     0.029 A 
ATOM     36  N   UNL A   1      39.704  30.056  29.699  1.00  0.00    -0.354 N 
ATOM     37  C   UNL A   1      43.531  28.247  30.608  1.00  0.00     0.074 A 
ATOM     38  C   UNL A   1      43.618  26.912  30.058  1.00  0.00     0.031 C 
ATOM     39  C   UNL A   1      37.652  30.157  28.820  1.00  0.00     0.029 A 
ATOM     40  C   UNL A   1      38.610  30.887  29.648  1.00  0.00     0.049 A 
ATOM     41  H   UNL A   1      40.537  30.291  30.167  1.00  0.00     0.167 HD
ATOM     42  C   UNL A   1      44.522  28.846  31.308  1.00  0.00     0.037 A 
ATOM     43  C   UNL A   1      38.409  32.092  30.217  1.00  0.00     0.037 A 
ATOM     44  C   UNL A   1      44.429  30.164  31.869  1.00  0.00     0.049 A 
ATOM     45  C   UNL A   1      39.510  32.717  31.039  1.00  0.00     0.074 A 
ATOM     46  C   UNL A   1      45.387  30.866  32.577  1.00  0.00     0.029 A 
ATOM     47  N   UNL A   1      43.306  30.973  31.798  1.00  0.00    -0.354 N 
ATOM     48  N   UNL A   1      40.711  32.254  31.301  1.00  0.00    -0.248 NA
ATOM     49  C   UNL A   1      39.232  34.030  31.641  1.00  0.00     0.031 C 
ATOM     50  C   UNL A   1      44.829  32.088  32.969  1.00  0.00     0.029 A 
ATOM     51  C   UNL A   1      43.539  32.162  32.469  1.00  0.00     0.049 A 
ATOM     52  H   UNL A   1      42.467  30.739  31.339  1.00  0.00     0.167 HD
ATOM     53  C   UNL A   1      41.337  33.231  32.071  1.00  0.00     0.074 A 
ATOM     54  C   UNL A   1      40.387  34.312  32.227  1.00  0.00     0.031 C 
ATOM     55  C   UNL A   1      42.586  33.233  32.599  1.00  0.00     0.037 A 
BRANCH  42  56
ATOM     56  C   UNL A   1      45.787  28.066  31.509  1.00  0.00     0.058 A 
ATOM     57  C   UNL A   1      45.964  27.240  32.631  1.00  0.00     0.135 A 
ATOM     58  C   UNL A   1      46.823  28.129  30.566  1.00  0.00     0.135 A 
ATOM     59  F   UNL A   1      45.012  27.168  33.575  1.00  0.00    -0.206 F 
ATOM     60  C   UNL A   1      47.133  26.513  32.817  1.00  0.00     0.059 A 
ATOM     61  C   UNL A   1      47.993  27.393  30.722  1.00  0.00     0.059 A 
ATOM     62  F   UNL A   1      46.706  28.915  29.484  1.00  0.00    -0.206 F 
ATOM     63  C   UNL A   1      48.143  26.597  31.857  1.00  0.00     0.060 A 
BRANCH  63  64
ATOM     64  S   UNL A   1      49.652  25.638  32.106  1.00  0.00     0.124 S 
ATOM     65  O   UNL A   1      49.184  24.592  33.012  1.00  0.00    -0.237 OA
ATOM     66  O   UNL A   1      49.975  25.204  30.751  1.00  0.00    -0.237 OA
ATOM     67  O   UNL A   1      50.577  26.605  32.689  1.00  0.00    -0.744 OA
ENDBRANCH  63  64
ENDBRANCH  42  56
BRANCH  43  68
ATOM     68  C   UNL A   1      37.112  32.800  30.043  1.00  0.00     0.058 A 
ATOM     69  C   UNL A   1      36.909  33.686  28.974  1.00  0.00     0.135 A 
ATOM     70  C   UNL A   1      36.066  32.637  30.963  1.00  0.00     0.135 A 
ATOM     71  F   UNL A   1      37.886  33.886  28.075  1.00  0.00    -0.206 F 
ATOM     72  C   UNL A   1      35.726  34.403  28.835  1.00  0.00     0.059 A 
ATOM     73  C   UNL A   1      34.864  33.325  30.834  1.00  0.00     0.059 A 
ATOM     74  F   UNL A   1      36.208  31.798  32.001  1.00  0.00    -0.206 F 
ATOM     75  C   UNL A   1      34.709  34.219  29.774  1.00  0.00     0.060 A 
BRANCH  75  76
ATOM     76  S   UNL A   1      33.166  35.138  29.576  1.00  0.00     0.124 S 
ATOM     77  O   UNL A   1      32.572  35.001  30.901  1.00  0.00    -0.237 OA
ATOM     78  O   UNL A   1      33.644  36.472  29.225  1.00  0.00    -0.237 OA
ATOM     79  O   UNL A   1      32.486  34.422  28.501  1.00  0.00    -0.744 OA
ENDBRANCH  75  76
ENDBRANCH  43  68
BRANCH  55  80
ATOM     80  C   UNL A   1      43.018  34.454  33.364  1.00  0.00     0.058 A 
ATOM     81  C   UNL A   1      42.898  34.530  34.759  1.00  0.00     0.135 A 
ATOM     82  C   UNL A   1      43.625  35.530  32.696  1.00  0.00     0.135 A 
ATOM     83  F   UNL A   1      42.322  33.529  35.443  1.00  0.00    -0.206 F 
ATOM     84  C   UNL A   1      43.350  35.639  35.467  1.00  0.00     0.059 A 
ATOM     85  C   UNL A   1      44.107  36.637  33.386  1.00  0.00     0.059 A 
ATOM     86  F   UNL A   1      43.776  35.501  31.362  1.00  0.00    -0.206 F 
ATOM     87  C   UNL A   1      43.956  36.688  34.771  1.00  0.00     0.060 A 
BRANCH  87  88
ATOM     88  S   UNL A   1      44.582  38.102  35.703  1.00  0.00     0.124 S 
ATOM     89  O   UNL A   1      44.042  39.220  34.938  1.00  0.00    -0.237 OA
ATOM     90  O   UNL A   1      43.994  37.894  37.024  1.00  0.00    -0.237 OA
ATOM     91  O   UNL A   1      46.031  37.935  35.637  1.00  0.00    -0.744 OA
ENDBRANCH  87  88
ENDBRANCH  55  80
ENDBRANCH  29  30
ENDBRANCH  22  24
ENDBRANCH  21  22
ENDBRANCH   1  21
TORSDOF 16
ENDMDL
MODEL 2
REMARK VINA RESULT:     -10.4      3.736     10.982
REMARK SMILES O=C(CS(=O)(=O)[C@@H]1CCOC2(CCCCC2)C1)OCCOC(=O)c1ccc(-c2c3nc(c(-c4c(F)cc(S(=O)(=O)[O-])cc4F)c4ccc([nH]4)c(-c4c(F)cc(S(=O)(=O)[O-])cc4F)c4nc(c(-c5c(F)cc(S(=O)(=O)[O-])cc5F)c5ccc2[nH]5)C=C4)C=C3)cc1
REMARK SMILES IDX 20 1 19 2 18 3 2 4 1 5 3 6 4 7 5 8 6 9 7 10 8 11 17 12 9 13
REMARK SMILES IDX 11 14 10 15 12 16 16 17 13 18 15 19 14 20 21 21 22 22 23 23
REMARK SMILES IDX 24 24 25 25 89 26 26 27 88 28 27 29 28 30 29 31 82 32 30 33
REMARK SMILES IDX 87 34 81 35 83 36 31 37 86 38 80 39 79 40 32 42 66 43 45 44
REMARK SMILES IDX 65 45 46 46 49 47 64 48 84 49 47 50 48 51 63 53 85 54 50 55
REMARK SMILES IDX 33 56 34 57 43 58 35 59 36 60 42 61 44 62 37 63 38 64 39 65
REMARK SMILES IDX 40 66 41 67 67 68 68 69 77 70 69 71 70 72 76 73 78 74 71 75
REMARK SMILES IDX 72 76 73 77 74 78 75 79 51 80 52 81 61 82 53 83 54 84 60 85
REMARK SMILES IDX 62 86 55 87 56 88 57 89 58 90 59 91
REMARK H PARENT 83 41 49 52
REMARK Flexibility Score: inf
ROOT
ATOM      1  C   UNL A   1      33.706  29.562  26.284  1.00  0.00     0.275 C 
ENDROOT
BRANCH   1   2
ATOM      2  C   UNL A   1      32.278  29.961  25.912  1.00  0.00     0.274 C 
BRANCH   2   3
ATOM      3  O   UNL A   1      31.392  28.815  25.951  1.00  0.00    -0.461 OA
BRANCH   3   4
ATOM      4  C   UNL A   1      31.562  27.669  26.643  1.00  0.00     0.321 C 
ATOM      5  O   UNL A   1      31.241  27.632  27.831  1.00  0.00    -0.251 OA
BRANCH   4   6
ATOM      6  C   UNL A   1      32.148  26.470  26.011  1.00  0.00     0.259 C 
BRANCH   6   7
ATOM      7  S   UNL A   1      31.179  25.008  26.051  1.00  0.00     0.164 S 
ATOM      8  O   UNL A   1      31.496  24.324  27.287  1.00  0.00    -0.228 OA
ATOM      9  O   UNL A   1      29.813  25.479  25.877  1.00  0.00    -0.228 OA
BRANCH   7  10
ATOM     10  C   UNL A   1      31.505  23.925  24.639  1.00  0.00     0.114 C 
ATOM     11  C   UNL A   1      31.349  22.458  25.068  1.00  0.00     0.048 C 
ATOM     12  C   UNL A   1      32.811  24.068  23.861  1.00  0.00     0.055 C 
ATOM     13  C   UNL A   1      32.619  21.914  25.709  1.00  0.00     0.162 C 
ATOM     14  C   UNL A   1      34.066  23.369  24.429  1.00  0.00     0.069 C 
ATOM     15  O   UNL A   1      33.740  22.036  24.833  1.00  0.00    -0.375 OA
ATOM     16  C   UNL A   1      34.738  24.163  25.564  1.00  0.00     0.035 C 
ATOM     17  C   UNL A   1      35.088  23.246  23.265  1.00  0.00     0.035 C 
ATOM     18  C   UNL A   1      36.088  23.606  26.001  1.00  0.00     0.003 C 
ATOM     19  C   UNL A   1      36.454  22.710  23.699  1.00  0.00     0.003 C 
ATOM     20  C   UNL A   1      37.050  23.536  24.830  1.00  0.00     0.000 C 
ENDBRANCH   7  10
ENDBRANCH   6   7
ENDBRANCH   4   6
ENDBRANCH   3   4
ENDBRANCH   2   3
ENDBRANCH   1   2
BRANCH   1  21
ATOM     21  O   UNL A   1      33.852  29.677  27.707  1.00  0.00    -0.458 OA
BRANCH  21  22
ATOM     22  C   UNL A   1      34.608  30.717  28.146  1.00  0.00     0.338 C 
ATOM     23  O   UNL A   1      34.208  31.792  28.536  1.00  0.00    -0.246 OA
BRANCH  22  24
ATOM     24  C   UNL A   1      35.995  30.217  28.328  1.00  0.00     0.060 A 
ATOM     25  C   UNL A   1      36.318  29.616  29.552  1.00  0.00     0.016 A 
ATOM     26  C   UNL A   1      36.922  30.219  27.278  1.00  0.00     0.016 A 
ATOM     27  C   UNL A   1      37.572  29.031  29.731  1.00  0.00     0.010 A 
ATOM     28  C   UNL A   1      38.175  29.633  27.459  1.00  0.00     0.010 A 
ATOM     29  C   UNL A   1      38.513  29.057  28.693  1.00  0.00    -0.014 A 
BRANCH  29  30
ATOM     30  C   UNL A   1      39.916  28.668  28.954  1.00  0.00     0.031 A 
ATOM     31  C   UNL A   1      40.824  29.695  29.572  1.00  0.00     0.074 A 
ATOM     32  C   UNL A   1      40.381  27.448  28.633  1.00  0.00     0.049 A 
ATOM     33  N   UNL A   1      42.089  29.604  29.881  1.00  0.00    -0.248 NA
ATOM     34  C   UNL A   1      40.220  31.005  29.874  1.00  0.00     0.031 C 
ATOM     35  C   UNL A   1      39.601  26.372  28.023  1.00  0.00     0.029 A 
ATOM     36  N   UNL A   1      41.639  26.915  28.770  1.00  0.00    -0.354 N 
ATOM     37  C   UNL A   1      42.431  30.837  30.422  1.00  0.00     0.074 A 
ATOM     38  C   UNL A   1      41.252  31.672  30.366  1.00  0.00     0.031 C 
ATOM     39  C   UNL A   1      40.404  25.310  27.826  1.00  0.00     0.029 A 
ATOM     40  C   UNL A   1      41.755  25.636  28.279  1.00  0.00     0.049 A 
ATOM     41  H   UNL A   1      42.388  27.404  29.180  1.00  0.00     0.167 HD
ATOM     42  C   UNL A   1      43.619  31.235  30.932  1.00  0.00     0.037 A 
ATOM     43  C   UNL A   1      42.834  24.832  28.197  1.00  0.00     0.037 A 
ATOM     44  C   UNL A   1      44.795  30.413  30.972  1.00  0.00     0.049 A 
ATOM     45  C   UNL A   1      44.162  25.319  28.723  1.00  0.00     0.074 A 
ATOM     46  C   UNL A   1      46.042  30.719  31.486  1.00  0.00     0.029 A 
ATOM     47  N   UNL A   1      44.874  29.126  30.464  1.00  0.00    -0.354 N 
ATOM     48  N   UNL A   1      44.457  26.466  29.290  1.00  0.00    -0.248 NA
ATOM     49  C   UNL A   1      45.305  24.402  28.601  1.00  0.00     0.031 C 
ATOM     50  C   UNL A   1      46.888  29.629  31.255  1.00  0.00     0.029 A 
ATOM     51  C   UNL A   1      46.156  28.630  30.633  1.00  0.00     0.049 A 
ATOM     52  H   UNL A   1      44.130  28.636  30.044  1.00  0.00     0.167 HD
ATOM     53  C   UNL A   1      45.808  26.394  29.617  1.00  0.00     0.074 A 
ATOM     54  C   UNL A   1      46.272  25.090  29.192  1.00  0.00     0.031 C 
ATOM     55  C   UNL A   1      46.594  27.322  30.217  1.00  0.00     0.037 A 
BRANCH  42  56
ATOM     56  C   UNL A   1      43.700  32.630  31.476  1.00  0.00     0.058 A 
ATOM     57  C   UNL A   1      43.968  33.726  30.640  1.00  0.00     0.135 A 
ATOM     58  C   UNL A   1      43.487  32.879  32.841  1.00  0.00     0.135 A 
ATOM     59  F   UNL A   1      44.206  33.536  29.332  1.00  0.00    -0.206 F 
ATOM     60  C   UNL A   1      44.038  35.019  31.141  1.00  0.00     0.059 A 
ATOM     61  C   UNL A   1      43.531  34.168  33.360  1.00  0.00     0.059 A 
ATOM     62  F   UNL A   1      43.239  31.862  33.681  1.00  0.00    -0.206 F 
ATOM     63  C   UNL A   1      43.819  35.231  32.503  1.00  0.00     0.060 A 
BRANCH  63  64
ATOM     64  S   UNL A   1      43.901  36.918  33.139  1.00  0.00     0.124 S 
ATOM     65  O   UNL A   1      45.153  36.884  33.889  1.00  0.00    -0.237 OA
ATOM     66  O   UNL A   1      43.916  37.714  31.915  1.00  0.00    -0.237 OA
ATOM     67  O   UNL A   1      42.690  37.038  33.945  1.00  0.00    -0.744 OA
ENDBRANCH  63  64
ENDBRANCH  42  56
BRANCH  43  68
ATOM     68  C   UNL A   1      42.721  23.479  27.589  1.00  0.00     0.058 A 
ATOM     69  C   UNL A   1      42.341  22.370  28.359  1.00  0.00     0.135 A 
ATOM     70  C   UNL A   1      43.028  23.262  26.237  1.00  0.00     0.135 A 
ATOM     71  F   UNL A   1      42.050  22.525  29.660  1.00  0.00    -0.206 F 
ATOM     72  C   UNL A   1      42.293  21.089  27.819  1.00  0.00     0.059 A 
ATOM     73  C   UNL A   1      42.966  21.994  25.668  1.00  0.00     0.059 A 
ATOM     74  F   UNL A   1      43.392  24.291  25.457  1.00  0.00    -0.206 F 
ATOM     75  C   UNL A   1      42.612  20.910  26.472  1.00  0.00     0.060 A 
BRANCH  75  76
ATOM     76  S   UNL A   1      42.529  19.246  25.772  1.00  0.00     0.124 S 
ATOM     77  O   UNL A   1      41.088  19.048  25.660  1.00  0.00    -0.237 OA
ATOM     78  O   UNL A   1      43.252  19.402  24.515  1.00  0.00    -0.237 OA
ATOM     79  O   UNL A   1      43.203  18.428  26.776  1.00  0.00    -0.744 OA
ENDBRANCH  75  76
ENDBRANCH  43  68
BRANCH  55  80
ATOM     80  C   UNL A   1      48.027  26.955  30.488  1.00  0.00     0.058 A 
ATOM     81  C   UNL A   1      49.063  27.355  29.632  1.00  0.00     0.135 A 
ATOM     82  C   UNL A   1      48.371  26.255  31.656  1.00  0.00     0.135 A 
ATOM     83  F   UNL A   1      48.786  28.022  28.501  1.00  0.00    -0.206 F 
ATOM     84  C   UNL A   1      50.393  27.059  29.916  1.00  0.00     0.059 A 
ATOM     85  C   UNL A   1      49.695  25.972  31.972  1.00  0.00     0.059 A 
ATOM     86  F   UNL A   1      47.417  25.862  32.515  1.00  0.00    -0.206 F 
ATOM     87  C   UNL A   1      50.699  26.369  31.091  1.00  0.00     0.060 A 
BRANCH  87  88
ATOM     88  S   UNL A   1      52.431  26.031  31.474  1.00  0.00     0.124 S 
ATOM     89  O   UNL A   1      52.745  27.119  32.394  1.00  0.00    -0.237 OA
ATOM     90  O   UNL A   1      52.370  24.698  32.066  1.00  0.00    -0.237 OA
ATOM     91  O   UNL A   1      53.086  26.101  30.170  1.00  0.00    -0.744 OA
ENDBRANCH  87  88
ENDBRANCH  55  80
ENDBRANCH  29  30
ENDBRANCH  22  24
ENDBRANCH  21  22
ENDBRANCH   1  21
TORSDOF 16
ENDMDL
MODEL 3
REMARK VINA RESULT:     -10.2      3.711     10.784
REMARK SMILES O=C(CS(=O)(=O)[C@@H]1CCOC2(CCCCC2)C1)OCCOC(=O)c1ccc(-c2c3nc(c(-c4c(F)cc(S(=O)(=O)[O-])cc4F)c4ccc([nH]4)c(-c4c(F)cc(S(=O)(=O)[O-])cc4F)c4nc(c(-c5c(F)cc(S(=O)(=O)[O-])cc5F)c5ccc2[nH]5)C=C4)C=C3)cc1
REMARK SMILES IDX 20 1 19 2 18 3 2 4 1 5 3 6 4 7 5 8 6 9 7 10 8 11 17 12 9 13
REMARK SMILES IDX 11 14 10 15 12 16 16 17 13 18 15 19 14 20 21 21 22 22 23 23
REMARK SMILES IDX 24 24 25 25 89 26 26 27 88 28 27 29 28 30 29 31 82 32 30 33
REMARK SMILES IDX 87 34 81 35 83 36 31 37 86 38 80 39 79 40 32 42 66 43 45 44
REMARK SMILES IDX 65 45 46 46 49 47 64 48 84 49 47 50 48 51 63 53 85 54 50 55
REMARK SMILES IDX 33 56 34 57 43 58 35 59 36 60 42 61 44 62 37 63 38 64 39 65
REMARK SMILES IDX 40 66 41 67 67 68 68 69 77 70 69 71 70 72 76 73 78 74 71 75
REMARK SMILES IDX 72 76 73 77 74 78 75 79 51 80 52 81 61 82 53 83 54 84 60 85
REMARK SMILES IDX 62 86 55 87 56 88 57 89 58 90 59 91
REMARK H PARENT 83 41 49 52
REMARK Flexibility Score: inf
ROOT
ATOM      1  C   UNL A   1      32.539  30.191  26.949  1.00  0.00     0.275 C 
ENDROOT
BRANCH   1   2
ATOM      2  C   UNL A   1      32.279  29.715  25.520  1.00  0.00     0.274 C 
BRANCH   2   3
ATOM      3  O   UNL A   1      31.549  28.464  25.513  1.00  0.00    -0.461 OA
BRANCH   3   4
ATOM      4  C   UNL A   1      31.990  27.259  25.096  1.00  0.00     0.321 C 
ATOM      5  O   UNL A   1      32.068  27.032  23.888  1.00  0.00    -0.251 OA
BRANCH   4   6
ATOM      6  C   UNL A   1      32.357  26.200  26.058  1.00  0.00     0.259 C 
BRANCH   6   7
ATOM      7  S   UNL A   1      31.316  24.789  26.109  1.00  0.00     0.164 S 
ATOM      8  O   UNL A   1      31.536  24.147  27.388  1.00  0.00    -0.228 OA
ATOM      9  O   UNL A   1      29.985  25.315  25.843  1.00  0.00    -0.228 OA
BRANCH   7  10
ATOM     10  C   UNL A   1      31.659  23.629  24.764  1.00  0.00     0.114 C 
ATOM     11  C   UNL A   1      31.586  22.189  25.294  1.00  0.00     0.048 C 
ATOM     12  C   UNL A   1      32.936  23.780  23.941  1.00  0.00     0.055 C 
ATOM     13  C   UNL A   1      32.897  21.750  25.933  1.00  0.00     0.162 C 
ATOM     14  C   UNL A   1      34.238  23.181  24.517  1.00  0.00     0.069 C 
ATOM     15  O   UNL A   1      33.988  21.865  25.019  1.00  0.00    -0.375 OA
ATOM     16  C   UNL A   1      34.898  24.082  25.577  1.00  0.00     0.035 C 
ATOM     17  C   UNL A   1      35.235  23.028  23.336  1.00  0.00     0.035 C 
ATOM     18  C   UNL A   1      36.285  23.620  26.012  1.00  0.00     0.003 C 
ATOM     19  C   UNL A   1      36.636  22.588  23.765  1.00  0.00     0.003 C 
ATOM     20  C   UNL A   1      37.219  23.516  24.821  1.00  0.00     0.000 C 
ENDBRANCH   7  10
ENDBRANCH   6   7
ENDBRANCH   4   6
ENDBRANCH   3   4
ENDBRANCH   2   3
ENDBRANCH   1   2
BRANCH   1  21
ATOM     21  O   UNL A   1      33.900  29.886  27.288  1.00  0.00    -0.458 OA
BRANCH  21  22
ATOM     22  C   UNL A   1      34.554  30.822  28.024  1.00  0.00     0.338 C 
ATOM     23  O   UNL A   1      34.065  31.778  28.584  1.00  0.00    -0.246 OA
BRANCH  22  24
ATOM     24  C   UNL A   1      35.934  30.323  28.257  1.00  0.00     0.060 A 
ATOM     25  C   UNL A   1      36.223  29.760  29.507  1.00  0.00     0.016 A 
ATOM     26  C   UNL A   1      36.887  30.289  27.232  1.00  0.00     0.016 A 
ATOM     27  C   UNL A   1      37.470  29.177  29.737  1.00  0.00     0.010 A 
ATOM     28  C   UNL A   1      38.133  29.705  27.463  1.00  0.00     0.010 A 
ATOM     29  C   UNL A   1      38.437  29.167  28.723  1.00  0.00    -0.014 A 
BRANCH  29  30
ATOM     30  C   UNL A   1      39.831  28.782  29.032  1.00  0.00     0.031 A 
ATOM     31  C   UNL A   1      40.719  29.816  29.668  1.00  0.00     0.074 A 
ATOM     32  C   UNL A   1      40.307  27.559  28.739  1.00  0.00     0.049 A 
ATOM     33  N   UNL A   1      41.973  29.729  30.018  1.00  0.00    -0.248 NA
ATOM     34  C   UNL A   1      40.105  31.128  29.938  1.00  0.00     0.031 C 
ATOM     35  C   UNL A   1      39.548  26.477  28.114  1.00  0.00     0.029 A 
ATOM     36  N   UNL A   1      41.560  27.029  28.920  1.00  0.00    -0.354 N 
ATOM     37  C   UNL A   1      42.297  30.968  30.558  1.00  0.00     0.074 A 
ATOM     38  C   UNL A   1      41.120  31.802  30.456  1.00  0.00     0.031 C 
ATOM     39  C   UNL A   1      40.357  25.413  27.953  1.00  0.00     0.029 A 
ATOM     40  C   UNL A   1      41.692  25.745  28.446  1.00  0.00     0.049 A 
ATOM     41  H   UNL A   1      42.296  27.522  29.349  1.00  0.00     0.167 HD
ATOM     42  C   UNL A   1      43.469  31.372  31.101  1.00  0.00     0.037 A 
ATOM     43  C   UNL A   1      42.774  24.942  28.406  1.00  0.00     0.037 A 
ATOM     44  C   UNL A   1      44.643  30.551  31.186  1.00  0.00     0.049 A 
ATOM     45  C   UNL A   1      44.085  25.435  28.968  1.00  0.00     0.074 A 
ATOM     46  C   UNL A   1      45.873  30.864  31.736  1.00  0.00     0.029 A 
ATOM     47  N   UNL A   1      44.739  29.259  30.693  1.00  0.00    -0.354 N 
ATOM     48  N   UNL A   1      44.360  26.588  29.534  1.00  0.00    -0.248 NA
ATOM     49  C   UNL A   1      45.232  24.517  28.892  1.00  0.00     0.031 C 
ATOM     50  C   UNL A   1      46.726  29.772  31.543  1.00  0.00     0.029 A 
ATOM     51  C   UNL A   1      46.015  28.766  30.908  1.00  0.00     0.049 A 
ATOM     52  H   UNL A   1      44.009  28.764  30.256  1.00  0.00     0.167 HD
ATOM     53  C   UNL A   1      45.701  26.520  29.904  1.00  0.00     0.074 A 
ATOM     54  C   UNL A   1      46.179  25.213  29.506  1.00  0.00     0.031 C 
ATOM     55  C   UNL A   1      46.467  27.455  30.519  1.00  0.00     0.037 A 
BRANCH  42  56
ATOM     56  C   UNL A   1      43.531  32.773  31.634  1.00  0.00     0.058 A 
ATOM     57  C   UNL A   1      43.284  33.050  32.988  1.00  0.00     0.135 A 
ATOM     58  C   UNL A   1      43.861  33.845  30.790  1.00  0.00     0.135 A 
ATOM     59  F   UNL A   1      42.938  32.061  33.828  1.00  0.00    -0.206 F 
ATOM     60  C   UNL A   1      43.346  34.346  33.485  1.00  0.00     0.059 A 
ATOM     61  C   UNL A   1      43.949  35.146  31.271  1.00  0.00     0.059 A 
ATOM     62  F   UNL A   1      44.093  33.631  29.486  1.00  0.00    -0.206 F 
ATOM     63  C   UNL A   1      43.679  35.388  32.618  1.00  0.00     0.060 A 
BRANCH  63  64
ATOM     64  S   UNL A   1      43.768  37.065  33.280  1.00  0.00     0.124 S 
ATOM     65  O   UNL A   1      45.015  37.011  34.038  1.00  0.00    -0.237 OA
ATOM     66  O   UNL A   1      43.797  37.879  32.070  1.00  0.00    -0.237 OA
ATOM     67  O   UNL A   1      42.552  37.180  34.080  1.00  0.00    -0.744 OA
ENDBRANCH  63  64
ENDBRANCH  42  56
BRANCH  43  68
ATOM     68  C   UNL A   1      42.681  23.583  27.808  1.00  0.00     0.058 A 
ATOM     69  C   UNL A   1      42.778  23.395  26.421  1.00  0.00     0.135 A 
ATOM     70  C   UNL A   1      42.453  22.452  28.606  1.00  0.00     0.135 A 
ATOM     71  F   UNL A   1      42.981  24.448  25.615  1.00  0.00    -0.206 F 
ATOM     72  C   UNL A   1      42.628  22.139  25.843  1.00  0.00     0.059 A 
ATOM     73  C   UNL A   1      42.323  21.181  28.054  1.00  0.00     0.059 A 
ATOM     74  F   UNL A   1      42.358  22.577  29.938  1.00  0.00    -0.206 F 
ATOM     75  C   UNL A   1      42.397  21.037  26.668  1.00  0.00     0.060 A 
BRANCH  75  76
ATOM     76  S   UNL A   1      42.223  19.405  25.912  1.00  0.00     0.124 S 
ATOM     77  O   UNL A   1      42.721  18.537  26.973  1.00  0.00    -0.237 OA
ATOM     78  O   UNL A   1      40.790  19.336  25.649  1.00  0.00    -0.237 OA
ATOM     79  O   UNL A   1      43.067  19.497  24.724  1.00  0.00    -0.744 OA
ENDBRANCH  75  76
ENDBRANCH  43  68
BRANCH  55  80
ATOM     80  C   UNL A   1      47.890  27.092  30.839  1.00  0.00     0.058 A 
ATOM     81  C   UNL A   1      48.248  26.536  32.076  1.00  0.00     0.135 A 
ATOM     82  C   UNL A   1      48.895  27.238  29.867  1.00  0.00     0.135 A 
ATOM     83  F   UNL A   1      47.326  26.380  33.038  1.00  0.00    -0.206 F 
ATOM     84  C   UNL A   1      49.557  26.150  32.346  1.00  0.00     0.059 A 
ATOM     85  C   UNL A   1      50.204  26.836  30.107  1.00  0.00     0.059 A 
ATOM     86  F   UNL A   1      48.601  27.753  28.663  1.00  0.00    -0.206 F 
ATOM     87  C   UNL A   1      50.529  26.303  31.354  1.00  0.00     0.060 A 
BRANCH  87  88
ATOM     88  S   UNL A   1      52.215  25.756  31.698  1.00  0.00     0.124 S 
ATOM     89  O   UNL A   1      52.005  24.355  32.045  1.00  0.00    -0.237 OA
ATOM     90  O   UNL A   1      52.892  26.000  30.427  1.00  0.00    -0.237 OA
ATOM     91  O   UNL A   1      52.633  26.621  32.797  1.00  0.00    -0.744 OA
ENDBRANCH  87  88
ENDBRANCH  55  80
ENDBRANCH  29  30
ENDBRANCH  22  24
ENDBRANCH  21  22
ENDBRANCH   1  21
TORSDOF 16
ENDMDL
