MODEL 1
REMARK VINA RESULT:      -9.9      0.000      0.000
REMARK SMILES C[C@H](COc1ccccc1C(=O)OCCOC(=O)c1ccc(-c2c3nc(c(-c4c(F)cc(S(=O)(=O)[O-])cc4F)c4ccc([nH]4)c(-c4c(F)cc(S(=O)(=O)[O-])cc4F)c4nc(c(-c5c(F)cc(S(=O)(=O)[O-])cc5F)c5ccc2[nH]5)C=C4)C=C3)cc1)C(N)=O
REMARK SMILES IDX 14 1 13 2 11 3 12 4 10 5 5 6 6 7 7 8 9 9 8 10 4 11 3 12 2 13
REMARK SMILES IDX 1 14 85 15 86 16 87 17 15 20 16 21 17 22 18 23 19 24 20 25
REMARK SMILES IDX 84 26 21 27 83 28 22 29 23 30 24 31 77 32 25 33 82 34 76 35
REMARK SMILES IDX 78 36 26 37 81 38 75 39 74 40 27 42 61 43 40 44 60 45 41 46
REMARK SMILES IDX 44 47 59 48 79 49 42 50 43 51 58 53 80 54 45 55 28 56 29 57
REMARK SMILES IDX 38 58 30 59 31 60 37 61 39 62 32 63 33 64 34 65 35 66 36 67
REMARK SMILES IDX 62 68 63 69 72 70 64 71 65 72 71 73 73 74 66 75 67 76 68 77
REMARK SMILES IDX 69 78 70 79 46 80 47 81 56 82 48 83 49 84 55 85 57 86 50 87
REMARK SMILES IDX 51 88 52 89 53 90 54 91
REMARK H PARENT 86 18 86 19 78 41 44 52
REMARK Flexibility Score: inf
ROOT
ATOM      1  C   UNL A   1      40.007  19.998  26.336  1.00  0.00     0.275 C 
ENDROOT
BRANCH   1   2
ATOM      2  O   UNL A   1      41.195  19.797  25.536  1.00  0.00    -0.458 OA
BRANCH   2   3
ATOM      3  C   UNL A   1      42.370  19.964  26.199  1.00  0.00     0.342 C 
ATOM      4  O   UNL A   1      43.278  19.148  26.234  1.00  0.00    -0.246 OA
BRANCH   3   5
ATOM      5  C   UNL A   1      42.525  21.334  26.753  1.00  0.00     0.102 A 
ATOM      6  C   UNL A   1      42.880  22.469  26.017  1.00  0.00     0.133 A 
ATOM      7  C   UNL A   1      42.995  23.711  26.660  1.00  0.00     0.047 A 
ATOM      8  C   UNL A   1      42.768  23.821  28.034  1.00  0.00     0.004 A 
ATOM      9  C   UNL A   1      42.261  21.469  28.127  1.00  0.00     0.019 A 
ATOM     10  C   UNL A   1      42.409  22.697  28.771  1.00  0.00     0.001 A 
BRANCH   6  11
ATOM     11  O   UNL A   1      43.263  22.412  24.708  1.00  0.00    -0.492 OA
BRANCH  11  12
ATOM     12  C   UNL A   1      44.197  23.432  24.321  1.00  0.00     0.242 C 
BRANCH  12  13
ATOM     13  C   UNL A   1      45.556  22.796  23.961  1.00  0.00     0.113 C 
ATOM     14  C   UNL A   1      46.730  23.692  24.381  1.00  0.00     0.022 C 
BRANCH  13  15
ATOM     15  C   UNL A   1      45.580  21.357  24.466  1.00  0.00     0.223 C 
ATOM     16  N   UNL A   1      44.946  20.407  23.729  1.00  0.00    -0.369 N 
ATOM     17  O   UNL A   1      46.038  21.042  25.562  1.00  0.00    -0.275 OA
ATOM     18  H   UNL A   1      44.571  20.637  22.848  1.00  0.00     0.159 HD
ATOM     19  H   UNL A   1      44.862  19.489  24.076  1.00  0.00     0.159 HD
ENDBRANCH  13  15
ENDBRANCH  12  13
ENDBRANCH  11  12
ENDBRANCH   6  11
ENDBRANCH   3   5
ENDBRANCH   2   3
ENDBRANCH   1   2
BRANCH   1  20
ATOM     20  C   UNL A   1      39.109  21.094  25.756  1.00  0.00     0.275 C 
BRANCH  20  21
ATOM     21  O   UNL A   1      39.429  22.339  26.390  1.00  0.00    -0.458 OA
BRANCH  21  22
ATOM     22  C   UNL A   1      38.779  23.405  25.880  1.00  0.00     0.338 C 
ATOM     23  O   UNL A   1      37.813  23.403  25.126  1.00  0.00    -0.246 OA
BRANCH  22  24
ATOM     24  C   UNL A   1      39.220  24.563  26.657  1.00  0.00     0.060 A 
ATOM     25  C   UNL A   1      38.851  24.582  28.003  1.00  0.00     0.016 A 
ATOM     26  C   UNL A   1      40.014  25.568  26.117  1.00  0.00     0.016 A 
ATOM     27  C   UNL A   1      39.272  25.608  28.834  1.00  0.00     0.010 A 
ATOM     28  C   UNL A   1      40.436  26.606  26.951  1.00  0.00     0.010 A 
ATOM     29  C   UNL A   1      40.064  26.630  28.310  1.00  0.00    -0.014 A 
BRANCH  29  30
ATOM     30  C   UNL A   1      40.434  27.783  29.158  1.00  0.00     0.031 A 
ATOM     31  C   UNL A   1      41.690  27.696  29.968  1.00  0.00     0.074 A 
ATOM     32  C   UNL A   1      39.656  28.881  29.193  1.00  0.00     0.049 A 
ATOM     33  N   UNL A   1      42.087  28.439  30.963  1.00  0.00    -0.248 NA
ATOM     34  C   UNL A   1      42.620  26.610  29.614  1.00  0.00     0.031 C 
ATOM     35  C   UNL A   1      38.469  29.106  28.366  1.00  0.00     0.029 A 
ATOM     36  N   UNL A   1      39.741  30.009  29.968  1.00  0.00    -0.354 N 
ATOM     37  C   UNL A   1      43.284  27.879  31.394  1.00  0.00     0.074 A 
ATOM     38  C   UNL A   1      43.552  26.738  30.546  1.00  0.00     0.031 C 
ATOM     39  C   UNL A   1      37.930  30.294  28.686  1.00  0.00     0.029 A 
ATOM     40  C   UNL A   1      38.683  30.870  29.795  1.00  0.00     0.049 A 
ATOM     41  H   UNL A   1      40.487  30.185  30.586  1.00  0.00     0.167 HD
ATOM     42  C   UNL A   1      44.070  28.283  32.418  1.00  0.00     0.037 A 
ATOM     43  C   UNL A   1      38.329  31.962  30.501  1.00  0.00     0.037 A 
ATOM     44  C   UNL A   1      43.782  29.443  33.221  1.00  0.00     0.049 A 
ATOM     45  C   UNL A   1      39.175  32.352  31.682  1.00  0.00     0.074 A 
ATOM     46  C   UNL A   1      44.498  29.957  34.285  1.00  0.00     0.029 A 
ATOM     47  N   UNL A   1      42.683  30.273  33.037  1.00  0.00    -0.354 N 
ATOM     48  N   UNL A   1      40.273  31.786  32.131  1.00  0.00    -0.248 NA
ATOM     49  C   UNL A   1      38.727  33.507  32.469  1.00  0.00     0.031 C 
ATOM     50  C   UNL A   1      43.809  31.074  34.772  1.00  0.00     0.029 A 
ATOM     51  C   UNL A   1      42.687  31.283  33.981  1.00  0.00     0.049 A 
ATOM     52  H   UNL A   1      42.001  30.160  32.335  1.00  0.00     0.167 HD
ATOM     53  C   UNL A   1      40.647  32.515  33.253  1.00  0.00     0.074 A 
ATOM     54  C   UNL A   1      39.672  33.580  33.397  1.00  0.00     0.031 C 
ATOM     55  C   UNL A   1      41.693  32.322  34.095  1.00  0.00     0.037 A 
BRANCH  42  56
ATOM     56  C   UNL A   1      45.267  27.439  32.755  1.00  0.00     0.058 A 
ATOM     57  C   UNL A   1      46.536  27.686  32.207  1.00  0.00     0.135 A 
ATOM     58  C   UNL A   1      45.141  26.361  33.647  1.00  0.00     0.135 A 
ATOM     59  F   UNL A   1      46.711  28.686  31.330  1.00  0.00    -0.206 F 
ATOM     60  C   UNL A   1      47.630  26.881  32.514  1.00  0.00     0.059 A 
ATOM     61  C   UNL A   1      46.226  25.559  33.987  1.00  0.00     0.059 A 
ATOM     62  F   UNL A   1      43.948  26.073  34.193  1.00  0.00    -0.206 F 
ATOM     63  C   UNL A   1      47.464  25.818  33.404  1.00  0.00     0.060 A 
BRANCH  63  64
ATOM     64  S   UNL A   1      48.891  24.782  33.791  1.00  0.00     0.124 S 
ATOM     65  O   UNL A   1      48.246  23.540  34.208  1.00  0.00    -0.237 OA
ATOM     66  O   UNL A   1      49.595  24.730  32.513  1.00  0.00    -0.237 OA
ATOM     67  O   UNL A   1      49.573  25.520  34.849  1.00  0.00    -0.744 OA
ENDBRANCH  63  64
ENDBRANCH  42  56
BRANCH  43  68
ATOM     68  C   UNL A   1      37.086  32.704  30.155  1.00  0.00     0.058 A 
ATOM     69  C   UNL A   1      35.847  32.342  30.702  1.00  0.00     0.135 A 
ATOM     70  C   UNL A   1      37.114  33.809  29.286  1.00  0.00     0.135 A 
ATOM     71  F   UNL A   1      35.762  31.285  31.525  1.00  0.00    -0.206 F 
ATOM     72  C   UNL A   1      34.682  33.044  30.403  1.00  0.00     0.059 A 
ATOM     73  C   UNL A   1      35.969  34.543  28.994  1.00  0.00     0.059 A 
ATOM     74  F   UNL A   1      38.273  34.204  28.737  1.00  0.00    -0.206 F 
ATOM     75  C   UNL A   1      34.755  34.147  29.551  1.00  0.00     0.060 A 
BRANCH  75  76
ATOM     76  S   UNL A   1      33.249  35.086  29.214  1.00  0.00     0.124 S 
ATOM     77  O   UNL A   1      32.678  35.216  30.549  1.00  0.00    -0.237 OA
ATOM     78  O   UNL A   1      33.775  36.312  28.623  1.00  0.00    -0.237 OA
ATOM     79  O   UNL A   1      32.513  34.223  28.295  1.00  0.00    -0.744 OA
ENDBRANCH  75  76
ENDBRANCH  43  68
BRANCH  55  80
ATOM     80  C   UNL A   1      41.835  33.289  35.235  1.00  0.00     0.058 A 
ATOM     81  C   UNL A   1      41.250  33.034  36.485  1.00  0.00     0.135 A 
ATOM     82  C   UNL A   1      42.610  34.450  35.092  1.00  0.00     0.135 A 
ATOM     83  F   UNL A   1      40.492  31.940  36.667  1.00  0.00    -0.206 F 
ATOM     84  C   UNL A   1      41.415  33.909  37.552  1.00  0.00     0.059 A 
ATOM     85  C   UNL A   1      42.809  35.325  36.154  1.00  0.00     0.059 A 
ATOM     86  F   UNL A   1      43.196  34.732  33.918  1.00  0.00    -0.206 F 
ATOM     87  C   UNL A   1      42.200  35.050  37.377  1.00  0.00     0.060 A 
BRANCH  87  88
ATOM     88  S   UNL A   1      42.442  36.155  38.783  1.00  0.00     0.124 S 
ATOM     89  O   UNL A   1      41.315  37.070  38.635  1.00  0.00    -0.237 OA
ATOM     90  O   UNL A   1      42.371  35.239  39.917  1.00  0.00    -0.237 OA
ATOM     91  O   UNL A   1      43.759  36.736  38.536  1.00  0.00    -0.744 OA
ENDBRANCH  87  88
ENDBRANCH  55  80
ENDBRANCH  29  30
ENDBRANCH  22  24
ENDBRANCH  21  22
ENDBRANCH  20  21
ENDBRANCH   1  20
TORSDOF 18
ENDMDL
MODEL 2
REMARK VINA RESULT:      -9.5      4.794     10.281
REMARK SMILES C[C@H](COc1ccccc1C(=O)OCCOC(=O)c1ccc(-c2c3nc(c(-c4c(F)cc(S(=O)(=O)[O-])cc4F)c4ccc([nH]4)c(-c4c(F)cc(S(=O)(=O)[O-])cc4F)c4nc(c(-c5c(F)cc(S(=O)(=O)[O-])cc5F)c5ccc2[nH]5)C=C4)C=C3)cc1)C(N)=O
REMARK SMILES IDX 14 1 13 2 11 3 12 4 10 5 5 6 6 7 7 8 9 9 8 10 4 11 3 12 2 13
REMARK SMILES IDX 1 14 85 15 86 16 87 17 15 20 16 21 17 22 18 23 19 24 20 25
REMARK SMILES IDX 84 26 21 27 83 28 22 29 23 30 24 31 77 32 25 33 82 34 76 35
REMARK SMILES IDX 78 36 26 37 81 38 75 39 74 40 27 42 61 43 40 44 60 45 41 46
REMARK SMILES IDX 44 47 59 48 79 49 42 50 43 51 58 53 80 54 45 55 28 56 29 57
REMARK SMILES IDX 38 58 30 59 31 60 37 61 39 62 32 63 33 64 34 65 35 66 36 67
REMARK SMILES IDX 62 68 63 69 72 70 64 71 65 72 71 73 73 74 66 75 67 76 68 77
REMARK SMILES IDX 69 78 70 79 46 80 47 81 56 82 48 83 49 84 55 85 57 86 50 87
REMARK SMILES IDX 51 88 52 89 53 90 54 91
REMARK H PARENT 86 18 86 19 78 41 44 52
REMARK Flexibility Score: inf
ROOT
ATOM      1  C   UNL A   1      32.620  31.074  27.023  1.00  0.00     0.275 C 
ENDROOT
BRANCH   1   2
ATOM      2  O   UNL A   1      31.588  30.388  26.275  1.00  0.00    -0.458 OA
BRANCH   2   3
ATOM      3  C   UNL A   1      32.027  29.707  25.183  1.00  0.00     0.342 C 
ATOM      4  O   UNL A   1      33.169  29.736  24.752  1.00  0.00    -0.246 OA
BRANCH   3   5
ATOM      5  C   UNL A   1      31.008  28.769  24.645  1.00  0.00     0.102 A 
ATOM      6  C   UNL A   1      29.961  29.117  23.785  1.00  0.00     0.133 A 
ATOM      7  C   UNL A   1      29.061  28.134  23.347  1.00  0.00     0.047 A 
ATOM      8  C   UNL A   1      29.195  26.810  23.771  1.00  0.00     0.004 A 
ATOM      9  C   UNL A   1      31.154  27.425  25.031  1.00  0.00     0.019 A 
ATOM     10  C   UNL A   1      30.238  26.456  24.622  1.00  0.00     0.001 A 
BRANCH   6  11
ATOM     11  O   UNL A   1      29.677  30.410  23.451  1.00  0.00    -0.492 OA
BRANCH  11  12
ATOM     12  C   UNL A   1      28.277  30.724  23.443  1.00  0.00     0.242 C 
BRANCH  12  13
ATOM     13  C   UNL A   1      28.015  31.958  22.554  1.00  0.00     0.113 C 
ATOM     14  C   UNL A   1      28.949  33.122  22.913  1.00  0.00     0.022 C 
BRANCH  13  15
ATOM     15  C   UNL A   1      27.996  31.522  21.092  1.00  0.00     0.223 C 
ATOM     16  N   UNL A   1      27.736  32.460  20.145  1.00  0.00    -0.369 N 
ATOM     17  O   UNL A   1      28.082  30.346  20.746  1.00  0.00    -0.275 OA
ATOM     18  H   UNL A   1      27.663  33.409  20.399  1.00  0.00     0.159 HD
ATOM     19  H   UNL A   1      27.623  32.192  19.204  1.00  0.00     0.159 HD
ENDBRANCH  13  15
ENDBRANCH  12  13
ENDBRANCH  11  12
ENDBRANCH   6  11
ENDBRANCH   3   5
ENDBRANCH   2   3
ENDBRANCH   1   2
BRANCH   1  20
ATOM     20  C   UNL A   1      32.237  32.527  27.318  1.00  0.00     0.275 C 
BRANCH  20  21
ATOM     21  O   UNL A   1      33.433  33.291  27.514  1.00  0.00    -0.458 OA
BRANCH  21  22
ATOM     22  C   UNL A   1      33.462  33.994  28.665  1.00  0.00     0.338 C 
ATOM     23  O   UNL A   1      32.531  34.575  29.211  1.00  0.00    -0.246 OA
BRANCH  22  24
ATOM     24  C   UNL A   1      34.725  33.655  29.320  1.00  0.00     0.060 A 
ATOM     25  C   UNL A   1      34.665  32.668  30.305  1.00  0.00     0.016 A 
ATOM     26  C   UNL A   1      35.937  34.230  28.953  1.00  0.00     0.016 A 
ATOM     27  C   UNL A   1      35.818  32.238  30.941  1.00  0.00     0.010 A 
ATOM     28  C   UNL A   1      37.100  33.802  29.596  1.00  0.00     0.010 A 
ATOM     29  C   UNL A   1      37.044  32.806  30.593  1.00  0.00    -0.014 A 
BRANCH  29  30
ATOM     30  C   UNL A   1      38.267  32.432  31.334  1.00  0.00     0.031 A 
ATOM     31  C   UNL A   1      39.121  31.331  30.786  1.00  0.00     0.074 A 
ATOM     32  C   UNL A   1      38.598  33.072  32.470  1.00  0.00     0.049 A 
ATOM     33  N   UNL A   1      40.073  30.655  31.366  1.00  0.00    -0.248 NA
ATOM     34  C   UNL A   1      38.852  30.928  29.395  1.00  0.00     0.031 C 
ATOM     35  C   UNL A   1      37.891  34.224  33.032  1.00  0.00     0.029 A 
ATOM     36  N   UNL A   1      39.609  32.833  33.365  1.00  0.00    -0.354 N 
ATOM     37  C   UNL A   1      40.480  29.706  30.434  1.00  0.00     0.074 A 
ATOM     38  C   UNL A   1      39.677  29.902  29.247  1.00  0.00     0.031 C 
ATOM     39  C   UNL A   1      38.483  34.585  34.183  1.00  0.00     0.029 A 
ATOM     40  C   UNL A   1      39.554  33.639  34.478  1.00  0.00     0.049 A 
ATOM     41  H   UNL A   1      40.306  32.153  33.224  1.00  0.00     0.167 HD
ATOM     42  C   UNL A   1      41.431  28.756  30.577  1.00  0.00     0.037 A 
ATOM     43  C   UNL A   1      40.245  33.573  35.632  1.00  0.00     0.037 A 
ATOM     44  C   UNL A   1      42.230  28.613  31.766  1.00  0.00     0.049 A 
ATOM     45  C   UNL A   1      41.246  32.462  35.800  1.00  0.00     0.074 A 
ATOM     46  C   UNL A   1      43.223  27.692  32.035  1.00  0.00     0.029 A 
ATOM     47  N   UNL A   1      42.123  29.428  32.887  1.00  0.00    -0.354 N 
ATOM     48  N   UNL A   1      41.587  31.525  34.944  1.00  0.00    -0.248 NA
ATOM     49  C   UNL A   1      41.936  32.377  37.093  1.00  0.00     0.031 C 
ATOM     50  C   UNL A   1      43.688  27.922  33.334  1.00  0.00     0.029 A 
ATOM     51  C   UNL A   1      43.016  29.017  33.859  1.00  0.00     0.049 A 
ATOM     52  H   UNL A   1      41.502  30.188  32.976  1.00  0.00     0.167 HD
ATOM     53  C   UNL A   1      42.532  30.739  35.594  1.00  0.00     0.074 A 
ATOM     54  C   UNL A   1      42.726  31.329  36.905  1.00  0.00     0.031 C 
ATOM     55  C   UNL A   1      43.175  29.628  35.156  1.00  0.00     0.037 A 
BRANCH  42  56
ATOM     56  C   UNL A   1      41.611  27.774  29.452  1.00  0.00     0.058 A 
ATOM     57  C   UNL A   1      42.710  27.828  28.580  1.00  0.00     0.135 A 
ATOM     58  C   UNL A   1      40.664  26.757  29.246  1.00  0.00     0.135 A 
ATOM     59  F   UNL A   1      43.632  28.793  28.713  1.00  0.00    -0.206 F 
ATOM     60  C   UNL A   1      42.850  26.924  27.531  1.00  0.00     0.059 A 
ATOM     61  C   UNL A   1      40.798  25.827  28.219  1.00  0.00     0.059 A 
ATOM     62  F   UNL A   1      39.588  26.664  30.045  1.00  0.00    -0.206 F 
ATOM     63  C   UNL A   1      41.888  25.928  27.357  1.00  0.00     0.060 A 
BRANCH  63  64
ATOM     64  S   UNL A   1      42.082  24.763  25.991  1.00  0.00     0.124 S 
ATOM     65  O   UNL A   1      40.785  24.093  25.992  1.00  0.00    -0.237 OA
ATOM     66  O   UNL A   1      42.334  25.650  24.859  1.00  0.00    -0.237 OA
ATOM     67  O   UNL A   1      43.214  23.940  26.403  1.00  0.00    -0.744 OA
ENDBRANCH  63  64
ENDBRANCH  42  56
BRANCH  43  68
ATOM     68  C   UNL A   1      39.958  34.534  36.732  1.00  0.00     0.058 A 
ATOM     69  C   UNL A   1      38.991  34.252  37.709  1.00  0.00     0.135 A 
ATOM     70  C   UNL A   1      40.660  35.745  36.844  1.00  0.00     0.135 A 
ATOM     71  F   UNL A   1      38.281  33.116  37.639  1.00  0.00    -0.206 F 
ATOM     72  C   UNL A   1      38.731  35.134  38.754  1.00  0.00     0.059 A 
ATOM     73  C   UNL A   1      40.438  36.630  37.895  1.00  0.00     0.059 A 
ATOM     74  F   UNL A   1      41.600  36.064  35.941  1.00  0.00    -0.206 F 
ATOM     75  C   UNL A   1      39.464  36.319  38.842  1.00  0.00     0.060 A 
BRANCH  75  76
ATOM     76  S   UNL A   1      39.159  37.430  40.234  1.00  0.00     0.124 S 
ATOM     77  O   UNL A   1      38.587  36.518  41.217  1.00  0.00    -0.237 OA
ATOM     78  O   UNL A   1      40.498  37.929  40.529  1.00  0.00    -0.237 OA
ATOM     79  O   UNL A   1      38.238  38.419  39.679  1.00  0.00    -0.744 OA
ENDBRANCH  75  76
ENDBRANCH  43  68
BRANCH  55  80
ATOM     80  C   UNL A   1      44.151  28.991  36.103  1.00  0.00     0.058 A 
ATOM     81  C   UNL A   1      45.453  29.490  36.255  1.00  0.00     0.135 A 
ATOM     82  C   UNL A   1      43.760  27.907  36.905  1.00  0.00     0.135 A 
ATOM     83  F   UNL A   1      45.875  30.519  35.503  1.00  0.00    -0.206 F 
ATOM     84  C   UNL A   1      46.342  28.925  37.160  1.00  0.00     0.059 A 
ATOM     85  C   UNL A   1      44.625  27.344  37.836  1.00  0.00     0.059 A 
ATOM     86  F   UNL A   1      42.521  27.401  36.801  1.00  0.00    -0.206 F 
ATOM     87  C   UNL A   1      45.918  27.854  37.949  1.00  0.00     0.060 A 
BRANCH  87  88
ATOM     88  S   UNL A   1      47.069  27.157  39.152  1.00  0.00     0.124 S 
ATOM     89  O   UNL A   1      46.157  26.511  40.089  1.00  0.00    -0.237 OA
ATOM     90  O   UNL A   1      47.875  26.260  38.330  1.00  0.00    -0.237 OA
ATOM     91  O   UNL A   1      47.772  28.328  39.667  1.00  0.00    -0.744 OA
ENDBRANCH  87  88
ENDBRANCH  55  80
ENDBRANCH  29  30
ENDBRANCH  22  24
ENDBRANCH  21  22
ENDBRANCH  20  21
ENDBRANCH   1  20
TORSDOF 18
ENDMDL
MODEL 3
REMARK VINA RESULT:      -9.4      3.092      5.284
REMARK SMILES C[C@H](COc1ccccc1C(=O)OCCOC(=O)c1ccc(-c2c3nc(c(-c4c(F)cc(S(=O)(=O)[O-])cc4F)c4ccc([nH]4)c(-c4c(F)cc(S(=O)(=O)[O-])cc4F)c4nc(c(-c5c(F)cc(S(=O)(=O)[O-])cc5F)c5ccc2[nH]5)C=C4)C=C3)cc1)C(N)=O
REMARK SMILES IDX 14 1 13 2 11 3 12 4 10 5 5 6 6 7 7 8 9 9 8 10 4 11 3 12 2 13
REMARK SMILES IDX 1 14 85 15 86 16 87 17 15 20 16 21 17 22 18 23 19 24 20 25
REMARK SMILES IDX 84 26 21 27 83 28 22 29 23 30 24 31 77 32 25 33 82 34 76 35
REMARK SMILES IDX 78 36 26 37 81 38 75 39 74 40 27 42 61 43 40 44 60 45 41 46
REMARK SMILES IDX 44 47 59 48 79 49 42 50 43 51 58 53 80 54 45 55 28 56 29 57
REMARK SMILES IDX 38 58 30 59 31 60 37 61 39 62 32 63 33 64 34 65 35 66 36 67
REMARK SMILES IDX 62 68 63 69 72 70 64 71 65 72 71 73 73 74 66 75 67 76 68 77
REMARK SMILES IDX 69 78 70 79 46 80 47 81 56 82 48 83 49 84 55 85 57 86 50 87
REMARK SMILES IDX 51 88 52 89 53 90 54 91
REMARK H PARENT 86 18 86 19 78 41 44 52
REMARK Flexibility Score: inf
ROOT
ATOM      1  C   UNL A   1      35.852  22.541  25.360  1.00  0.00     0.275 C 
ENDROOT
BRANCH   1   2
ATOM      2  O   UNL A   1      35.145  21.541  24.590  1.00  0.00    -0.458 OA
BRANCH   2   3
ATOM      3  C   UNL A   1      34.402  20.670  25.323  1.00  0.00     0.342 C 
ATOM      4  O   UNL A   1      34.013  20.869  26.464  1.00  0.00    -0.246 OA
BRANCH   3   5
ATOM      5  C   UNL A   1      33.952  19.495  24.534  1.00  0.00     0.102 A 
ATOM      6  C   UNL A   1      32.831  19.464  23.697  1.00  0.00     0.133 A 
ATOM      7  C   UNL A   1      32.511  18.286  23.003  1.00  0.00     0.047 A 
ATOM      8  C   UNL A   1      33.296  17.141  23.150  1.00  0.00     0.004 A 
ATOM      9  C   UNL A   1      34.755  18.346  24.639  1.00  0.00     0.019 A 
ATOM     10  C   UNL A   1      34.415  17.167  23.977  1.00  0.00     0.001 A 
BRANCH   6  11
ATOM     11  O   UNL A   1      31.936  20.491  23.621  1.00  0.00    -0.492 OA
BRANCH  11  12
ATOM     12  C   UNL A   1      32.137  21.368  22.503  1.00  0.00     0.242 C 
BRANCH  12  13
ATOM     13  C   UNL A   1      32.504  22.783  22.999  1.00  0.00     0.113 C 
ATOM     14  C   UNL A   1      33.029  23.665  21.858  1.00  0.00     0.022 C 
BRANCH  13  15
ATOM     15  C   UNL A   1      31.342  23.339  23.816  1.00  0.00     0.223 C 
ATOM     16  N   UNL A   1      30.272  23.846  23.148  1.00  0.00    -0.369 N 
ATOM     17  O   UNL A   1      31.382  23.460  25.038  1.00  0.00    -0.275 OA
ATOM     18  H   UNL A   1      30.218  23.761  22.169  1.00  0.00     0.159 HD
ATOM     19  H   UNL A   1      29.551  24.298  23.644  1.00  0.00     0.159 HD
ENDBRANCH  13  15
ENDBRANCH  12  13
ENDBRANCH  11  12
ENDBRANCH   6  11
ENDBRANCH   3   5
ENDBRANCH   2   3
ENDBRANCH   1   2
BRANCH   1  20
ATOM     20  C   UNL A   1      37.325  22.638  24.950  1.00  0.00     0.275 C 
BRANCH  20  21
ATOM     21  O   UNL A   1      37.929  23.735  25.648  1.00  0.00    -0.458 OA
BRANCH  21  22
ATOM     22  C   UNL A   1      39.109  23.440  26.230  1.00  0.00     0.338 C 
ATOM     23  O   UNL A   1      39.861  22.508  25.969  1.00  0.00    -0.246 OA
BRANCH  22  24
ATOM     24  C   UNL A   1      39.493  24.624  26.998  1.00  0.00     0.060 A 
ATOM     25  C   UNL A   1      38.954  24.731  28.282  1.00  0.00     0.016 A 
ATOM     26  C   UNL A   1      40.391  25.570  26.517  1.00  0.00     0.016 A 
ATOM     27  C   UNL A   1      39.306  25.786  29.107  1.00  0.00     0.010 A 
ATOM     28  C   UNL A   1      40.744  26.637  27.345  1.00  0.00     0.010 A 
ATOM     29  C   UNL A   1      40.201  26.750  28.641  1.00  0.00    -0.014 A 
BRANCH  29  30
ATOM     30  C   UNL A   1      40.504  27.935  29.470  1.00  0.00     0.031 A 
ATOM     31  C   UNL A   1      41.733  27.908  30.326  1.00  0.00     0.074 A 
ATOM     32  C   UNL A   1      39.694  29.009  29.447  1.00  0.00     0.049 A 
ATOM     33  N   UNL A   1      42.071  28.689  31.314  1.00  0.00    -0.248 NA
ATOM     34  C   UNL A   1      42.707  26.843  30.035  1.00  0.00     0.031 C 
ATOM     35  C   UNL A   1      38.531  29.177  28.573  1.00  0.00     0.029 A 
ATOM     36  N   UNL A   1      39.717  30.159  30.195  1.00  0.00    -0.354 N 
ATOM     37  C   UNL A   1      43.268  28.176  31.803  1.00  0.00     0.074 A 
ATOM     38  C   UNL A   1      43.600  27.023  30.996  1.00  0.00     0.031 C 
ATOM     39  C   UNL A   1      37.945  30.355  28.842  1.00  0.00     0.029 A 
ATOM     40  C   UNL A   1      38.640  30.983  29.961  1.00  0.00     0.049 A 
ATOM     41  H   UNL A   1      40.434  30.374  30.834  1.00  0.00     0.167 HD
ATOM     42  C   UNL A   1      44.003  28.631  32.843  1.00  0.00     0.037 A 
ATOM     43  C   UNL A   1      38.228  32.080  30.624  1.00  0.00     0.037 A 
ATOM     44  C   UNL A   1      43.651  29.802  33.603  1.00  0.00     0.049 A 
ATOM     45  C   UNL A   1      39.019  32.527  31.823  1.00  0.00     0.074 A 
ATOM     46  C   UNL A   1      44.312  30.365  34.678  1.00  0.00     0.029 A 
ATOM     47  N   UNL A   1      42.536  30.593  33.358  1.00  0.00    -0.354 N 
ATOM     48  N   UNL A   1      40.116  32.006  32.327  1.00  0.00    -0.248 NA
ATOM     49  C   UNL A   1      38.508  33.687  32.563  1.00  0.00     0.031 C 
ATOM     50  C   UNL A   1      43.573  31.472  35.110  1.00  0.00     0.029 A 
ATOM     51  C   UNL A   1      42.475  31.626  34.275  1.00  0.00     0.049 A 
ATOM     52  H   UNL A   1      41.883  30.440  32.636  1.00  0.00     0.167 HD
ATOM     53  C   UNL A   1      40.427  32.776  33.441  1.00  0.00     0.074 A 
ATOM     54  C   UNL A   1      39.416  33.813  33.522  1.00  0.00     0.031 C 
ATOM     55  C   UNL A   1      41.447  32.637  34.325  1.00  0.00     0.037 A 
BRANCH  42  56
ATOM     56  C   UNL A   1      45.212  27.833  33.244  1.00  0.00     0.058 A 
ATOM     57  C   UNL A   1      45.119  26.684  34.045  1.00  0.00     0.135 A 
ATOM     58  C   UNL A   1      46.491  28.228  32.816  1.00  0.00     0.135 A 
ATOM     59  F   UNL A   1      43.926  26.275  34.504  1.00  0.00    -0.206 F 
ATOM     60  C   UNL A   1      46.251  25.968  34.425  1.00  0.00     0.059 A 
ATOM     61  C   UNL A   1      47.633  27.513  33.163  1.00  0.00     0.059 A 
ATOM     62  F   UNL A   1      46.640  29.325  32.057  1.00  0.00    -0.206 F 
ATOM     63  C   UNL A   1      47.505  26.392  33.980  1.00  0.00     0.060 A 
BRANCH  63  64
ATOM     64  S   UNL A   1      48.965  25.456  34.483  1.00  0.00     0.124 S 
ATOM     65  O   UNL A   1      49.901  26.527  34.808  1.00  0.00    -0.237 OA
ATOM     66  O   UNL A   1      48.466  24.686  35.618  1.00  0.00    -0.237 OA
ATOM     67  O   UNL A   1      49.293  24.673  33.295  1.00  0.00    -0.744 OA
ENDBRANCH  63  64
ENDBRANCH  42  56
BRANCH  43  68
ATOM     68  C   UNL A   1      36.977  32.775  30.214  1.00  0.00     0.058 A 
ATOM     69  C   UNL A   1      35.763  32.533  30.872  1.00  0.00     0.135 A 
ATOM     70  C   UNL A   1      36.974  33.715  29.170  1.00  0.00     0.135 A 
ATOM     71  F   UNL A   1      35.708  31.632  31.866  1.00  0.00    -0.206 F 
ATOM     72  C   UNL A   1      34.592  33.194  30.512  1.00  0.00     0.059 A 
ATOM     73  C   UNL A   1      35.823  34.409  28.810  1.00  0.00     0.059 A 
ATOM     74  F   UNL A   1      38.108  33.991  28.509  1.00  0.00    -0.206 F 
ATOM     75  C   UNL A   1      34.633  34.136  29.482  1.00  0.00     0.060 A 
BRANCH  75  76
ATOM     76  S   UNL A   1      33.121  35.030  29.059  1.00  0.00     0.124 S 
ATOM     77  O   UNL A   1      32.473  35.142  30.360  1.00  0.00    -0.237 OA
ATOM     78  O   UNL A   1      33.644  36.271  28.498  1.00  0.00    -0.237 OA
ATOM     79  O   UNL A   1      32.465  34.145  28.100  1.00  0.00    -0.744 OA
ENDBRANCH  75  76
ENDBRANCH  43  68
BRANCH  55  80
ATOM     80  C   UNL A   1      41.518  33.636  35.443  1.00  0.00     0.058 A 
ATOM     81  C   UNL A   1      42.155  34.875  35.276  1.00  0.00     0.135 A 
ATOM     82  C   UNL A   1      40.893  33.374  36.672  1.00  0.00     0.135 A 
ATOM     83  F   UNL A   1      42.774  35.167  34.121  1.00  0.00    -0.206 F 
ATOM     84  C   UNL A   1      42.185  35.816  36.298  1.00  0.00     0.059 A 
ATOM     85  C   UNL A   1      40.889  34.312  37.699  1.00  0.00     0.059 A 
ATOM     86  F   UNL A   1      40.263  32.206  36.876  1.00  0.00    -0.206 F 
ATOM     87  C   UNL A   1      41.546  35.526  37.505  1.00  0.00     0.060 A 
BRANCH  87  88
ATOM     88  S   UNL A   1      41.555  36.774  38.809  1.00  0.00     0.124 S 
ATOM     89  O   UNL A   1      40.259  37.414  38.610  1.00  0.00    -0.237 OA
ATOM     90  O   UNL A   1      41.684  35.964  40.016  1.00  0.00    -0.237 OA
ATOM     91  O   UNL A   1      42.717  37.596  38.485  1.00  0.00    -0.744 OA
ENDBRANCH  87  88
ENDBRANCH  55  80
ENDBRANCH  29  30
ENDBRANCH  22  24
ENDBRANCH  21  22
ENDBRANCH  20  21
ENDBRANCH   1  20
TORSDOF 18
ENDMDL
