MODEL 1
REMARK VINA RESULT:     -11.4      0.000      0.000
REMARK SMILES CC[C@@H](C)[C@H](C(=O)OCCOC(=O)c1ccc(-c2c3nc(c(-c4c(F)cc(S(=O)(=O)[O-])cc4F)c4ccc([nH]4)c(-c4c(F)cc(S(=O)(=O)[O-])cc4F)c4nc(c(-c5c(F)cc(S(=O)(=O)[O-])cc5F)c5ccc2[nH]5)C=C4)C=C3)cc1)N1C(=O)/C(=C/c2ccc3c(c2)OCO3)SC1=S
REMARK SMILES IDX 10 1 9 2 8 3 6 4 7 5 5 6 3 7 4 8 2 9 1 10 80 11 81 12 95 13
REMARK SMILES IDX 82 14 83 15 94 16 96 17 84 18 85 19 86 20 90 21 87 22 89 23
REMARK SMILES IDX 88 24 91 25 93 26 92 27 11 28 12 29 13 30 14 31 15 32 79 33
REMARK SMILES IDX 16 34 78 35 17 36 18 37 19 38 72 39 20 40 77 41 71 42 73 43
REMARK SMILES IDX 21 44 76 45 70 46 69 47 22 49 56 50 35 51 55 52 36 53 39 54
REMARK SMILES IDX 54 55 74 56 37 57 38 58 53 60 75 61 40 62 23 63 24 64 33 65
REMARK SMILES IDX 25 66 26 67 32 68 34 69 27 70 28 71 29 72 30 73 31 74 57 75
REMARK SMILES IDX 58 76 67 77 59 78 60 79 66 80 68 81 61 82 62 83 63 84 64 85
REMARK SMILES IDX 65 86 41 87 42 88 51 89 43 90 44 91 50 92 52 93 45 94 46 95
REMARK SMILES IDX 47 96 48 97 49 98
REMARK H PARENT 73 48 39 59
REMARK Flexibility Score: inf
ROOT
ATOM      1  C   UNL A   1      32.367  28.795  27.567  1.00  0.00     0.275 C 
ENDROOT
BRANCH   1   2
ATOM      2  C   UNL A   1      31.780  28.085  26.346  1.00  0.00     0.274 C 
BRANCH   2   3
ATOM      3  O   UNL A   1      32.353  28.575  25.121  1.00  0.00    -0.461 OA
BRANCH   3   4
ATOM      4  C   UNL A   1      32.737  27.649  24.204  1.00  0.00     0.329 C 
ATOM      5  O   UNL A   1      33.815  27.651  23.617  1.00  0.00    -0.250 OA
BRANCH   4   6
ATOM      6  C   UNL A   1      31.599  26.680  23.823  1.00  0.00     0.204 C 
BRANCH   6   7
ATOM      7  C   UNL A   1      30.487  27.263  22.891  1.00  0.00     0.020 C 
ATOM      8  C   UNL A   1      30.738  28.686  22.391  1.00  0.00     0.010 C 
BRANCH   7   9
ATOM      9  C   UNL A   1      29.103  27.106  23.571  1.00  0.00     0.002 C 
ATOM     10  C   UNL A   1      28.086  28.173  23.201  1.00  0.00     0.004 C 
ENDBRANCH   7   9
ENDBRANCH   6   7
BRANCH   6  11
ATOM     11  N   UNL A   1      32.152  25.333  23.492  1.00  0.00    -0.278 N 
ATOM     12  C   UNL A   1      32.233  24.368  24.488  1.00  0.00     0.267 C 
ATOM     13  C   UNL A   1      32.541  24.893  22.239  1.00  0.00     0.149 C 
ATOM     14  O   UNL A   1      32.310  24.553  25.696  1.00  0.00    -0.268 OA
ATOM     15  C   UNL A   1      32.423  23.026  23.903  1.00  0.00     0.081 C 
ATOM     16  S   UNL A   1      33.042  23.198  22.318  1.00  0.00    -0.054 SA
ATOM     17  S   UNL A   1      32.567  25.713  20.787  1.00  0.00    -0.052 S 
ATOM     18  C   UNL A   1      32.290  21.932  24.669  1.00  0.00     0.029 C 
BRANCH  18  19
ATOM     19  C   UNL A   1      33.169  20.790  24.438  1.00  0.00    -0.020 A 
ATOM     20  C   UNL A   1      34.506  20.698  24.862  1.00  0.00     0.012 A 
ATOM     21  C   UNL A   1      32.508  19.682  23.886  1.00  0.00     0.058 A 
ATOM     22  C   UNL A   1      35.164  19.460  24.814  1.00  0.00     0.051 A 
ATOM     23  C   UNL A   1      33.152  18.478  23.923  1.00  0.00     0.166 A 
ATOM     24  C   UNL A   1      34.439  18.363  24.391  1.00  0.00     0.165 A 
ATOM     25  O   UNL A   1      32.583  17.281  23.626  1.00  0.00    -0.454 OA
ATOM     26  O   UNL A   1      34.829  17.058  24.445  1.00  0.00    -0.454 OA
ATOM     27  C   UNL A   1      33.554  16.411  24.234  1.00  0.00     0.468 C 
ENDBRANCH  18  19
ENDBRANCH   6  11
ENDBRANCH   4   6
ENDBRANCH   3   4
ENDBRANCH   2   3
ENDBRANCH   1   2
BRANCH   1  28
ATOM     28  O   UNL A   1      33.803  28.849  27.494  1.00  0.00    -0.458 OA
BRANCH  28  29
ATOM     29  C   UNL A   1      34.354  30.054  27.763  1.00  0.00     0.338 C 
ATOM     30  O   UNL A   1      33.771  31.128  27.824  1.00  0.00    -0.246 OA
BRANCH  29  31
ATOM     31  C   UNL A   1      35.766  29.885  28.150  1.00  0.00     0.060 A 
ATOM     32  C   UNL A   1      36.745  30.078  27.167  1.00  0.00     0.016 A 
ATOM     33  C   UNL A   1      36.126  29.522  29.449  1.00  0.00     0.016 A 
ATOM     34  C   UNL A   1      38.088  29.893  27.473  1.00  0.00     0.010 A 
ATOM     35  C   UNL A   1      37.474  29.327  29.754  1.00  0.00     0.010 A 
ATOM     36  C   UNL A   1      38.457  29.488  28.762  1.00  0.00    -0.014 A 
BRANCH  36  37
ATOM     37  C   UNL A   1      39.866  29.130  29.034  1.00  0.00     0.031 A 
ATOM     38  C   UNL A   1      40.767  30.147  29.673  1.00  0.00     0.074 A 
ATOM     39  C   UNL A   1      40.316  27.896  28.742  1.00  0.00     0.049 A 
ATOM     40  N   UNL A   1      42.030  30.048  29.995  1.00  0.00    -0.248 NA
ATOM     41  C   UNL A   1      40.166  31.453  29.987  1.00  0.00     0.031 C 
ATOM     42  C   UNL A   1      39.518  26.826  28.145  1.00  0.00     0.029 A 
ATOM     43  N   UNL A   1      41.558  27.337  28.910  1.00  0.00    -0.354 N 
ATOM     44  C   UNL A   1      42.376  31.276  30.545  1.00  0.00     0.074 A 
ATOM     45  C   UNL A   1      41.201  32.118  30.478  1.00  0.00     0.031 C 
ATOM     46  C   UNL A   1      40.292  25.737  27.994  1.00  0.00     0.029 A 
ATOM     47  C   UNL A   1      41.643  26.044  28.456  1.00  0.00     0.049 A 
ATOM     48  H   UNL A   1      42.314  27.817  29.317  1.00  0.00     0.167 HD
ATOM     49  C   UNL A   1      43.564  31.659  31.070  1.00  0.00     0.037 A 
ATOM     50  C   UNL A   1      42.701  25.210  28.406  1.00  0.00     0.037 A 
ATOM     51  C   UNL A   1      44.728  30.811  31.126  1.00  0.00     0.049 A 
ATOM     52  C   UNL A   1      44.026  25.679  28.947  1.00  0.00     0.074 A 
ATOM     53  C   UNL A   1      45.976  31.096  31.647  1.00  0.00     0.029 A 
ATOM     54  N   UNL A   1      44.786  29.514  30.634  1.00  0.00    -0.354 N 
ATOM     55  N   UNL A   1      44.335  26.833  29.489  1.00  0.00    -0.248 NA
ATOM     56  C   UNL A   1      45.143  24.728  28.879  1.00  0.00     0.031 C 
ATOM     57  C   UNL A   1      46.806  29.992  31.422  1.00  0.00     0.029 A 
ATOM     58  C   UNL A   1      46.058  28.993  30.819  1.00  0.00     0.049 A 
ATOM     59  H   UNL A   1      44.036  29.034  30.216  1.00  0.00     0.167 HD
ATOM     60  C   UNL A   1      45.674  26.737  29.855  1.00  0.00     0.074 A 
ATOM     61  C   UNL A   1      46.108  25.404  29.486  1.00  0.00     0.031 C 
ATOM     62  C   UNL A   1      46.473  27.664  30.444  1.00  0.00     0.037 A 
BRANCH  49  63
ATOM     63  C   UNL A   1      43.672  33.065  31.599  1.00  0.00     0.058 A 
ATOM     64  C   UNL A   1      43.435  33.370  32.949  1.00  0.00     0.135 A 
ATOM     65  C   UNL A   1      44.047  34.118  30.748  1.00  0.00     0.135 A 
ATOM     66  F   UNL A   1      43.054  32.407  33.804  1.00  0.00    -0.206 F 
ATOM     67  C   UNL A   1      43.539  34.671  33.431  1.00  0.00     0.059 A 
ATOM     68  C   UNL A   1      44.187  35.421  31.216  1.00  0.00     0.059 A 
ATOM     69  F   UNL A   1      44.281  33.886  29.448  1.00  0.00    -0.206 F 
ATOM     70  C   UNL A   1      43.919  35.691  32.556  1.00  0.00     0.060 A 
BRANCH  70  71
ATOM     71  S   UNL A   1      44.059  37.372  33.200  1.00  0.00     0.124 S 
ATOM     72  O   UNL A   1      43.826  38.165  31.997  1.00  0.00    -0.237 OA
ATOM     73  O   UNL A   1      42.995  37.411  34.200  1.00  0.00    -0.237 OA
ATOM     74  O   UNL A   1      45.417  37.422  33.732  1.00  0.00    -0.744 OA
ENDBRANCH  70  71
ENDBRANCH  49  63
BRANCH  50  75
ATOM     75  C   UNL A   1      42.547  23.848  27.826  1.00  0.00     0.058 A 
ATOM     76  C   UNL A   1      42.432  22.716  28.647  1.00  0.00     0.135 A 
ATOM     77  C   UNL A   1      42.511  23.651  26.436  1.00  0.00     0.135 A 
ATOM     78  F   UNL A   1      42.470  22.850  29.982  1.00  0.00    -0.206 F 
ATOM     79  C   UNL A   1      42.304  21.438  28.113  1.00  0.00     0.059 A 
ATOM     80  C   UNL A   1      42.353  22.386  25.879  1.00  0.00     0.059 A 
ATOM     81  F   UNL A   1      42.605  24.701  25.605  1.00  0.00    -0.206 F 
ATOM     82  C   UNL A   1      42.261  21.284  26.728  1.00  0.00     0.060 A 
BRANCH  82  83
ATOM     83  S   UNL A   1      42.046  19.625  26.048  1.00  0.00     0.124 S 
ATOM     84  O   UNL A   1      42.962  19.650  24.913  1.00  0.00    -0.237 OA
ATOM     85  O   UNL A   1      42.442  18.782  27.171  1.00  0.00    -0.237 OA
ATOM     86  O   UNL A   1      40.626  19.580  25.712  1.00  0.00    -0.744 OA
ENDBRANCH  82  83
ENDBRANCH  50  75
BRANCH  62  87
ATOM     87  C   UNL A   1      47.886  27.251  30.763  1.00  0.00     0.058 A 
ATOM     88  C   UNL A   1      48.947  27.483  29.873  1.00  0.00     0.135 A 
ATOM     89  C   UNL A   1      48.184  26.631  31.988  1.00  0.00     0.135 A 
ATOM     90  F   UNL A   1      48.719  28.069  28.687  1.00  0.00    -0.206 F 
ATOM     91  C   UNL A   1      50.244  27.074  30.167  1.00  0.00     0.059 A 
ATOM     92  C   UNL A   1      49.479  26.246  32.318  1.00  0.00     0.059 A 
ATOM     93  F   UNL A   1      47.211  26.400  32.884  1.00  0.00    -0.206 F 
ATOM     94  C   UNL A   1      50.500  26.453  31.391  1.00  0.00     0.060 A 
BRANCH  94  95
ATOM     95  S   UNL A   1      52.186  25.925  31.759  1.00  0.00     0.124 S 
ATOM     96  O   UNL A   1      51.974  24.552  32.203  1.00  0.00    -0.237 OA
ATOM     97  O   UNL A   1      52.851  26.079  30.469  1.00  0.00    -0.237 OA
ATOM     98  O   UNL A   1      52.617  26.860  32.795  1.00  0.00    -0.744 OA
ENDBRANCH  94  95
ENDBRANCH  62  87
ENDBRANCH  36  37
ENDBRANCH  29  31
ENDBRANCH  28  29
ENDBRANCH   1  28
TORSDOF 18
ENDMDL
MODEL 2
REMARK VINA RESULT:     -11.3      2.969      3.930
REMARK SMILES CC[C@@H](C)[C@H](C(=O)OCCOC(=O)c1ccc(-c2c3nc(c(-c4c(F)cc(S(=O)(=O)[O-])cc4F)c4ccc([nH]4)c(-c4c(F)cc(S(=O)(=O)[O-])cc4F)c4nc(c(-c5c(F)cc(S(=O)(=O)[O-])cc5F)c5ccc2[nH]5)C=C4)C=C3)cc1)N1C(=O)/C(=C/c2ccc3c(c2)OCO3)SC1=S
REMARK SMILES IDX 10 1 9 2 8 3 6 4 7 5 5 6 3 7 4 8 2 9 1 10 80 11 81 12 95 13
REMARK SMILES IDX 82 14 83 15 94 16 96 17 84 18 85 19 86 20 90 21 87 22 89 23
REMARK SMILES IDX 88 24 91 25 93 26 92 27 11 28 12 29 13 30 14 31 15 32 79 33
REMARK SMILES IDX 16 34 78 35 17 36 18 37 19 38 72 39 20 40 77 41 71 42 73 43
REMARK SMILES IDX 21 44 76 45 70 46 69 47 22 49 56 50 35 51 55 52 36 53 39 54
REMARK SMILES IDX 54 55 74 56 37 57 38 58 53 60 75 61 40 62 23 63 24 64 33 65
REMARK SMILES IDX 25 66 26 67 32 68 34 69 27 70 28 71 29 72 30 73 31 74 57 75
REMARK SMILES IDX 58 76 67 77 59 78 60 79 66 80 68 81 61 82 62 83 63 84 64 85
REMARK SMILES IDX 65 86 41 87 42 88 51 89 43 90 44 91 50 92 52 93 45 94 46 95
REMARK SMILES IDX 47 96 48 97 49 98
REMARK H PARENT 73 48 39 59
REMARK Flexibility Score: inf
ROOT
ATOM      1  C   UNL A   1      34.749  29.934  27.615  1.00  0.00     0.275 C 
ENDROOT
BRANCH   1   2
ATOM      2  C   UNL A   1      34.281  28.950  26.543  1.00  0.00     0.274 C 
BRANCH   2   3
ATOM      3  O   UNL A   1      33.072  29.398  25.903  1.00  0.00    -0.461 OA
BRANCH   3   4
ATOM      4  C   UNL A   1      31.920  28.766  26.246  1.00  0.00     0.329 C 
ATOM      5  O   UNL A   1      31.439  28.752  27.376  1.00  0.00    -0.250 OA
BRANCH   4   6
ATOM      6  C   UNL A   1      31.354  27.897  25.105  1.00  0.00     0.204 C 
BRANCH   6   7
ATOM      7  C   UNL A   1      30.810  28.671  23.861  1.00  0.00     0.020 C 
ATOM      8  C   UNL A   1      30.306  30.087  24.145  1.00  0.00     0.010 C 
BRANCH   7   9
ATOM      9  C   UNL A   1      29.758  27.802  23.125  1.00  0.00     0.002 C 
ATOM     10  C   UNL A   1      29.047  26.783  24.001  1.00  0.00     0.004 C 
ENDBRANCH   7   9
ENDBRANCH   6   7
BRANCH   6  11
ATOM     11  N   UNL A   1      32.237  26.717  24.862  1.00  0.00    -0.278 N 
ATOM     12  C   UNL A   1      32.089  25.583  25.651  1.00  0.00     0.267 C 
ATOM     13  C   UNL A   1      33.174  26.590  23.852  1.00  0.00     0.149 C 
ATOM     14  O   UNL A   1      31.634  25.523  26.786  1.00  0.00    -0.268 OA
ATOM     15  C   UNL A   1      32.749  24.421  25.025  1.00  0.00     0.081 C 
ATOM     16  S   UNL A   1      33.911  24.983  23.904  1.00  0.00    -0.054 SA
ATOM     17  S   UNL A   1      33.630  27.689  22.683  1.00  0.00    -0.052 S 
ATOM     18  C   UNL A   1      32.527  23.184  25.499  1.00  0.00     0.029 C 
BRANCH  18  19
ATOM     19  C   UNL A   1      33.623  22.220  25.514  1.00  0.00    -0.020 A 
ATOM     20  C   UNL A   1      33.579  20.935  24.947  1.00  0.00     0.012 A 
ATOM     21  C   UNL A   1      34.824  22.752  26.009  1.00  0.00     0.058 A 
ATOM     22  C   UNL A   1      34.768  20.206  24.793  1.00  0.00     0.051 A 
ATOM     23  C   UNL A   1      35.970  22.048  25.776  1.00  0.00     0.166 A 
ATOM     24  C   UNL A   1      35.949  20.815  25.168  1.00  0.00     0.165 A 
ATOM     25  O   UNL A   1      37.228  22.511  25.998  1.00  0.00    -0.454 OA
ATOM     26  O   UNL A   1      37.212  20.359  24.934  1.00  0.00    -0.454 OA
ATOM     27  C   UNL A   1      37.963  21.564  25.204  1.00  0.00     0.468 C 
ENDBRANCH  18  19
ENDBRANCH   6  11
ENDBRANCH   4   6
ENDBRANCH   3   4
ENDBRANCH   2   3
ENDBRANCH   1   2
BRANCH   1  28
ATOM     28  O   UNL A   1      35.621  29.292  28.562  1.00  0.00    -0.458 OA
BRANCH  28  29
ATOM     29  C   UNL A   1      36.374  30.125  29.317  1.00  0.00     0.338 C 
ATOM     30  O   UNL A   1      35.975  30.872  30.201  1.00  0.00    -0.246 OA
BRANCH  29  31
ATOM     31  C   UNL A   1      37.804  29.891  29.048  1.00  0.00     0.060 A 
ATOM     32  C   UNL A   1      38.200  29.704  27.717  1.00  0.00     0.016 A 
ATOM     33  C   UNL A   1      38.739  29.835  30.083  1.00  0.00     0.016 A 
ATOM     34  C   UNL A   1      39.531  29.443  27.416  1.00  0.00     0.010 A 
ATOM     35  C   UNL A   1      40.075  29.562  29.780  1.00  0.00     0.010 A 
ATOM     36  C   UNL A   1      40.471  29.342  28.449  1.00  0.00    -0.014 A 
BRANCH  36  37
ATOM     37  C   UNL A   1      41.847  28.898  28.137  1.00  0.00     0.031 A 
ATOM     38  C   UNL A   1      42.958  29.908  28.142  1.00  0.00     0.074 A 
ATOM     39  C   UNL A   1      42.096  27.600  27.890  1.00  0.00     0.049 A 
ATOM     40  N   UNL A   1      44.230  29.740  27.895  1.00  0.00    -0.248 NA
ATOM     41  C   UNL A   1      42.585  31.295  28.463  1.00  0.00     0.031 C 
ATOM     42  C   UNL A   1      41.095  26.533  27.886  1.00  0.00     0.029 A 
ATOM     43  N   UNL A   1      43.272  26.958  27.593  1.00  0.00    -0.354 N 
ATOM     44  C   UNL A   1      44.809  30.997  28.026  1.00  0.00     0.074 A 
ATOM     45  C   UNL A   1      43.743  31.924  28.337  1.00  0.00     0.031 C 
ATOM     46  C   UNL A   1      41.699  25.368  27.599  1.00  0.00     0.029 A 
ATOM     47  C   UNL A   1      43.121  25.611  27.370  1.00  0.00     0.049 A 
ATOM     48  H   UNL A   1      44.140  27.419  27.544  1.00  0.00     0.167 HD
ATOM     49  C   UNL A   1      46.114  31.339  27.910  1.00  0.00     0.037 A 
ATOM     50  C   UNL A   1      44.030  24.685  27.006  1.00  0.00     0.037 A 
ATOM     51  C   UNL A   1      47.164  30.404  27.596  1.00  0.00     0.049 A 
ATOM     52  C   UNL A   1      45.467  25.102  26.830  1.00  0.00     0.074 A 
ATOM     53  C   UNL A   1      48.520  30.643  27.468  1.00  0.00     0.029 A 
ATOM     54  N   UNL A   1      46.973  29.051  27.352  1.00  0.00    -0.354 N 
ATOM     55  N   UNL A   1      46.007  26.288  26.983  1.00  0.00    -0.248 NA
ATOM     56  C   UNL A   1      46.418  24.053  26.444  1.00  0.00     0.031 C 
ATOM     57  C   UNL A   1      49.141  29.448  27.092  1.00  0.00     0.029 A 
ATOM     58  C   UNL A   1      48.184  28.447  27.051  1.00  0.00     0.049 A 
ATOM     59  H   UNL A   1      46.105  28.587  27.388  1.00  0.00     0.167 HD
ATOM     60  C   UNL A   1      47.367  26.121  26.741  1.00  0.00     0.074 A 
ATOM     61  C   UNL A   1      47.566  24.716  26.449  1.00  0.00     0.031 C 
ATOM     62  C   UNL A   1      48.363  27.045  26.760  1.00  0.00     0.037 A 
BRANCH  49  63
ATOM     63  C   UNL A   1      46.474  32.789  28.097  1.00  0.00     0.058 A 
ATOM     64  C   UNL A   1      46.936  33.287  29.326  1.00  0.00     0.135 A 
ATOM     65  C   UNL A   1      46.381  33.689  27.022  1.00  0.00     0.135 A 
ATOM     66  F   UNL A   1      47.025  32.478  30.393  1.00  0.00    -0.206 F 
ATOM     67  C   UNL A   1      47.269  34.629  29.490  1.00  0.00     0.059 A 
ATOM     68  C   UNL A   1      46.738  35.027  27.155  1.00  0.00     0.059 A 
ATOM     69  F   UNL A   1      45.941  33.270  25.825  1.00  0.00    -0.206 F 
ATOM     70  C   UNL A   1      47.169  35.491  28.396  1.00  0.00     0.060 A 
BRANCH  70  71
ATOM     71  S   UNL A   1      47.613  37.226  28.623  1.00  0.00     0.124 S 
ATOM     72  O   UNL A   1      46.604  37.663  29.582  1.00  0.00    -0.237 OA
ATOM     73  O   UNL A   1      48.977  37.133  29.137  1.00  0.00    -0.237 OA
ATOM     74  O   UNL A   1      47.489  37.788  27.282  1.00  0.00    -0.744 OA
ENDBRANCH  70  71
ENDBRANCH  49  63
BRANCH  50  75
ATOM     75  C   UNL A   1      43.608  23.275  26.786  1.00  0.00     0.058 A 
ATOM     76  C   UNL A   1      43.552  22.725  25.497  1.00  0.00     0.135 A 
ATOM     77  C   UNL A   1      43.254  22.447  27.864  1.00  0.00     0.135 A 
ATOM     78  F   UNL A   1      43.872  23.477  24.433  1.00  0.00    -0.206 F 
ATOM     79  C   UNL A   1      43.144  21.413  25.281  1.00  0.00     0.059 A 
ATOM     80  C   UNL A   1      42.872  21.123  27.675  1.00  0.00     0.059 A 
ATOM     81  F   UNL A   1      43.301  22.919  29.120  1.00  0.00    -0.206 F 
ATOM     82  C   UNL A   1      42.810  20.618  26.377  1.00  0.00     0.060 A 
BRANCH  82  83
ATOM     83  S   UNL A   1      42.328  18.902  26.088  1.00  0.00     0.124 S 
ATOM     84  O   UNL A   1      42.569  18.303  27.395  1.00  0.00    -0.237 OA
ATOM     85  O   UNL A   1      40.930  19.040  25.695  1.00  0.00    -0.237 OA
ATOM     86  O   UNL A   1      43.231  18.475  25.022  1.00  0.00    -0.744 OA
ENDBRANCH  82  83
ENDBRANCH  50  75
BRANCH  62  87
ATOM     87  C   UNL A   1      49.762  26.553  26.498  1.00  0.00     0.058 A 
ATOM     88  C   UNL A   1      50.584  26.067  27.527  1.00  0.00     0.135 A 
ATOM     89  C   UNL A   1      50.279  26.552  25.192  1.00  0.00     0.135 A 
ATOM     90  F   UNL A   1      50.142  26.047  28.794  1.00  0.00    -0.206 F 
ATOM     91  C   UNL A   1      51.885  25.640  27.277  1.00  0.00     0.059 A 
ATOM     92  C   UNL A   1      51.564  26.096  24.914  1.00  0.00     0.059 A 
ATOM     93  F   UNL A   1      49.532  26.991  24.167  1.00  0.00    -0.206 F 
ATOM     94  C   UNL A   1      52.367  25.662  25.967  1.00  0.00     0.060 A 
BRANCH  94  95
ATOM     95  S   UNL A   1      54.056  25.107  25.656  1.00  0.00     0.124 S 
ATOM     96  O   UNL A   1      54.571  24.959  27.013  1.00  0.00    -0.237 OA
ATOM     97  O   UNL A   1      53.847  23.865  24.919  1.00  0.00    -0.237 OA
ATOM     98  O   UNL A   1      54.636  26.198  24.879  1.00  0.00    -0.744 OA
ENDBRANCH  94  95
ENDBRANCH  62  87
ENDBRANCH  36  37
ENDBRANCH  29  31
ENDBRANCH  28  29
ENDBRANCH   1  28
TORSDOF 18
ENDMDL
MODEL 3
REMARK VINA RESULT:     -11.0      2.645      3.330
REMARK SMILES CC[C@@H](C)[C@H](C(=O)OCCOC(=O)c1ccc(-c2c3nc(c(-c4c(F)cc(S(=O)(=O)[O-])cc4F)c4ccc([nH]4)c(-c4c(F)cc(S(=O)(=O)[O-])cc4F)c4nc(c(-c5c(F)cc(S(=O)(=O)[O-])cc5F)c5ccc2[nH]5)C=C4)C=C3)cc1)N1C(=O)/C(=C/c2ccc3c(c2)OCO3)SC1=S
REMARK SMILES IDX 10 1 9 2 8 3 6 4 7 5 5 6 3 7 4 8 2 9 1 10 80 11 81 12 95 13
REMARK SMILES IDX 82 14 83 15 94 16 96 17 84 18 85 19 86 20 90 21 87 22 89 23
REMARK SMILES IDX 88 24 91 25 93 26 92 27 11 28 12 29 13 30 14 31 15 32 79 33
REMARK SMILES IDX 16 34 78 35 17 36 18 37 19 38 72 39 20 40 77 41 71 42 73 43
REMARK SMILES IDX 21 44 76 45 70 46 69 47 22 49 56 50 35 51 55 52 36 53 39 54
REMARK SMILES IDX 54 55 74 56 37 57 38 58 53 60 75 61 40 62 23 63 24 64 33 65
REMARK SMILES IDX 25 66 26 67 32 68 34 69 27 70 28 71 29 72 30 73 31 74 57 75
REMARK SMILES IDX 58 76 67 77 59 78 60 79 66 80 68 81 61 82 62 83 63 84 64 85
REMARK SMILES IDX 65 86 41 87 42 88 51 89 43 90 44 91 50 92 52 93 45 94 46 95
REMARK SMILES IDX 47 96 48 97 49 98
REMARK H PARENT 73 48 39 59
REMARK Flexibility Score: inf
ROOT
ATOM      1  C   UNL A   1      32.562  30.131  27.127  1.00  0.00     0.275 C 
ENDROOT
BRANCH   1   2
ATOM      2  C   UNL A   1      32.328  28.628  26.967  1.00  0.00     0.274 C 
BRANCH   2   3
ATOM      3  O   UNL A   1      31.587  28.330  25.770  1.00  0.00    -0.461 OA
BRANCH   3   4
ATOM      4  C   UNL A   1      32.206  27.566  24.833  1.00  0.00     0.329 C 
ATOM      5  O   UNL A   1      33.388  27.667  24.518  1.00  0.00    -0.250 OA
BRANCH   4   6
ATOM      6  C   UNL A   1      31.225  26.667  24.054  1.00  0.00     0.204 C 
BRANCH   6   7
ATOM      7  C   UNL A   1      30.369  27.379  22.957  1.00  0.00     0.020 C 
ATOM      8  C   UNL A   1      30.864  28.765  22.543  1.00  0.00     0.010 C 
BRANCH   7   9
ATOM      9  C   UNL A   1      28.878  27.382  23.381  1.00  0.00     0.002 C 
ATOM     10  C   UNL A   1      28.452  26.190  24.224  1.00  0.00     0.004 C 
ENDBRANCH   7   9
ENDBRANCH   6   7
BRANCH   6  11
ATOM     11  N   UNL A   1      31.877  25.371  23.698  1.00  0.00    -0.278 N 
ATOM     12  C   UNL A   1      31.866  24.330  24.617  1.00  0.00     0.267 C 
ATOM     13  C   UNL A   1      32.451  25.050  22.481  1.00  0.00     0.149 C 
ATOM     14  O   UNL A   1      31.770  24.416  25.835  1.00  0.00    -0.268 OA
ATOM     15  C   UNL A   1      32.193  23.049  23.961  1.00  0.00     0.081 C 
ATOM     16  S   UNL A   1      33.012  23.373  22.496  1.00  0.00    -0.054 SA
ATOM     17  S   UNL A   1      32.637  25.989  21.115  1.00  0.00    -0.052 S 
ATOM     18  C   UNL A   1      32.006  21.890  24.614  1.00  0.00     0.029 C 
BRANCH  18  19
ATOM     19  C   UNL A   1      32.958  20.802  24.418  1.00  0.00    -0.020 A 
ATOM     20  C   UNL A   1      34.243  20.738  24.985  1.00  0.00     0.012 A 
ATOM     21  C   UNL A   1      32.415  19.704  23.732  1.00  0.00     0.058 A 
ATOM     22  C   UNL A   1      34.960  19.532  24.941  1.00  0.00     0.051 A 
ATOM     23  C   UNL A   1      33.107  18.528  23.773  1.00  0.00     0.166 A 
ATOM     24  C   UNL A   1      34.339  18.436  24.376  1.00  0.00     0.165 A 
ATOM     25  O   UNL A   1      32.631  17.329  23.345  1.00  0.00    -0.454 OA
ATOM     26  O   UNL A   1      34.781  17.147  24.398  1.00  0.00    -0.454 OA
ATOM     27  C   UNL A   1      33.570  16.463  24.008  1.00  0.00     0.468 C 
ENDBRANCH  18  19
ENDBRANCH   6  11
ENDBRANCH   4   6
ENDBRANCH   3   4
ENDBRANCH   2   3
ENDBRANCH   1   2
BRANCH   1  28
ATOM     28  O   UNL A   1      33.934  30.472  26.864  1.00  0.00    -0.458 OA
BRANCH  28  29
ATOM     29  C   UNL A   1      34.471  31.398  27.692  1.00  0.00     0.338 C 
ATOM     30  O   UNL A   1      33.931  32.418  28.096  1.00  0.00    -0.246 OA
BRANCH  29  31
ATOM     31  C   UNL A   1      35.773  30.926  28.195  1.00  0.00     0.060 A 
ATOM     32  C   UNL A   1      35.839  29.640  28.745  1.00  0.00     0.016 A 
ATOM     33  C   UNL A   1      36.909  31.737  28.148  1.00  0.00     0.016 A 
ATOM     34  C   UNL A   1      37.035  29.164  29.268  1.00  0.00     0.010 A 
ATOM     35  C   UNL A   1      38.108  31.263  28.682  1.00  0.00     0.010 A 
ATOM     36  C   UNL A   1      38.170  29.984  29.265  1.00  0.00    -0.014 A 
BRANCH  36  37
ATOM     37  C   UNL A   1      39.390  29.538  29.972  1.00  0.00     0.031 A 
ATOM     38  C   UNL A   1      39.778  30.216  31.255  1.00  0.00     0.074 A 
ATOM     39  C   UNL A   1      40.115  28.515  29.487  1.00  0.00     0.049 A 
ATOM     40  N   UNL A   1      40.803  29.990  32.033  1.00  0.00    -0.248 NA
ATOM     41  C   UNL A   1      38.895  31.298  31.720  1.00  0.00     0.031 C 
ATOM     42  C   UNL A   1      39.812  27.771  28.264  1.00  0.00     0.029 A 
ATOM     43  N   UNL A   1      41.258  27.927  29.964  1.00  0.00    -0.354 N 
ATOM     44  C   UNL A   1      40.692  30.902  33.077  1.00  0.00     0.074 A 
ATOM     45  C   UNL A   1      39.522  31.710  32.812  1.00  0.00     0.031 C 
ATOM     46  C   UNL A   1      40.748  26.824  28.087  1.00  0.00     0.029 A 
ATOM     47  C   UNL A   1      41.730  26.915  29.164  1.00  0.00     0.049 A 
ATOM     48  H   UNL A   1      41.698  28.203  30.800  1.00  0.00     0.167 HD
ATOM     49  C   UNL A   1      41.489  31.040  34.162  1.00  0.00     0.037 A 
ATOM     50  C   UNL A   1      42.840  26.160  29.284  1.00  0.00     0.037 A 
ATOM     51  C   UNL A   1      42.655  30.230  34.410  1.00  0.00     0.049 A 
ATOM     52  C   UNL A   1      43.741  26.370  30.473  1.00  0.00     0.074 A 
ATOM     53  C   UNL A   1      43.524  30.278  35.485  1.00  0.00     0.029 A 
ATOM     54  N   UNL A   1      43.118  29.229  33.567  1.00  0.00    -0.354 N 
ATOM     55  N   UNL A   1      43.612  27.217  31.468  1.00  0.00    -0.248 NA
ATOM     56  C   UNL A   1      44.931  25.515  30.562  1.00  0.00     0.031 C 
ATOM     57  C   UNL A   1      44.543  29.346  35.264  1.00  0.00     0.029 A 
ATOM     58  C   UNL A   1      44.275  28.669  34.085  1.00  0.00     0.049 A 
ATOM     59  H   UNL A   1      42.688  28.958  32.724  1.00  0.00     0.167 HD
ATOM     60  C   UNL A   1      44.687  26.975  32.316  1.00  0.00     0.074 A 
ATOM     61  C   UNL A   1      45.445  25.892  31.724  1.00  0.00     0.031 C 
ATOM     62  C   UNL A   1      45.019  27.591  33.480  1.00  0.00     0.037 A 
BRANCH  49  63
ATOM     63  C   UNL A   1      41.143  32.124  35.148  1.00  0.00     0.058 A 
ATOM     64  C   UNL A   1      40.202  31.924  36.172  1.00  0.00     0.135 A 
ATOM     65  C   UNL A   1      41.784  33.373  35.086  1.00  0.00     0.135 A 
ATOM     66  F   UNL A   1      39.544  30.758  36.266  1.00  0.00    -0.206 F 
ATOM     67  C   UNL A   1      39.890  32.930  37.081  1.00  0.00     0.059 A 
ATOM     68  C   UNL A   1      41.509  34.382  36.004  1.00  0.00     0.059 A 
ATOM     69  F   UNL A   1      42.688  33.621  34.127  1.00  0.00    -0.206 F 
ATOM     70  C   UNL A   1      40.551  34.156  36.990  1.00  0.00     0.060 A 
BRANCH  70  71
ATOM     71  S   UNL A   1      40.140  35.448  38.183  1.00  0.00     0.124 S 
ATOM     72  O   UNL A   1      39.826  36.569  37.303  1.00  0.00    -0.237 OA
ATOM     73  O   UNL A   1      39.007  34.864  38.895  1.00  0.00    -0.237 OA
ATOM     74  O   UNL A   1      41.364  35.590  38.966  1.00  0.00    -0.744 OA
ENDBRANCH  70  71
ENDBRANCH  49  63
BRANCH  50  75
ATOM     75  C   UNL A   1      43.159  25.137  28.251  1.00  0.00     0.058 A 
ATOM     76  C   UNL A   1      43.841  25.479  27.075  1.00  0.00     0.135 A 
ATOM     77  C   UNL A   1      42.789  23.793  28.423  1.00  0.00     0.135 A 
ATOM     78  F   UNL A   1      44.209  26.751  26.859  1.00  0.00    -0.206 F 
ATOM     79  C   UNL A   1      44.130  24.532  26.097  1.00  0.00     0.059 A 
ATOM     80  C   UNL A   1      43.093  22.823  27.474  1.00  0.00     0.059 A 
ATOM     81  F   UNL A   1      42.144  23.409  29.536  1.00  0.00    -0.206 F 
ATOM     82  C   UNL A   1      43.755  23.205  26.308  1.00  0.00     0.060 A 
BRANCH  82  83
ATOM     83  S   UNL A   1      44.178  21.977  25.054  1.00  0.00     0.124 S 
ATOM     84  O   UNL A   1      43.977  22.732  23.822  1.00  0.00    -0.237 OA
ATOM     85  O   UNL A   1      45.561  21.660  25.392  1.00  0.00    -0.237 OA
ATOM     86  O   UNL A   1      43.220  20.902  25.298  1.00  0.00    -0.744 OA
ENDBRANCH  82  83
ENDBRANCH  50  75
BRANCH  62  87
ATOM     87  C   UNL A   1      46.232  27.076  34.210  1.00  0.00     0.058 A 
ATOM     88  C   UNL A   1      46.153  26.021  35.131  1.00  0.00     0.135 A 
ATOM     89  C   UNL A   1      47.496  27.638  33.966  1.00  0.00     0.135 A 
ATOM     90  F   UNL A   1      44.969  25.449  35.405  1.00  0.00    -0.206 F 
ATOM     91  C   UNL A   1      47.276  25.571  35.819  1.00  0.00     0.059 A 
ATOM     92  C   UNL A   1      48.639  27.180  34.615  1.00  0.00     0.059 A 
ATOM     93  F   UNL A   1      47.634  28.639  33.082  1.00  0.00    -0.206 F 
ATOM     94  C   UNL A   1      48.514  26.159  35.557  1.00  0.00     0.060 A 
BRANCH  94  95
ATOM     95  S   UNL A   1      49.962  25.568  36.456  1.00  0.00     0.124 S 
ATOM     96  O   UNL A   1      50.266  24.331  35.744  1.00  0.00    -0.237 OA
ATOM     97  O   UNL A   1      50.915  26.658  36.267  1.00  0.00    -0.237 OA
ATOM     98  O   UNL A   1      49.473  25.403  37.822  1.00  0.00    -0.744 OA
ENDBRANCH  94  95
ENDBRANCH  62  87
ENDBRANCH  36  37
ENDBRANCH  29  31
ENDBRANCH  28  29
ENDBRANCH   1  28
TORSDOF 18
ENDMDL
