MODEL 1
REMARK VINA RESULT:     -11.0      0.000      0.000
REMARK SMILES Cc1nc(SCc2cccc(Cl)c2)[nH]c(=O)c1CC(=O)OCCOC(=O)c1ccc(-c2c3nc(c(-c4c(F)cc(S(=O)(=O)[O-])cc4F)c4ccc([nH]4)c(-c4c(F)cc(S(=O)(=O)[O-])cc4F)c4nc(c(-c5c(F)cc(S(=O)(=O)[O-])cc5F)c5ccc2[nH]5)C=C4)C=C3)cc1
REMARK SMILES IDX 22 1 21 2 19 3 20 4 18 5 17 6 1 7 2 8 3 9 4 10 15 11 14 12
REMARK SMILES IDX 16 13 5 15 6 16 7 17 8 18 13 19 9 20 11 21 10 22 12 23 23 24
REMARK SMILES IDX 24 25 25 26 26 27 27 28 28 29 92 30 29 31 91 32 30 33 31 34
REMARK SMILES IDX 32 35 85 36 33 37 90 38 84 39 86 40 34 41 89 42 83 43 82 44
REMARK SMILES IDX 35 46 69 47 48 48 68 49 49 50 52 51 67 52 87 53 50 54 51 55
REMARK SMILES IDX 66 57 88 58 53 59 36 60 37 61 46 62 38 63 39 64 45 65 47 66
REMARK SMILES IDX 40 67 41 68 42 69 43 70 44 71 70 72 71 73 80 74 72 75 73 76
REMARK SMILES IDX 79 77 81 78 74 79 75 80 76 81 77 82 78 83 54 84 55 85 64 86
REMARK SMILES IDX 56 87 57 88 63 89 65 90 58 91 59 92 60 93 61 94 62 95
REMARK H PARENT 14 14 86 45 52 56
REMARK Flexibility Score: inf
ROOT
ATOM      1  C   UNL A   1      31.779  29.002  26.216  1.00  0.00     0.274 C 
ENDROOT
BRANCH   1   2
ATOM      2  O   UNL A   1      32.121  28.644  24.857  1.00  0.00    -0.462 OA
BRANCH   2   3
ATOM      3  C   UNL A   1      31.218  29.035  23.918  1.00  0.00     0.310 C 
ATOM      4  O   UNL A   1      30.403  29.940  24.078  1.00  0.00    -0.252 OA
BRANCH   3   5
ATOM      5  C   UNL A   1      31.235  28.221  22.631  1.00  0.00     0.166 C 
BRANCH   5   6
ATOM      6  C   UNL A   1      31.591  26.769  22.728  1.00  0.00     0.050 A 
ATOM      7  C   UNL A   1      29.418  26.065  23.739  1.00  0.00     0.067 C 
ATOM      8  C   UNL A   1      30.792  25.790  23.188  1.00  0.00     0.050 A 
ATOM      9  N   UNL A   1      31.184  24.481  23.305  1.00  0.00    -0.229 NA
ATOM     10  C   UNL A   1      32.424  24.209  23.085  1.00  0.00     0.168 A 
ATOM     11  C   UNL A   1      32.920  26.345  22.228  1.00  0.00     0.255 A 
ATOM     12  N   UNL A   1      33.310  25.091  22.566  1.00  0.00    -0.301 N 
ATOM     13  O   UNL A   1      33.615  27.083  21.542  1.00  0.00    -0.269 OA
ATOM     14  H   UNL A   1      34.247  24.818  22.433  1.00  0.00     0.172 HD
BRANCH  10  15
ATOM     15  S   UNL A   1      33.122  22.677  23.493  1.00  0.00    -0.083 SA
BRANCH  15  16
ATOM     16  C   UNL A   1      33.789  23.037  25.144  1.00  0.00     0.113 C 
BRANCH  16  17
ATOM     17  C   UNL A   1      35.252  22.699  25.374  1.00  0.00    -0.036 A 
ATOM     18  C   UNL A   1      36.148  23.706  25.766  1.00  0.00     0.005 A 
ATOM     19  C   UNL A   1      35.787  21.431  25.096  1.00  0.00     0.025 A 
ATOM     20  C   UNL A   1      37.520  23.451  25.865  1.00  0.00     0.002 A 
ATOM     21  C   UNL A   1      37.156  21.179  25.188  1.00  0.00     0.041 A 
ATOM     22  C   UNL A   1      38.028  22.187  25.570  1.00  0.00     0.020 A 
ATOM     23  Cl  UNL A   1      37.758  19.613  24.797  1.00  0.00    -0.084 Cl
ENDBRANCH  16  17
ENDBRANCH  15  16
ENDBRANCH  10  15
ENDBRANCH   5   6
ENDBRANCH   3   5
ENDBRANCH   2   3
ENDBRANCH   1   2
BRANCH   1  24
ATOM     24  C   UNL A   1      32.644  30.147  26.737  1.00  0.00     0.275 C 
BRANCH  24  25
ATOM     25  O   UNL A   1      33.655  29.634  27.619  1.00  0.00    -0.458 OA
BRANCH  25  26
ATOM     26  C   UNL A   1      34.466  30.565  28.176  1.00  0.00     0.338 C 
ATOM     27  O   UNL A   1      34.169  31.707  28.489  1.00  0.00    -0.246 OA
BRANCH  26  28
ATOM     28  C   UNL A   1      35.820  30.004  28.333  1.00  0.00     0.060 A 
ATOM     29  C   UNL A   1      36.239  29.522  29.573  1.00  0.00     0.016 A 
ATOM     30  C   UNL A   1      36.723  30.082  27.275  1.00  0.00     0.016 A 
ATOM     31  C   UNL A   1      37.578  29.223  29.796  1.00  0.00     0.010 A 
ATOM     32  C   UNL A   1      38.048  29.678  27.471  1.00  0.00     0.010 A 
ATOM     33  C   UNL A   1      38.498  29.284  28.744  1.00  0.00    -0.014 A 
BRANCH  33  34
ATOM     34  C   UNL A   1      39.932  28.978  28.989  1.00  0.00     0.031 A 
ATOM     35  C   UNL A   1      40.841  30.028  29.572  1.00  0.00     0.074 A 
ATOM     36  C   UNL A   1      40.417  27.755  28.697  1.00  0.00     0.049 A 
ATOM     37  N   UNL A   1      42.141  30.005  29.723  1.00  0.00    -0.248 NA
ATOM     38  C   UNL A   1      40.206  31.271  30.037  1.00  0.00     0.031 C 
ATOM     39  C   UNL A   1      39.634  26.635  28.168  1.00  0.00     0.029 A 
ATOM     40  N   UNL A   1      41.687  27.246  28.805  1.00  0.00    -0.354 N 
ATOM     41  C   UNL A   1      42.484  31.242  30.255  1.00  0.00     0.074 A 
ATOM     42  C   UNL A   1      41.257  31.998  30.391  1.00  0.00     0.031 C 
ATOM     43  C   UNL A   1      40.433  25.569  28.019  1.00  0.00     0.029 A 
ATOM     44  C   UNL A   1      41.798  25.946  28.367  1.00  0.00     0.049 A 
ATOM     45  H   UNL A   1      42.447  27.761  29.161  1.00  0.00     0.167 HD
ATOM     46  C   UNL A   1      43.710  31.702  30.604  1.00  0.00     0.037 A 
ATOM     47  C   UNL A   1      42.880  25.158  28.225  1.00  0.00     0.037 A 
ATOM     48  C   UNL A   1      44.922  30.926  30.505  1.00  0.00     0.049 A 
ATOM     49  C   UNL A   1      44.232  25.702  28.587  1.00  0.00     0.074 A 
ATOM     50  C   UNL A   1      46.211  31.295  30.846  1.00  0.00     0.029 A 
ATOM     51  N   UNL A   1      44.992  29.621  30.040  1.00  0.00    -0.354 N 
ATOM     52  N   UNL A   1      44.547  26.886  29.056  1.00  0.00    -0.248 NA
ATOM     53  C   UNL A   1      45.380  24.806  28.392  1.00  0.00     0.031 C 
ATOM     54  C   UNL A   1      47.066  30.227  30.553  1.00  0.00     0.029 A 
ATOM     55  C   UNL A   1      46.304  29.175  30.073  1.00  0.00     0.049 A 
ATOM     56  H   UNL A   1      44.223  29.089  29.732  1.00  0.00     0.167 HD
ATOM     57  C   UNL A   1      45.926  26.872  29.229  1.00  0.00     0.074 A 
ATOM     58  C   UNL A   1      46.382  25.555  28.832  1.00  0.00     0.031 C 
ATOM     59  C   UNL A   1      46.741  27.860  29.674  1.00  0.00     0.037 A 
BRANCH  46  60
ATOM     60  C   UNL A   1      43.812  33.121  31.095  1.00  0.00     0.058 A 
ATOM     61  C   UNL A   1      43.969  34.204  30.216  1.00  0.00     0.135 A 
ATOM     62  C   UNL A   1      43.718  33.404  32.467  1.00  0.00     0.135 A 
ATOM     63  F   UNL A   1      44.081  33.992  28.894  1.00  0.00    -0.206 F 
ATOM     64  C   UNL A   1      44.056  35.514  30.681  1.00  0.00     0.059 A 
ATOM     65  C   UNL A   1      43.776  34.706  32.954  1.00  0.00     0.059 A 
ATOM     66  F   UNL A   1      43.566  32.406  33.354  1.00  0.00    -0.206 F 
ATOM     67  C   UNL A   1      43.961  35.753  32.053  1.00  0.00     0.060 A 
BRANCH  67  68
ATOM     68  S   UNL A   1      44.071  37.457  32.644  1.00  0.00     0.124 S 
ATOM     69  O   UNL A   1      42.999  37.492  33.633  1.00  0.00    -0.237 OA
ATOM     70  O   UNL A   1      45.428  37.516  33.179  1.00  0.00    -0.237 OA
ATOM     71  O   UNL A   1      43.841  38.251  31.440  1.00  0.00    -0.744 OA
ENDBRANCH  67  68
ENDBRANCH  46  60
BRANCH  47  72
ATOM     72  C   UNL A   1      42.725  23.780  27.689  1.00  0.00     0.058 A 
ATOM     73  C   UNL A   1      42.596  22.680  28.549  1.00  0.00     0.135 A 
ATOM     74  C   UNL A   1      42.686  23.537  26.306  1.00  0.00     0.135 A 
ATOM     75  F   UNL A   1      42.636  22.860  29.878  1.00  0.00    -0.206 F 
ATOM     76  C   UNL A   1      42.445  21.386  28.059  1.00  0.00     0.059 A 
ATOM     77  C   UNL A   1      42.508  22.258  25.793  1.00  0.00     0.059 A 
ATOM     78  F   UNL A   1      42.791  24.558  25.441  1.00  0.00    -0.206 F 
ATOM     79  C   UNL A   1      42.399  21.187  26.679  1.00  0.00     0.060 A 
BRANCH  79  80
ATOM     80  S   UNL A   1      42.151  19.511  26.052  1.00  0.00     0.124 S 
ATOM     81  O   UNL A   1      40.709  19.487  25.841  1.00  0.00    -0.237 OA
ATOM     82  O   UNL A   1      42.973  19.509  24.844  1.00  0.00    -0.237 OA
ATOM     83  O   UNL A   1      42.646  18.670  27.137  1.00  0.00    -0.744 OA
ENDBRANCH  79  80
ENDBRANCH  47  72
BRANCH  59  84
ATOM     84  C   UNL A   1      48.206  27.538  29.788  1.00  0.00     0.058 A 
ATOM     85  C   UNL A   1      48.773  27.095  30.993  1.00  0.00     0.135 A 
ATOM     86  C   UNL A   1      49.048  27.659  28.671  1.00  0.00     0.135 A 
ATOM     87  F   UNL A   1      48.012  26.970  32.092  1.00  0.00    -0.206 F 
ATOM     88  C   UNL A   1      50.131  26.816  31.097  1.00  0.00     0.059 A 
ATOM     89  C   UNL A   1      50.404  27.359  28.745  1.00  0.00     0.059 A 
ATOM     90  F   UNL A   1      48.555  28.069  27.492  1.00  0.00    -0.206 F 
ATOM     91  C   UNL A   1      50.941  26.955  29.967  1.00  0.00     0.060 A 
BRANCH  91  92
ATOM     92  S   UNL A   1      52.701  26.581  30.110  1.00  0.00     0.124 S 
ATOM     93  O   UNL A   1      53.233  27.855  30.584  1.00  0.00    -0.237 OA
ATOM     94  O   UNL A   1      52.714  25.488  31.077  1.00  0.00    -0.237 OA
ATOM     95  O   UNL A   1      53.080  26.210  28.750  1.00  0.00    -0.744 OA
ENDBRANCH  91  92
ENDBRANCH  59  84
ENDBRANCH  33  34
ENDBRANCH  26  28
ENDBRANCH  25  26
ENDBRANCH  24  25
ENDBRANCH   1  24
TORSDOF 18
ENDMDL
MODEL 2
REMARK VINA RESULT:     -10.8      4.966     10.645
REMARK SMILES Cc1nc(SCc2cccc(Cl)c2)[nH]c(=O)c1CC(=O)OCCOC(=O)c1ccc(-c2c3nc(c(-c4c(F)cc(S(=O)(=O)[O-])cc4F)c4ccc([nH]4)c(-c4c(F)cc(S(=O)(=O)[O-])cc4F)c4nc(c(-c5c(F)cc(S(=O)(=O)[O-])cc5F)c5ccc2[nH]5)C=C4)C=C3)cc1
REMARK SMILES IDX 22 1 21 2 19 3 20 4 18 5 17 6 1 7 2 8 3 9 4 10 15 11 14 12
REMARK SMILES IDX 16 13 5 15 6 16 7 17 8 18 13 19 9 20 11 21 10 22 12 23 23 24
REMARK SMILES IDX 24 25 25 26 26 27 27 28 28 29 92 30 29 31 91 32 30 33 31 34
REMARK SMILES IDX 32 35 85 36 33 37 90 38 84 39 86 40 34 41 89 42 83 43 82 44
REMARK SMILES IDX 35 46 69 47 48 48 68 49 49 50 52 51 67 52 87 53 50 54 51 55
REMARK SMILES IDX 66 57 88 58 53 59 36 60 37 61 46 62 38 63 39 64 45 65 47 66
REMARK SMILES IDX 40 67 41 68 42 69 43 70 44 71 70 72 71 73 80 74 72 75 73 76
REMARK SMILES IDX 79 77 81 78 74 79 75 80 76 81 77 82 78 83 54 84 55 85 64 86
REMARK SMILES IDX 56 87 57 88 63 89 65 90 58 91 59 92 60 93 61 94 62 95
REMARK H PARENT 14 14 86 45 52 56
REMARK Flexibility Score: inf
ROOT
ATOM      1  C   UNL A   1      39.443  21.279  26.298  1.00  0.00     0.274 C 
ENDROOT
BRANCH   1   2
ATOM      2  O   UNL A   1      38.554  21.386  25.162  1.00  0.00    -0.462 OA
BRANCH   2   3
ATOM      3  C   UNL A   1      37.394  22.053  25.404  1.00  0.00     0.310 C 
ATOM      4  O   UNL A   1      37.327  23.134  25.983  1.00  0.00    -0.252 OA
BRANCH   3   5
ATOM      5  C   UNL A   1      36.131  21.332  24.953  1.00  0.00     0.166 C 
BRANCH   5   6
ATOM      6  C   UNL A   1      34.886  22.146  24.782  1.00  0.00     0.050 A 
ATOM      7  C   UNL A   1      33.880  21.493  26.973  1.00  0.00     0.067 C 
ATOM      8  C   UNL A   1      33.887  22.257  25.676  1.00  0.00     0.050 A 
ATOM      9  N   UNL A   1      32.740  22.976  25.449  1.00  0.00    -0.229 NA
ATOM     10  C   UNL A   1      32.563  23.457  24.268  1.00  0.00     0.168 A 
ATOM     11  C   UNL A   1      34.746  22.952  23.545  1.00  0.00     0.255 A 
ATOM     12  N   UNL A   1      33.512  23.460  23.303  1.00  0.00    -0.301 N 
ATOM     13  O   UNL A   1      35.694  23.150  22.798  1.00  0.00    -0.269 OA
ATOM     14  H   UNL A   1      33.305  23.837  22.417  1.00  0.00     0.172 HD
BRANCH  10  15
ATOM     15  S   UNL A   1      31.043  24.108  23.753  1.00  0.00    -0.083 SA
BRANCH  15  16
ATOM     16  C   UNL A   1      31.587  25.644  22.950  1.00  0.00     0.113 C 
BRANCH  16  17
ATOM     17  C   UNL A   1      32.132  26.731  23.862  1.00  0.00    -0.036 A 
ATOM     18  C   UNL A   1      33.280  27.445  23.487  1.00  0.00     0.005 A 
ATOM     19  C   UNL A   1      31.603  26.982  25.138  1.00  0.00     0.025 A 
ATOM     20  C   UNL A   1      33.875  28.363  24.360  1.00  0.00     0.002 A 
ATOM     21  C   UNL A   1      32.200  27.892  26.011  1.00  0.00     0.041 A 
ATOM     22  C   UNL A   1      33.338  28.583  25.627  1.00  0.00     0.020 A 
ATOM     23  Cl  UNL A   1      31.528  28.129  27.579  1.00  0.00    -0.084 Cl
ENDBRANCH  16  17
ENDBRANCH  15  16
ENDBRANCH  10  15
ENDBRANCH   5   6
ENDBRANCH   3   5
ENDBRANCH   2   3
ENDBRANCH   1   2
BRANCH   1  24
ATOM     24  C   UNL A   1      40.653  22.200  26.161  1.00  0.00     0.275 C 
BRANCH  24  25
ATOM     25  O   UNL A   1      40.362  23.480  26.744  1.00  0.00    -0.458 OA
BRANCH  25  26
ATOM     26  C   UNL A   1      41.302  24.435  26.547  1.00  0.00     0.338 C 
ATOM     27  O   UNL A   1      42.246  24.390  25.775  1.00  0.00    -0.246 OA
BRANCH  26  28
ATOM     28  C   UNL A   1      41.042  25.572  27.449  1.00  0.00     0.060 A 
ATOM     29  C   UNL A   1      41.900  26.672  27.454  1.00  0.00     0.016 A 
ATOM     30  C   UNL A   1      40.018  25.484  28.388  1.00  0.00     0.016 A 
ATOM     31  C   UNL A   1      41.812  27.628  28.459  1.00  0.00     0.010 A 
ATOM     32  C   UNL A   1      39.862  26.502  29.334  1.00  0.00     0.010 A 
ATOM     33  C   UNL A   1      40.784  27.562  29.405  1.00  0.00    -0.014 A 
BRANCH  33  34
ATOM     34  C   UNL A   1      40.701  28.578  30.488  1.00  0.00     0.031 A 
ATOM     35  C   UNL A   1      41.641  28.509  31.664  1.00  0.00     0.074 A 
ATOM     36  C   UNL A   1      39.789  29.568  30.412  1.00  0.00     0.049 A 
ATOM     37  N   UNL A   1      41.632  29.206  32.771  1.00  0.00    -0.248 NA
ATOM     38  C   UNL A   1      42.725  27.518  31.588  1.00  0.00     0.031 C 
ATOM     39  C   UNL A   1      38.850  29.774  29.308  1.00  0.00     0.029 A 
ATOM     40  N   UNL A   1      39.504  30.590  31.282  1.00  0.00    -0.354 N 
ATOM     41  C   UNL A   1      42.677  28.709  33.542  1.00  0.00     0.074 A 
ATOM     42  C   UNL A   1      43.292  27.643  32.781  1.00  0.00     0.031 C 
ATOM     43  C   UNL A   1      38.110  30.864  29.555  1.00  0.00     0.029 A 
ATOM     44  C   UNL A   1      38.465  31.391  30.867  1.00  0.00     0.049 A 
ATOM     45  H   UNL A   1      39.994  30.737  32.124  1.00  0.00     0.167 HD
ATOM     46  C   UNL A   1      43.088  29.111  34.769  1.00  0.00     0.037 A 
ATOM     47  C   UNL A   1      37.843  32.411  31.487  1.00  0.00     0.037 A 
ATOM     48  C   UNL A   1      42.496  30.203  35.501  1.00  0.00     0.049 A 
ATOM     49  C   UNL A   1      38.295  32.816  32.861  1.00  0.00     0.074 A 
ATOM     50  C   UNL A   1      42.849  30.698  36.744  1.00  0.00     0.029 A 
ATOM     51  N   UNL A   1      41.435  30.976  35.052  1.00  0.00    -0.354 N 
ATOM     52  N   UNL A   1      39.261  32.315  33.593  1.00  0.00    -0.248 NA
ATOM     53  C   UNL A   1      37.566  33.921  33.499  1.00  0.00     0.031 C 
ATOM     54  C   UNL A   1      41.978  31.746  37.064  1.00  0.00     0.029 A 
ATOM     55  C   UNL A   1      41.112  31.935  35.999  1.00  0.00     0.049 A 
ATOM     56  H   UNL A   1      40.978  30.861  34.187  1.00  0.00     0.167 HD
ATOM     57  C   UNL A   1      39.268  33.053  34.770  1.00  0.00     0.074 A 
ATOM     58  C   UNL A   1      38.223  34.048  34.644  1.00  0.00     0.031 C 
ATOM     59  C   UNL A   1      40.067  32.919  35.858  1.00  0.00     0.037 A 
BRANCH  46  60
ATOM     60  C   UNL A   1      44.211  28.346  35.415  1.00  0.00     0.058 A 
ATOM     61  C   UNL A   1      45.555  28.721  35.256  1.00  0.00     0.135 A 
ATOM     62  C   UNL A   1      43.935  27.240  36.235  1.00  0.00     0.135 A 
ATOM     63  F   UNL A   1      45.879  29.761  34.472  1.00  0.00    -0.206 F 
ATOM     64  C   UNL A   1      46.586  28.009  35.864  1.00  0.00     0.059 A 
ATOM     65  C   UNL A   1      44.947  26.529  36.874  1.00  0.00     0.059 A 
ATOM     66  F   UNL A   1      42.668  26.837  36.423  1.00  0.00    -0.206 F 
ATOM     67  C   UNL A   1      46.271  26.913  36.670  1.00  0.00     0.060 A 
BRANCH  67  68
ATOM     68  S   UNL A   1      47.618  26.001  37.456  1.00  0.00     0.124 S 
ATOM     69  O   UNL A   1      47.837  24.923  36.498  1.00  0.00    -0.237 OA
ATOM     70  O   UNL A   1      48.675  27.006  37.531  1.00  0.00    -0.237 OA
ATOM     71  O   UNL A   1      47.052  25.596  38.739  1.00  0.00    -0.744 OA
ENDBRANCH  67  68
ENDBRANCH  46  60
BRANCH  47  72
ATOM     72  C   UNL A   1      36.706  33.099  30.820  1.00  0.00     0.058 A 
ATOM     73  C   UNL A   1      35.385  32.886  31.241  1.00  0.00     0.135 A 
ATOM     74  C   UNL A   1      36.918  33.995  29.760  1.00  0.00     0.135 A 
ATOM     75  F   UNL A   1      35.131  32.033  32.244  1.00  0.00    -0.206 F 
ATOM     76  C   UNL A   1      34.313  33.528  30.628  1.00  0.00     0.059 A 
ATOM     77  C   UNL A   1      35.867  34.670  29.151  1.00  0.00     0.059 A 
ATOM     78  F   UNL A   1      38.164  34.243  29.329  1.00  0.00    -0.206 F 
ATOM     79  C   UNL A   1      34.566  34.421  29.586  1.00  0.00     0.060 A 
BRANCH  79  80
ATOM     80  S   UNL A   1      33.173  35.290  28.830  1.00  0.00     0.124 S 
ATOM     81  O   UNL A   1      32.449  35.760  30.005  1.00  0.00    -0.237 OA
ATOM     82  O   UNL A   1      33.844  36.318  28.040  1.00  0.00    -0.237 OA
ATOM     83  O   UNL A   1      32.510  34.248  28.053  1.00  0.00    -0.744 OA
ENDBRANCH  79  80
ENDBRANCH  47  72
BRANCH  59  84
ATOM     84  C   UNL A   1      39.861  33.897  36.982  1.00  0.00     0.058 A 
ATOM     85  C   UNL A   1      40.495  35.150  36.996  1.00  0.00     0.135 A 
ATOM     86  C   UNL A   1      39.006  33.581  38.050  1.00  0.00     0.135 A 
ATOM     87  F   UNL A   1      41.328  35.497  36.003  1.00  0.00    -0.206 F 
ATOM     88  C   UNL A   1      40.314  36.043  38.047  1.00  0.00     0.059 A 
ATOM     89  C   UNL A   1      38.789  34.470  39.097  1.00  0.00     0.059 A 
ATOM     90  F   UNL A   1      38.368  32.401  38.080  1.00  0.00    -0.206 F 
ATOM     91  C   UNL A   1      39.462  35.692  39.096  1.00  0.00     0.060 A 
BRANCH  91  92
ATOM     92  S   UNL A   1      39.227  36.861  40.451  1.00  0.00     0.124 S 
ATOM     93  O   UNL A   1      38.595  37.983  39.763  1.00  0.00    -0.237 OA
ATOM     94  O   UNL A   1      38.371  36.114  41.367  1.00  0.00    -0.237 OA
ATOM     95  O   UNL A   1      40.585  37.103  40.929  1.00  0.00    -0.744 OA
ENDBRANCH  91  92
ENDBRANCH  59  84
ENDBRANCH  33  34
ENDBRANCH  26  28
ENDBRANCH  25  26
ENDBRANCH  24  25
ENDBRANCH   1  24
TORSDOF 18
ENDMDL
MODEL 3
REMARK VINA RESULT:     -10.5      5.295     10.746
REMARK SMILES Cc1nc(SCc2cccc(Cl)c2)[nH]c(=O)c1CC(=O)OCCOC(=O)c1ccc(-c2c3nc(c(-c4c(F)cc(S(=O)(=O)[O-])cc4F)c4ccc([nH]4)c(-c4c(F)cc(S(=O)(=O)[O-])cc4F)c4nc(c(-c5c(F)cc(S(=O)(=O)[O-])cc5F)c5ccc2[nH]5)C=C4)C=C3)cc1
REMARK SMILES IDX 22 1 21 2 19 3 20 4 18 5 17 6 1 7 2 8 3 9 4 10 15 11 14 12
REMARK SMILES IDX 16 13 5 15 6 16 7 17 8 18 13 19 9 20 11 21 10 22 12 23 23 24
REMARK SMILES IDX 24 25 25 26 26 27 27 28 28 29 92 30 29 31 91 32 30 33 31 34
REMARK SMILES IDX 32 35 85 36 33 37 90 38 84 39 86 40 34 41 89 42 83 43 82 44
REMARK SMILES IDX 35 46 69 47 48 48 68 49 49 50 52 51 67 52 87 53 50 54 51 55
REMARK SMILES IDX 66 57 88 58 53 59 36 60 37 61 46 62 38 63 39 64 45 65 47 66
REMARK SMILES IDX 40 67 41 68 42 69 43 70 44 71 70 72 71 73 80 74 72 75 73 76
REMARK SMILES IDX 79 77 81 78 74 79 75 80 76 81 77 82 78 83 54 84 55 85 64 86
REMARK SMILES IDX 56 87 57 88 63 89 65 90 58 91 59 92 60 93 61 94 62 95
REMARK H PARENT 14 14 86 45 52 56
REMARK Flexibility Score: inf
ROOT
ATOM      1  C   UNL A   1      44.249  23.781  24.899  1.00  0.00     0.274 C 
ENDROOT
BRANCH   1   2
ATOM      2  O   UNL A   1      42.943  23.210  25.144  1.00  0.00    -0.462 OA
BRANCH   2   3
ATOM      3  C   UNL A   1      42.950  22.057  25.866  1.00  0.00     0.310 C 
ATOM      4  O   UNL A   1      43.711  21.116  25.658  1.00  0.00    -0.252 OA
BRANCH   3   5
ATOM      5  C   UNL A   1      41.883  21.971  26.950  1.00  0.00     0.166 C 
BRANCH   5   6
ATOM      6  C   UNL A   1      40.450  21.930  26.518  1.00  0.00     0.050 A 
ATOM      7  C   UNL A   1      40.437  19.487  25.995  1.00  0.00     0.067 C 
ATOM      8  C   UNL A   1      39.778  20.835  26.118  1.00  0.00     0.050 A 
ATOM      9  N   UNL A   1      38.478  20.859  25.681  1.00  0.00    -0.229 NA
ATOM     10  C   UNL A   1      37.924  22.011  25.525  1.00  0.00     0.168 A 
ATOM     11  C   UNL A   1      39.669  23.188  26.579  1.00  0.00     0.255 A 
ATOM     12  N   UNL A   1      38.472  23.176  25.942  1.00  0.00    -0.301 N 
ATOM     13  O   UNL A   1      40.081  24.171  27.178  1.00  0.00    -0.269 OA
ATOM     14  H   UNL A   1      37.996  24.023  25.780  1.00  0.00     0.172 HD
BRANCH  10  15
ATOM     15  S   UNL A   1      36.416  22.207  24.695  1.00  0.00    -0.083 SA
BRANCH  15  16
ATOM     16  C   UNL A   1      35.388  20.990  25.567  1.00  0.00     0.113 C 
BRANCH  16  17
ATOM     17  C   UNL A   1      34.408  20.197  24.719  1.00  0.00    -0.036 A 
ATOM     18  C   UNL A   1      33.293  20.838  24.158  1.00  0.00     0.005 A 
ATOM     19  C   UNL A   1      34.499  18.805  24.562  1.00  0.00     0.025 A 
ATOM     20  C   UNL A   1      32.309  20.110  23.478  1.00  0.00     0.002 A 
ATOM     21  C   UNL A   1      33.517  18.078  23.890  1.00  0.00     0.041 A 
ATOM     22  C   UNL A   1      32.417  18.726  23.349  1.00  0.00     0.020 A 
ATOM     23  Cl  UNL A   1      33.664  16.367  23.764  1.00  0.00    -0.084 Cl
ENDBRANCH  16  17
ENDBRANCH  15  16
ENDBRANCH  10  15
ENDBRANCH   5   6
ENDBRANCH   3   5
ENDBRANCH   2   3
ENDBRANCH   1   2
BRANCH   1  24
ATOM     24  C   UNL A   1      44.290  25.270  25.235  1.00  0.00     0.275 C 
BRANCH  24  25
ATOM     25  O   UNL A   1      42.969  25.738  25.550  1.00  0.00    -0.458 OA
BRANCH  25  26
ATOM     26  C   UNL A   1      42.799  27.080  25.490  1.00  0.00     0.338 C 
ATOM     27  O   UNL A   1      42.782  27.775  24.487  1.00  0.00    -0.246 OA
BRANCH  26  28
ATOM     28  C   UNL A   1      42.663  27.618  26.856  1.00  0.00     0.060 A 
ATOM     29  C   UNL A   1      41.967  26.896  27.826  1.00  0.00     0.016 A 
ATOM     30  C   UNL A   1      43.114  28.905  27.136  1.00  0.00     0.016 A 
ATOM     31  C   UNL A   1      41.620  27.493  29.032  1.00  0.00     0.010 A 
ATOM     32  C   UNL A   1      42.858  29.465  28.391  1.00  0.00     0.010 A 
ATOM     33  C   UNL A   1      42.072  28.781  29.337  1.00  0.00    -0.014 A 
BRANCH  33  34
ATOM     34  C   UNL A   1      41.688  29.423  30.622  1.00  0.00     0.031 A 
ATOM     35  C   UNL A   1      40.445  30.269  30.703  1.00  0.00     0.074 A 
ATOM     36  C   UNL A   1      42.450  29.238  31.719  1.00  0.00     0.049 A 
ATOM     37  N   UNL A   1      40.022  31.025  31.683  1.00  0.00    -0.248 NA
ATOM     38  C   UNL A   1      39.568  30.273  29.522  1.00  0.00     0.031 C 
ATOM     39  C   UNL A   1      43.655  28.408  31.786  1.00  0.00     0.029 A 
ATOM     40  N   UNL A   1      42.322  29.737  32.991  1.00  0.00    -0.354 N 
ATOM     41  C   UNL A   1      38.858  31.629  31.223  1.00  0.00     0.074 A 
ATOM     42  C   UNL A   1      38.647  31.161  29.870  1.00  0.00     0.031 C 
ATOM     43  C   UNL A   1      44.142  28.436  33.034  1.00  0.00     0.029 A 
ATOM     44  C   UNL A   1      43.332  29.345  33.839  1.00  0.00     0.049 A 
ATOM     45  H   UNL A   1      41.580  30.320  33.271  1.00  0.00     0.167 HD
ATOM     46  C   UNL A   1      38.038  32.491  31.873  1.00  0.00     0.037 A 
ATOM     47  C   UNL A   1      43.601  29.704  35.108  1.00  0.00     0.037 A 
ATOM     48  C   UNL A   1      38.234  32.919  33.237  1.00  0.00     0.049 A 
ATOM     49  C   UNL A   1      42.696  30.687  35.796  1.00  0.00     0.074 A 
ATOM     50  C   UNL A   1      37.452  33.777  33.991  1.00  0.00     0.029 A 
ATOM     51  N   UNL A   1      39.279  32.511  34.053  1.00  0.00    -0.354 N 
ATOM     52  N   UNL A   1      41.618  31.278  35.337  1.00  0.00    -0.248 NA
ATOM     53  C   UNL A   1      43.048  31.059  37.173  1.00  0.00     0.031 C 
ATOM     54  C   UNL A   1      38.045  33.918  35.251  1.00  0.00     0.029 A 
ATOM     55  C   UNL A   1      39.170  33.111  35.298  1.00  0.00     0.049 A 
ATOM     56  H   UNL A   1      39.993  31.888  33.788  1.00  0.00     0.167 HD
ATOM     57  C   UNL A   1      41.154  32.078  36.374  1.00  0.00     0.074 A 
ATOM     58  C   UNL A   1      42.057  31.881  37.489  1.00  0.00     0.031 C 
ATOM     59  C   UNL A   1      40.078  32.904  36.399  1.00  0.00     0.037 A 
BRANCH  46  60
ATOM     60  C   UNL A   1      36.871  33.057  31.110  1.00  0.00     0.058 A 
ATOM     61  C   UNL A   1      35.550  32.659  31.366  1.00  0.00     0.135 A 
ATOM     62  C   UNL A   1      37.077  34.040  30.128  1.00  0.00     0.135 A 
ATOM     63  F   UNL A   1      35.295  31.712  32.283  1.00  0.00    -0.206 F 
ATOM     64  C   UNL A   1      34.477  33.194  30.658  1.00  0.00     0.059 A 
ATOM     65  C   UNL A   1      36.019  34.608  29.425  1.00  0.00     0.059 A 
ATOM     66  F   UNL A   1      38.320  34.459  29.841  1.00  0.00    -0.206 F 
ATOM     67  C   UNL A   1      34.723  34.167  29.687  1.00  0.00     0.060 A 
BRANCH  67  68
ATOM     68  S   UNL A   1      33.322  34.856  28.778  1.00  0.00     0.124 S 
ATOM     69  O   UNL A   1      33.922  36.040  28.173  1.00  0.00    -0.237 OA
ATOM     70  O   UNL A   1      32.985  33.776  27.855  1.00  0.00    -0.237 OA
ATOM     71  O   UNL A   1      32.334  35.116  29.820  1.00  0.00    -0.744 OA
ENDBRANCH  67  68
ENDBRANCH  46  60
BRANCH  47  72
ATOM     72  C   UNL A   1      44.796  29.149  35.797  1.00  0.00     0.058 A 
ATOM     73  C   UNL A   1      46.047  29.775  35.690  1.00  0.00     0.135 A 
ATOM     74  C   UNL A   1      44.708  27.993  36.589  1.00  0.00     0.135 A 
ATOM     75  F   UNL A   1      46.182  30.878  34.938  1.00  0.00    -0.206 F 
ATOM     76  C   UNL A   1      47.171  29.269  36.335  1.00  0.00     0.059 A 
ATOM     77  C   UNL A   1      45.811  27.485  37.265  1.00  0.00     0.059 A 
ATOM     78  F   UNL A   1      43.532  27.365  36.734  1.00  0.00    -0.206 F 
ATOM     79  C   UNL A   1      47.042  28.125  37.123  1.00  0.00     0.060 A 
BRANCH  79  80
ATOM     80  S   UNL A   1      48.495  27.504  37.998  1.00  0.00     0.124 S 
ATOM     81  O   UNL A   1      48.628  28.479  39.074  1.00  0.00    -0.237 OA
ATOM     82  O   UNL A   1      48.066  26.166  38.396  1.00  0.00    -0.237 OA
ATOM     83  O   UNL A   1      49.540  27.539  36.980  1.00  0.00    -0.744 OA
ENDBRANCH  79  80
ENDBRANCH  47  72
BRANCH  59  84
ATOM     84  C   UNL A   1      39.802  33.627  37.688  1.00  0.00     0.058 A 
ATOM     85  C   UNL A   1      38.843  33.164  38.603  1.00  0.00     0.135 A 
ATOM     86  C   UNL A   1      40.517  34.788  38.018  1.00  0.00     0.135 A 
ATOM     87  F   UNL A   1      38.126  32.062  38.332  1.00  0.00    -0.206 F 
ATOM     88  C   UNL A   1      38.579  33.846  39.786  1.00  0.00     0.059 A 
ATOM     89  C   UNL A   1      40.290  35.471  39.208  1.00  0.00     0.059 A 
ATOM     90  F   UNL A   1      41.452  35.268  37.183  1.00  0.00    -0.206 F 
ATOM     91  C   UNL A   1      39.306  35.003  40.078  1.00  0.00     0.060 A 
BRANCH  91  92
ATOM     92  S   UNL A   1      38.963  35.876  41.620  1.00  0.00     0.124 S 
ATOM     93  O   UNL A   1      38.946  37.265  41.172  1.00  0.00    -0.237 OA
ATOM     94  O   UNL A   1      37.672  35.322  42.016  1.00  0.00    -0.237 OA
ATOM     95  O   UNL A   1      40.085  35.507  42.476  1.00  0.00    -0.744 OA
ENDBRANCH  91  92
ENDBRANCH  59  84
ENDBRANCH  33  34
ENDBRANCH  26  28
ENDBRANCH  25  26
ENDBRANCH  24  25
ENDBRANCH   1  24
TORSDOF 18
ENDMDL
