MODEL 1
REMARK VINA RESULT:     -11.4      0.000      0.000
REMARK SMILES C[C@H]1CCc2sc3ncn4nc(/C=C\C(=O)OCCOC(=O)c5ccc(-c6c7nc(c(-c8c(F)cc(S(=O)(=O)[O-])cc8F)c8ccc([nH]8)c(-c8c(F)cc(S(=O)(=O)[O-])cc8F)c8nc(c(-c9c(F)cc(S(=O)(=O)[O-])cc9F)c9ccc6[nH]9)C=C8)C=C7)cc5)nc4c3c2C1
REMARK SMILES IDX 19 1 18 2 17 3 15 4 16 5 14 6 13 7 12 8 1 9 2 10 3 11 93 12
REMARK SMILES IDX 4 13 92 14 5 15 91 16 6 17 7 18 90 19 8 20 10 21 89 22 9 23
REMARK SMILES IDX 11 24 20 25 21 26 22 27 23 28 24 29 88 30 25 31 87 32 26 33
REMARK SMILES IDX 27 34 28 35 81 36 29 37 86 38 80 39 82 40 30 41 85 42 79 43
REMARK SMILES IDX 78 44 31 46 65 47 44 48 64 49 45 50 48 51 63 52 83 53 46 54
REMARK SMILES IDX 47 55 62 57 84 58 49 59 32 60 33 61 42 62 34 63 35 64 41 65
REMARK SMILES IDX 43 66 36 67 37 68 38 69 39 70 40 71 66 72 67 73 76 74 68 75
REMARK SMILES IDX 69 76 75 77 77 78 70 79 71 80 72 81 73 82 74 83 50 84 51 85
REMARK SMILES IDX 60 86 52 87 53 88 59 89 61 90 54 91 55 92 56 93 57 94 58 95
REMARK H PARENT 82 45 48 56
REMARK Flexibility Score: inf
ROOT
ATOM      1  C   UNL A   1      40.914  20.660  27.223  1.00  0.00     0.275 C 
ENDROOT
BRANCH   1   2
ATOM      2  C   UNL A   1      41.953  20.491  26.153  1.00  0.00     0.275 C 
BRANCH   2   3
ATOM      3  O   UNL A   1      43.010  21.394  26.404  1.00  0.00    -0.459 OA
BRANCH   3   4
ATOM      4  C   UNL A   1      43.813  21.708  25.393  1.00  0.00     0.331 C 
ATOM      5  O   UNL A   1      44.721  21.041  24.919  1.00  0.00    -0.247 OA
BRANCH   4   6
ATOM      6  C   UNL A   1      43.395  23.020  24.896  1.00  0.00     0.097 C 
ATOM      7  C   UNL A   1      43.934  24.196  25.269  1.00  0.00     0.058 C 
BRANCH   7   8
ATOM      8  C   UNL A   1      45.012  24.516  26.169  1.00  0.00     0.175 A 
ATOM      9  C   UNL A   1      44.748  23.345  33.084  1.00  0.00     0.008 C 
ATOM     10  C   UNL A   1      44.441  24.768  32.603  1.00  0.00    -0.009 C 
ATOM     11  C   UNL A   1      45.212  25.860  33.355  1.00  0.00     0.009 C 
ATOM     12  C   UNL A   1      44.673  24.880  31.090  1.00  0.00     0.041 C 
ATOM     13  C   UNL A   1      46.716  25.866  33.044  1.00  0.00     0.047 C 
ATOM     14  C   UNL A   1      46.050  25.241  30.655  1.00  0.00    -0.020 A 
ATOM     15  C   UNL A   1      46.968  25.716  31.570  1.00  0.00     0.011 A 
ATOM     16  C   UNL A   1      46.590  25.257  29.332  1.00  0.00     0.060 A 
ATOM     17  S   UNL A   1      48.460  26.119  30.855  1.00  0.00    -0.120 S 
ATOM     18  C   UNL A   1      47.897  25.731  29.283  1.00  0.00     0.129 A 
ATOM     19  C   UNL A   1      46.043  24.927  27.983  1.00  0.00     0.168 A 
ATOM     20  N   UNL A   1      48.695  25.912  28.177  1.00  0.00    -0.225 NA
ATOM     21  N   UNL A   1      46.841  25.183  26.908  1.00  0.00    -0.201 N 
ATOM     22  N   UNL A   1      44.912  24.426  27.551  1.00  0.00    -0.207 NA
ATOM     23  C   UNL A   1      48.144  25.653  27.018  1.00  0.00     0.227 A 
ATOM     24  N   UNL A   1      46.222  24.922  25.742  1.00  0.00    -0.145 NA
ENDBRANCH   7   8
ENDBRANCH   4   6
ENDBRANCH   3   4
ENDBRANCH   2   3
ENDBRANCH   1   2
BRANCH   1  25
ATOM     25  O   UNL A   1      40.973  22.019  27.584  1.00  0.00    -0.458 OA
BRANCH  25  26
ATOM     26  C   UNL A   1      40.049  22.796  26.987  1.00  0.00     0.338 C 
ATOM     27  O   UNL A   1      39.114  22.489  26.269  1.00  0.00    -0.246 OA
BRANCH  26  28
ATOM     28  C   UNL A   1      40.541  24.151  27.120  1.00  0.00     0.060 A 
ATOM     29  C   UNL A   1      41.588  24.321  28.020  1.00  0.00     0.016 A 
ATOM     30  C   UNL A   1      39.683  25.186  26.703  1.00  0.00     0.016 A 
ATOM     31  C   UNL A   1      41.628  25.507  28.694  1.00  0.00     0.010 A 
ATOM     32  C   UNL A   1      39.707  26.351  27.394  1.00  0.00     0.010 A 
ATOM     33  C   UNL A   1      40.629  26.455  28.424  1.00  0.00    -0.014 A 
BRANCH  33  34
ATOM     34  C   UNL A   1      40.705  27.713  29.095  1.00  0.00     0.031 A 
ATOM     35  C   UNL A   1      41.768  28.530  28.485  1.00  0.00     0.074 A 
ATOM     36  C   UNL A   1      39.836  28.076  30.047  1.00  0.00     0.049 A 
ATOM     37  N   UNL A   1      42.983  28.627  28.906  1.00  0.00    -0.248 NA
ATOM     38  C   UNL A   1      41.578  28.979  27.093  1.00  0.00     0.031 C 
ATOM     39  C   UNL A   1      38.605  27.428  30.492  1.00  0.00     0.029 A 
ATOM     40  N   UNL A   1      39.884  29.202  30.789  1.00  0.00    -0.354 N 
ATOM     41  C   UNL A   1      43.622  29.413  27.963  1.00  0.00     0.074 A 
ATOM     42  C   UNL A   1      42.826  29.321  26.772  1.00  0.00     0.031 C 
ATOM     43  C   UNL A   1      37.913  28.289  31.277  1.00  0.00     0.029 A 
ATOM     44  C   UNL A   1      38.723  29.476  31.497  1.00  0.00     0.049 A 
ATOM     45  H   UNL A   1      40.680  29.781  30.826  1.00  0.00     0.167 HD
ATOM     46  C   UNL A   1      44.536  30.336  28.363  1.00  0.00     0.037 A 
ATOM     47  C   UNL A   1      38.480  30.657  32.120  1.00  0.00     0.037 A 
ATOM     48  C   UNL A   1      44.988  30.039  29.708  1.00  0.00     0.049 A 
ATOM     49  C   UNL A   1      39.821  31.287  32.352  1.00  0.00     0.074 A 
ATOM     50  C   UNL A   1      45.604  28.948  30.296  1.00  0.00     0.029 A 
ATOM     51  N   UNL A   1      44.415  30.749  30.741  1.00  0.00    -0.354 N 
ATOM     52  N   UNL A   1      40.729  30.767  33.141  1.00  0.00    -0.248 NA
ATOM     53  C   UNL A   1      40.343  32.169  31.313  1.00  0.00     0.031 C 
ATOM     54  C   UNL A   1      44.982  28.811  31.572  1.00  0.00     0.029 A 
ATOM     55  C   UNL A   1      44.083  29.866  31.739  1.00  0.00     0.049 A 
ATOM     56  H   UNL A   1      44.268  31.723  30.760  1.00  0.00     0.167 HD
ATOM     57  C   UNL A   1      41.936  30.919  32.465  1.00  0.00     0.074 A 
ATOM     58  C   UNL A   1      41.638  31.841  31.369  1.00  0.00     0.031 C 
ATOM     59  C   UNL A   1      42.981  30.058  32.663  1.00  0.00     0.037 A 
BRANCH  46  60
ATOM     60  C   UNL A   1      44.661  31.709  27.741  1.00  0.00     0.058 A 
ATOM     61  C   UNL A   1      45.788  31.972  26.938  1.00  0.00     0.135 A 
ATOM     62  C   UNL A   1      43.904  32.848  28.107  1.00  0.00     0.135 A 
ATOM     63  F   UNL A   1      46.566  30.969  26.501  1.00  0.00    -0.206 F 
ATOM     64  C   UNL A   1      46.199  33.266  26.628  1.00  0.00     0.059 A 
ATOM     65  C   UNL A   1      44.271  34.142  27.770  1.00  0.00     0.059 A 
ATOM     66  F   UNL A   1      42.815  32.797  28.877  1.00  0.00    -0.206 F 
ATOM     67  C   UNL A   1      45.444  34.345  27.072  1.00  0.00     0.060 A 
BRANCH  67  68
ATOM     68  S   UNL A   1      46.031  36.017  26.780  1.00  0.00     0.124 S 
ATOM     69  O   UNL A   1      46.843  36.250  27.968  1.00  0.00    -0.237 OA
ATOM     70  O   UNL A   1      46.756  35.861  25.524  1.00  0.00    -0.237 OA
ATOM     71  O   UNL A   1      44.799  36.797  26.695  1.00  0.00    -0.744 OA
ENDBRANCH  67  68
ENDBRANCH  46  60
BRANCH  47  72
ATOM     72  C   UNL A   1      37.205  31.426  32.120  1.00  0.00     0.058 A 
ATOM     73  C   UNL A   1      36.679  31.957  33.312  1.00  0.00     0.135 A 
ATOM     74  C   UNL A   1      36.618  31.889  30.925  1.00  0.00     0.135 A 
ATOM     75  F   UNL A   1      37.189  31.588  34.496  1.00  0.00    -0.206 F 
ATOM     76  C   UNL A   1      35.668  32.928  33.316  1.00  0.00     0.059 A 
ATOM     77  C   UNL A   1      35.605  32.849  30.905  1.00  0.00     0.059 A 
ATOM     78  F   UNL A   1      37.069  31.491  29.727  1.00  0.00    -0.206 F 
ATOM     79  C   UNL A   1      35.152  33.384  32.103  1.00  0.00     0.060 A 
BRANCH  79  80
ATOM     80  S   UNL A   1      33.968  34.752  32.093  1.00  0.00     0.124 S 
ATOM     81  O   UNL A   1      33.614  34.834  30.681  1.00  0.00    -0.237 OA
ATOM     82  O   UNL A   1      32.923  34.260  32.985  1.00  0.00    -0.237 OA
ATOM     83  O   UNL A   1      34.744  35.878  32.607  1.00  0.00    -0.744 OA
ENDBRANCH  79  80
ENDBRANCH  47  72
BRANCH  59  84
ATOM     84  C   UNL A   1      42.900  29.077  33.811  1.00  0.00     0.058 A 
ATOM     85  C   UNL A   1      43.209  29.388  35.149  1.00  0.00     0.135 A 
ATOM     86  C   UNL A   1      42.297  27.834  33.572  1.00  0.00     0.135 A 
ATOM     87  F   UNL A   1      43.699  30.589  35.480  1.00  0.00    -0.206 F 
ATOM     88  C   UNL A   1      42.948  28.496  36.195  1.00  0.00     0.059 A 
ATOM     89  C   UNL A   1      42.000  26.942  34.600  1.00  0.00     0.059 A 
ATOM     90  F   UNL A   1      41.920  27.500  32.326  1.00  0.00    -0.206 F 
ATOM     91  C   UNL A   1      42.335  27.276  35.910  1.00  0.00     0.060 A 
BRANCH  91  92
ATOM     92  S   UNL A   1      41.915  26.159  37.268  1.00  0.00     0.124 S 
ATOM     93  O   UNL A   1      42.996  26.405  38.216  1.00  0.00    -0.237 OA
ATOM     94  O   UNL A   1      40.596  26.635  37.673  1.00  0.00    -0.237 OA
ATOM     95  O   UNL A   1      41.926  24.839  36.640  1.00  0.00    -0.744 OA
ENDBRANCH  91  92
ENDBRANCH  59  84
ENDBRANCH  33  34
ENDBRANCH  26  28
ENDBRANCH  25  26
ENDBRANCH   1  25
TORSDOF 15
ENDMDL
MODEL 2
REMARK VINA RESULT:     -11.1      3.961      6.813
REMARK SMILES C[C@H]1CCc2sc3ncn4nc(/C=C\C(=O)OCCOC(=O)c5ccc(-c6c7nc(c(-c8c(F)cc(S(=O)(=O)[O-])cc8F)c8ccc([nH]8)c(-c8c(F)cc(S(=O)(=O)[O-])cc8F)c8nc(c(-c9c(F)cc(S(=O)(=O)[O-])cc9F)c9ccc6[nH]9)C=C8)C=C7)cc5)nc4c3c2C1
REMARK SMILES IDX 19 1 18 2 17 3 15 4 16 5 14 6 13 7 12 8 1 9 2 10 3 11 93 12
REMARK SMILES IDX 4 13 92 14 5 15 91 16 6 17 7 18 90 19 8 20 10 21 89 22 9 23
REMARK SMILES IDX 11 24 20 25 21 26 22 27 23 28 24 29 88 30 25 31 87 32 26 33
REMARK SMILES IDX 27 34 28 35 81 36 29 37 86 38 80 39 82 40 30 41 85 42 79 43
REMARK SMILES IDX 78 44 31 46 65 47 44 48 64 49 45 50 48 51 63 52 83 53 46 54
REMARK SMILES IDX 47 55 62 57 84 58 49 59 32 60 33 61 42 62 34 63 35 64 41 65
REMARK SMILES IDX 43 66 36 67 37 68 38 69 39 70 40 71 66 72 67 73 76 74 68 75
REMARK SMILES IDX 69 76 75 77 77 78 70 79 71 80 72 81 73 82 74 83 50 84 51 85
REMARK SMILES IDX 60 86 52 87 53 88 59 89 61 90 54 91 55 92 56 93 57 94 58 95
REMARK H PARENT 82 45 48 56
REMARK Flexibility Score: inf
ROOT
ATOM      1  C   UNL A   1      38.643  21.572  25.765  1.00  0.00     0.275 C 
ENDROOT
BRANCH   1   2
ATOM      2  C   UNL A   1      37.386  21.825  24.984  1.00  0.00     0.275 C 
BRANCH   2   3
ATOM      3  O   UNL A   1      36.608  22.778  25.679  1.00  0.00    -0.459 OA
BRANCH   3   4
ATOM      4  C   UNL A   1      35.426  22.394  26.148  1.00  0.00     0.331 C 
ATOM      5  O   UNL A   1      34.877  22.742  27.183  1.00  0.00    -0.247 OA
BRANCH   4   6
ATOM      6  C   UNL A   1      34.848  21.473  25.167  1.00  0.00     0.097 C 
ATOM      7  C   UNL A   1      34.109  21.841  24.104  1.00  0.00     0.058 C 
BRANCH   7   8
ATOM      8  C   UNL A   1      33.706  23.134  23.614  1.00  0.00     0.175 A 
ATOM      9  C   UNL A   1      34.499  29.067  27.279  1.00  0.00     0.008 C 
ATOM     10  C   UNL A   1      33.115  28.408  27.306  1.00  0.00    -0.009 C 
ATOM     11  C   UNL A   1      31.959  29.372  27.009  1.00  0.00     0.009 C 
ATOM     12  C   UNL A   1      33.080  27.206  26.353  1.00  0.00     0.041 C 
ATOM     13  C   UNL A   1      31.925  29.848  25.549  1.00  0.00     0.047 C 
ATOM     14  C   UNL A   1      32.702  27.488  24.941  1.00  0.00    -0.020 A 
ATOM     15  C   UNL A   1      32.148  28.706  24.598  1.00  0.00     0.011 A 
ATOM     16  C   UNL A   1      32.742  26.609  23.815  1.00  0.00     0.060 A 
ATOM     17  S   UNL A   1      31.740  28.801  22.948  1.00  0.00    -0.120 S 
ATOM     18  C   UNL A   1      32.232  27.185  22.656  1.00  0.00     0.129 A 
ATOM     19  C   UNL A   1      33.164  25.190  23.621  1.00  0.00     0.168 A 
ATOM     20  N   UNL A   1      32.088  26.610  21.414  1.00  0.00    -0.225 NA
ATOM     21  N   UNL A   1      32.944  24.638  22.394  1.00  0.00    -0.201 N 
ATOM     22  N   UNL A   1      33.722  24.287  24.388  1.00  0.00    -0.207 NA
ATOM     23  C   UNL A   1      32.428  25.350  21.317  1.00  0.00     0.227 A 
ATOM     24  N   UNL A   1      33.287  23.338  22.352  1.00  0.00    -0.145 NA
ENDBRANCH   7   8
ENDBRANCH   4   6
ENDBRANCH   3   4
ENDBRANCH   2   3
ENDBRANCH   1   2
BRANCH   1  25
ATOM     25  O   UNL A   1      39.048  22.837  26.232  1.00  0.00    -0.458 OA
BRANCH  25  26
ATOM     26  C   UNL A   1      40.119  22.813  27.049  1.00  0.00     0.338 C 
ATOM     27  O   UNL A   1      40.530  21.925  27.775  1.00  0.00    -0.246 OA
BRANCH  26  28
ATOM     28  C   UNL A   1      40.566  24.187  27.138  1.00  0.00     0.060 A 
ATOM     29  C   UNL A   1      41.706  24.395  27.906  1.00  0.00     0.016 A 
ATOM     30  C   UNL A   1      39.620  25.187  26.843  1.00  0.00     0.016 A 
ATOM     31  C   UNL A   1      41.779  25.576  28.586  1.00  0.00     0.010 A 
ATOM     32  C   UNL A   1      39.680  26.346  27.541  1.00  0.00     0.010 A 
ATOM     33  C   UNL A   1      40.716  26.482  28.452  1.00  0.00    -0.014 A 
BRANCH  33  34
ATOM     34  C   UNL A   1      40.821  27.737  29.126  1.00  0.00     0.031 A 
ATOM     35  C   UNL A   1      41.897  28.533  28.513  1.00  0.00     0.074 A 
ATOM     36  C   UNL A   1      39.964  28.115  30.082  1.00  0.00     0.049 A 
ATOM     37  N   UNL A   1      43.116  28.603  28.929  1.00  0.00    -0.248 NA
ATOM     38  C   UNL A   1      41.711  28.988  27.123  1.00  0.00     0.031 C 
ATOM     39  C   UNL A   1      38.721  27.492  30.531  1.00  0.00     0.029 A 
ATOM     40  N   UNL A   1      40.037  29.238  30.827  1.00  0.00    -0.354 N 
ATOM     41  C   UNL A   1      43.767  29.379  27.984  1.00  0.00     0.074 A 
ATOM     42  C   UNL A   1      42.964  29.305  26.797  1.00  0.00     0.031 C 
ATOM     43  C   UNL A   1      38.051  28.365  31.321  1.00  0.00     0.029 A 
ATOM     44  C   UNL A   1      38.885  29.534  31.540  1.00  0.00     0.049 A 
ATOM     45  H   UNL A   1      40.845  29.801  30.862  1.00  0.00     0.167 HD
ATOM     46  C   UNL A   1      44.701  30.282  28.383  1.00  0.00     0.037 A 
ATOM     47  C   UNL A   1      38.669  30.719  32.166  1.00  0.00     0.037 A 
ATOM     48  C   UNL A   1      45.153  29.973  29.726  1.00  0.00     0.049 A 
ATOM     49  C   UNL A   1      40.024  31.321  32.394  1.00  0.00     0.074 A 
ATOM     50  C   UNL A   1      45.749  28.868  30.308  1.00  0.00     0.029 A 
ATOM     51  N   UNL A   1      44.599  30.692  30.762  1.00  0.00    -0.354 N 
ATOM     52  N   UNL A   1      40.924  30.780  33.177  1.00  0.00    -0.248 NA
ATOM     53  C   UNL A   1      40.559  32.194  31.355  1.00  0.00     0.031 C 
ATOM     54  C   UNL A   1      45.130  28.741  31.586  1.00  0.00     0.029 A 
ATOM     55  C   UNL A   1      44.253  29.814  31.760  1.00  0.00     0.049 A 
ATOM     56  H   UNL A   1      44.472  31.668  30.783  1.00  0.00     0.167 HD
ATOM     57  C   UNL A   1      42.131  30.909  32.497  1.00  0.00     0.074 A 
ATOM     58  C   UNL A   1      41.848  31.839  31.404  1.00  0.00     0.031 C 
ATOM     59  C   UNL A   1      43.159  30.026  32.689  1.00  0.00     0.037 A 
BRANCH  46  60
ATOM     60  C   UNL A   1      44.853  31.653  27.763  1.00  0.00     0.058 A 
ATOM     61  C   UNL A   1      46.027  31.925  27.035  1.00  0.00     0.135 A 
ATOM     62  C   UNL A   1      44.060  32.785  28.072  1.00  0.00     0.135 A 
ATOM     63  F   UNL A   1      46.844  30.929  26.657  1.00  0.00    -0.206 F 
ATOM     64  C   UNL A   1      46.443  33.222  26.746  1.00  0.00     0.059 A 
ATOM     65  C   UNL A   1      44.433  34.082  27.754  1.00  0.00     0.059 A 
ATOM     66  F   UNL A   1      42.922  32.725  28.768  1.00  0.00    -0.206 F 
ATOM     67  C   UNL A   1      45.648  34.295  27.133  1.00  0.00     0.060 A 
BRANCH  67  68
ATOM     68  S   UNL A   1      46.235  35.973  26.872  1.00  0.00     0.124 S 
ATOM     69  O   UNL A   1      47.024  36.194  28.078  1.00  0.00    -0.237 OA
ATOM     70  O   UNL A   1      46.983  35.834  25.628  1.00  0.00    -0.237 OA
ATOM     71  O   UNL A   1      45.001  36.749  26.774  1.00  0.00    -0.744 OA
ENDBRANCH  67  68
ENDBRANCH  46  60
BRANCH  47  72
ATOM     72  C   UNL A   1      37.411  31.514  32.173  1.00  0.00     0.058 A 
ATOM     73  C   UNL A   1      36.904  32.058  33.368  1.00  0.00     0.135 A 
ATOM     74  C   UNL A   1      36.825  31.988  30.981  1.00  0.00     0.135 A 
ATOM     75  F   UNL A   1      37.413  31.680  34.549  1.00  0.00    -0.206 F 
ATOM     76  C   UNL A   1      35.913  33.049  33.377  1.00  0.00     0.059 A 
ATOM     77  C   UNL A   1      35.833  32.968  30.966  1.00  0.00     0.059 A 
ATOM     78  F   UNL A   1      37.261  31.578  29.781  1.00  0.00    -0.206 F 
ATOM     79  C   UNL A   1      35.398  33.514  32.167  1.00  0.00     0.060 A 
BRANCH  79  80
ATOM     80  S   UNL A   1      34.242  34.906  32.163  1.00  0.00     0.124 S 
ATOM     81  O   UNL A   1      34.951  35.890  32.972  1.00  0.00    -0.237 OA
ATOM     82  O   UNL A   1      34.133  35.209  30.740  1.00  0.00    -0.237 OA
ATOM     83  O   UNL A   1      33.038  34.350  32.773  1.00  0.00    -0.744 OA
ENDBRANCH  79  80
ENDBRANCH  47  72
BRANCH  59  84
ATOM     84  C   UNL A   1      43.063  29.045  33.835  1.00  0.00     0.058 A 
ATOM     85  C   UNL A   1      43.339  29.359  35.180  1.00  0.00     0.135 A 
ATOM     86  C   UNL A   1      42.478  27.795  33.584  1.00  0.00     0.135 A 
ATOM     87  F   UNL A   1      43.809  30.565  35.521  1.00  0.00    -0.206 F 
ATOM     88  C   UNL A   1      43.065  28.464  36.219  1.00  0.00     0.059 A 
ATOM     89  C   UNL A   1      42.168  26.900  34.605  1.00  0.00     0.059 A 
ATOM     90  F   UNL A   1      42.133  27.457  32.330  1.00  0.00    -0.206 F 
ATOM     91  C   UNL A   1      42.470  27.238  35.922  1.00  0.00     0.060 A 
BRANCH  91  92
ATOM     92  S   UNL A   1      42.032  26.117  37.270  1.00  0.00     0.124 S 
ATOM     93  O   UNL A   1      40.686  26.562  37.617  1.00  0.00    -0.237 OA
ATOM     94  O   UNL A   1      42.123  24.807  36.635  1.00  0.00    -0.237 OA
ATOM     95  O   UNL A   1      43.055  26.382  38.281  1.00  0.00    -0.744 OA
ENDBRANCH  91  92
ENDBRANCH  59  84
ENDBRANCH  33  34
ENDBRANCH  26  28
ENDBRANCH  25  26
ENDBRANCH   1  25
TORSDOF 15
ENDMDL
MODEL 3
REMARK VINA RESULT:     -10.9      4.638     11.395
REMARK SMILES C[C@H]1CCc2sc3ncn4nc(/C=C\C(=O)OCCOC(=O)c5ccc(-c6c7nc(c(-c8c(F)cc(S(=O)(=O)[O-])cc8F)c8ccc([nH]8)c(-c8c(F)cc(S(=O)(=O)[O-])cc8F)c8nc(c(-c9c(F)cc(S(=O)(=O)[O-])cc9F)c9ccc6[nH]9)C=C8)C=C7)cc5)nc4c3c2C1
REMARK SMILES IDX 19 1 18 2 17 3 15 4 16 5 14 6 13 7 12 8 1 9 2 10 3 11 93 12
REMARK SMILES IDX 4 13 92 14 5 15 91 16 6 17 7 18 90 19 8 20 10 21 89 22 9 23
REMARK SMILES IDX 11 24 20 25 21 26 22 27 23 28 24 29 88 30 25 31 87 32 26 33
REMARK SMILES IDX 27 34 28 35 81 36 29 37 86 38 80 39 82 40 30 41 85 42 79 43
REMARK SMILES IDX 78 44 31 46 65 47 44 48 64 49 45 50 48 51 63 52 83 53 46 54
REMARK SMILES IDX 47 55 62 57 84 58 49 59 32 60 33 61 42 62 34 63 35 64 41 65
REMARK SMILES IDX 43 66 36 67 37 68 38 69 39 70 40 71 66 72 67 73 76 74 68 75
REMARK SMILES IDX 69 76 75 77 77 78 70 79 71 80 72 81 73 82 74 83 50 84 51 85
REMARK SMILES IDX 60 86 52 87 53 88 59 89 61 90 54 91 55 92 56 93 57 94 58 95
REMARK H PARENT 82 45 48 56
REMARK Flexibility Score: inf
ROOT
ATOM      1  C   UNL A   1      33.516  31.070  27.265  1.00  0.00     0.275 C 
ENDROOT
BRANCH   1   2
ATOM      2  C   UNL A   1      33.238  30.034  26.215  1.00  0.00     0.275 C 
BRANCH   2   3
ATOM      3  O   UNL A   1      33.050  28.787  26.851  1.00  0.00    -0.459 OA
BRANCH   3   4
ATOM      4  C   UNL A   1      31.803  28.364  27.033  1.00  0.00     0.331 C 
ATOM      5  O   UNL A   1      31.252  28.078  28.085  1.00  0.00    -0.247 OA
BRANCH   4   6
ATOM      6  C   UNL A   1      31.161  28.329  25.718  1.00  0.00     0.097 C 
ATOM      7  C   UNL A   1      30.969  27.219  24.980  1.00  0.00     0.058 C 
BRANCH   7   8
ATOM      8  C   UNL A   1      31.276  25.835  25.230  1.00  0.00     0.175 A 
ATOM      9  C   UNL A   1      37.809  23.432  26.130  1.00  0.00     0.008 C 
ATOM     10  C   UNL A   1      37.188  23.265  24.738  1.00  0.00    -0.009 C 
ATOM     11  C   UNL A   1      37.315  21.848  24.164  1.00  0.00     0.009 C 
ATOM     12  C   UNL A   1      35.721  23.718  24.752  1.00  0.00     0.041 C 
ATOM     13  C   UNL A   1      36.443  20.816  24.896  1.00  0.00     0.047 C 
ATOM     14  C   UNL A   1      34.711  22.686  25.112  1.00  0.00    -0.020 A 
ATOM     15  C   UNL A   1      35.062  21.350  25.148  1.00  0.00     0.011 A 
ATOM     16  C   UNL A   1      33.314  22.855  25.360  1.00  0.00     0.060 A 
ATOM     17  S   UNL A   1      33.747  20.336  25.526  1.00  0.00    -0.120 S 
ATOM     18  C   UNL A   1      32.651  21.654  25.587  1.00  0.00     0.129 A 
ATOM     19  C   UNL A   1      32.399  24.034  25.379  1.00  0.00     0.168 A 
ATOM     20  N   UNL A   1      31.310  21.453  25.818  1.00  0.00    -0.225 NA
ATOM     21  N   UNL A   1      31.068  23.787  25.545  1.00  0.00    -0.201 N 
ATOM     22  N   UNL A   1      32.569  25.328  25.261  1.00  0.00    -0.207 NA
ATOM     23  C   UNL A   1      30.550  22.518  25.773  1.00  0.00     0.227 A 
ATOM     24  N   UNL A   1      30.330  24.909  25.468  1.00  0.00    -0.145 NA
ENDBRANCH   7   8
ENDBRANCH   4   6
ENDBRANCH   3   4
ENDBRANCH   2   3
ENDBRANCH   1   2
BRANCH   1  25
ATOM     25  O   UNL A   1      34.699  30.645  27.899  1.00  0.00    -0.458 OA
BRANCH  25  26
ATOM     26  C   UNL A   1      35.581  31.631  28.154  1.00  0.00     0.338 C 
ATOM     27  O   UNL A   1      35.665  32.749  27.675  1.00  0.00    -0.246 OA
BRANCH  26  28
ATOM     28  C   UNL A   1      36.636  31.014  28.929  1.00  0.00     0.060 A 
ATOM     29  C   UNL A   1      37.739  31.822  29.186  1.00  0.00     0.016 A 
ATOM     30  C   UNL A   1      36.662  29.608  28.966  1.00  0.00     0.016 A 
ATOM     31  C   UNL A   1      38.951  31.198  29.253  1.00  0.00     0.010 A 
ATOM     32  C   UNL A   1      37.869  28.993  29.004  1.00  0.00     0.010 A 
ATOM     33  C   UNL A   1      38.989  29.808  29.070  1.00  0.00    -0.014 A 
BRANCH  33  34
ATOM     34  C   UNL A   1      40.254  29.154  29.191  1.00  0.00     0.031 A 
ATOM     35  C   UNL A   1      40.612  29.042  30.615  1.00  0.00     0.074 A 
ATOM     36  C   UNL A   1      40.904  28.642  28.139  1.00  0.00     0.049 A 
ATOM     37  N   UNL A   1      41.363  29.858  31.272  1.00  0.00    -0.248 NA
ATOM     38  C   UNL A   1      39.778  28.175  31.469  1.00  0.00     0.031 C 
ATOM     39  C   UNL A   1      40.469  28.478  26.754  1.00  0.00     0.029 A 
ATOM     40  N   UNL A   1      42.134  28.088  28.149  1.00  0.00    -0.354 N 
ATOM     41  C   UNL A   1      41.322  29.401  32.579  1.00  0.00     0.074 A 
ATOM     42  C   UNL A   1      40.130  28.608  32.679  1.00  0.00     0.031 C 
ATOM     43  C   UNL A   1      41.344  27.666  26.112  1.00  0.00     0.029 A 
ATOM     44  C   UNL A   1      42.459  27.383  26.999  1.00  0.00     0.049 A 
ATOM     45  H   UNL A   1      42.752  28.178  28.911  1.00  0.00     0.167 HD
ATOM     46  C   UNL A   1      42.450  29.428  33.337  1.00  0.00     0.037 A 
ATOM     47  C   UNL A   1      43.542  26.572  26.891  1.00  0.00     0.037 A 
ATOM     48  C   UNL A   1      43.421  30.335  32.755  1.00  0.00     0.049 A 
ATOM     49  C   UNL A   1      44.506  27.025  27.948  1.00  0.00     0.074 A 
ATOM     50  C   UNL A   1      43.411  31.684  32.447  1.00  0.00     0.029 A 
ATOM     51  N   UNL A   1      44.429  29.782  31.995  1.00  0.00    -0.354 N 
ATOM     52  N   UNL A   1      45.073  28.206  27.940  1.00  0.00    -0.248 NA
ATOM     53  C   UNL A   1      44.413  26.398  29.262  1.00  0.00     0.031 C 
ATOM     54  C   UNL A   1      44.087  31.785  31.195  1.00  0.00     0.029 A 
ATOM     55  C   UNL A   1      44.550  30.516  30.841  1.00  0.00     0.049 A 
ATOM     56  H   UNL A   1      44.968  28.995  32.238  1.00  0.00     0.167 HD
ATOM     57  C   UNL A   1      45.037  28.642  29.261  1.00  0.00     0.074 A 
ATOM     58  C   UNL A   1      44.668  27.458  30.037  1.00  0.00     0.031 C 
ATOM     59  C   UNL A   1      45.006  29.974  29.575  1.00  0.00     0.037 A 
BRANCH  46  60
ATOM     60  C   UNL A   1      42.833  28.328  34.302  1.00  0.00     0.058 A 
ATOM     61  C   UNL A   1      42.983  28.662  35.662  1.00  0.00     0.135 A 
ATOM     62  C   UNL A   1      43.326  27.052  33.937  1.00  0.00     0.135 A 
ATOM     63  F   UNL A   1      42.525  29.833  36.133  1.00  0.00    -0.206 F 
ATOM     64  C   UNL A   1      43.675  27.851  36.558  1.00  0.00     0.059 A 
ATOM     65  C   UNL A   1      43.979  26.210  34.825  1.00  0.00     0.059 A 
ATOM     66  F   UNL A   1      43.287  26.571  32.692  1.00  0.00    -0.206 F 
ATOM     67  C   UNL A   1      44.191  26.637  36.120  1.00  0.00     0.060 A 
BRANCH  67  68
ATOM     68  S   UNL A   1      45.188  25.644  37.236  1.00  0.00     0.124 S 
ATOM     69  O   UNL A   1      45.978  24.857  36.296  1.00  0.00    -0.237 OA
ATOM     70  O   UNL A   1      45.908  26.669  37.982  1.00  0.00    -0.237 OA
ATOM     71  O   UNL A   1      44.193  24.898  38.002  1.00  0.00    -0.744 OA
ENDBRANCH  67  68
ENDBRANCH  46  60
BRANCH  47  72
ATOM     72  C   UNL A   1      43.594  25.225  26.262  1.00  0.00     0.058 A 
ATOM     73  C   UNL A   1      44.510  24.941  25.232  1.00  0.00     0.135 A 
ATOM     74  C   UNL A   1      42.944  24.112  26.834  1.00  0.00     0.135 A 
ATOM     75  F   UNL A   1      45.190  25.935  24.643  1.00  0.00    -0.206 F 
ATOM     76  C   UNL A   1      44.801  23.630  24.830  1.00  0.00     0.059 A 
ATOM     77  C   UNL A   1      43.211  22.799  26.445  1.00  0.00     0.059 A 
ATOM     78  F   UNL A   1      42.087  24.255  27.856  1.00  0.00    -0.206 F 
ATOM     79  C   UNL A   1      44.161  22.563  25.459  1.00  0.00     0.060 A 
BRANCH  79  80
ATOM     80  S   UNL A   1      44.651  20.866  25.063  1.00  0.00     0.124 S 
ATOM     81  O   UNL A   1      43.609  20.089  25.725  1.00  0.00    -0.237 OA
ATOM     82  O   UNL A   1      44.615  20.869  23.605  1.00  0.00    -0.237 OA
ATOM     83  O   UNL A   1      45.982  20.750  25.651  1.00  0.00    -0.744 OA
ENDBRANCH  79  80
ENDBRANCH  47  72
BRANCH  59  84
ATOM     84  C   UNL A   1      45.261  30.981  28.476  1.00  0.00     0.058 A 
ATOM     85  C   UNL A   1      44.281  31.451  27.581  1.00  0.00     0.135 A 
ATOM     86  C   UNL A   1      46.500  31.638  28.461  1.00  0.00     0.135 A 
ATOM     87  F   UNL A   1      43.041  30.946  27.593  1.00  0.00    -0.206 F 
ATOM     88  C   UNL A   1      44.530  32.510  26.701  1.00  0.00     0.059 A 
ATOM     89  C   UNL A   1      46.761  32.713  27.616  1.00  0.00     0.059 A 
ATOM     90  F   UNL A   1      47.458  31.279  29.332  1.00  0.00    -0.206 F 
ATOM     91  C   UNL A   1      45.773  33.141  26.733  1.00  0.00     0.060 A 
BRANCH  91  92
ATOM     92  S   UNL A   1      46.068  34.567  25.661  1.00  0.00     0.124 S 
ATOM     93  O   UNL A   1      47.498  34.460  25.391  1.00  0.00    -0.237 OA
ATOM     94  O   UNL A   1      45.187  34.300  24.529  1.00  0.00    -0.237 OA
ATOM     95  O   UNL A   1      45.675  35.705  26.491  1.00  0.00    -0.744 OA
ENDBRANCH  91  92
ENDBRANCH  59  84
ENDBRANCH  33  34
ENDBRANCH  26  28
ENDBRANCH  25  26
ENDBRANCH   1  25
TORSDOF 15
ENDMDL
