MODEL 1
REMARK VINA RESULT:      -9.8      0.000      0.000
REMARK SMILES C[C@@H]1Oc2c(C(=O)OCCOC(=O)c3ccc(-c4c5nc(c(-c6c(F)cc(S(=O)(=O)[O-])cc6F)c6ccc([nH]6)c(-c6c(F)cc(S(=O)(=O)[O-])cc6F)c6nc(c(-c7c(F)cc(S(=O)(=O)[O-])cc7F)c7ccc4[nH]7)C=C6)C=C5)cc3)cccc2[C@@H]1C
REMARK SMILES IDX 11 1 10 2 9 3 8 4 6 5 7 6 5 7 1 8 2 9 3 10 84 11 4 12 83 13
REMARK SMILES IDX 85 14 82 15 80 16 81 17 12 18 13 19 14 20 15 21 79 22 16 23
REMARK SMILES IDX 78 24 17 25 18 26 19 27 72 28 20 29 77 30 71 31 73 32 21 33
REMARK SMILES IDX 76 34 70 35 69 36 22 38 56 39 35 40 55 41 36 42 39 43 54 44
REMARK SMILES IDX 74 45 37 46 38 47 53 49 75 50 40 51 23 52 24 53 33 54 25 55
REMARK SMILES IDX 26 56 32 57 34 58 27 59 28 60 29 61 30 62 31 63 57 64 58 65
REMARK SMILES IDX 67 66 59 67 60 68 66 69 68 70 61 71 62 72 63 73 64 74 65 75
REMARK SMILES IDX 41 76 42 77 51 78 43 79 44 80 50 81 52 82 45 83 46 84 47 85
REMARK SMILES IDX 48 86 49 87
REMARK H PARENT 73 37 39 48
REMARK Flexibility Score: inf
ROOT
ATOM      1  O   UNL A   1      41.747  24.040  26.122  1.00  0.00    -0.458 OA
ENDROOT
BRANCH   1   2
ATOM      2  C   UNL A   1      42.666  23.023  25.697  1.00  0.00     0.275 C 
BRANCH   2   3
ATOM      3  C   UNL A   1      43.073  22.191  26.910  1.00  0.00     0.275 C 
BRANCH   3   4
ATOM      4  O   UNL A   1      43.919  22.962  27.789  1.00  0.00    -0.458 OA
BRANCH   4   5
ATOM      5  C   UNL A   1      43.392  23.325  28.990  1.00  0.00     0.342 C 
ATOM      6  O   UNL A   1      42.297  23.018  29.425  1.00  0.00    -0.246 OA
BRANCH   5   7
ATOM      7  C   UNL A   1      44.328  24.238  29.675  1.00  0.00     0.102 A 
ATOM      8  C   UNL A   1      44.935  22.621  34.106  1.00  0.00     0.053 C 
ATOM      9  C   UNL A   1      44.425  23.793  33.272  1.00  0.00     0.177 C 
ATOM     10  O   UNL A   1      44.035  23.326  31.947  1.00  0.00    -0.489 OA
ATOM     11  C   UNL A   1      45.414  24.971  33.122  1.00  0.00     0.060 C 
ATOM     12  C   UNL A   1      44.531  24.234  31.052  1.00  0.00     0.137 A 
ATOM     13  C   UNL A   1      45.340  25.189  31.651  1.00  0.00     0.002 A 
ATOM     14  C   UNL A   1      46.842  24.727  33.597  1.00  0.00     0.017 C 
ATOM     15  C   UNL A   1      45.962  26.177  30.901  1.00  0.00     0.008 A 
ATOM     16  C   UNL A   1      44.966  25.225  28.906  1.00  0.00     0.019 A 
ATOM     17  C   UNL A   1      45.779  26.186  29.518  1.00  0.00     0.001 A 
ENDBRANCH   5   7
ENDBRANCH   4   5
ENDBRANCH   3   4
ENDBRANCH   2   3
ENDBRANCH   1   2
BRANCH   1  18
ATOM     18  C   UNL A   1      42.066  25.306  25.775  1.00  0.00     0.338 C 
ATOM     19  O   UNL A   1      42.601  25.691  24.749  1.00  0.00    -0.246 OA
BRANCH  18  20
ATOM     20  C   UNL A   1      41.581  26.197  26.835  1.00  0.00     0.060 A 
ATOM     21  C   UNL A   1      40.672  25.762  27.795  1.00  0.00     0.016 A 
ATOM     22  C   UNL A   1      42.128  27.470  26.919  1.00  0.00     0.016 A 
ATOM     23  C   UNL A   1      40.321  26.624  28.843  1.00  0.00     0.010 A 
ATOM     24  C   UNL A   1      41.861  28.276  28.016  1.00  0.00     0.010 A 
ATOM     25  C   UNL A   1      40.951  27.875  29.000  1.00  0.00    -0.014 A 
BRANCH  25  26
ATOM     26  C   UNL A   1      40.731  28.744  30.197  1.00  0.00     0.031 A 
ATOM     27  C   UNL A   1      41.560  28.571  31.452  1.00  0.00     0.074 A 
ATOM     28  C   UNL A   1      39.705  29.621  30.207  1.00  0.00     0.049 A 
ATOM     29  N   UNL A   1      41.452  29.183  32.607  1.00  0.00    -0.248 NA
ATOM     30  C   UNL A   1      42.608  27.536  31.433  1.00  0.00     0.031 C 
ATOM     31  C   UNL A   1      38.734  29.804  29.125  1.00  0.00     0.029 A 
ATOM     32  N   UNL A   1      39.302  30.526  31.160  1.00  0.00    -0.354 N 
ATOM     33  C   UNL A   1      42.386  28.585  33.448  1.00  0.00     0.074 A 
ATOM     34  C   UNL A   1      42.990  27.506  32.700  1.00  0.00     0.031 C 
ATOM     35  C   UNL A   1      37.902  30.808  29.439  1.00  0.00     0.029 A 
ATOM     36  C   UNL A   1      38.241  31.309  30.766  1.00  0.00     0.049 A 
ATOM     37  H   UNL A   1      39.732  30.606  32.041  1.00  0.00     0.167 HD
ATOM     38  C   UNL A   1      42.747  28.927  34.709  1.00  0.00     0.037 A 
ATOM     39  C   UNL A   1      37.616  32.327  31.391  1.00  0.00     0.037 A 
ATOM     40  C   UNL A   1      42.191  30.042  35.430  1.00  0.00     0.049 A 
ATOM     41  C   UNL A   1      38.086  32.750  32.753  1.00  0.00     0.074 A 
ATOM     42  C   UNL A   1      42.552  30.532  36.673  1.00  0.00     0.029 A 
ATOM     43  N   UNL A   1      41.163  30.851  34.966  1.00  0.00    -0.354 N 
ATOM     44  N   UNL A   1      39.026  32.223  33.501  1.00  0.00    -0.248 NA
ATOM     45  C   UNL A   1      37.421  33.914  33.354  1.00  0.00     0.031 C 
ATOM     46  C   UNL A   1      41.720  31.614  36.976  1.00  0.00     0.029 A 
ATOM     47  C   UNL A   1      40.875  31.834  35.900  1.00  0.00     0.049 A 
ATOM     48  H   UNL A   1      40.706  30.744  34.101  1.00  0.00     0.167 HD
ATOM     49  C   UNL A   1      39.084  33.006  34.648  1.00  0.00     0.074 A 
ATOM     50  C   UNL A   1      38.093  34.051  34.489  1.00  0.00     0.031 C 
ATOM     51  C   UNL A   1      39.888  32.872  35.733  1.00  0.00     0.037 A 
BRANCH  38  52
ATOM     52  C   UNL A   1      43.828  28.110  35.377  1.00  0.00     0.058 A 
ATOM     53  C   UNL A   1      43.533  26.918  36.062  1.00  0.00     0.135 A 
ATOM     54  C   UNL A   1      45.176  28.498  35.304  1.00  0.00     0.135 A 
ATOM     55  F   UNL A   1      42.262  26.498  36.172  1.00  0.00    -0.206 F 
ATOM     56  C   UNL A   1      44.524  26.168  36.685  1.00  0.00     0.059 A 
ATOM     57  C   UNL A   1      46.189  27.742  35.889  1.00  0.00     0.059 A 
ATOM     58  F   UNL A   1      45.522  29.621  34.655  1.00  0.00    -0.206 F 
ATOM     59  C   UNL A   1      45.851  26.587  36.593  1.00  0.00     0.060 A 
BRANCH  59  60
ATOM     60  S   UNL A   1      47.122  25.595  37.403  1.00  0.00     0.124 S 
ATOM     61  O   UNL A   1      48.327  26.042  36.712  1.00  0.00    -0.237 OA
ATOM     62  O   UNL A   1      47.000  26.011  38.796  1.00  0.00    -0.237 OA
ATOM     63  O   UNL A   1      46.713  24.221  37.124  1.00  0.00    -0.744 OA
ENDBRANCH  59  60
ENDBRANCH  38  52
BRANCH  39  64
ATOM     64  C   UNL A   1      36.532  33.063  30.686  1.00  0.00     0.058 A 
ATOM     65  C   UNL A   1      35.193  32.910  31.080  1.00  0.00     0.135 A 
ATOM     66  C   UNL A   1      36.809  33.975  29.656  1.00  0.00     0.135 A 
ATOM     67  F   UNL A   1      34.876  32.044  32.055  1.00  0.00    -0.206 F 
ATOM     68  C   UNL A   1      34.169  33.635  30.481  1.00  0.00     0.059 A 
ATOM     69  C   UNL A   1      35.804  34.731  29.059  1.00  0.00     0.059 A 
ATOM     70  F   UNL A   1      38.074  34.172  29.256  1.00  0.00    -0.206 F 
ATOM     71  C   UNL A   1      34.486  34.553  29.479  1.00  0.00     0.060 A 
BRANCH  71  72
ATOM     72  S   UNL A   1      33.155  35.550  28.773  1.00  0.00     0.124 S 
ATOM     73  O   UNL A   1      32.428  34.560  27.987  1.00  0.00    -0.237 OA
ATOM     74  O   UNL A   1      32.476  36.040  29.969  1.00  0.00    -0.237 OA
ATOM     75  O   UNL A   1      33.867  36.567  28.005  1.00  0.00    -0.744 OA
ENDBRANCH  71  72
ENDBRANCH  39  64
BRANCH  51  76
ATOM     76  C   UNL A   1      39.762  33.901  36.821  1.00  0.00     0.058 A 
ATOM     77  C   UNL A   1      40.412  35.143  36.748  1.00  0.00     0.135 A 
ATOM     78  C   UNL A   1      38.945  33.655  37.937  1.00  0.00     0.135 A 
ATOM     79  F   UNL A   1      41.207  35.429  35.705  1.00  0.00    -0.206 F 
ATOM     80  C   UNL A   1      40.285  36.089  37.760  1.00  0.00     0.059 A 
ATOM     81  C   UNL A   1      38.779  34.599  38.945  1.00  0.00     0.059 A 
ATOM     82  F   UNL A   1      38.288  32.490  38.051  1.00  0.00    -0.206 F 
ATOM     83  C   UNL A   1      39.468  35.808  38.856  1.00  0.00     0.060 A 
BRANCH  83  84
ATOM     84  S   UNL A   1      39.310  37.047  40.157  1.00  0.00     0.124 S 
ATOM     85  O   UNL A   1      38.611  38.121  39.457  1.00  0.00    -0.237 OA
ATOM     86  O   UNL A   1      38.533  36.340  41.170  1.00  0.00    -0.237 OA
ATOM     87  O   UNL A   1      40.693  37.336  40.525  1.00  0.00    -0.744 OA
ENDBRANCH  83  84
ENDBRANCH  51  76
ENDBRANCH  25  26
ENDBRANCH  18  20
ENDBRANCH   1  18
TORSDOF 14
ENDMDL
MODEL 2
REMARK VINA RESULT:      -9.8      3.171      5.115
REMARK SMILES C[C@@H]1Oc2c(C(=O)OCCOC(=O)c3ccc(-c4c5nc(c(-c6c(F)cc(S(=O)(=O)[O-])cc6F)c6ccc([nH]6)c(-c6c(F)cc(S(=O)(=O)[O-])cc6F)c6nc(c(-c7c(F)cc(S(=O)(=O)[O-])cc7F)c7ccc4[nH]7)C=C6)C=C5)cc3)cccc2[C@@H]1C
REMARK SMILES IDX 11 1 10 2 9 3 8 4 6 5 7 6 5 7 1 8 2 9 3 10 84 11 4 12 83 13
REMARK SMILES IDX 85 14 82 15 80 16 81 17 12 18 13 19 14 20 15 21 79 22 16 23
REMARK SMILES IDX 78 24 17 25 18 26 19 27 72 28 20 29 77 30 71 31 73 32 21 33
REMARK SMILES IDX 76 34 70 35 69 36 22 38 56 39 35 40 55 41 36 42 39 43 54 44
REMARK SMILES IDX 74 45 37 46 38 47 53 49 75 50 40 51 23 52 24 53 33 54 25 55
REMARK SMILES IDX 26 56 32 57 34 58 27 59 28 60 29 61 30 62 31 63 57 64 58 65
REMARK SMILES IDX 67 66 59 67 60 68 66 69 68 70 61 71 62 72 63 73 64 74 65 75
REMARK SMILES IDX 41 76 42 77 51 78 43 79 44 80 50 81 52 82 45 83 46 84 47 85
REMARK SMILES IDX 48 86 49 87
REMARK H PARENT 73 37 39 48
REMARK Flexibility Score: inf
ROOT
ATOM      1  O   UNL A   1      40.343  23.733  26.594  1.00  0.00    -0.458 OA
ENDROOT
BRANCH   1   2
ATOM      2  C   UNL A   1      41.018  22.469  26.671  1.00  0.00     0.275 C 
BRANCH   2   3
ATOM      3  C   UNL A   1      40.057  21.370  26.227  1.00  0.00     0.275 C 
BRANCH   3   4
ATOM      4  O   UNL A   1      38.724  21.900  26.070  1.00  0.00    -0.458 OA
BRANCH   4   5
ATOM      5  C   UNL A   1      37.827  21.125  25.403  1.00  0.00     0.342 C 
ATOM      6  O   UNL A   1      38.006  19.991  24.997  1.00  0.00    -0.246 OA
BRANCH   5   7
ATOM      7  C   UNL A   1      36.598  21.907  25.156  1.00  0.00     0.102 A 
ATOM      8  C   UNL A   1      32.908  18.921  25.451  1.00  0.00     0.053 C 
ATOM      9  C   UNL A   1      33.674  19.860  24.522  1.00  0.00     0.177 C 
ATOM     10  O   UNL A   1      35.052  19.995  24.979  1.00  0.00    -0.489 OA
ATOM     11  C   UNL A   1      33.056  21.267  24.357  1.00  0.00     0.060 C 
ATOM     12  C   UNL A   1      35.360  21.325  24.901  1.00  0.00     0.137 A 
ATOM     13  C   UNL A   1      34.265  22.109  24.568  1.00  0.00     0.002 A 
ATOM     14  C   UNL A   1      31.924  21.632  25.312  1.00  0.00     0.017 C 
ATOM     15  C   UNL A   1      34.372  23.490  24.472  1.00  0.00     0.008 A 
ATOM     16  C   UNL A   1      36.712  23.304  25.077  1.00  0.00     0.019 A 
ATOM     17  C   UNL A   1      35.603  24.088  24.738  1.00  0.00     0.001 A 
ENDBRANCH   5   7
ENDBRANCH   4   5
ENDBRANCH   3   4
ENDBRANCH   2   3
ENDBRANCH   1   2
BRANCH   1  18
ATOM     18  C   UNL A   1      41.130  24.812  26.392  1.00  0.00     0.338 C 
ATOM     19  O   UNL A   1      41.963  24.979  25.516  1.00  0.00    -0.246 OA
BRANCH  18  20
ATOM     20  C   UNL A   1      40.762  25.827  27.384  1.00  0.00     0.060 A 
ATOM     21  C   UNL A   1      39.774  25.594  28.335  1.00  0.00     0.016 A 
ATOM     22  C   UNL A   1      41.498  27.005  27.416  1.00  0.00     0.016 A 
ATOM     23  C   UNL A   1      39.534  26.561  29.321  1.00  0.00     0.010 A 
ATOM     24  C   UNL A   1      41.331  27.906  28.458  1.00  0.00     0.010 A 
ATOM     25  C   UNL A   1      40.345  27.708  29.431  1.00  0.00    -0.014 A 
BRANCH  25  26
ATOM     26  C   UNL A   1      40.233  28.669  30.571  1.00  0.00     0.031 A 
ATOM     27  C   UNL A   1      41.114  28.539  31.795  1.00  0.00     0.074 A 
ATOM     28  C   UNL A   1      39.255  29.602  30.565  1.00  0.00     0.049 A 
ATOM     29  N   UNL A   1      41.097  29.236  32.905  1.00  0.00    -0.248 NA
ATOM     30  C   UNL A   1      42.104  27.448  31.802  1.00  0.00     0.031 C 
ATOM     31  C   UNL A   1      38.242  29.762  29.519  1.00  0.00     0.029 A 
ATOM     32  N   UNL A   1      38.950  30.592  31.467  1.00  0.00    -0.354 N 
ATOM     33  C   UNL A   1      42.040  28.647  33.743  1.00  0.00     0.074 A 
ATOM     34  C   UNL A   1      42.548  27.486  33.048  1.00  0.00     0.031 C 
ATOM     35  C   UNL A   1      37.481  30.831  29.798  1.00  0.00     0.029 A 
ATOM     36  C   UNL A   1      37.913  31.404  31.067  1.00  0.00     0.049 A 
ATOM     37  H   UNL A   1      39.428  30.710  32.319  1.00  0.00     0.167 HD
ATOM     38  C   UNL A   1      42.482  29.055  34.958  1.00  0.00     0.037 A 
ATOM     39  C   UNL A   1      37.375  32.496  31.645  1.00  0.00     0.037 A 
ATOM     40  C   UNL A   1      42.022  30.248  35.621  1.00  0.00     0.049 A 
ATOM     41  C   UNL A   1      37.935  32.987  32.949  1.00  0.00     0.074 A 
ATOM     42  C   UNL A   1      42.471  30.803  36.807  1.00  0.00     0.029 A 
ATOM     43  N   UNL A   1      41.017  31.079  35.148  1.00  0.00    -0.354 N 
ATOM     44  N   UNL A   1      38.883  32.462  33.688  1.00  0.00    -0.248 NA
ATOM     45  C   UNL A   1      37.363  34.226  33.494  1.00  0.00     0.031 C 
ATOM     46  C   UNL A   1      41.714  31.949  37.069  1.00  0.00     0.029 A 
ATOM     47  C   UNL A   1      40.828  32.139  36.020  1.00  0.00     0.049 A 
ATOM     48  H   UNL A   1      40.511  30.937  34.316  1.00  0.00     0.167 HD
ATOM     49  C   UNL A   1      39.040  33.319  34.771  1.00  0.00     0.074 A 
ATOM     50  C   UNL A   1      38.099  34.404  34.583  1.00  0.00     0.031 C 
ATOM     51  C   UNL A   1      39.890  33.217  35.824  1.00  0.00     0.037 A 
BRANCH  38  52
ATOM     52  C   UNL A   1      43.551  28.228  35.632  1.00  0.00     0.058 A 
ATOM     53  C   UNL A   1      44.917  28.438  35.374  1.00  0.00     0.135 A 
ATOM     54  C   UNL A   1      43.213  27.240  36.572  1.00  0.00     0.135 A 
ATOM     55  F   UNL A   1      45.302  29.363  34.480  1.00  0.00    -0.206 F 
ATOM     56  C   UNL A   1      45.902  27.672  35.986  1.00  0.00     0.059 A 
ATOM     57  C   UNL A   1      44.186  26.487  37.225  1.00  0.00     0.059 A 
ATOM     58  F   UNL A   1      41.926  27.000  36.868  1.00  0.00    -0.206 F 
ATOM     59  C   UNL A   1      45.528  26.699  36.912  1.00  0.00     0.060 A 
BRANCH  59  60
ATOM     60  S   UNL A   1      46.825  25.722  37.701  1.00  0.00     0.124 S 
ATOM     61  O   UNL A   1      46.183  25.341  38.955  1.00  0.00    -0.237 OA
ATOM     62  O   UNL A   1      47.027  24.642  36.741  1.00  0.00    -0.237 OA
ATOM     63  O   UNL A   1      47.935  26.663  37.825  1.00  0.00    -0.744 OA
ENDBRANCH  59  60
ENDBRANCH  38  52
BRANCH  39  64
ATOM     64  C   UNL A   1      36.296  33.240  30.939  1.00  0.00     0.058 A 
ATOM     65  C   UNL A   1      34.983  33.232  31.435  1.00  0.00     0.135 A 
ATOM     66  C   UNL A   1      36.561  34.021  29.804  1.00  0.00     0.135 A 
ATOM     67  F   UNL A   1      34.678  32.496  32.514  1.00  0.00    -0.206 F 
ATOM     68  C   UNL A   1      33.971  33.971  30.833  1.00  0.00     0.059 A 
ATOM     69  C   UNL A   1      35.570  34.790  29.199  1.00  0.00     0.059 A 
ATOM     70  F   UNL A   1      37.804  34.078  29.302  1.00  0.00    -0.206 F 
ATOM     71  C   UNL A   1      34.277  34.758  29.721  1.00  0.00     0.060 A 
BRANCH  71  72
ATOM     72  S   UNL A   1      32.972  35.780  29.004  1.00  0.00     0.124 S 
ATOM     73  O   UNL A   1      33.740  36.864  28.404  1.00  0.00    -0.237 OA
ATOM     74  O   UNL A   1      32.340  34.853  28.070  1.00  0.00    -0.237 OA
ATOM     75  O   UNL A   1      32.158  36.146  30.159  1.00  0.00    -0.744 OA
ENDBRANCH  71  72
ENDBRANCH  39  64
BRANCH  51  76
ATOM     76  C   UNL A   1      39.873  34.326  36.839  1.00  0.00     0.058 A 
ATOM     77  C   UNL A   1      40.722  35.439  36.737  1.00  0.00     0.135 A 
ATOM     78  C   UNL A   1      38.965  34.291  37.911  1.00  0.00     0.135 A 
ATOM     79  F   UNL A   1      41.610  35.522  35.734  1.00  0.00    -0.206 F 
ATOM     80  C   UNL A   1      40.695  36.461  37.681  1.00  0.00     0.059 A 
ATOM     81  C   UNL A   1      38.900  35.316  38.848  1.00  0.00     0.059 A 
ATOM     82  F   UNL A   1      38.120  33.257  38.049  1.00  0.00    -0.206 F 
ATOM     83  C   UNL A   1      39.782  36.390  38.734  1.00  0.00     0.060 A 
BRANCH  83  84
ATOM     84  S   UNL A   1      39.757  37.725  39.947  1.00  0.00     0.124 S 
ATOM     85  O   UNL A   1      39.778  36.982  41.203  1.00  0.00    -0.237 OA
ATOM     86  O   UNL A   1      40.976  38.461  39.627  1.00  0.00    -0.237 OA
ATOM     87  O   UNL A   1      38.511  38.429  39.656  1.00  0.00    -0.744 OA
ENDBRANCH  83  84
ENDBRANCH  51  76
ENDBRANCH  25  26
ENDBRANCH  18  20
ENDBRANCH   1  18
TORSDOF 14
ENDMDL
MODEL 3
REMARK VINA RESULT:      -9.8      3.032     11.459
REMARK SMILES C[C@@H]1Oc2c(C(=O)OCCOC(=O)c3ccc(-c4c5nc(c(-c6c(F)cc(S(=O)(=O)[O-])cc6F)c6ccc([nH]6)c(-c6c(F)cc(S(=O)(=O)[O-])cc6F)c6nc(c(-c7c(F)cc(S(=O)(=O)[O-])cc7F)c7ccc4[nH]7)C=C6)C=C5)cc3)cccc2[C@@H]1C
REMARK SMILES IDX 11 1 10 2 9 3 8 4 6 5 7 6 5 7 1 8 2 9 3 10 84 11 4 12 83 13
REMARK SMILES IDX 85 14 82 15 80 16 81 17 12 18 13 19 14 20 15 21 79 22 16 23
REMARK SMILES IDX 78 24 17 25 18 26 19 27 72 28 20 29 77 30 71 31 73 32 21 33
REMARK SMILES IDX 76 34 70 35 69 36 22 38 56 39 35 40 55 41 36 42 39 43 54 44
REMARK SMILES IDX 74 45 37 46 38 47 53 49 75 50 40 51 23 52 24 53 33 54 25 55
REMARK SMILES IDX 26 56 32 57 34 58 27 59 28 60 29 61 30 62 31 63 57 64 58 65
REMARK SMILES IDX 67 66 59 67 60 68 66 69 68 70 61 71 62 72 63 73 64 74 65 75
REMARK SMILES IDX 41 76 42 77 51 78 43 79 44 80 50 81 52 82 45 83 46 84 47 85
REMARK SMILES IDX 48 86 49 87
REMARK H PARENT 73 37 39 48
REMARK Flexibility Score: inf
ROOT
ATOM      1  O   UNL A   1      34.067  31.876  28.253  1.00  0.00    -0.458 OA
ENDROOT
BRANCH   1   2
ATOM      2  C   UNL A   1      34.911  33.017  28.037  1.00  0.00     0.275 C 
BRANCH   2   3
ATOM      3  C   UNL A   1      34.034  34.261  27.916  1.00  0.00     0.275 C 
BRANCH   3   4
ATOM      4  O   UNL A   1      33.176  34.387  29.070  1.00  0.00    -0.458 OA
BRANCH   4   5
ATOM      5  C   UNL A   1      32.813  35.647  29.433  1.00  0.00     0.342 C 
ATOM      6  O   UNL A   1      32.202  36.451  28.753  1.00  0.00    -0.246 OA
BRANCH   5   7
ATOM      7  C   UNL A   1      33.353  35.940  30.776  1.00  0.00     0.102 A 
ATOM      8  C   UNL A   1      35.606  32.040  32.304  1.00  0.00     0.053 C 
ATOM      9  C   UNL A   1      34.444  32.990  32.580  1.00  0.00     0.177 C 
ATOM     10  O   UNL A   1      34.025  33.636  31.342  1.00  0.00    -0.489 OA
ATOM     11  C   UNL A   1      34.722  34.074  33.647  1.00  0.00     0.060 C 
ATOM     12  C   UNL A   1      33.837  34.959  31.636  1.00  0.00     0.137 A 
ATOM     13  C   UNL A   1      34.229  35.280  32.928  1.00  0.00     0.002 A 
ATOM     14  C   UNL A   1      36.168  34.225  34.104  1.00  0.00     0.017 C 
ATOM     15  C   UNL A   1      34.144  36.583  33.401  1.00  0.00     0.008 A 
ATOM     16  C   UNL A   1      33.278  37.262  31.242  1.00  0.00     0.019 A 
ATOM     17  C   UNL A   1      33.674  37.579  32.546  1.00  0.00     0.001 A 
ENDBRANCH   5   7
ENDBRANCH   4   5
ENDBRANCH   3   4
ENDBRANCH   2   3
ENDBRANCH   1   2
BRANCH   1  18
ATOM     18  C   UNL A   1      34.342  30.789  27.501  1.00  0.00     0.338 C 
ATOM     19  O   UNL A   1      33.728  30.373  26.531  1.00  0.00    -0.246 OA
BRANCH  18  20
ATOM     20  C   UNL A   1      35.588  30.199  28.002  1.00  0.00     0.060 A 
ATOM     21  C   UNL A   1      36.759  30.223  27.251  1.00  0.00     0.016 A 
ATOM     22  C   UNL A   1      35.599  29.698  29.297  1.00  0.00     0.016 A 
ATOM     23  C   UNL A   1      37.944  29.735  27.819  1.00  0.00     0.010 A 
ATOM     24  C   UNL A   1      36.795  29.320  29.891  1.00  0.00     0.010 A 
ATOM     25  C   UNL A   1      37.992  29.326  29.167  1.00  0.00    -0.014 A 
BRANCH  25  26
ATOM     26  C   UNL A   1      39.270  28.968  29.857  1.00  0.00     0.031 A 
ATOM     27  C   UNL A   1      39.717  29.698  31.106  1.00  0.00     0.074 A 
ATOM     28  C   UNL A   1      40.098  28.058  29.299  1.00  0.00     0.049 A 
ATOM     29  N   UNL A   1      40.831  29.570  31.785  1.00  0.00    -0.248 NA
ATOM     30  C   UNL A   1      38.829  30.750  31.628  1.00  0.00     0.031 C 
ATOM     31  C   UNL A   1      39.869  27.371  28.025  1.00  0.00     0.029 A 
ATOM     32  N   UNL A   1      41.301  27.553  29.728  1.00  0.00    -0.354 N 
ATOM     33  C   UNL A   1      40.788  30.542  32.781  1.00  0.00     0.074 A 
ATOM     34  C   UNL A   1      39.581  31.307  32.564  1.00  0.00     0.031 C 
ATOM     35  C   UNL A   1      40.852  26.483  27.817  1.00  0.00     0.029 A 
ATOM     36  C   UNL A   1      41.812  26.571  28.911  1.00  0.00     0.049 A 
ATOM     37  H   UNL A   1      41.756  27.865  30.544  1.00  0.00     0.167 HD
ATOM     38  C   UNL A   1      41.643  30.753  33.811  1.00  0.00     0.037 A 
ATOM     39  C   UNL A   1      42.920  25.812  29.030  1.00  0.00     0.037 A 
ATOM     40  C   UNL A   1      42.811  29.949  34.063  1.00  0.00     0.049 A 
ATOM     41  C   UNL A   1      43.812  25.999  30.224  1.00  0.00     0.074 A 
ATOM     42  C   UNL A   1      43.691  30.017  35.130  1.00  0.00     0.029 A 
ATOM     43  N   UNL A   1      43.255  28.920  33.246  1.00  0.00    -0.354 N 
ATOM     44  N   UNL A   1      43.711  26.870  31.199  1.00  0.00    -0.248 NA
ATOM     45  C   UNL A   1      44.962  25.093  30.343  1.00  0.00     0.031 C 
ATOM     46  C   UNL A   1      44.686  29.053  34.939  1.00  0.00     0.029 A 
ATOM     47  C   UNL A   1      44.398  28.348  33.782  1.00  0.00     0.049 A 
ATOM     48  H   UNL A   1      42.822  28.636  32.409  1.00  0.00     0.167 HD
ATOM     49  C   UNL A   1      44.767  26.601  32.062  1.00  0.00     0.074 A 
ATOM     50  C   UNL A   1      45.487  25.476  31.499  1.00  0.00     0.031 C 
ATOM     51  C   UNL A   1      45.107  27.227  33.216  1.00  0.00     0.037 A 
BRANCH  38  52
ATOM     52  C   UNL A   1      41.324  31.874  34.771  1.00  0.00     0.058 A 
ATOM     53  C   UNL A   1      40.465  31.683  35.867  1.00  0.00     0.135 A 
ATOM     54  C   UNL A   1      41.908  33.143  34.620  1.00  0.00     0.135 A 
ATOM     55  F   UNL A   1      39.871  30.495  36.061  1.00  0.00    -0.206 F 
ATOM     56  C   UNL A   1      40.162  32.715  36.748  1.00  0.00     0.059 A 
ATOM     57  C   UNL A   1      41.649  34.181  35.512  1.00  0.00     0.059 A 
ATOM     58  F   UNL A   1      42.745  33.385  33.598  1.00  0.00    -0.206 F 
ATOM     59  C   UNL A   1      40.760  33.961  36.564  1.00  0.00     0.060 A 
BRANCH  59  60
ATOM     60  S   UNL A   1      40.359  35.285  37.724  1.00  0.00     0.124 S 
ATOM     61  O   UNL A   1      39.237  34.705  38.454  1.00  0.00    -0.237 OA
ATOM     62  O   UNL A   1      41.601  35.422  38.478  1.00  0.00    -0.237 OA
ATOM     63  O   UNL A   1      40.028  36.412  36.857  1.00  0.00    -0.744 OA
ENDBRANCH  59  60
ENDBRANCH  38  52
BRANCH  39  64
ATOM     64  C   UNL A   1      43.191  24.751  28.023  1.00  0.00     0.058 A 
ATOM     65  C   UNL A   1      43.955  25.032  26.878  1.00  0.00     0.135 A 
ATOM     66  C   UNL A   1      42.756  23.430  28.209  1.00  0.00     0.135 A 
ATOM     67  F   UNL A   1      44.388  26.281  26.653  1.00  0.00    -0.206 F 
ATOM     68  C   UNL A   1      44.277  24.043  25.956  1.00  0.00     0.059 A 
ATOM     69  C   UNL A   1      43.088  22.418  27.312  1.00  0.00     0.059 A 
ATOM     70  F   UNL A   1      42.039  23.105  29.296  1.00  0.00    -0.206 F 
ATOM     71  C   UNL A   1      43.849  22.735  26.188  1.00  0.00     0.060 A 
BRANCH  71  72
ATOM     72  S   UNL A   1      44.351  21.447  25.025  1.00  0.00     0.124 S 
ATOM     73  O   UNL A   1      43.407  20.381  25.338  1.00  0.00    -0.237 OA
ATOM     74  O   UNL A   1      44.163  22.109  23.739  1.00  0.00    -0.237 OA
ATOM     75  O   UNL A   1      45.741  21.186  25.391  1.00  0.00    -0.744 OA
ENDBRANCH  71  72
ENDBRANCH  39  64
BRANCH  51  76
ATOM     76  C   UNL A   1      46.289  26.689  33.975  1.00  0.00     0.058 A 
ATOM     77  C   UNL A   1      46.153  25.685  34.946  1.00  0.00     0.135 A 
ATOM     78  C   UNL A   1      47.583  27.161  33.698  1.00  0.00     0.135 A 
ATOM     79  F   UNL A   1      44.939  25.199  35.251  1.00  0.00    -0.206 F 
ATOM     80  C   UNL A   1      47.254  25.192  35.639  1.00  0.00     0.059 A 
ATOM     81  C   UNL A   1      48.701  26.661  34.357  1.00  0.00     0.059 A 
ATOM     82  F   UNL A   1      47.772  28.111  32.769  1.00  0.00    -0.206 F 
ATOM     83  C   UNL A   1      48.524  25.688  35.339  1.00  0.00     0.060 A 
BRANCH  83  84
ATOM     84  S   UNL A   1      49.942  25.035  36.245  1.00  0.00     0.124 S 
ATOM     85  O   UNL A   1      50.960  24.985  35.200  1.00  0.00    -0.237 OA
ATOM     86  O   UNL A   1      50.144  26.046  37.278  1.00  0.00    -0.237 OA
ATOM     87  O   UNL A   1      49.474  23.739  36.726  1.00  0.00    -0.744 OA
ENDBRANCH  83  84
ENDBRANCH  51  76
ENDBRANCH  25  26
ENDBRANCH  18  20
ENDBRANCH   1  18
TORSDOF 14
ENDMDL
