MODEL 1
REMARK VINA RESULT:     -10.2      0.000      0.000
REMARK SMILES Cc1nc(-c2ccc(C(F)(F)F)cc2)nc(SCC(=O)OCCOC(=O)c2ccc(-c3c4nc(c(-c5c(F)cc(S(=O)(=O)[O-])cc5F)c5ccc([nH]5)c(-c5c(F)cc(S(=O)(=O)[O-])cc5F)c5nc(c(-c6c(F)cc(S(=O)(=O)[O-])cc6F)c6ccc3[nH]6)C=C5)C=C4)cc2)c1C
REMARK SMILES IDX 22 1 21 2 19 3 20 4 18 5 17 6 16 7 1 8 2 9 3 10 93 11 4 12
REMARK SMILES IDX 94 13 15 14 5 15 6 16 14 17 7 18 13 19 8 20 9 21 10 22 11 23
REMARK SMILES IDX 12 24 23 25 24 26 25 27 26 28 27 29 28 30 92 31 29 32 91 33
REMARK SMILES IDX 30 34 31 35 32 36 85 37 33 38 90 39 84 40 86 41 34 42 89 43
REMARK SMILES IDX 83 44 82 45 35 47 69 48 48 49 68 50 49 51 52 52 67 53 87 54
REMARK SMILES IDX 50 55 51 56 66 58 88 59 53 60 36 61 37 62 46 63 38 64 39 65
REMARK SMILES IDX 45 66 47 67 40 68 41 69 42 70 43 71 44 72 70 73 71 74 80 75
REMARK SMILES IDX 72 76 73 77 79 78 81 79 74 80 75 81 76 82 77 83 78 84 54 85
REMARK SMILES IDX 55 86 64 87 56 88 57 89 63 90 65 91 58 92 59 93 60 94 61 95
REMARK SMILES IDX 62 96
REMARK H PARENT 86 46 52 57
REMARK Flexibility Score: inf
ROOT
ATOM      1  C   UNL A   1      34.599  33.134  31.349  1.00  0.00     0.274 C 
ENDROOT
BRANCH   1   2
ATOM      2  O   UNL A   1      34.891  34.548  31.413  1.00  0.00    -0.461 OA
BRANCH   2   3
ATOM      3  C   UNL A   1      35.635  34.935  32.479  1.00  0.00     0.316 C 
ATOM      4  O   UNL A   1      35.283  35.801  33.279  1.00  0.00    -0.251 OA
BRANCH   3   5
ATOM      5  C   UNL A   1      37.011  34.325  32.580  1.00  0.00     0.199 C 
BRANCH   5   6
ATOM      6  S   UNL A   1      37.830  34.242  34.189  1.00  0.00    -0.094 SA
BRANCH   6   7
ATOM      7  C   UNL A   1      39.552  34.679  34.023  1.00  0.00     0.104 A 
ATOM      8  C   UNL A   1      42.874  35.767  35.452  1.00  0.00     0.067 C 
ATOM      9  C   UNL A   1      41.762  35.308  34.558  1.00  0.00     0.045 A 
ATOM     10  N   UNL A   1      42.177  34.955  33.333  1.00  0.00    -0.233 NA
ATOM     11  C   UNL A   1      40.416  35.281  34.933  1.00  0.00     0.003 A 
ATOM     12  C   UNL A   1      41.238  34.609  32.456  1.00  0.00     0.160 A 
ATOM     13  C   UNL A   1      39.962  35.956  36.182  1.00  0.00     0.049 C 
ATOM     14  N   UNL A   1      39.952  34.408  32.759  1.00  0.00    -0.221 NA
BRANCH  12  15
ATOM     15  C   UNL A   1      41.626  34.766  31.055  1.00  0.00     0.019 A 
ATOM     16  C   UNL A   1      42.940  35.104  30.701  1.00  0.00     0.012 A 
ATOM     17  C   UNL A   1      40.643  34.763  30.049  1.00  0.00     0.012 A 
ATOM     18  C   UNL A   1      43.258  35.459  29.387  1.00  0.00     0.014 A 
ATOM     19  C   UNL A   1      40.954  35.133  28.739  1.00  0.00     0.014 A 
ATOM     20  C   UNL A   1      42.263  35.501  28.399  1.00  0.00     0.056 A 
BRANCH  20  21
ATOM     21  C   UNL A   1      42.607  35.959  27.005  1.00  0.00     0.416 C 
ATOM     22  F   UNL A   1      41.943  37.092  26.640  1.00  0.00    -0.166 F 
ATOM     23  F   UNL A   1      43.933  36.248  26.870  1.00  0.00    -0.166 F 
ATOM     24  F   UNL A   1      42.332  35.037  26.039  1.00  0.00    -0.166 F 
ENDBRANCH  20  21
ENDBRANCH  12  15
ENDBRANCH   6   7
ENDBRANCH   5   6
ENDBRANCH   3   5
ENDBRANCH   2   3
ENDBRANCH   1   2
BRANCH   1  25
ATOM     25  C   UNL A   1      34.890  32.535  29.974  1.00  0.00     0.275 C 
BRANCH  25  26
ATOM     26  O   UNL A   1      35.891  31.507  30.067  1.00  0.00    -0.458 OA
BRANCH  26  27
ATOM     27  C   UNL A   1      35.953  30.666  29.009  1.00  0.00     0.338 C 
ATOM     28  O   UNL A   1      35.069  30.467  28.191  1.00  0.00    -0.246 OA
BRANCH  27  29
ATOM     29  C   UNL A   1      37.270  29.995  28.914  1.00  0.00     0.060 A 
ATOM     30  C   UNL A   1      38.012  29.651  30.046  1.00  0.00     0.016 A 
ATOM     31  C   UNL A   1      37.841  29.857  27.644  1.00  0.00     0.016 A 
ATOM     32  C   UNL A   1      39.359  29.298  29.909  1.00  0.00     0.010 A 
ATOM     33  C   UNL A   1      39.162  29.424  27.506  1.00  0.00     0.010 A 
ATOM     34  C   UNL A   1      39.949  29.177  28.639  1.00  0.00    -0.014 A 
BRANCH  34  35
ATOM     35  C   UNL A   1      41.368  28.752  28.481  1.00  0.00     0.031 A 
ATOM     36  C   UNL A   1      42.504  29.734  28.604  1.00  0.00     0.074 A 
ATOM     37  C   UNL A   1      41.635  27.465  28.190  1.00  0.00     0.049 A 
ATOM     38  N   UNL A   1      43.777  29.569  28.348  1.00  0.00    -0.248 NA
ATOM     39  C   UNL A   1      42.166  31.083  29.077  1.00  0.00     0.031 C 
ATOM     40  C   UNL A   1      40.634  26.404  28.061  1.00  0.00     0.029 A 
ATOM     41  N   UNL A   1      42.827  26.833  27.947  1.00  0.00    -0.354 N 
ATOM     42  C   UNL A   1      44.386  30.794  28.603  1.00  0.00     0.074 A 
ATOM     43  C   UNL A   1      43.340  31.699  29.033  1.00  0.00     0.031 C 
ATOM     44  C   UNL A   1      41.256  25.247  27.796  1.00  0.00     0.029 A 
ATOM     45  C   UNL A   1      42.686  25.498  27.656  1.00  0.00     0.049 A 
ATOM     46  H   UNL A   1      43.698  27.290  27.978  1.00  0.00     0.167 HD
ATOM     47  C   UNL A   1      45.693  31.133  28.487  1.00  0.00     0.037 A 
ATOM     48  C   UNL A   1      43.594  24.582  27.274  1.00  0.00     0.037 A 
ATOM     49  C   UNL A   1      46.733  30.225  28.078  1.00  0.00     0.049 A 
ATOM     50  C   UNL A   1      45.022  24.988  27.093  1.00  0.00     0.074 A 
ATOM     51  C   UNL A   1      48.090  30.469  27.948  1.00  0.00     0.029 A 
ATOM     52  N   UNL A   1      46.534  28.897  27.734  1.00  0.00    -0.354 N 
ATOM     53  N   UNL A   1      45.571  26.163  27.289  1.00  0.00    -0.248 NA
ATOM     54  C   UNL A   1      45.950  23.956  26.615  1.00  0.00     0.031 C 
ATOM     55  C   UNL A   1      48.707  29.295  27.497  1.00  0.00     0.029 A 
ATOM     56  C   UNL A   1      47.737  28.314  27.375  1.00  0.00     0.049 A 
ATOM     57  H   UNL A   1      45.663  28.436  27.743  1.00  0.00     0.167 HD
ATOM     58  C   UNL A   1      46.909  26.015  26.946  1.00  0.00     0.074 A 
ATOM     59  C   UNL A   1      47.090  24.632  26.551  1.00  0.00     0.031 C 
ATOM     60  C   UNL A   1      47.894  26.944  26.954  1.00  0.00     0.037 A 
BRANCH  47  61
ATOM     61  C   UNL A   1      46.082  32.555  28.789  1.00  0.00     0.058 A 
ATOM     62  C   UNL A   1      46.509  32.947  30.066  1.00  0.00     0.135 A 
ATOM     63  C   UNL A   1      46.096  33.520  27.767  1.00  0.00     0.135 A 
ATOM     64  F   UNL A   1      46.500  32.068  31.080  1.00  0.00    -0.206 F 
ATOM     65  C   UNL A   1      46.930  34.249  30.323  1.00  0.00     0.059 A 
ATOM     66  C   UNL A   1      46.528  34.823  27.998  1.00  0.00     0.059 A 
ATOM     67  F   UNL A   1      45.696  33.196  26.527  1.00  0.00    -0.206 F 
ATOM     68  C   UNL A   1      46.936  35.180  29.282  1.00  0.00     0.060 A 
BRANCH  68  69
ATOM     69  S   UNL A   1      47.509  36.859  29.623  1.00  0.00     0.124 S 
ATOM     70  O   UNL A   1      48.772  36.889  28.894  1.00  0.00    -0.237 OA
ATOM     71  O   UNL A   1      46.436  37.677  29.067  1.00  0.00    -0.237 OA
ATOM     72  O   UNL A   1      47.624  36.888  31.079  1.00  0.00    -0.744 OA
ENDBRANCH  68  69
ENDBRANCH  47  61
BRANCH  48  73
ATOM     73  C   UNL A   1      43.136  23.196  27.015  1.00  0.00     0.058 A 
ATOM     74  C   UNL A   1      43.016  22.719  25.704  1.00  0.00     0.135 A 
ATOM     75  C   UNL A   1      42.943  22.291  28.070  1.00  0.00     0.135 A 
ATOM     76  F   UNL A   1      43.190  23.553  24.668  1.00  0.00    -0.206 F 
ATOM     77  C   UNL A   1      42.748  21.380  25.444  1.00  0.00     0.059 A 
ATOM     78  C   UNL A   1      42.692  20.944  27.836  1.00  0.00     0.059 A 
ATOM     79  F   UNL A   1      43.069  22.703  29.341  1.00  0.00    -0.206 F 
ATOM     80  C   UNL A   1      42.604  20.497  26.517  1.00  0.00     0.060 A 
BRANCH  80  81
ATOM     81  S   UNL A   1      42.407  18.735  26.173  1.00  0.00     0.124 S 
ATOM     82  O   UNL A   1      43.401  18.528  25.127  1.00  0.00    -0.237 OA
ATOM     83  O   UNL A   1      42.704  18.129  27.467  1.00  0.00    -0.237 OA
ATOM     84  O   UNL A   1      41.012  18.635  25.751  1.00  0.00    -0.744 OA
ENDBRANCH  80  81
ENDBRANCH  48  73
BRANCH  60  85
ATOM     85  C   UNL A   1      49.253  26.497  26.506  1.00  0.00     0.058 A 
ATOM     86  C   UNL A   1      49.706  26.754  25.204  1.00  0.00     0.135 A 
ATOM     87  C   UNL A   1      50.116  25.831  27.389  1.00  0.00     0.135 A 
ATOM     88  F   UNL A   1      48.912  27.382  24.323  1.00  0.00    -0.206 F 
ATOM     89  C   UNL A   1      50.968  26.347  24.784  1.00  0.00     0.059 A 
ATOM     90  C   UNL A   1      51.389  25.429  26.995  1.00  0.00     0.059 A 
ATOM     91  F   UNL A   1      49.727  25.568  28.646  1.00  0.00    -0.206 F 
ATOM     92  C   UNL A   1      51.801  25.681  25.686  1.00  0.00     0.060 A 
BRANCH  92  93
ATOM     93  S   UNL A   1      53.441  25.167  25.134  1.00  0.00     0.124 S 
ATOM     94  O   UNL A   1      53.379  23.724  25.340  1.00  0.00    -0.237 OA
ATOM     95  O   UNL A   1      53.459  25.609  23.744  1.00  0.00    -0.237 OA
ATOM     96  O   UNL A   1      54.340  25.892  26.028  1.00  0.00    -0.744 OA
ENDBRANCH  92  93
ENDBRANCH  60  85
ENDBRANCH  34  35
ENDBRANCH  27  29
ENDBRANCH  26  27
ENDBRANCH  25  26
ENDBRANCH   1  25
TORSDOF 18
ENDMDL
MODEL 2
REMARK VINA RESULT:     -10.2      5.763     11.949
REMARK SMILES Cc1nc(-c2ccc(C(F)(F)F)cc2)nc(SCC(=O)OCCOC(=O)c2ccc(-c3c4nc(c(-c5c(F)cc(S(=O)(=O)[O-])cc5F)c5ccc([nH]5)c(-c5c(F)cc(S(=O)(=O)[O-])cc5F)c5nc(c(-c6c(F)cc(S(=O)(=O)[O-])cc6F)c6ccc3[nH]6)C=C5)C=C4)cc2)c1C
REMARK SMILES IDX 22 1 21 2 19 3 20 4 18 5 17 6 16 7 1 8 2 9 3 10 93 11 4 12
REMARK SMILES IDX 94 13 15 14 5 15 6 16 14 17 7 18 13 19 8 20 9 21 10 22 11 23
REMARK SMILES IDX 12 24 23 25 24 26 25 27 26 28 27 29 28 30 92 31 29 32 91 33
REMARK SMILES IDX 30 34 31 35 32 36 85 37 33 38 90 39 84 40 86 41 34 42 89 43
REMARK SMILES IDX 83 44 82 45 35 47 69 48 48 49 68 50 49 51 52 52 67 53 87 54
REMARK SMILES IDX 50 55 51 56 66 58 88 59 53 60 36 61 37 62 46 63 38 64 39 65
REMARK SMILES IDX 45 66 47 67 40 68 41 69 42 70 43 71 44 72 70 73 71 74 80 75
REMARK SMILES IDX 72 76 73 77 79 78 81 79 74 80 75 81 76 82 77 83 78 84 54 85
REMARK SMILES IDX 55 86 64 87 56 88 57 89 63 90 65 91 58 92 59 93 60 94 61 95
REMARK SMILES IDX 62 96
REMARK H PARENT 86 46 52 57
REMARK Flexibility Score: inf
ROOT
ATOM      1  C   UNL A   1      33.712  27.328  24.624  1.00  0.00     0.274 C 
ENDROOT
BRANCH   1   2
ATOM      2  O   UNL A   1      32.713  27.091  23.607  1.00  0.00    -0.461 OA
BRANCH   2   3
ATOM      3  C   UNL A   1      33.173  27.116  22.331  1.00  0.00     0.316 C 
ATOM      4  O   UNL A   1      34.089  27.843  21.950  1.00  0.00    -0.251 OA
BRANCH   3   5
ATOM      5  C   UNL A   1      32.409  26.277  21.338  1.00  0.00     0.199 C 
BRANCH   5   6
ATOM      6  S   UNL A   1      32.942  24.581  21.012  1.00  0.00    -0.094 SA
BRANCH   6   7
ATOM      7  C   UNL A   1      33.069  23.674  22.543  1.00  0.00     0.104 A 
ATOM      8  C   UNL A   1      31.558  21.748  25.419  1.00  0.00     0.067 C 
ATOM      9  C   UNL A   1      32.489  22.410  24.450  1.00  0.00     0.045 A 
ATOM     10  N   UNL A   1      33.779  22.113  24.666  1.00  0.00    -0.233 NA
ATOM     11  C   UNL A   1      32.077  23.282  23.439  1.00  0.00     0.003 A 
ATOM     12  C   UNL A   1      34.674  22.725  23.894  1.00  0.00     0.160 A 
ATOM     13  C   UNL A   1      30.687  23.817  23.418  1.00  0.00     0.049 C 
ATOM     14  N   UNL A   1      34.376  23.452  22.813  1.00  0.00    -0.221 NA
BRANCH  12  15
ATOM     15  C   UNL A   1      36.012  22.824  24.475  1.00  0.00     0.019 A 
ATOM     16  C   UNL A   1      36.871  21.715  24.510  1.00  0.00     0.012 A 
ATOM     17  C   UNL A   1      36.389  23.982  25.177  1.00  0.00     0.012 A 
ATOM     18  C   UNL A   1      38.057  21.752  25.248  1.00  0.00     0.014 A 
ATOM     19  C   UNL A   1      37.565  24.016  25.930  1.00  0.00     0.014 A 
ATOM     20  C   UNL A   1      38.403  22.894  25.986  1.00  0.00     0.056 A 
BRANCH  20  21
ATOM     21  C   UNL A   1      39.646  22.891  26.838  1.00  0.00     0.416 C 
ATOM     22  F   UNL A   1      39.496  23.592  27.997  1.00  0.00    -0.166 F 
ATOM     23  F   UNL A   1      40.010  21.631  27.214  1.00  0.00    -0.166 F 
ATOM     24  F   UNL A   1      40.739  23.420  26.219  1.00  0.00    -0.166 F 
ENDBRANCH  20  21
ENDBRANCH  12  15
ENDBRANCH   6   7
ENDBRANCH   5   6
ENDBRANCH   3   5
ENDBRANCH   2   3
ENDBRANCH   1   2
BRANCH   1  25
ATOM     25  C   UNL A   1      33.427  28.582  25.449  1.00  0.00     0.275 C 
BRANCH  25  26
ATOM     26  O   UNL A   1      34.196  28.580  26.664  1.00  0.00    -0.458 OA
BRANCH  26  27
ATOM     27  C   UNL A   1      34.468  29.802  27.175  1.00  0.00     0.338 C 
ATOM     28  O   UNL A   1      33.744  30.783  27.128  1.00  0.00    -0.246 OA
BRANCH  27  29
ATOM     29  C   UNL A   1      35.783  29.834  27.857  1.00  0.00     0.060 A 
ATOM     30  C   UNL A   1      36.960  30.176  27.187  1.00  0.00     0.016 A 
ATOM     31  C   UNL A   1      35.849  29.347  29.168  1.00  0.00     0.016 A 
ATOM     32  C   UNL A   1      38.197  29.907  27.781  1.00  0.00     0.010 A 
ATOM     33  C   UNL A   1      37.086  29.157  29.789  1.00  0.00     0.010 A 
ATOM     34  C   UNL A   1      38.276  29.398  29.090  1.00  0.00    -0.014 A 
BRANCH  34  35
ATOM     35  C   UNL A   1      39.589  29.157  29.750  1.00  0.00     0.031 A 
ATOM     36  C   UNL A   1      40.518  28.067  29.282  1.00  0.00     0.074 A 
ATOM     37  C   UNL A   1      39.937  29.913  30.808  1.00  0.00     0.049 A 
ATOM     38  N   UNL A   1      41.620  27.622  29.831  1.00  0.00    -0.248 NA
ATOM     39  C   UNL A   1      40.162  27.382  28.032  1.00  0.00     0.031 C 
ATOM     40  C   UNL A   1      39.142  31.016  31.354  1.00  0.00     0.029 A 
ATOM     41  N   UNL A   1      41.044  29.867  31.614  1.00  0.00    -0.354 N 
ATOM     42  C   UNL A   1      42.074  26.593  29.010  1.00  0.00     0.074 A 
ATOM     43  C   UNL A   1      41.125  26.475  27.924  1.00  0.00     0.031 C 
ATOM     44  C   UNL A   1      39.803  31.562  32.383  1.00  0.00     0.029 A 
ATOM     45  C   UNL A   1      41.024  30.800  32.621  1.00  0.00     0.049 A 
ATOM     46  H   UNL A   1      41.781  29.227  31.484  1.00  0.00     0.167 HD
ATOM     47  C   UNL A   1      43.177  25.818  29.152  1.00  0.00     0.037 A 
ATOM     48  C   UNL A   1      41.867  31.000  33.650  1.00  0.00     0.037 A 
ATOM     49  C   UNL A   1      44.130  25.951  30.224  1.00  0.00     0.049 A 
ATOM     50  C   UNL A   1      43.047  30.097  33.825  1.00  0.00     0.074 A 
ATOM     51  C   UNL A   1      45.289  25.226  30.443  1.00  0.00     0.029 A 
ATOM     52  N   UNL A   1      44.036  26.873  31.256  1.00  0.00    -0.354 N 
ATOM     53  N   UNL A   1      43.432  29.097  33.069  1.00  0.00    -0.248 NA
ATOM     54  C   UNL A   1      43.891  30.329  35.003  1.00  0.00     0.031 C 
ATOM     55  C   UNL A   1      45.880  25.690  31.625  1.00  0.00     0.029 A 
ATOM     56  C   UNL A   1      45.104  26.723  32.124  1.00  0.00     0.049 A 
ATOM     57  H   UNL A   1      43.315  27.536  31.357  1.00  0.00     0.167 HD
ATOM     58  C   UNL A   1      44.559  28.570  33.687  1.00  0.00     0.074 A 
ATOM     59  C   UNL A   1      44.805  29.377  34.867  1.00  0.00     0.031 C 
ATOM     60  C   UNL A   1      45.317  27.513  33.310  1.00  0.00     0.037 A 
BRANCH  47  61
ATOM     61  C   UNL A   1      43.414  24.737  28.133  1.00  0.00     0.058 A 
ATOM     62  C   UNL A   1      44.089  24.993  26.931  1.00  0.00     0.135 A 
ATOM     63  C   UNL A   1      43.025  23.413  28.399  1.00  0.00     0.135 A 
ATOM     64  F   UNL A   1      44.469  26.243  26.622  1.00  0.00    -0.206 F 
ATOM     65  C   UNL A   1      44.363  23.975  26.021  1.00  0.00     0.059 A 
ATOM     66  C   UNL A   1      43.303  22.378  27.511  1.00  0.00     0.059 A 
ATOM     67  F   UNL A   1      42.375  23.116  29.535  1.00  0.00    -0.206 F 
ATOM     68  C   UNL A   1      43.966  22.670  26.320  1.00  0.00     0.060 A 
BRANCH  68  69
ATOM     69  S   UNL A   1      44.351  21.355  25.143  1.00  0.00     0.124 S 
ATOM     70  O   UNL A   1      43.294  20.390  25.430  1.00  0.00    -0.237 OA
ATOM     71  O   UNL A   1      44.250  22.042  23.859  1.00  0.00    -0.237 OA
ATOM     72  O   UNL A   1      45.699  20.942  25.524  1.00  0.00    -0.744 OA
ENDBRANCH  68  69
ENDBRANCH  47  61
BRANCH  48  73
ATOM     73  C   UNL A   1      41.577  32.100  34.601  1.00  0.00     0.058 A 
ATOM     74  C   UNL A   1      41.995  33.407  34.325  1.00  0.00     0.135 A 
ATOM     75  C   UNL A   1      40.767  31.885  35.727  1.00  0.00     0.135 A 
ATOM     76  F   UNL A   1      42.772  33.654  33.261  1.00  0.00    -0.206 F 
ATOM     77  C   UNL A   1      41.593  34.476  35.120  1.00  0.00     0.059 A 
ATOM     78  C   UNL A   1      40.338  32.939  36.524  1.00  0.00     0.059 A 
ATOM     79  F   UNL A   1      40.329  30.649  36.015  1.00  0.00    -0.206 F 
ATOM     80  C   UNL A   1      40.751  34.233  36.207  1.00  0.00     0.060 A 
BRANCH  80  81
ATOM     81  S   UNL A   1      40.112  35.640  37.143  1.00  0.00     0.124 S 
ATOM     82  O   UNL A   1      41.263  35.992  37.965  1.00  0.00    -0.237 OA
ATOM     83  O   UNL A   1      39.767  36.586  36.086  1.00  0.00    -0.237 OA
ATOM     84  O   UNL A   1      38.971  35.071  37.858  1.00  0.00    -0.744 OA
ENDBRANCH  80  81
ENDBRANCH  48  73
BRANCH  60  85
ATOM     85  C   UNL A   1      46.473  27.158  34.195  1.00  0.00     0.058 A 
ATOM     86  C   UNL A   1      47.730  27.755  34.017  1.00  0.00     0.135 A 
ATOM     87  C   UNL A   1      46.320  26.237  35.243  1.00  0.00     0.135 A 
ATOM     88  F   UNL A   1      47.926  28.635  33.023  1.00  0.00    -0.206 F 
ATOM     89  C   UNL A   1      48.806  27.434  34.838  1.00  0.00     0.059 A 
ATOM     90  C   UNL A   1      47.378  25.914  36.086  1.00  0.00     0.059 A 
ATOM     91  F   UNL A   1      45.134  25.645  35.454  1.00  0.00    -0.206 F 
ATOM     92  C   UNL A   1      48.621  26.509  35.867  1.00  0.00     0.060 A 
BRANCH  92  93
ATOM     93  S   UNL A   1      50.021  26.109  36.935  1.00  0.00     0.124 S 
ATOM     94  O   UNL A   1      50.809  25.238  36.069  1.00  0.00    -0.237 OA
ATOM     95  O   UNL A   1      50.595  27.422  37.207  1.00  0.00    -0.237 OA
ATOM     96  O   UNL A   1      49.395  25.455  38.081  1.00  0.00    -0.744 OA
ENDBRANCH  92  93
ENDBRANCH  60  85
ENDBRANCH  34  35
ENDBRANCH  27  29
ENDBRANCH  26  27
ENDBRANCH  25  26
ENDBRANCH   1  25
TORSDOF 18
ENDMDL
MODEL 3
REMARK VINA RESULT:     -10.1      5.402     13.450
REMARK SMILES Cc1nc(-c2ccc(C(F)(F)F)cc2)nc(SCC(=O)OCCOC(=O)c2ccc(-c3c4nc(c(-c5c(F)cc(S(=O)(=O)[O-])cc5F)c5ccc([nH]5)c(-c5c(F)cc(S(=O)(=O)[O-])cc5F)c5nc(c(-c6c(F)cc(S(=O)(=O)[O-])cc6F)c6ccc3[nH]6)C=C5)C=C4)cc2)c1C
REMARK SMILES IDX 22 1 21 2 19 3 20 4 18 5 17 6 16 7 1 8 2 9 3 10 93 11 4 12
REMARK SMILES IDX 94 13 15 14 5 15 6 16 14 17 7 18 13 19 8 20 9 21 10 22 11 23
REMARK SMILES IDX 12 24 23 25 24 26 25 27 26 28 27 29 28 30 92 31 29 32 91 33
REMARK SMILES IDX 30 34 31 35 32 36 85 37 33 38 90 39 84 40 86 41 34 42 89 43
REMARK SMILES IDX 83 44 82 45 35 47 69 48 48 49 68 50 49 51 52 52 67 53 87 54
REMARK SMILES IDX 50 55 51 56 66 58 88 59 53 60 36 61 37 62 46 63 38 64 39 65
REMARK SMILES IDX 45 66 47 67 40 68 41 69 42 70 43 71 44 72 70 73 71 74 80 75
REMARK SMILES IDX 72 76 73 77 79 78 81 79 74 80 75 81 76 82 77 83 78 84 54 85
REMARK SMILES IDX 55 86 64 87 56 88 57 89 63 90 65 91 58 92 59 93 60 94 61 95
REMARK SMILES IDX 62 96
REMARK H PARENT 86 46 52 57
REMARK Flexibility Score: inf
ROOT
ATOM      1  C   UNL A   1      44.633  22.235  25.884  1.00  0.00     0.274 C 
ENDROOT
BRANCH   1   2
ATOM      2  O   UNL A   1      44.074  21.371  24.870  1.00  0.00    -0.461 OA
BRANCH   2   3
ATOM      3  C   UNL A   1      43.389  20.299  25.340  1.00  0.00     0.316 C 
ATOM      4  O   UNL A   1      43.478  19.169  24.863  1.00  0.00    -0.251 OA
BRANCH   3   5
ATOM      5  C   UNL A   1      42.388  20.583  26.432  1.00  0.00     0.199 C 
BRANCH   5   6
ATOM      6  S   UNL A   1      40.734  19.861  26.331  1.00  0.00    -0.094 SA
BRANCH   6   7
ATOM      7  C   UNL A   1      39.513  21.148  26.141  1.00  0.00     0.104 A 
ATOM      8  C   UNL A   1      36.040  22.358  25.282  1.00  0.00     0.067 C 
ATOM      9  C   UNL A   1      37.469  22.249  25.722  1.00  0.00     0.045 A 
ATOM     10  N   UNL A   1      37.933  23.367  26.297  1.00  0.00    -0.233 NA
ATOM     11  C   UNL A   1      38.264  21.117  25.526  1.00  0.00     0.003 A 
ATOM     12  C   UNL A   1      39.218  23.376  26.645  1.00  0.00     0.160 A 
ATOM     13  C   UNL A   1      37.813  20.017  24.628  1.00  0.00     0.049 C 
ATOM     14  N   UNL A   1      40.015  22.303  26.638  1.00  0.00    -0.221 NA
BRANCH  12  15
ATOM     15  C   UNL A   1      39.814  24.707  26.742  1.00  0.00     0.019 A 
ATOM     16  C   UNL A   1      39.305  25.666  27.630  1.00  0.00     0.012 A 
ATOM     17  C   UNL A   1      40.788  25.110  25.812  1.00  0.00     0.012 A 
ATOM     18  C   UNL A   1      39.734  26.995  27.571  1.00  0.00     0.014 A 
ATOM     19  C   UNL A   1      41.207  26.441  25.739  1.00  0.00     0.014 A 
ATOM     20  C   UNL A   1      40.671  27.400  26.608  1.00  0.00     0.056 A 
BRANCH  20  21
ATOM     21  C   UNL A   1      41.066  28.851  26.508  1.00  0.00     0.416 C 
ATOM     22  F   UNL A   1      40.023  29.700  26.723  1.00  0.00    -0.166 F 
ATOM     23  F   UNL A   1      42.015  29.191  27.427  1.00  0.00    -0.166 F 
ATOM     24  F   UNL A   1      41.587  29.197  25.297  1.00  0.00    -0.166 F 
ENDBRANCH  20  21
ENDBRANCH  12  15
ENDBRANCH   6   7
ENDBRANCH   5   6
ENDBRANCH   3   5
ENDBRANCH   2   3
ENDBRANCH   1   2
BRANCH   1  25
ATOM     25  C   UNL A   1      44.303  23.709  25.649  1.00  0.00     0.275 C 
BRANCH  25  26
ATOM     26  O   UNL A   1      44.055  24.381  26.896  1.00  0.00    -0.458 OA
BRANCH  26  27
ATOM     27  C   UNL A   1      44.395  25.690  26.922  1.00  0.00     0.338 C 
ATOM     28  O   UNL A   1      44.937  26.314  26.024  1.00  0.00    -0.246 OA
BRANCH  27  29
ATOM     29  C   UNL A   1      44.004  26.336  28.196  1.00  0.00     0.060 A 
ATOM     30  C   UNL A   1      43.000  25.816  29.016  1.00  0.00     0.016 A 
ATOM     31  C   UNL A   1      44.556  27.589  28.488  1.00  0.00     0.016 A 
ATOM     32  C   UNL A   1      42.465  26.605  30.040  1.00  0.00     0.010 A 
ATOM     33  C   UNL A   1      44.076  28.340  29.564  1.00  0.00     0.010 A 
ATOM     34  C   UNL A   1      42.998  27.874  30.328  1.00  0.00    -0.014 A 
BRANCH  34  35
ATOM     35  C   UNL A   1      42.470  28.700  31.449  1.00  0.00     0.031 A 
ATOM     36  C   UNL A   1      41.237  29.553  31.288  1.00  0.00     0.074 A 
ATOM     37  C   UNL A   1      43.128  28.706  32.623  1.00  0.00     0.049 A 
ATOM     38  N   UNL A   1      40.730  30.443  32.102  1.00  0.00    -0.248 NA
ATOM     39  C   UNL A   1      40.473  29.385  30.045  1.00  0.00     0.031 C 
ATOM     40  C   UNL A   1      44.322  27.913  32.924  1.00  0.00     0.029 A 
ATOM     41  N   UNL A   1      42.890  29.404  33.778  1.00  0.00    -0.354 N 
ATOM     42  C   UNL A   1      39.606  30.958  31.463  1.00  0.00     0.074 A 
ATOM     43  C   UNL A   1      39.505  30.282  30.186  1.00  0.00     0.031 C 
ATOM     44  C   UNL A   1      44.692  28.144  34.191  1.00  0.00     0.029 A 
ATOM     45  C   UNL A   1      43.814  29.158  34.764  1.00  0.00     0.049 A 
ATOM     46  H   UNL A   1      42.131  30.021  33.890  1.00  0.00     0.167 HD
ATOM     47  C   UNL A   1      38.742  31.906  31.898  1.00  0.00     0.037 A 
ATOM     48  C   UNL A   1      43.971  29.714  35.979  1.00  0.00     0.037 A 
ATOM     49  C   UNL A   1      38.835  32.563  33.177  1.00  0.00     0.049 A 
ATOM     50  C   UNL A   1      43.044  30.803  36.419  1.00  0.00     0.074 A 
ATOM     51  C   UNL A   1      37.996  33.524  33.716  1.00  0.00     0.029 A 
ATOM     52  N   UNL A   1      39.824  32.325  34.118  1.00  0.00    -0.354 N 
ATOM     53  N   UNL A   1      42.018  31.313  35.780  1.00  0.00    -0.248 NA
ATOM     54  C   UNL A   1      43.308  31.410  37.729  1.00  0.00     0.031 C 
ATOM     55  C   UNL A   1      38.497  33.888  34.973  1.00  0.00     0.029 A 
ATOM     56  C   UNL A   1      39.629  33.132  35.226  1.00  0.00     0.049 A 
ATOM     57  H   UNL A   1      40.559  31.677  34.014  1.00  0.00     0.167 HD
ATOM     58  C   UNL A   1      41.520  32.312  36.606  1.00  0.00     0.074 A 
ATOM     59  C   UNL A   1      42.344  32.319  37.800  1.00  0.00     0.031 C 
ATOM     60  C   UNL A   1      40.477  33.149  36.391  1.00  0.00     0.037 A 
BRANCH  47  61
ATOM     61  C   UNL A   1      37.622  32.315  30.980  1.00  0.00     0.058 A 
ATOM     62  C   UNL A   1      36.376  31.673  31.008  1.00  0.00     0.135 A 
ATOM     63  C   UNL A   1      37.777  33.410  30.113  1.00  0.00     0.135 A 
ATOM     64  F   UNL A   1      36.180  30.612  31.807  1.00  0.00    -0.206 F 
ATOM     65  C   UNL A   1      35.322  32.097  30.202  1.00  0.00     0.059 A 
ATOM     66  C   UNL A   1      36.732  33.860  29.311  1.00  0.00     0.059 A 
ATOM     67  F   UNL A   1      38.951  34.058  30.048  1.00  0.00    -0.206 F 
ATOM     68  C   UNL A   1      35.510  33.192  29.356  1.00  0.00     0.060 A 
BRANCH  68  69
ATOM     69  S   UNL A   1      34.128  33.747  28.336  1.00  0.00     0.124 S 
ATOM     70  O   UNL A   1      33.555  32.476  27.906  1.00  0.00    -0.237 OA
ATOM     71  O   UNL A   1      33.326  34.516  29.282  1.00  0.00    -0.237 OA
ATOM     72  O   UNL A   1      34.775  34.531  27.287  1.00  0.00    -0.744 OA
ENDBRANCH  68  69
ENDBRANCH  47  61
BRANCH  48  73
ATOM     73  C   UNL A   1      45.086  29.244  36.834  1.00  0.00     0.058 A 
ATOM     74  C   UNL A   1      46.272  29.983  36.927  1.00  0.00     0.135 A 
ATOM     75  C   UNL A   1      44.934  28.128  37.670  1.00  0.00     0.135 A 
ATOM     76  F   UNL A   1      46.458  31.055  36.143  1.00  0.00    -0.206 F 
ATOM     77  C   UNL A   1      47.262  29.648  37.844  1.00  0.00     0.059 A 
ATOM     78  C   UNL A   1      45.900  27.784  38.608  1.00  0.00     0.059 A 
ATOM     79  F   UNL A   1      43.804  27.404  37.627  1.00  0.00    -0.206 F 
ATOM     80  C   UNL A   1      47.058  28.557  38.692  1.00  0.00     0.060 A 
BRANCH  80  81
ATOM     81  S   UNL A   1      48.277  28.219  39.982  1.00  0.00     0.124 S 
ATOM     82  O   UNL A   1      47.462  27.550  40.988  1.00  0.00    -0.237 OA
ATOM     83  O   UNL A   1      49.246  27.380  39.282  1.00  0.00    -0.237 OA
ATOM     84  O   UNL A   1      48.759  29.551  40.339  1.00  0.00    -0.744 OA
ENDBRANCH  80  81
ENDBRANCH  48  73
BRANCH  60  85
ATOM     85  C   UNL A   1      40.180  34.153  37.464  1.00  0.00     0.058 A 
ATOM     86  C   UNL A   1      40.843  35.389  37.501  1.00  0.00     0.135 A 
ATOM     87  C   UNL A   1      39.211  33.892  38.444  1.00  0.00     0.135 A 
ATOM     88  F   UNL A   1      41.783  35.679  36.588  1.00  0.00    -0.206 F 
ATOM     89  C   UNL A   1      40.568  36.327  38.489  1.00  0.00     0.059 A 
ATOM     90  C   UNL A   1      38.909  34.823  39.433  1.00  0.00     0.059 A 
ATOM     91  F   UNL A   1      38.548  32.725  38.445  1.00  0.00    -0.206 F 
ATOM     92  C   UNL A   1      39.603  36.034  39.454  1.00  0.00     0.060 A 
BRANCH  92  93
ATOM     93  S   UNL A   1      39.245  37.263  40.726  1.00  0.00     0.124 S 
ATOM     94  O   UNL A   1      40.523  37.959  40.828  1.00  0.00    -0.237 OA
ATOM     95  O   UNL A   1      38.154  38.026  40.129  1.00  0.00    -0.237 OA
ATOM     96  O   UNL A   1      38.876  36.454  41.884  1.00  0.00    -0.744 OA
ENDBRANCH  92  93
ENDBRANCH  60  85
ENDBRANCH  34  35
ENDBRANCH  27  29
ENDBRANCH  26  27
ENDBRANCH  25  26
ENDBRANCH   1  25
TORSDOF 18
ENDMDL
