MODEL 1
REMARK VINA RESULT:     -10.7      0.000      0.000
REMARK SMILES O=C(OCCOC(=O)c1csc(S(=O)(=O)Nc2ccc(F)cc2)c1)c1ccc(-c2c3nc(c(-c4c(F)cc(S(=O)(=O)[O-])cc4F)c4ccc([nH]4)c(-c4c(F)cc(S(=O)(=O)[O-])cc4F)c4nc(c(-c5c(F)cc(S(=O)(=O)[O-])cc5F)c5ccc2[nH]5)C=C4)C=C3)cc1
REMARK SMILES IDX 4 1 3 2 2 3 1 4 25 5 26 6 90 7 27 8 89 9 28 10 29 11 30 12
REMARK SMILES IDX 83 13 31 14 88 15 82 16 84 17 32 18 87 19 81 20 80 21 33 23
REMARK SMILES IDX 67 24 46 25 66 26 47 27 50 28 65 29 85 30 48 31 49 32 64 34
REMARK SMILES IDX 86 35 51 36 34 37 35 38 44 39 36 40 37 41 43 42 45 43 38 44
REMARK SMILES IDX 39 45 40 46 41 47 42 48 68 49 69 50 78 51 70 52 71 53 77 54
REMARK SMILES IDX 79 55 72 56 73 57 74 58 75 59 76 60 52 61 53 62 62 63 54 64
REMARK SMILES IDX 55 65 61 66 63 67 56 68 57 69 58 70 59 71 60 72 5 73 6 74
REMARK SMILES IDX 7 75 8 76 9 77 10 78 24 79 11 80 12 81 13 82 14 83 15 84
REMARK SMILES IDX 16 85 17 87 18 88 23 89 19 90 22 91 20 92 21 93
REMARK H PARENT 84 22 50 33 16 86
REMARK Flexibility Score: inf
ROOT
ATOM      1  C   UNL A   1      39.677  20.513  26.115  1.00  0.00     0.275 C 
ENDROOT
BRANCH   1   2
ATOM      2  O   UNL A   1      39.875  21.933  25.967  1.00  0.00    -0.458 OA
BRANCH   2   3
ATOM      3  C   UNL A   1      39.057  22.955  26.306  1.00  0.00     0.338 C 
ATOM      4  O   UNL A   1      37.840  22.795  26.235  1.00  0.00    -0.246 OA
BRANCH   3   5
ATOM      5  C   UNL A   1      39.562  24.290  26.743  1.00  0.00     0.060 A 
ATOM      6  C   UNL A   1      40.242  25.201  25.936  1.00  0.00     0.016 A 
ATOM      7  C   UNL A   1      39.409  24.599  28.105  1.00  0.00     0.016 A 
ATOM      8  C   UNL A   1      40.677  26.428  26.455  1.00  0.00     0.010 A 
ATOM      9  C   UNL A   1      39.854  25.811  28.631  1.00  0.00     0.010 A 
ATOM     10  C   UNL A   1      40.490  26.737  27.806  1.00  0.00    -0.014 A 
BRANCH  10  11
ATOM     11  C   UNL A   1      41.065  27.972  28.381  1.00  0.00     0.031 A 
ATOM     12  C   UNL A   1      42.555  28.148  28.380  1.00  0.00     0.074 A 
ATOM     13  C   UNL A   1      40.259  28.921  28.890  1.00  0.00     0.049 A 
ATOM     14  N   UNL A   1      43.258  29.215  28.655  1.00  0.00    -0.248 NA
ATOM     15  C   UNL A   1      43.362  26.973  28.010  1.00  0.00     0.031 C 
ATOM     16  C   UNL A   1      38.805  28.821  28.994  1.00  0.00     0.029 A 
ATOM     17  N   UNL A   1      40.549  30.152  29.417  1.00  0.00    -0.354 N 
ATOM     18  C   UNL A   1      44.582  28.856  28.435  1.00  0.00     0.074 A 
ATOM     19  C   UNL A   1      44.593  27.452  28.090  1.00  0.00     0.031 C 
ATOM     20  C   UNL A   1      38.327  29.941  29.564  1.00  0.00     0.029 A 
ATOM     21  C   UNL A   1      39.438  30.849  29.832  1.00  0.00     0.049 A 
ATOM     22  H   UNL A   1      41.465  30.506  29.491  1.00  0.00     0.167 HD
ATOM     23  C   UNL A   1      45.681  29.643  28.471  1.00  0.00     0.037 A 
ATOM     24  C   UNL A   1      39.333  32.093  30.339  1.00  0.00     0.037 A 
ATOM     25  C   UNL A   1      45.654  31.025  28.868  1.00  0.00     0.049 A 
ATOM     26  C   UNL A   1      40.570  32.947  30.408  1.00  0.00     0.074 A 
ATOM     27  C   UNL A   1      46.699  31.926  28.945  1.00  0.00     0.029 A 
ATOM     28  N   UNL A   1      44.509  31.699  29.273  1.00  0.00    -0.354 N 
ATOM     29  N   UNL A   1      41.803  32.634  30.087  1.00  0.00    -0.248 NA
ATOM     30  C   UNL A   1      40.399  34.332  30.863  1.00  0.00     0.031 C 
ATOM     31  C   UNL A   1      46.190  33.140  29.423  1.00  0.00     0.029 A 
ATOM     32  C   UNL A   1      44.821  33.003  29.608  1.00  0.00     0.049 A 
ATOM     33  H   UNL A   1      43.608  31.306  29.316  1.00  0.00     0.167 HD
ATOM     34  C   UNL A   1      42.550  33.792  30.264  1.00  0.00     0.074 A 
ATOM     35  C   UNL A   1      41.628  34.813  30.723  1.00  0.00     0.031 C 
ATOM     36  C   UNL A   1      43.875  33.998  30.052  1.00  0.00     0.037 A 
BRANCH  23  37
ATOM     37  C   UNL A   1      46.979  29.020  28.041  1.00  0.00     0.058 A 
ATOM     38  C   UNL A   1      47.847  28.423  28.965  1.00  0.00     0.135 A 
ATOM     39  C   UNL A   1      47.351  28.999  26.685  1.00  0.00     0.135 A 
ATOM     40  F   UNL A   1      47.538  28.404  30.271  1.00  0.00    -0.206 F 
ATOM     41  C   UNL A   1      49.033  27.815  28.560  1.00  0.00     0.059 A 
ATOM     42  C   UNL A   1      48.522  28.382  26.256  1.00  0.00     0.059 A 
ATOM     43  F   UNL A   1      46.545  29.537  25.756  1.00  0.00    -0.206 F 
ATOM     44  C   UNL A   1      49.359  27.795  27.202  1.00  0.00     0.060 A 
BRANCH  44  45
ATOM     45  S   UNL A   1      50.855  26.927  26.680  1.00  0.00     0.124 S 
ATOM     46  O   UNL A   1      51.444  26.548  27.959  1.00  0.00    -0.237 OA
ATOM     47  O   UNL A   1      50.313  25.834  25.877  1.00  0.00    -0.237 OA
ATOM     48  O   UNL A   1      51.586  27.942  25.925  1.00  0.00    -0.744 OA
ENDBRANCH  44  45
ENDBRANCH  23  37
BRANCH  24  49
ATOM     49  C   UNL A   1      37.994  32.620  30.713  1.00  0.00     0.058 A 
ATOM     50  C   UNL A   1      37.197  33.304  29.783  1.00  0.00     0.135 A 
ATOM     51  C   UNL A   1      37.516  32.511  32.027  1.00  0.00     0.135 A 
ATOM     52  F   UNL A   1      37.612  33.444  28.515  1.00  0.00    -0.206 F 
ATOM     53  C   UNL A   1      35.984  33.881  30.147  1.00  0.00     0.059 A 
ATOM     54  C   UNL A   1      36.298  33.066  32.413  1.00  0.00     0.059 A 
ATOM     55  F   UNL A   1      38.241  31.863  32.952  1.00  0.00    -0.206 F 
ATOM     56  C   UNL A   1      35.548  33.766  31.469  1.00  0.00     0.060 A 
BRANCH  56  57
ATOM     57  S   UNL A   1      33.994  34.561  31.936  1.00  0.00     0.124 S 
ATOM     58  O   UNL A   1      34.472  35.819  32.502  1.00  0.00    -0.237 OA
ATOM     59  O   UNL A   1      33.302  34.662  30.657  1.00  0.00    -0.237 OA
ATOM     60  O   UNL A   1      33.410  33.627  32.893  1.00  0.00    -0.744 OA
ENDBRANCH  56  57
ENDBRANCH  24  49
BRANCH  36  61
ATOM     61  C   UNL A   1      44.403  35.383  30.283  1.00  0.00     0.058 A 
ATOM     62  C   UNL A   1      44.844  35.767  31.560  1.00  0.00     0.135 A 
ATOM     63  C   UNL A   1      44.394  36.351  29.268  1.00  0.00     0.135 A 
ATOM     64  F   UNL A   1      44.867  34.876  32.564  1.00  0.00    -0.206 F 
ATOM     65  C   UNL A   1      45.242  37.071  31.827  1.00  0.00     0.059 A 
ATOM     66  C   UNL A   1      44.808  37.657  29.508  1.00  0.00     0.059 A 
ATOM     67  F   UNL A   1      43.991  36.025  28.029  1.00  0.00    -0.206 F 
ATOM     68  C   UNL A   1      45.213  38.011  30.796  1.00  0.00     0.060 A 
BRANCH  68  69
ATOM     69  S   UNL A   1      45.737  39.700  31.154  1.00  0.00     0.124 S 
ATOM     70  O   UNL A   1      45.011  39.981  32.388  1.00  0.00    -0.237 OA
ATOM     71  O   UNL A   1      47.184  39.557  31.286  1.00  0.00    -0.237 OA
ATOM     72  O   UNL A   1      45.294  40.446  29.980  1.00  0.00    -0.744 OA
ENDBRANCH  68  69
ENDBRANCH  36  61
ENDBRANCH  10  11
ENDBRANCH   3   5
ENDBRANCH   2   3
ENDBRANCH   1   2
BRANCH   1  73
ATOM     73  C   UNL A   1      40.880  19.770  26.692  1.00  0.00     0.275 C 
BRANCH  73  74
ATOM     74  O   UNL A   1      41.502  18.911  25.725  1.00  0.00    -0.458 OA
BRANCH  74  75
ATOM     75  C   UNL A   1      42.735  18.425  26.059  1.00  0.00     0.339 C 
ATOM     76  O   UNL A   1      42.935  17.363  26.639  1.00  0.00    -0.246 OA
BRANCH  75  77
ATOM     77  C   UNL A   1      43.819  19.255  25.547  1.00  0.00     0.072 A 
ATOM     78  C   UNL A   1      45.083  18.795  25.237  1.00  0.00     0.082 A 
ATOM     79  C   UNL A   1      43.733  20.678  25.346  1.00  0.00     0.050 A 
ATOM     80  S   UNL A   1      46.142  20.057  24.774  1.00  0.00    -0.130 S 
ATOM     81  C   UNL A   1      44.953  21.261  25.060  1.00  0.00     0.141 A 
BRANCH  81  82
ATOM     82  S   UNL A   1      45.562  22.934  25.000  1.00  0.00     0.271 S 
ATOM     83  O   UNL A   1      46.854  22.896  25.653  1.00  0.00    -0.200 OA
ATOM     84  O   UNL A   1      45.426  23.359  23.624  1.00  0.00    -0.200 OA
BRANCH  82  85
ATOM     85  N   UNL A   1      44.598  23.999  25.902  1.00  0.00    -0.279 N 
ATOM     86  H   UNL A   1      44.236  24.816  25.486  1.00  0.00     0.180 HD
BRANCH  85  87
ATOM     87  C   UNL A   1      44.313  23.705  27.268  1.00  0.00     0.049 A 
ATOM     88  C   UNL A   1      45.253  23.826  28.294  1.00  0.00     0.030 A 
ATOM     89  C   UNL A   1      42.991  23.358  27.561  1.00  0.00     0.030 A 
ATOM     90  C   UNL A   1      44.873  23.533  29.609  1.00  0.00     0.041 A 
ATOM     91  C   UNL A   1      42.618  23.064  28.870  1.00  0.00     0.041 A 
ATOM     92  C   UNL A   1      43.564  23.150  29.884  1.00  0.00     0.123 A 
ATOM     93  F   UNL A   1      43.200  22.877  31.144  1.00  0.00    -0.207 F 
ENDBRANCH  85  87
ENDBRANCH  82  85
ENDBRANCH  81  82
ENDBRANCH  75  77
ENDBRANCH  74  75
ENDBRANCH  73  74
ENDBRANCH   1  73
TORSDOF 17
ENDMDL
MODEL 2
REMARK VINA RESULT:     -10.5      4.329     12.764
REMARK SMILES O=C(OCCOC(=O)c1csc(S(=O)(=O)Nc2ccc(F)cc2)c1)c1ccc(-c2c3nc(c(-c4c(F)cc(S(=O)(=O)[O-])cc4F)c4ccc([nH]4)c(-c4c(F)cc(S(=O)(=O)[O-])cc4F)c4nc(c(-c5c(F)cc(S(=O)(=O)[O-])cc5F)c5ccc2[nH]5)C=C4)C=C3)cc1
REMARK SMILES IDX 4 1 3 2 2 3 1 4 25 5 26 6 90 7 27 8 89 9 28 10 29 11 30 12
REMARK SMILES IDX 83 13 31 14 88 15 82 16 84 17 32 18 87 19 81 20 80 21 33 23
REMARK SMILES IDX 67 24 46 25 66 26 47 27 50 28 65 29 85 30 48 31 49 32 64 34
REMARK SMILES IDX 86 35 51 36 34 37 35 38 44 39 36 40 37 41 43 42 45 43 38 44
REMARK SMILES IDX 39 45 40 46 41 47 42 48 68 49 69 50 78 51 70 52 71 53 77 54
REMARK SMILES IDX 79 55 72 56 73 57 74 58 75 59 76 60 52 61 53 62 62 63 54 64
REMARK SMILES IDX 55 65 61 66 63 67 56 68 57 69 58 70 59 71 60 72 5 73 6 74
REMARK SMILES IDX 7 75 8 76 9 77 10 78 24 79 11 80 12 81 13 82 14 83 15 84
REMARK SMILES IDX 16 85 17 87 18 88 23 89 19 90 22 91 20 92 21 93
REMARK H PARENT 84 22 50 33 16 86
REMARK Flexibility Score: inf
ROOT
ATOM      1  C   UNL A   1      34.068  32.710  28.334  1.00  0.00     0.275 C 
ENDROOT
BRANCH   1   2
ATOM      2  O   UNL A   1      34.366  31.748  27.304  1.00  0.00    -0.458 OA
BRANCH   2   3
ATOM      3  C   UNL A   1      34.683  30.438  27.417  1.00  0.00     0.338 C 
ATOM      4  O   UNL A   1      33.902  29.595  26.981  1.00  0.00    -0.246 OA
BRANCH   3   5
ATOM      5  C   UNL A   1      35.935  29.958  28.073  1.00  0.00     0.060 A 
ATOM      6  C   UNL A   1      36.025  29.450  29.369  1.00  0.00     0.016 A 
ATOM      7  C   UNL A   1      37.124  30.122  27.343  1.00  0.00     0.016 A 
ATOM      8  C   UNL A   1      37.259  29.031  29.886  1.00  0.00     0.010 A 
ATOM      9  C   UNL A   1      38.356  29.723  27.859  1.00  0.00     0.010 A 
ATOM     10  C   UNL A   1      38.431  29.171  29.136  1.00  0.00    -0.014 A 
BRANCH  10  11
ATOM     11  C   UNL A   1      39.747  28.853  29.732  1.00  0.00     0.031 A 
ATOM     12  C   UNL A   1      40.205  29.625  30.935  1.00  0.00     0.074 A 
ATOM     13  C   UNL A   1      40.513  27.883  29.203  1.00  0.00     0.049 A 
ATOM     14  N   UNL A   1      41.221  29.393  31.723  1.00  0.00    -0.248 NA
ATOM     15  C   UNL A   1      39.410  30.807  31.306  1.00  0.00     0.031 C 
ATOM     16  C   UNL A   1      40.188  27.116  28.002  1.00  0.00     0.029 A 
ATOM     17  N   UNL A   1      41.721  27.377  29.605  1.00  0.00    -0.354 N 
ATOM     18  C   UNL A   1      41.151  30.363  32.715  1.00  0.00     0.074 A 
ATOM     19  C   UNL A   1      40.050  31.238  32.382  1.00  0.00     0.031 C 
ATOM     20  C   UNL A   1      41.180  26.244  27.754  1.00  0.00     0.029 A 
ATOM     21  C   UNL A   1      42.192  26.368  28.799  1.00  0.00     0.049 A 
ATOM     22  H   UNL A   1      42.207  27.706  30.396  1.00  0.00     0.167 HD
ATOM     23  C   UNL A   1      41.911  30.481  33.828  1.00  0.00     0.037 A 
ATOM     24  C   UNL A   1      43.300  25.609  28.916  1.00  0.00     0.037 A 
ATOM     25  C   UNL A   1      43.035  29.630  34.114  1.00  0.00     0.049 A 
ATOM     26  C   UNL A   1      44.157  25.773  30.141  1.00  0.00     0.074 A 
ATOM     27  C   UNL A   1      43.881  29.649  35.206  1.00  0.00     0.029 A 
ATOM     28  N   UNL A   1      43.477  28.612  33.278  1.00  0.00    -0.354 N 
ATOM     29  N   UNL A   1      44.017  26.620  31.134  1.00  0.00    -0.248 NA
ATOM     30  C   UNL A   1      45.294  24.856  30.288  1.00  0.00     0.031 C 
ATOM     31  C   UNL A   1      44.853  28.658  35.018  1.00  0.00     0.029 A 
ATOM     32  C   UNL A   1      44.588  27.998  33.826  1.00  0.00     0.049 A 
ATOM     33  H   UNL A   1      43.060  28.364  32.422  1.00  0.00     0.167 HD
ATOM     34  C   UNL A   1      45.022  26.313  32.042  1.00  0.00     0.074 A 
ATOM     35  C   UNL A   1      45.766  25.204  31.478  1.00  0.00     0.031 C 
ATOM     36  C   UNL A   1      45.298  26.887  33.241  1.00  0.00     0.037 A 
BRANCH  23  37
ATOM     37  C   UNL A   1      41.517  31.545  34.812  1.00  0.00     0.058 A 
ATOM     38  C   UNL A   1      40.536  31.316  35.786  1.00  0.00     0.135 A 
ATOM     39  C   UNL A   1      42.143  32.805  34.798  1.00  0.00     0.135 A 
ATOM     40  F   UNL A   1      39.912  30.129  35.853  1.00  0.00    -0.206 F 
ATOM     41  C   UNL A   1      40.196  32.291  36.720  1.00  0.00     0.059 A 
ATOM     42  C   UNL A   1      41.833  33.787  35.732  1.00  0.00     0.059 A 
ATOM     43  F   UNL A   1      43.107  33.069  33.900  1.00  0.00    -0.206 F 
ATOM     44  C   UNL A   1      40.855  33.523  36.689  1.00  0.00     0.060 A 
BRANCH  44  45
ATOM     45  S   UNL A   1      40.469  34.748  37.959  1.00  0.00     0.124 S 
ATOM     46  O   UNL A   1      41.773  34.961  38.576  1.00  0.00    -0.237 OA
ATOM     47  O   UNL A   1      39.949  35.860  37.167  1.00  0.00    -0.237 OA
ATOM     48  O   UNL A   1      39.480  34.069  38.791  1.00  0.00    -0.744 OA
ENDBRANCH  44  45
ENDBRANCH  23  37
BRANCH  24  49
ATOM     49  C   UNL A   1      43.584  24.567  27.894  1.00  0.00     0.058 A 
ATOM     50  C   UNL A   1      43.072  23.267  28.020  1.00  0.00     0.135 A 
ATOM     51  C   UNL A   1      44.430  24.832  26.808  1.00  0.00     0.135 A 
ATOM     52  F   UNL A   1      42.265  22.959  29.048  1.00  0.00    -0.206 F 
ATOM     53  C   UNL A   1      43.407  22.260  27.120  1.00  0.00     0.059 A 
ATOM     54  C   UNL A   1      44.767  23.846  25.883  1.00  0.00     0.059 A 
ATOM     55  F   UNL A   1      44.941  26.061  26.641  1.00  0.00    -0.206 F 
ATOM     56  C   UNL A   1      44.265  22.557  26.059  1.00  0.00     0.060 A 
BRANCH  56  57
ATOM     57  S   UNL A   1      44.728  21.228  24.926  1.00  0.00     0.124 S 
ATOM     58  O   UNL A   1      44.684  21.916  23.639  1.00  0.00    -0.237 OA
ATOM     59  O   UNL A   1      46.055  20.861  25.407  1.00  0.00    -0.237 OA
ATOM     60  O   UNL A   1      43.687  20.227  25.135  1.00  0.00    -0.744 OA
ENDBRANCH  56  57
ENDBRANCH  24  49
BRANCH  36  61
ATOM     61  C   UNL A   1      46.430  26.308  34.039  1.00  0.00     0.058 A 
ATOM     62  C   UNL A   1      46.190  25.269  34.952  1.00  0.00     0.135 A 
ATOM     63  C   UNL A   1      47.727  26.834  33.962  1.00  0.00     0.135 A 
ATOM     64  F   UNL A   1      44.962  24.736  35.063  1.00  0.00    -0.206 F 
ATOM     65  C   UNL A   1      47.196  24.783  35.777  1.00  0.00     0.059 A 
ATOM     66  C   UNL A   1      48.755  26.349  34.763  1.00  0.00     0.059 A 
ATOM     67  F   UNL A   1      48.005  27.821  33.095  1.00  0.00    -0.206 F 
ATOM     68  C   UNL A   1      48.475  25.334  35.680  1.00  0.00     0.060 A 
BRANCH  68  69
ATOM     69  S   UNL A   1      49.775  24.691  36.753  1.00  0.00     0.124 S 
ATOM     70  O   UNL A   1      49.298  25.093  38.072  1.00  0.00    -0.237 OA
ATOM     71  O   UNL A   1      49.733  23.259  36.471  1.00  0.00    -0.237 OA
ATOM     72  O   UNL A   1      50.972  25.379  36.280  1.00  0.00    -0.744 OA
ENDBRANCH  68  69
ENDBRANCH  36  61
ENDBRANCH  10  11
ENDBRANCH   3   5
ENDBRANCH   2   3
ENDBRANCH   1   2
BRANCH   1  73
ATOM     73  C   UNL A   1      33.299  33.935  27.843  1.00  0.00     0.275 C 
BRANCH  73  74
ATOM     74  O   UNL A   1      33.871  35.163  28.319  1.00  0.00    -0.458 OA
BRANCH  74  75
ATOM     75  C   UNL A   1      33.066  35.933  29.111  1.00  0.00     0.339 C 
ATOM     76  O   UNL A   1      32.067  36.528  28.723  1.00  0.00    -0.246 OA
BRANCH  75  77
ATOM     77  C   UNL A   1      33.457  35.887  30.515  1.00  0.00     0.072 A 
ATOM     78  C   UNL A   1      33.408  36.961  31.381  1.00  0.00     0.082 A 
ATOM     79  C   UNL A   1      33.996  34.727  31.175  1.00  0.00     0.050 A 
ATOM     80  S   UNL A   1      34.049  36.587  32.923  1.00  0.00    -0.130 S 
ATOM     81  C   UNL A   1      34.485  34.999  32.439  1.00  0.00     0.141 A 
BRANCH  81  82
ATOM     82  S   UNL A   1      35.500  34.120  33.610  1.00  0.00     0.271 S 
ATOM     83  O   UNL A   1      36.275  35.138  34.286  1.00  0.00    -0.200 OA
ATOM     84  O   UNL A   1      34.605  33.247  34.337  1.00  0.00    -0.200 OA
BRANCH  82  85
ATOM     85  N   UNL A   1      36.615  33.094  32.847  1.00  0.00    -0.279 N 
ATOM     86  H   UNL A   1      36.759  32.179  33.183  1.00  0.00     0.180 HD
BRANCH  85  87
ATOM     87  C   UNL A   1      37.342  33.564  31.714  1.00  0.00     0.049 A 
ATOM     88  C   UNL A   1      38.397  34.475  31.800  1.00  0.00     0.030 A 
ATOM     89  C   UNL A   1      37.001  32.997  30.483  1.00  0.00     0.030 A 
ATOM     90  C   UNL A   1      39.065  34.863  30.633  1.00  0.00     0.041 A 
ATOM     91  C   UNL A   1      37.665  33.387  29.324  1.00  0.00     0.041 A 
ATOM     92  C   UNL A   1      38.690  34.321  29.407  1.00  0.00     0.123 A 
ATOM     93  F   UNL A   1      39.335  34.688  28.292  1.00  0.00    -0.207 F 
ENDBRANCH  85  87
ENDBRANCH  82  85
ENDBRANCH  81  82
ENDBRANCH  75  77
ENDBRANCH  74  75
ENDBRANCH  73  74
ENDBRANCH   1  73
TORSDOF 17
ENDMDL
MODEL 3
REMARK VINA RESULT:     -10.5      3.344      8.669
REMARK SMILES O=C(OCCOC(=O)c1csc(S(=O)(=O)Nc2ccc(F)cc2)c1)c1ccc(-c2c3nc(c(-c4c(F)cc(S(=O)(=O)[O-])cc4F)c4ccc([nH]4)c(-c4c(F)cc(S(=O)(=O)[O-])cc4F)c4nc(c(-c5c(F)cc(S(=O)(=O)[O-])cc5F)c5ccc2[nH]5)C=C4)C=C3)cc1
REMARK SMILES IDX 4 1 3 2 2 3 1 4 25 5 26 6 90 7 27 8 89 9 28 10 29 11 30 12
REMARK SMILES IDX 83 13 31 14 88 15 82 16 84 17 32 18 87 19 81 20 80 21 33 23
REMARK SMILES IDX 67 24 46 25 66 26 47 27 50 28 65 29 85 30 48 31 49 32 64 34
REMARK SMILES IDX 86 35 51 36 34 37 35 38 44 39 36 40 37 41 43 42 45 43 38 44
REMARK SMILES IDX 39 45 40 46 41 47 42 48 68 49 69 50 78 51 70 52 71 53 77 54
REMARK SMILES IDX 79 55 72 56 73 57 74 58 75 59 76 60 52 61 53 62 62 63 54 64
REMARK SMILES IDX 55 65 61 66 63 67 56 68 57 69 58 70 59 71 60 72 5 73 6 74
REMARK SMILES IDX 7 75 8 76 9 77 10 78 24 79 11 80 12 81 13 82 14 83 15 84
REMARK SMILES IDX 16 85 17 87 18 88 23 89 19 90 22 91 20 92 21 93
REMARK H PARENT 84 22 50 33 16 86
REMARK Flexibility Score: inf
ROOT
ATOM      1  C   UNL A   1      39.695  21.024  25.972  1.00  0.00     0.275 C 
ENDROOT
BRANCH   1   2
ATOM      2  O   UNL A   1      40.027  22.415  26.148  1.00  0.00    -0.458 OA
BRANCH   2   3
ATOM      3  C   UNL A   1      39.210  23.484  26.275  1.00  0.00     0.338 C 
ATOM      4  O   UNL A   1      38.093  23.446  25.762  1.00  0.00    -0.246 OA
BRANCH   3   5
ATOM      5  C   UNL A   1      39.608  24.731  26.992  1.00  0.00     0.060 A 
ATOM      6  C   UNL A   1      40.421  25.738  26.473  1.00  0.00     0.016 A 
ATOM      7  C   UNL A   1      39.194  24.840  28.330  1.00  0.00     0.016 A 
ATOM      8  C   UNL A   1      40.736  26.868  27.241  1.00  0.00     0.010 A 
ATOM      9  C   UNL A   1      39.517  25.953  29.104  1.00  0.00     0.010 A 
ATOM     10  C   UNL A   1      40.290  26.978  28.563  1.00  0.00    -0.014 A 
BRANCH  10  11
ATOM     11  C   UNL A   1      40.732  28.105  29.412  1.00  0.00     0.031 A 
ATOM     12  C   UNL A   1      39.863  29.323  29.512  1.00  0.00     0.074 A 
ATOM     13  C   UNL A   1      41.892  28.028  30.088  1.00  0.00     0.049 A 
ATOM     14  N   UNL A   1      39.958  30.337  30.331  1.00  0.00    -0.248 NA
ATOM     15  C   UNL A   1      38.732  29.411  28.573  1.00  0.00     0.031 C 
ATOM     16  C   UNL A   1      42.837  26.915  30.013  1.00  0.00     0.029 A 
ATOM     17  N   UNL A   1      42.476  28.903  30.966  1.00  0.00    -0.354 N 
ATOM     18  C   UNL A   1      38.868  31.150  30.046  1.00  0.00     0.074 A 
ATOM     19  C   UNL A   1      38.176  30.560  28.922  1.00  0.00     0.031 C 
ATOM     20  C   UNL A   1      43.892  27.179  30.803  1.00  0.00     0.029 A 
ATOM     21  C   UNL A   1      43.679  28.463  31.465  1.00  0.00     0.049 A 
ATOM     22  H   UNL A   1      42.072  29.765  31.217  1.00  0.00     0.167 HD
ATOM     23  C   UNL A   1      38.458  32.262  30.697  1.00  0.00     0.037 A 
ATOM     24  C   UNL A   1      44.496  29.022  32.380  1.00  0.00     0.037 A 
ATOM     25  C   UNL A   1      39.190  32.862  31.780  1.00  0.00     0.049 A 
ATOM     26  C   UNL A   1      44.045  30.279  33.073  1.00  0.00     0.074 A 
ATOM     27  C   UNL A   1      38.879  33.987  32.520  1.00  0.00     0.029 A 
ATOM     28  N   UNL A   1      40.400  32.382  32.265  1.00  0.00    -0.354 N 
ATOM     29  N   UNL A   1      42.953  30.979  32.875  1.00  0.00    -0.248 NA
ATOM     30  C   UNL A   1      44.910  30.799  34.140  1.00  0.00     0.031 C 
ATOM     31  C   UNL A   1      39.916  34.204  33.435  1.00  0.00     0.029 A 
ATOM     32  C   UNL A   1      40.854  33.191  33.289  1.00  0.00     0.049 A 
ATOM     33  H   UNL A   1      40.867  31.584  31.928  1.00  0.00     0.167 HD
ATOM     34  C   UNL A   1      42.978  32.000  33.817  1.00  0.00     0.074 A 
ATOM     35  C   UNL A   1      44.197  31.827  34.583  1.00  0.00     0.031 C 
ATOM     36  C   UNL A   1      42.069  32.983  34.039  1.00  0.00     0.037 A 
BRANCH  23  37
ATOM     37  C   UNL A   1      37.151  32.863  30.263  1.00  0.00     0.058 A 
ATOM     38  C   UNL A   1      35.966  32.632  30.976  1.00  0.00     0.135 A 
ATOM     39  C   UNL A   1      37.083  33.697  29.133  1.00  0.00     0.135 A 
ATOM     40  F   UNL A   1      35.974  31.852  32.069  1.00  0.00    -0.206 F 
ATOM     41  C   UNL A   1      34.762  33.217  30.593  1.00  0.00     0.059 A 
ATOM     42  C   UNL A   1      35.895  34.307  28.743  1.00  0.00     0.059 A 
ATOM     43  F   UNL A   1      38.193  33.969  28.428  1.00  0.00    -0.206 F 
ATOM     44  C   UNL A   1      34.737  34.058  29.478  1.00  0.00     0.060 A 
BRANCH  44  45
ATOM     45  S   UNL A   1      33.189  34.881  29.043  1.00  0.00     0.124 S 
ATOM     46  O   UNL A   1      32.618  33.952  28.075  1.00  0.00    -0.237 OA
ATOM     47  O   UNL A   1      32.508  34.959  30.332  1.00  0.00    -0.237 OA
ATOM     48  O   UNL A   1      33.631  36.164  28.501  1.00  0.00    -0.744 OA
ENDBRANCH  44  45
ENDBRANCH  23  37
BRANCH  24  49
ATOM     49  C   UNL A   1      45.759  28.331  32.753  1.00  0.00     0.058 A 
ATOM     50  C   UNL A   1      46.918  28.465  31.974  1.00  0.00     0.135 A 
ATOM     51  C   UNL A   1      45.811  27.468  33.857  1.00  0.00     0.135 A 
ATOM     52  F   UNL A   1      46.917  29.271  30.901  1.00  0.00    -0.206 F 
ATOM     53  C   UNL A   1      48.077  27.751  32.262  1.00  0.00     0.059 A 
ATOM     54  C   UNL A   1      46.964  26.754  34.176  1.00  0.00     0.059 A 
ATOM     55  F   UNL A   1      44.729  27.309  34.635  1.00  0.00    -0.206 F 
ATOM     56  C   UNL A   1      48.087  26.889  33.359  1.00  0.00     0.060 A 
BRANCH  56  57
ATOM     57  S   UNL A   1      49.584  25.933  33.692  1.00  0.00     0.124 S 
ATOM     58  O   UNL A   1      49.578  25.884  35.151  1.00  0.00    -0.237 OA
ATOM     59  O   UNL A   1      49.303  24.674  33.012  1.00  0.00    -0.237 OA
ATOM     60  O   UNL A   1      50.642  26.743  33.097  1.00  0.00    -0.744 OA
ENDBRANCH  56  57
ENDBRANCH  24  49
BRANCH  36  61
ATOM     61  C   UNL A   1      42.339  33.929  35.173  1.00  0.00     0.058 A 
ATOM     62  C   UNL A   1      43.104  35.087  34.960  1.00  0.00     0.135 A 
ATOM     63  C   UNL A   1      41.914  33.648  36.480  1.00  0.00     0.135 A 
ATOM     64  F   UNL A   1      43.535  35.395  33.726  1.00  0.00    -0.206 F 
ATOM     65  C   UNL A   1      43.455  35.926  36.009  1.00  0.00     0.059 A 
ATOM     66  C   UNL A   1      42.237  34.485  37.543  1.00  0.00     0.059 A 
ATOM     67  F   UNL A   1      41.171  32.557  36.728  1.00  0.00    -0.206 F 
ATOM     68  C   UNL A   1      43.023  35.613  37.299  1.00  0.00     0.060 A 
BRANCH  68  69
ATOM     69  S   UNL A   1      43.482  36.713  38.653  1.00  0.00     0.124 S 
ATOM     70  O   UNL A   1      43.435  35.811  39.799  1.00  0.00    -0.237 OA
ATOM     71  O   UNL A   1      44.812  37.164  38.252  1.00  0.00    -0.237 OA
ATOM     72  O   UNL A   1      42.445  37.740  38.618  1.00  0.00    -0.744 OA
ENDBRANCH  68  69
ENDBRANCH  36  61
ENDBRANCH  10  11
ENDBRANCH   3   5
ENDBRANCH   2   3
ENDBRANCH   1   2
BRANCH   1  73
ATOM     73  C   UNL A   1      40.730  20.055  26.540  1.00  0.00     0.275 C 
BRANCH  73  74
ATOM     74  O   UNL A   1      41.313  19.225  25.525  1.00  0.00    -0.458 OA
BRANCH  74  75
ATOM     75  C   UNL A   1      42.520  18.662  25.829  1.00  0.00     0.339 C 
ATOM     76  O   UNL A   1      42.670  17.540  26.300  1.00  0.00    -0.246 OA
BRANCH  75  77
ATOM     77  C   UNL A   1      43.644  19.500  25.425  1.00  0.00     0.072 A 
ATOM     78  C   UNL A   1      44.899  19.028  25.096  1.00  0.00     0.082 A 
ATOM     79  C   UNL A   1      43.610  20.937  25.367  1.00  0.00     0.050 A 
ATOM     80  S   UNL A   1      46.010  20.290  24.783  1.00  0.00    -0.130 S 
ATOM     81  C   UNL A   1      44.856  21.501  25.165  1.00  0.00     0.141 A 
BRANCH  81  82
ATOM     82  S   UNL A   1      45.523  23.149  25.285  1.00  0.00     0.271 S 
ATOM     83  O   UNL A   1      46.760  23.009  26.024  1.00  0.00    -0.200 OA
ATOM     84  O   UNL A   1      45.504  23.686  23.942  1.00  0.00    -0.200 OA
BRANCH  82  85
ATOM     85  N   UNL A   1      44.529  24.177  26.199  1.00  0.00    -0.279 N 
ATOM     86  H   UNL A   1      44.135  24.981  25.788  1.00  0.00     0.180 HD
BRANCH  85  87
ATOM     87  C   UNL A   1      44.268  23.869  27.566  1.00  0.00     0.049 A 
ATOM     88  C   UNL A   1      45.190  24.080  28.593  1.00  0.00     0.030 A 
ATOM     89  C   UNL A   1      42.981  23.409  27.859  1.00  0.00     0.030 A 
ATOM     90  C   UNL A   1      44.834  23.764  29.910  1.00  0.00     0.041 A 
ATOM     91  C   UNL A   1      42.632  23.094  29.170  1.00  0.00     0.041 A 
ATOM     92  C   UNL A   1      43.563  23.269  30.185  1.00  0.00     0.123 A 
ATOM     93  F   UNL A   1      43.221  22.975  31.446  1.00  0.00    -0.207 F 
ENDBRANCH  85  87
ENDBRANCH  82  85
ENDBRANCH  81  82
ENDBRANCH  75  77
ENDBRANCH  74  75
ENDBRANCH  73  74
ENDBRANCH   1  73
TORSDOF 17
ENDMDL
