MODEL 1
REMARK VINA RESULT:      -9.9      0.000      0.000
REMARK SMILES C=CCN(CC(=O)OCCOC(=O)c1ccc(-c2c3nc(c(-c4c(F)cc(S(=O)(=O)[O-])cc4F)c4ccc([nH]4)c(-c4c(F)cc(S(=O)(=O)[O-])cc4F)c4nc(c(-c5c(F)cc(S(=O)(=O)[O-])cc5F)c5ccc2[nH]5)C=C4)C=C3)cc1)C(=O)c1sc(N)nc1C
REMARK SMILES IDX 9 1 8 2 6 3 7 4 5 5 4 6 3 7 2 8 1 9 80 10 81 11 82 12 83 13
REMARK SMILES IDX 87 14 84 15 86 16 88 17 85 18 10 21 11 22 12 23 13 24 14 25
REMARK SMILES IDX 15 26 79 27 16 28 78 29 17 30 18 31 19 32 72 33 20 34 77 35
REMARK SMILES IDX 71 36 73 37 21 38 76 39 70 40 69 41 22 43 56 44 35 45 55 46
REMARK SMILES IDX 36 47 39 48 54 49 74 50 37 51 38 52 53 54 75 55 40 56 23 57
REMARK SMILES IDX 24 58 33 59 25 60 26 61 32 62 34 63 27 64 28 65 29 66 30 67
REMARK SMILES IDX 31 68 57 69 58 70 67 71 59 72 60 73 66 74 68 75 61 76 62 77
REMARK SMILES IDX 63 78 64 79 65 80 41 81 42 82 51 83 43 84 44 85 50 86 52 87
REMARK SMILES IDX 45 88 46 89 47 90 48 91 49 92
REMARK H PARENT 85 19 85 20 73 42 39 53
REMARK Flexibility Score: inf
ROOT
ATOM      1  C   UNL A   1      33.722  31.605  27.347  1.00  0.00     0.274 C 
ENDROOT
BRANCH   1   2
ATOM      2  O   UNL A   1      32.737  30.544  27.249  1.00  0.00    -0.461 OA
BRANCH   2   3
ATOM      3  C   UNL A   1      31.953  30.579  26.138  1.00  0.00     0.325 C 
ATOM      4  O   UNL A   1      31.052  31.399  25.970  1.00  0.00    -0.250 OA
BRANCH   3   5
ATOM      5  C   UNL A   1      32.386  29.641  25.000  1.00  0.00     0.242 C 
BRANCH   5   6
ATOM      6  N   UNL A   1      31.716  28.361  24.750  1.00  0.00    -0.323 N 
BRANCH   6   7
ATOM      7  C   UNL A   1      31.401  27.564  25.925  1.00  0.00     0.147 C 
BRANCH   7   8
ATOM      8  C   UNL A   1      32.684  27.054  26.523  1.00  0.00    -0.014 C 
ATOM      9  C   UNL A   1      33.555  26.270  25.872  1.00  0.00     0.006 C 
ENDBRANCH   7   8
ENDBRANCH   6   7
BRANCH   6  10
ATOM     10  C   UNL A   1      31.261  27.878  23.511  1.00  0.00     0.266 C 
ATOM     11  O   UNL A   1      30.214  28.319  23.028  1.00  0.00    -0.268 OA
BRANCH  10  12
ATOM     12  C   UNL A   1      31.950  26.806  22.832  1.00  0.00     0.117 A 
ATOM     13  S   UNL A   1      31.420  25.179  22.841  1.00  0.00    -0.092 S 
ATOM     14  C   UNL A   1      33.201  26.883  22.244  1.00  0.00     0.063 A 
ATOM     15  C   UNL A   1      32.835  24.724  21.969  1.00  0.00     0.180 A 
ATOM     16  N   UNL A   1      33.697  25.685  21.753  1.00  0.00    -0.225 NA
ATOM     17  C   UNL A   1      33.976  28.129  22.022  1.00  0.00     0.068 C 
BRANCH  15  18
ATOM     18  N   UNL A   1      33.044  23.471  21.551  1.00  0.00    -0.375 N 
ATOM     19  H   UNL A   1      32.415  22.757  21.803  1.00  0.00     0.159 HD
ATOM     20  H   UNL A   1      33.826  23.263  20.991  1.00  0.00     0.159 HD
ENDBRANCH  15  18
ENDBRANCH  10  12
ENDBRANCH   6  10
ENDBRANCH   5   6
ENDBRANCH   3   5
ENDBRANCH   2   3
ENDBRANCH   1   2
BRANCH   1  21
ATOM     21  C   UNL A   1      34.505  31.607  28.678  1.00  0.00     0.275 C 
BRANCH  21  22
ATOM     22  O   UNL A   1      35.535  30.596  28.750  1.00  0.00    -0.458 OA
BRANCH  22  23
ATOM     23  C   UNL A   1      36.312  30.748  29.839  1.00  0.00     0.338 C 
ATOM     24  O   UNL A   1      35.900  31.078  30.942  1.00  0.00    -0.246 OA
BRANCH  23  25
ATOM     25  C   UNL A   1      37.715  30.389  29.684  1.00  0.00     0.060 A 
ATOM     26  C   UNL A   1      38.222  30.249  28.388  1.00  0.00     0.016 A 
ATOM     27  C   UNL A   1      38.428  29.917  30.787  1.00  0.00     0.016 A 
ATOM     28  C   UNL A   1      39.448  29.628  28.186  1.00  0.00     0.010 A 
ATOM     29  C   UNL A   1      39.683  29.342  30.589  1.00  0.00     0.010 A 
ATOM     30  C   UNL A   1      40.200  29.204  29.289  1.00  0.00    -0.014 A 
BRANCH  30  31
ATOM     31  C   UNL A   1      41.623  28.848  29.103  1.00  0.00     0.031 A 
ATOM     32  C   UNL A   1      42.718  29.862  29.179  1.00  0.00     0.074 A 
ATOM     33  C   UNL A   1      41.875  27.561  28.804  1.00  0.00     0.049 A 
ATOM     34  N   UNL A   1      43.977  29.733  28.853  1.00  0.00    -0.248 NA
ATOM     35  C   UNL A   1      42.360  31.194  29.684  1.00  0.00     0.031 C 
ATOM     36  C   UNL A   1      40.859  26.503  28.742  1.00  0.00     0.029 A 
ATOM     37  N   UNL A   1      43.039  26.927  28.469  1.00  0.00    -0.354 N 
ATOM     38  C   UNL A   1      44.564  30.967  29.096  1.00  0.00     0.074 A 
ATOM     39  C   UNL A   1      43.518  31.841  29.589  1.00  0.00     0.031 C 
ATOM     40  C   UNL A   1      41.440  25.359  28.363  1.00  0.00     0.029 A 
ATOM     41  C   UNL A   1      42.848  25.617  28.100  1.00  0.00     0.049 A 
ATOM     42  H   UNL A   1      43.921  27.363  28.492  1.00  0.00     0.167 HD
ATOM     43  C   UNL A   1      45.861  31.321  28.919  1.00  0.00     0.037 A 
ATOM     44  C   UNL A   1      43.701  24.737  27.550  1.00  0.00     0.037 A 
ATOM     45  C   UNL A   1      46.878  30.413  28.446  1.00  0.00     0.049 A 
ATOM     46  C   UNL A   1      45.110  25.170  27.301  1.00  0.00     0.074 A 
ATOM     47  C   UNL A   1      48.232  30.642  28.275  1.00  0.00     0.029 A 
ATOM     48  N   UNL A   1      46.647  29.097  28.061  1.00  0.00    -0.354 N 
ATOM     49  N   UNL A   1      45.656  26.340  27.532  1.00  0.00    -0.248 NA
ATOM     50  C   UNL A   1      46.015  24.177  26.717  1.00  0.00     0.031 C 
ATOM     51  C   UNL A   1      48.812  29.479  27.755  1.00  0.00     0.029 A 
ATOM     52  C   UNL A   1      47.826  28.512  27.630  1.00  0.00     0.049 A 
ATOM     53  H   UNL A   1      45.772  28.646  28.092  1.00  0.00     0.167 HD
ATOM     54  C   UNL A   1      46.975  26.227  27.121  1.00  0.00     0.074 A 
ATOM     55  C   UNL A   1      47.146  24.868  26.643  1.00  0.00     0.031 C 
ATOM     56  C   UNL A   1      47.956  27.162  27.140  1.00  0.00     0.037 A 
BRANCH  43  57
ATOM     57  C   UNL A   1      46.260  32.741  29.218  1.00  0.00     0.058 A 
ATOM     58  C   UNL A   1      46.264  33.734  28.227  1.00  0.00     0.135 A 
ATOM     59  C   UNL A   1      46.579  33.127  30.531  1.00  0.00     0.135 A 
ATOM     60  F   UNL A   1      45.976  33.420  26.955  1.00  0.00    -0.206 F 
ATOM     61  C   UNL A   1      46.584  35.058  28.523  1.00  0.00     0.059 A 
ATOM     62  C   UNL A   1      46.885  34.448  30.854  1.00  0.00     0.059 A 
ATOM     63  F   UNL A   1      46.590  32.219  31.519  1.00  0.00    -0.206 F 
ATOM     64  C   UNL A   1      46.896  35.404  29.840  1.00  0.00     0.060 A 
BRANCH  64  65
ATOM     65  S   UNL A   1      47.298  37.126  30.213  1.00  0.00     0.124 S 
ATOM     66  O   UNL A   1      46.077  37.572  30.878  1.00  0.00    -0.237 OA
ATOM     67  O   UNL A   1      48.473  36.997  31.069  1.00  0.00    -0.237 OA
ATOM     68  O   UNL A   1      47.546  37.710  28.898  1.00  0.00    -0.744 OA
ENDBRANCH  64  65
ENDBRANCH  43  57
BRANCH  44  69
ATOM     69  C   UNL A   1      43.198  23.394  27.172  1.00  0.00     0.058 A 
ATOM     70  C   UNL A   1      43.004  23.050  25.830  1.00  0.00     0.135 A 
ATOM     71  C   UNL A   1      43.018  22.395  28.144  1.00  0.00     0.135 A 
ATOM     72  F   UNL A   1      43.171  23.972  24.870  1.00  0.00    -0.206 F 
ATOM     73  C   UNL A   1      42.660  21.755  25.458  1.00  0.00     0.059 A 
ATOM     74  C   UNL A   1      42.694  21.090  27.795  1.00  0.00     0.059 A 
ATOM     75  F   UNL A   1      43.221  22.675  29.442  1.00  0.00    -0.206 F 
ATOM     76  C   UNL A   1      42.516  20.779  26.448  1.00  0.00     0.060 A 
BRANCH  76  77
ATOM     77  S   UNL A   1      42.172  19.078  25.950  1.00  0.00     0.124 S 
ATOM     78  O   UNL A   1      42.574  18.338  27.140  1.00  0.00    -0.237 OA
ATOM     79  O   UNL A   1      40.739  19.118  25.675  1.00  0.00    -0.237 OA
ATOM     80  O   UNL A   1      43.020  18.897  24.775  1.00  0.00    -0.744 OA
ENDBRANCH  76  77
ENDBRANCH  44  69
BRANCH  56  81
ATOM     81  C   UNL A   1      49.295  26.733  26.623  1.00  0.00     0.058 A 
ATOM     82  C   UNL A   1      50.197  26.034  27.441  1.00  0.00     0.135 A 
ATOM     83  C   UNL A   1      49.668  26.998  25.298  1.00  0.00     0.135 A 
ATOM     84  F   UNL A   1      49.887  25.773  28.720  1.00  0.00    -0.206 F 
ATOM     85  C   UNL A   1      51.435  25.624  26.962  1.00  0.00     0.059 A 
ATOM     86  C   UNL A   1      50.894  26.581  24.792  1.00  0.00     0.059 A 
ATOM     87  F   UNL A   1      48.835  27.662  24.481  1.00  0.00    -0.206 F 
ATOM     88  C   UNL A   1      51.775  25.903  25.636  1.00  0.00     0.060 A 
BRANCH  88  89
ATOM     89  S   UNL A   1      53.372  25.340  25.014  1.00  0.00     0.124 S 
ATOM     90  O   UNL A   1      53.446  23.995  25.576  1.00  0.00    -0.237 OA
ATOM     91  O   UNL A   1      53.191  25.412  23.568  1.00  0.00    -0.237 OA
ATOM     92  O   UNL A   1      54.312  26.307  25.572  1.00  0.00    -0.744 OA
ENDBRANCH  88  89
ENDBRANCH  56  81
ENDBRANCH  30  31
ENDBRANCH  23  25
ENDBRANCH  22  23
ENDBRANCH  21  22
ENDBRANCH   1  21
TORSDOF 20
ENDMDL
MODEL 2
REMARK VINA RESULT:      -9.9      2.388      3.237
REMARK SMILES C=CCN(CC(=O)OCCOC(=O)c1ccc(-c2c3nc(c(-c4c(F)cc(S(=O)(=O)[O-])cc4F)c4ccc([nH]4)c(-c4c(F)cc(S(=O)(=O)[O-])cc4F)c4nc(c(-c5c(F)cc(S(=O)(=O)[O-])cc5F)c5ccc2[nH]5)C=C4)C=C3)cc1)C(=O)c1sc(N)nc1C
REMARK SMILES IDX 9 1 8 2 6 3 7 4 5 5 4 6 3 7 2 8 1 9 80 10 81 11 82 12 83 13
REMARK SMILES IDX 87 14 84 15 86 16 88 17 85 18 10 21 11 22 12 23 13 24 14 25
REMARK SMILES IDX 15 26 79 27 16 28 78 29 17 30 18 31 19 32 72 33 20 34 77 35
REMARK SMILES IDX 71 36 73 37 21 38 76 39 70 40 69 41 22 43 56 44 35 45 55 46
REMARK SMILES IDX 36 47 39 48 54 49 74 50 37 51 38 52 53 54 75 55 40 56 23 57
REMARK SMILES IDX 24 58 33 59 25 60 26 61 32 62 34 63 27 64 28 65 29 66 30 67
REMARK SMILES IDX 31 68 57 69 58 70 67 71 59 72 60 73 66 74 68 75 61 76 62 77
REMARK SMILES IDX 63 78 64 79 65 80 41 81 42 82 51 83 43 84 44 85 50 86 52 87
REMARK SMILES IDX 45 88 46 89 47 90 48 91 49 92
REMARK H PARENT 85 19 85 20 73 42 39 53
REMARK Flexibility Score: inf
ROOT
ATOM      1  C   UNL A   1      32.006  28.573  26.056  1.00  0.00     0.274 C 
ENDROOT
BRANCH   1   2
ATOM      2  O   UNL A   1      32.981  27.857  25.254  1.00  0.00    -0.461 OA
BRANCH   2   3
ATOM      3  C   UNL A   1      33.255  26.591  25.667  1.00  0.00     0.325 C 
ATOM      4  O   UNL A   1      34.388  26.195  25.935  1.00  0.00    -0.250 OA
BRANCH   3   5
ATOM      5  C   UNL A   1      32.025  25.720  25.969  1.00  0.00     0.242 C 
BRANCH   5   6
ATOM      6  N   UNL A   1      31.590  24.650  25.065  1.00  0.00    -0.323 N 
BRANCH   6   7
ATOM      7  C   UNL A   1      31.993  23.301  25.430  1.00  0.00     0.147 C 
BRANCH   7   8
ATOM      8  C   UNL A   1      31.326  22.930  26.727  1.00  0.00    -0.014 C 
ATOM      9  C   UNL A   1      30.001  22.964  26.925  1.00  0.00     0.006 C 
ENDBRANCH   7   8
ENDBRANCH   6   7
BRANCH   6  10
ATOM     10  C   UNL A   1      30.747  24.783  23.948  1.00  0.00     0.266 C 
ATOM     11  O   UNL A   1      30.392  23.779  23.325  1.00  0.00    -0.268 OA
BRANCH  10  12
ATOM     12  C   UNL A   1      30.359  26.086  23.460  1.00  0.00     0.117 A 
ATOM     13  S   UNL A   1      28.854  26.823  23.808  1.00  0.00    -0.092 S 
ATOM     14  C   UNL A   1      31.037  26.839  22.517  1.00  0.00     0.063 A 
ATOM     15  C   UNL A   1      29.267  28.134  22.769  1.00  0.00     0.180 A 
ATOM     16  N   UNL A   1      30.403  28.009  22.129  1.00  0.00    -0.225 NA
ATOM     17  C   UNL A   1      32.391  26.543  21.985  1.00  0.00     0.068 C 
BRANCH  15  18
ATOM     18  N   UNL A   1      28.477  29.201  22.617  1.00  0.00    -0.375 N 
ATOM     19  H   UNL A   1      27.498  29.093  22.619  1.00  0.00     0.159 HD
ATOM     20  H   UNL A   1      28.872  30.094  22.503  1.00  0.00     0.159 HD
ENDBRANCH  15  18
ENDBRANCH  10  12
ENDBRANCH   6  10
ENDBRANCH   5   6
ENDBRANCH   3   5
ENDBRANCH   2   3
ENDBRANCH   1   2
BRANCH   1  21
ATOM     21  C   UNL A   1      32.619  29.685  26.935  1.00  0.00     0.275 C 
BRANCH  21  22
ATOM     22  O   UNL A   1      33.835  29.292  27.609  1.00  0.00    -0.458 OA
BRANCH  22  23
ATOM     23  C   UNL A   1      34.535  30.356  28.043  1.00  0.00     0.338 C 
ATOM     24  O   UNL A   1      34.055  31.460  28.256  1.00  0.00    -0.246 OA
BRANCH  23  25
ATOM     25  C   UNL A   1      35.935  30.117  28.369  1.00  0.00     0.060 A 
ATOM     26  C   UNL A   1      36.863  30.101  27.322  1.00  0.00     0.016 A 
ATOM     27  C   UNL A   1      36.272  29.629  29.632  1.00  0.00     0.016 A 
ATOM     28  C   UNL A   1      38.137  29.591  27.533  1.00  0.00     0.010 A 
ATOM     29  C   UNL A   1      37.568  29.166  29.858  1.00  0.00     0.010 A 
ATOM     30  C   UNL A   1      38.507  29.153  28.812  1.00  0.00    -0.014 A 
BRANCH  30  31
ATOM     31  C   UNL A   1      39.935  28.921  29.114  1.00  0.00     0.031 A 
ATOM     32  C   UNL A   1      40.834  30.005  29.613  1.00  0.00     0.074 A 
ATOM     33  C   UNL A   1      40.398  27.684  28.861  1.00  0.00     0.049 A 
ATOM     34  N   UNL A   1      42.135  29.996  29.739  1.00  0.00    -0.248 NA
ATOM     35  C   UNL A   1      40.198  31.263  30.024  1.00  0.00     0.031 C 
ATOM     36  C   UNL A   1      39.572  26.561  28.401  1.00  0.00     0.029 A 
ATOM     37  N   UNL A   1      41.661  27.166  28.922  1.00  0.00    -0.354 N 
ATOM     38  C   UNL A   1      42.482  31.249  30.228  1.00  0.00     0.074 A 
ATOM     39  C   UNL A   1      41.250  32.000  30.368  1.00  0.00     0.031 C 
ATOM     40  C   UNL A   1      40.355  25.495  28.193  1.00  0.00     0.029 A 
ATOM     41  C   UNL A   1      41.736  25.878  28.448  1.00  0.00     0.049 A 
ATOM     42  H   UNL A   1      42.436  27.664  29.270  1.00  0.00     0.167 HD
ATOM     43  C   UNL A   1      43.720  31.711  30.529  1.00  0.00     0.037 A 
ATOM     44  C   UNL A   1      42.807  25.110  28.187  1.00  0.00     0.037 A 
ATOM     45  C   UNL A   1      44.920  30.921  30.395  1.00  0.00     0.049 A 
ATOM     46  C   UNL A   1      44.166  25.665  28.463  1.00  0.00     0.074 A 
ATOM     47  C   UNL A   1      46.222  31.263  30.716  1.00  0.00     0.029 A 
ATOM     48  N   UNL A   1      44.963  29.626  29.894  1.00  0.00    -0.354 N 
ATOM     49  N   UNL A   1      44.485  26.851  28.924  1.00  0.00    -0.248 NA
ATOM     50  C   UNL A   1      45.309  24.791  28.184  1.00  0.00     0.031 C 
ATOM     51  C   UNL A   1      47.055  30.191  30.375  1.00  0.00     0.029 A 
ATOM     52  C   UNL A   1      46.269  29.166  29.871  1.00  0.00     0.049 A 
ATOM     53  H   UNL A   1      44.179  29.109  29.597  1.00  0.00     0.167 HD
ATOM     54  C   UNL A   1      45.869  26.870  28.992  1.00  0.00     0.074 A 
ATOM     55  C   UNL A   1      46.324  25.568  28.539  1.00  0.00     0.031 C 
ATOM     56  C   UNL A   1      46.689  27.871  29.394  1.00  0.00     0.037 A 
BRANCH  43  57
ATOM     57  C   UNL A   1      43.853  33.129  31.014  1.00  0.00     0.058 A 
ATOM     58  C   UNL A   1      43.892  34.215  30.127  1.00  0.00     0.135 A 
ATOM     59  C   UNL A   1      43.875  33.409  32.391  1.00  0.00     0.135 A 
ATOM     60  F   UNL A   1      43.884  34.006  28.802  1.00  0.00    -0.206 F 
ATOM     61  C   UNL A   1      43.963  35.530  30.586  1.00  0.00     0.059 A 
ATOM     62  C   UNL A   1      43.927  34.716  32.874  1.00  0.00     0.059 A 
ATOM     63  F   UNL A   1      43.838  32.409  33.284  1.00  0.00    -0.206 F 
ATOM     64  C   UNL A   1      43.982  35.769  31.962  1.00  0.00     0.060 A 
BRANCH  64  65
ATOM     65  S   UNL A   1      44.062  37.477  32.546  1.00  0.00     0.124 S 
ATOM     66  O   UNL A   1      42.970  37.505  33.514  1.00  0.00    -0.237 OA
ATOM     67  O   UNL A   1      45.407  37.557  33.106  1.00  0.00    -0.237 OA
ATOM     68  O   UNL A   1      43.846  38.261  31.333  1.00  0.00    -0.744 OA
ENDBRANCH  64  65
ENDBRANCH  43  57
BRANCH  44  69
ATOM     69  C   UNL A   1      42.595  23.767  27.596  1.00  0.00     0.058 A 
ATOM     70  C   UNL A   1      42.714  23.561  26.216  1.00  0.00     0.135 A 
ATOM     71  C   UNL A   1      42.390  22.645  28.417  1.00  0.00     0.135 A 
ATOM     72  F   UNL A   1      42.918  24.604  25.398  1.00  0.00    -0.206 F 
ATOM     73  C   UNL A   1      42.649  22.285  25.667  1.00  0.00     0.059 A 
ATOM     74  C   UNL A   1      42.341  21.359  27.893  1.00  0.00     0.059 A 
ATOM     75  F   UNL A   1      42.298  22.793  29.748  1.00  0.00    -0.206 F 
ATOM     76  C   UNL A   1      42.471  21.189  26.515  1.00  0.00     0.060 A 
BRANCH  76  77
ATOM     77  S   UNL A   1      42.493  19.528  25.807  1.00  0.00     0.124 S 
ATOM     78  O   UNL A   1      42.915  18.728  26.950  1.00  0.00    -0.237 OA
ATOM     79  O   UNL A   1      41.107  19.354  25.381  1.00  0.00    -0.237 OA
ATOM     80  O   UNL A   1      43.461  19.642  24.720  1.00  0.00    -0.744 OA
ENDBRANCH  76  77
ENDBRANCH  44  69
BRANCH  56  81
ATOM     81  C   UNL A   1      48.160  27.584  29.354  1.00  0.00     0.058 A 
ATOM     82  C   UNL A   1      48.907  27.799  28.186  1.00  0.00     0.135 A 
ATOM     83  C   UNL A   1      48.829  27.118  30.494  1.00  0.00     0.135 A 
ATOM     84  F   UNL A   1      48.303  28.230  27.067  1.00  0.00    -0.206 F 
ATOM     85  C   UNL A   1      50.273  27.546  28.147  1.00  0.00     0.059 A 
ATOM     86  C   UNL A   1      50.197  26.875  30.484  1.00  0.00     0.059 A 
ATOM     87  F   UNL A   1      48.152  26.901  31.633  1.00  0.00    -0.206 F 
ATOM     88  C   UNL A   1      50.908  27.083  29.301  1.00  0.00     0.060 A 
BRANCH  88  89
ATOM     89  S   UNL A   1      52.688  26.787  29.250  1.00  0.00     0.124 S 
ATOM     90  O   UNL A   1      53.211  28.148  29.290  1.00  0.00    -0.237 OA
ATOM     91  O   UNL A   1      52.909  25.988  30.451  1.00  0.00    -0.237 OA
ATOM     92  O   UNL A   1      52.875  26.077  27.988  1.00  0.00    -0.744 OA
ENDBRANCH  88  89
ENDBRANCH  56  81
ENDBRANCH  30  31
ENDBRANCH  23  25
ENDBRANCH  22  23
ENDBRANCH  21  22
ENDBRANCH   1  21
TORSDOF 20
ENDMDL
MODEL 3
REMARK VINA RESULT:      -9.8      2.469      3.302
REMARK SMILES C=CCN(CC(=O)OCCOC(=O)c1ccc(-c2c3nc(c(-c4c(F)cc(S(=O)(=O)[O-])cc4F)c4ccc([nH]4)c(-c4c(F)cc(S(=O)(=O)[O-])cc4F)c4nc(c(-c5c(F)cc(S(=O)(=O)[O-])cc5F)c5ccc2[nH]5)C=C4)C=C3)cc1)C(=O)c1sc(N)nc1C
REMARK SMILES IDX 9 1 8 2 6 3 7 4 5 5 4 6 3 7 2 8 1 9 80 10 81 11 82 12 83 13
REMARK SMILES IDX 87 14 84 15 86 16 88 17 85 18 10 21 11 22 12 23 13 24 14 25
REMARK SMILES IDX 15 26 79 27 16 28 78 29 17 30 18 31 19 32 72 33 20 34 77 35
REMARK SMILES IDX 71 36 73 37 21 38 76 39 70 40 69 41 22 43 56 44 35 45 55 46
REMARK SMILES IDX 36 47 39 48 54 49 74 50 37 51 38 52 53 54 75 55 40 56 23 57
REMARK SMILES IDX 24 58 33 59 25 60 26 61 32 62 34 63 27 64 28 65 29 66 30 67
REMARK SMILES IDX 31 68 57 69 58 70 67 71 59 72 60 73 66 74 68 75 61 76 62 77
REMARK SMILES IDX 63 78 64 79 65 80 41 81 42 82 51 83 43 84 44 85 50 86 52 87
REMARK SMILES IDX 45 88 46 89 47 90 48 91 49 92
REMARK H PARENT 85 19 85 20 73 42 39 53
REMARK Flexibility Score: inf
ROOT
ATOM      1  C   UNL A   1      32.379  29.194  25.513  1.00  0.00     0.274 C 
ENDROOT
BRANCH   1   2
ATOM      2  O   UNL A   1      33.593  28.539  25.062  1.00  0.00    -0.461 OA
BRANCH   2   3
ATOM      3  C   UNL A   1      33.570  27.179  25.104  1.00  0.00     0.325 C 
ATOM      4  O   UNL A   1      34.125  26.518  25.979  1.00  0.00    -0.250 OA
BRANCH   3   5
ATOM      5  C   UNL A   1      32.634  26.509  24.086  1.00  0.00     0.242 C 
BRANCH   5   6
ATOM      6  N   UNL A   1      31.981  25.224  24.358  1.00  0.00    -0.323 N 
BRANCH   6   7
ATOM      7  C   UNL A   1      30.849  25.262  25.269  1.00  0.00     0.147 C 
BRANCH   7   8
ATOM      8  C   UNL A   1      29.941  26.392  24.867  1.00  0.00    -0.014 C 
ATOM      9  C   UNL A   1      29.078  26.332  23.843  1.00  0.00     0.006 C 
ENDBRANCH   7   8
ENDBRANCH   6   7
BRANCH   6  10
ATOM     10  C   UNL A   1      32.273  23.988  23.755  1.00  0.00     0.266 C 
ATOM     11  O   UNL A   1      31.976  23.797  22.573  1.00  0.00    -0.268 OA
BRANCH  10  12
ATOM     12  C   UNL A   1      32.836  22.901  24.522  1.00  0.00     0.117 A 
ATOM     13  S   UNL A   1      31.899  21.681  25.271  1.00  0.00    -0.092 S 
ATOM     14  C   UNL A   1      34.157  22.778  24.917  1.00  0.00     0.063 A 
ATOM     15  C   UNL A   1      33.330  21.023  25.968  1.00  0.00     0.180 A 
ATOM     16  N   UNL A   1      34.429  21.700  25.743  1.00  0.00    -0.225 NA
ATOM     17  C   UNL A   1      35.280  23.632  24.453  1.00  0.00     0.068 C 
BRANCH  15  18
ATOM     18  N   UNL A   1      33.319  19.903  26.697  1.00  0.00    -0.375 N 
ATOM     19  H   UNL A   1      34.165  19.446  26.911  1.00  0.00     0.159 HD
ATOM     20  H   UNL A   1      32.466  19.534  27.020  1.00  0.00     0.159 HD
ENDBRANCH  15  18
ENDBRANCH  10  12
ENDBRANCH   6  10
ENDBRANCH   5   6
ENDBRANCH   3   5
ENDBRANCH   2   3
ENDBRANCH   1   2
BRANCH   1  21
ATOM     21  C   UNL A   1      32.414  29.615  26.998  1.00  0.00     0.275 C 
BRANCH  21  22
ATOM     22  O   UNL A   1      33.642  29.264  27.676  1.00  0.00    -0.458 OA
BRANCH  22  23
ATOM     23  C   UNL A   1      34.355  30.352  28.019  1.00  0.00     0.338 C 
ATOM     24  O   UNL A   1      33.884  31.472  28.161  1.00  0.00    -0.246 OA
BRANCH  23  25
ATOM     25  C   UNL A   1      35.759  30.128  28.335  1.00  0.00     0.060 A 
ATOM     26  C   UNL A   1      36.675  30.088  27.280  1.00  0.00     0.016 A 
ATOM     27  C   UNL A   1      36.112  29.676  29.608  1.00  0.00     0.016 A 
ATOM     28  C   UNL A   1      37.955  29.589  27.490  1.00  0.00     0.010 A 
ATOM     29  C   UNL A   1      37.413  29.226  29.832  1.00  0.00     0.010 A 
ATOM     30  C   UNL A   1      38.340  29.189  28.776  1.00  0.00    -0.014 A 
BRANCH  30  31
ATOM     31  C   UNL A   1      39.772  28.971  29.068  1.00  0.00     0.031 A 
ATOM     32  C   UNL A   1      40.672  30.072  29.526  1.00  0.00     0.074 A 
ATOM     33  C   UNL A   1      40.238  27.729  28.846  1.00  0.00     0.049 A 
ATOM     34  N   UNL A   1      41.974  30.073  29.638  1.00  0.00    -0.248 NA
ATOM     35  C   UNL A   1      40.035  31.339  29.910  1.00  0.00     0.031 C 
ATOM     36  C   UNL A   1      39.412  26.590  28.426  1.00  0.00     0.029 A 
ATOM     37  N   UNL A   1      41.505  27.219  28.906  1.00  0.00    -0.354 N 
ATOM     38  C   UNL A   1      42.321  31.340  30.088  1.00  0.00     0.074 A 
ATOM     39  C   UNL A   1      41.088  32.090  30.221  1.00  0.00     0.031 C 
ATOM     40  C   UNL A   1      40.198  25.523  28.240  1.00  0.00     0.029 A 
ATOM     41  C   UNL A   1      41.580  25.919  28.468  1.00  0.00     0.049 A 
ATOM     42  H   UNL A   1      42.281  27.729  29.232  1.00  0.00     0.167 HD
ATOM     43  C   UNL A   1      43.560  31.816  30.362  1.00  0.00     0.037 A 
ATOM     44  C   UNL A   1      42.652  25.147  28.217  1.00  0.00     0.037 A 
ATOM     45  C   UNL A   1      44.762  31.027  30.237  1.00  0.00     0.049 A 
ATOM     46  C   UNL A   1      44.012  25.717  28.462  1.00  0.00     0.074 A 
ATOM     47  C   UNL A   1      46.066  31.385  30.534  1.00  0.00     0.029 A 
ATOM     48  N   UNL A   1      44.806  29.719  29.772  1.00  0.00    -0.354 N 
ATOM     49  N   UNL A   1      44.330  26.916  28.885  1.00  0.00    -0.248 NA
ATOM     50  C   UNL A   1      45.155  24.840  28.195  1.00  0.00     0.031 C 
ATOM     51  C   UNL A   1      46.900  30.306  30.214  1.00  0.00     0.029 A 
ATOM     52  C   UNL A   1      46.114  29.264  29.747  1.00  0.00     0.049 A 
ATOM     53  H   UNL A   1      44.021  29.191  29.499  1.00  0.00     0.167 HD
ATOM     54  C   UNL A   1      45.715  26.943  28.938  1.00  0.00     0.074 A 
ATOM     55  C   UNL A   1      46.171  25.631  28.517  1.00  0.00     0.031 C 
ATOM     56  C   UNL A   1      46.535  27.958  29.302  1.00  0.00     0.037 A 
BRANCH  43  57
ATOM     57  C   UNL A   1      43.692  33.247  30.806  1.00  0.00     0.058 A 
ATOM     58  C   UNL A   1      43.704  33.605  32.162  1.00  0.00     0.135 A 
ATOM     59  C   UNL A   1      43.875  34.270  29.860  1.00  0.00     0.135 A 
ATOM     60  F   UNL A   1      43.524  32.670  33.109  1.00  0.00    -0.206 F 
ATOM     61  C   UNL A   1      43.879  34.927  32.567  1.00  0.00     0.059 A 
ATOM     62  C   UNL A   1      44.070  35.597  30.241  1.00  0.00     0.059 A 
ATOM     63  F   UNL A   1      43.874  33.986  28.549  1.00  0.00    -0.206 F 
ATOM     64  C   UNL A   1      44.059  35.917  31.598  1.00  0.00     0.060 A 
BRANCH  64  65
ATOM     65  S   UNL A   1      44.296  37.625  32.134  1.00  0.00     0.124 S 
ATOM     66  O   UNL A   1      43.412  37.691  33.294  1.00  0.00    -0.237 OA
ATOM     67  O   UNL A   1      45.726  37.670  32.425  1.00  0.00    -0.237 OA
ATOM     68  O   UNL A   1      43.873  38.407  30.976  1.00  0.00    -0.744 OA
ENDBRANCH  64  65
ENDBRANCH  43  57
BRANCH  44  69
ATOM     69  C   UNL A   1      42.440  23.788  27.666  1.00  0.00     0.058 A 
ATOM     70  C   UNL A   1      42.397  23.570  26.284  1.00  0.00     0.135 A 
ATOM     71  C   UNL A   1      42.398  22.668  28.514  1.00  0.00     0.135 A 
ATOM     72  F   UNL A   1      42.440  24.611  25.440  1.00  0.00    -0.206 F 
ATOM     73  C   UNL A   1      42.331  22.285  25.757  1.00  0.00     0.059 A 
ATOM     74  C   UNL A   1      42.353  21.374  28.010  1.00  0.00     0.059 A 
ATOM     75  F   UNL A   1      42.466  22.829  29.845  1.00  0.00    -0.206 F 
ATOM     76  C   UNL A   1      42.320  21.192  26.628  1.00  0.00     0.060 A 
BRANCH  76  77
ATOM     77  S   UNL A   1      42.341  19.526  25.933  1.00  0.00     0.124 S 
ATOM     78  O   UNL A   1      40.929  19.314  25.638  1.00  0.00    -0.237 OA
ATOM     79  O   UNL A   1      43.218  19.682  24.777  1.00  0.00    -0.237 OA
ATOM     80  O   UNL A   1      42.890  18.718  27.019  1.00  0.00    -0.744 OA
ENDBRANCH  76  77
ENDBRANCH  44  69
BRANCH  56  81
ATOM     81  C   UNL A   1      48.005  27.677  29.254  1.00  0.00     0.058 A 
ATOM     82  C   UNL A   1      48.655  27.032  30.318  1.00  0.00     0.135 A 
ATOM     83  C   UNL A   1      48.764  28.031  28.129  1.00  0.00     0.135 A 
ATOM     84  F   UNL A   1      47.969  26.690  31.420  1.00  0.00    -0.206 F 
ATOM     85  C   UNL A   1      50.016  26.759  30.272  1.00  0.00     0.059 A 
ATOM     86  C   UNL A   1      50.123  27.752  28.054  1.00  0.00     0.059 A 
ATOM     87  F   UNL A   1      48.182  28.649  27.089  1.00  0.00    -0.206 F 
ATOM     88  C   UNL A   1      50.742  27.124  29.136  1.00  0.00     0.060 A 
BRANCH  88  89
ATOM     89  S   UNL A   1      52.504  26.737  29.073  1.00  0.00     0.124 S 
ATOM     90  O   UNL A   1      52.573  25.885  27.890  1.00  0.00    -0.237 OA
ATOM     91  O   UNL A   1      53.112  28.057  28.939  1.00  0.00    -0.237 OA
ATOM     92  O   UNL A   1      52.747  26.066  30.346  1.00  0.00    -0.744 OA
ENDBRANCH  88  89
ENDBRANCH  56  81
ENDBRANCH  30  31
ENDBRANCH  23  25
ENDBRANCH  22  23
ENDBRANCH  21  22
ENDBRANCH   1  21
TORSDOF 20
ENDMDL
