MODEL 1
REMARK VINA RESULT:      -9.4      0.000      0.000
REMARK SMILES COCC[NH2+][C@]1(C(=O)OCCOC(=O)c2ccc(-c3c4nc(c(-c5c(F)cc(S(=O)(=O)[O-])cc5F)c5ccc([nH]5)c(-c5c(F)cc(S(=O)(=O)[O-])cc5F)c5nc(c(-c6c(F)cc(S(=O)(=O)[O-])cc6F)c6ccc3[nH]6)C=C5)C=C4)cc2)CCCS[C@H]1C
REMARK SMILES IDX 10 1 9 2 7 3 8 4 6 5 81 6 85 7 82 8 84 9 86 10 83 11 5 12
REMARK SMILES IDX 4 15 3 16 2 17 1 18 11 19 12 20 13 21 14 22 15 23 16 24
REMARK SMILES IDX 80 25 17 26 79 27 18 28 19 29 20 30 73 31 21 32 78 33 72 34
REMARK SMILES IDX 74 35 22 36 77 37 71 38 70 39 23 41 57 42 36 43 56 44 37 45
REMARK SMILES IDX 40 46 55 47 75 48 38 49 39 50 54 52 76 53 41 54 24 55 25 56
REMARK SMILES IDX 34 57 26 58 27 59 33 60 35 61 28 62 29 63 30 64 31 65 32 66
REMARK SMILES IDX 58 67 59 68 68 69 60 70 61 71 67 72 69 73 62 74 63 75 64 76
REMARK SMILES IDX 65 77 66 78 42 79 43 80 52 81 44 82 45 83 51 84 53 85 46 86
REMARK SMILES IDX 47 87 48 88 49 89 50 90
REMARK H PARENT 5 13 5 14 74 40 40 51
REMARK Flexibility Score: inf
ROOT
ATOM      1  C   UNL A   1      33.909  28.232  25.035  1.00  0.00     0.274 C 
ENDROOT
BRANCH   1   2
ATOM      2  O   UNL A   1      33.989  26.816  25.295  1.00  0.00    -0.457 OA
BRANCH   2   3
ATOM      3  C   UNL A   1      33.786  25.975  24.224  1.00  0.00     0.369 C 
ATOM      4  O   UNL A   1      33.616  26.361  23.079  1.00  0.00    -0.245 OA
BRANCH   3   5
ATOM      5  C   UNL A   1      33.862  24.481  24.718  1.00  0.00     0.206 C 
ATOM      6  C   UNL A   1      33.277  24.440  26.157  1.00  0.00     0.083 C 
ATOM      7  C   UNL A   1      33.022  23.490  23.839  1.00  0.00     0.116 C 
ATOM      8  C   UNL A   1      31.811  24.892  26.241  1.00  0.00     0.018 C 
ATOM      9  S   UNL A   1      31.244  23.926  23.699  1.00  0.00    -0.152 SA
ATOM     10  C   UNL A   1      33.536  23.237  22.425  1.00  0.00     0.027 C 
ATOM     11  C   UNL A   1      30.838  24.025  25.452  1.00  0.00     0.070 C 
BRANCH   5  12
ATOM     12  N   UNL A   1      35.312  24.124  24.660  1.00  0.00    -0.329 N 
ATOM     13  H   UNL A   1      35.491  23.759  23.724  1.00  0.00     0.347 HD
ATOM     14  H   UNL A   1      35.785  24.990  24.915  1.00  0.00     0.347 HD
BRANCH  12  15
ATOM     15  C   UNL A   1      35.848  23.147  25.605  1.00  0.00     0.290 C 
BRANCH  15  16
ATOM     16  C   UNL A   1      36.490  21.982  24.827  1.00  0.00     0.221 C 
BRANCH  16  17
ATOM     17  O   UNL A   1      35.549  20.912  24.673  1.00  0.00    -0.379 OA
ATOM     18  C   UNL A   1      34.624  20.862  25.756  1.00  0.00     0.195 C 
ENDBRANCH  16  17
ENDBRANCH  15  16
ENDBRANCH  12  15
ENDBRANCH   5  12
ENDBRANCH   3   5
ENDBRANCH   2   3
ENDBRANCH   1   2
BRANCH   1  19
ATOM     19  C   UNL A   1      33.088  28.939  26.111  1.00  0.00     0.275 C 
BRANCH  19  20
ATOM     20  O   UNL A   1      33.818  28.905  27.347  1.00  0.00    -0.458 OA
BRANCH  20  21
ATOM     21  C   UNL A   1      34.305  30.088  27.786  1.00  0.00     0.338 C 
ATOM     22  O   UNL A   1      33.694  31.126  27.963  1.00  0.00    -0.246 OA
BRANCH  21  23
ATOM     23  C   UNL A   1      35.718  29.899  28.146  1.00  0.00     0.060 A 
ATOM     24  C   UNL A   1      36.660  30.065  27.138  1.00  0.00     0.016 A 
ATOM     25  C   UNL A   1      36.118  29.452  29.405  1.00  0.00     0.016 A 
ATOM     26  C   UNL A   1      37.989  29.753  27.361  1.00  0.00     0.010 A 
ATOM     27  C   UNL A   1      37.480  29.207  29.652  1.00  0.00     0.010 A 
ATOM     28  C   UNL A   1      38.424  29.355  28.624  1.00  0.00    -0.014 A 
BRANCH  28  29
ATOM     29  C   UNL A   1      39.872  29.077  28.773  1.00  0.00     0.031 A 
ATOM     30  C   UNL A   1      40.767  30.086  29.425  1.00  0.00     0.074 A 
ATOM     31  C   UNL A   1      40.339  27.837  28.514  1.00  0.00     0.049 A 
ATOM     32  N   UNL A   1      42.057  30.038  29.623  1.00  0.00    -0.248 NA
ATOM     33  C   UNL A   1      40.118  31.295  29.958  1.00  0.00     0.031 C 
ATOM     34  C   UNL A   1      39.523  26.708  28.058  1.00  0.00     0.029 A 
ATOM     35  N   UNL A   1      41.596  27.306  28.645  1.00  0.00    -0.354 N 
ATOM     36  C   UNL A   1      42.386  31.220  30.272  1.00  0.00     0.074 A 
ATOM     37  C   UNL A   1      41.153  31.957  30.456  1.00  0.00     0.031 C 
ATOM     38  C   UNL A   1      40.294  25.612  27.981  1.00  0.00     0.029 A 
ATOM     39  C   UNL A   1      41.673  25.980  28.288  1.00  0.00     0.049 A 
ATOM     40  H   UNL A   1      42.370  27.823  28.965  1.00  0.00     0.167 HD
ATOM     41  C   UNL A   1      43.609  31.653  30.655  1.00  0.00     0.037 A 
ATOM     42  C   UNL A   1      42.740  25.165  28.173  1.00  0.00     0.037 A 
ATOM     43  C   UNL A   1      44.828  30.907  30.467  1.00  0.00     0.049 A 
ATOM     44  C   UNL A   1      44.106  25.720  28.471  1.00  0.00     0.074 A 
ATOM     45  C   UNL A   1      46.129  31.296  30.733  1.00  0.00     0.029 A 
ATOM     46  N   UNL A   1      44.893  29.614  29.967  1.00  0.00    -0.354 N 
ATOM     47  N   UNL A   1      44.431  26.896  28.955  1.00  0.00    -0.248 NA
ATOM     48  C   UNL A   1      45.254  24.850  28.178  1.00  0.00     0.031 C 
ATOM     49  C   UNL A   1      46.984  30.255  30.353  1.00  0.00     0.029 A 
ATOM     50  C   UNL A   1      46.213  29.199  29.895  1.00  0.00     0.049 A 
ATOM     51  H   UNL A   1      44.115  29.072  29.703  1.00  0.00     0.167 HD
ATOM     52  C   UNL A   1      45.820  26.908  29.024  1.00  0.00     0.074 A 
ATOM     53  C   UNL A   1      46.271  25.611  28.561  1.00  0.00     0.031 C 
ATOM     54  C   UNL A   1      46.646  27.906  29.423  1.00  0.00     0.037 A 
BRANCH  41  55
ATOM     55  C   UNL A   1      43.696  33.040  31.223  1.00  0.00     0.058 A 
ATOM     56  C   UNL A   1      43.862  34.175  30.416  1.00  0.00     0.135 A 
ATOM     57  C   UNL A   1      43.613  33.227  32.613  1.00  0.00     0.135 A 
ATOM     58  F   UNL A   1      43.975  34.048  29.085  1.00  0.00    -0.206 F 
ATOM     59  C   UNL A   1      43.966  35.448  30.971  1.00  0.00     0.059 A 
ATOM     60  C   UNL A   1      43.694  34.490  33.187  1.00  0.00     0.059 A 
ATOM     61  F   UNL A   1      43.463  32.171  33.429  1.00  0.00    -0.206 F 
ATOM     62  C   UNL A   1      43.886  35.594  32.357  1.00  0.00     0.060 A 
BRANCH  62  63
ATOM     63  S   UNL A   1      44.043  37.246  33.069  1.00  0.00     0.124 S 
ATOM     64  O   UNL A   1      43.888  38.087  31.886  1.00  0.00    -0.237 OA
ATOM     65  O   UNL A   1      42.938  37.283  34.022  1.00  0.00    -0.237 OA
ATOM     66  O   UNL A   1      45.377  37.237  33.662  1.00  0.00    -0.744 OA
ENDBRANCH  62  63
ENDBRANCH  41  55
BRANCH  42  67
ATOM     67  C   UNL A   1      42.572  23.778  27.659  1.00  0.00     0.058 A 
ATOM     68  C   UNL A   1      42.489  22.678  28.523  1.00  0.00     0.135 A 
ATOM     69  C   UNL A   1      42.514  23.527  26.278  1.00  0.00     0.135 A 
ATOM     70  F   UNL A   1      42.560  22.860  29.851  1.00  0.00    -0.206 F 
ATOM     71  C   UNL A   1      42.367  21.377  28.038  1.00  0.00     0.059 A 
ATOM     72  C   UNL A   1      42.360  22.242  25.770  1.00  0.00     0.059 A 
ATOM     73  F   UNL A   1      42.592  24.543  25.404  1.00  0.00    -0.206 F 
ATOM     74  C   UNL A   1      42.303  21.171  26.659  1.00  0.00     0.060 A 
BRANCH  74  75
ATOM     75  S   UNL A   1      42.120  19.487  26.032  1.00  0.00     0.124 S 
ATOM     76  O   UNL A   1      40.680  19.408  25.823  1.00  0.00    -0.237 OA
ATOM     77  O   UNL A   1      42.939  19.514  24.824  1.00  0.00    -0.237 OA
ATOM     78  O   UNL A   1      42.647  18.667  27.119  1.00  0.00    -0.744 OA
ENDBRANCH  74  75
ENDBRANCH  42  67
BRANCH  54  79
ATOM     79  C   UNL A   1      48.122  27.625  29.388  1.00  0.00     0.058 A 
ATOM     80  C   UNL A   1      48.885  27.847  28.230  1.00  0.00     0.135 A 
ATOM     81  C   UNL A   1      48.786  27.148  30.530  1.00  0.00     0.135 A 
ATOM     82  F   UNL A   1      48.298  28.297  27.110  1.00  0.00    -0.206 F 
ATOM     83  C   UNL A   1      50.249  27.577  28.196  1.00  0.00     0.059 A 
ATOM     84  C   UNL A   1      50.153  26.895  30.526  1.00  0.00     0.059 A 
ATOM     85  F   UNL A   1      48.104  26.929  31.665  1.00  0.00    -0.206 F 
ATOM     86  C   UNL A   1      50.874  27.096  29.348  1.00  0.00     0.060 A 
BRANCH  86  87
ATOM     87  S   UNL A   1      52.647  26.760  29.299  1.00  0.00     0.124 S 
ATOM     88  O   UNL A   1      52.820  25.925  30.483  1.00  0.00    -0.237 OA
ATOM     89  O   UNL A   1      52.803  26.080  28.017  1.00  0.00    -0.237 OA
ATOM     90  O   UNL A   1      53.246  28.089  29.373  1.00  0.00    -0.744 OA
ENDBRANCH  86  87
ENDBRANCH  54  79
ENDBRANCH  28  29
ENDBRANCH  21  23
ENDBRANCH  20  21
ENDBRANCH  19  20
ENDBRANCH   1  19
TORSDOF 18
ENDMDL
MODEL 2
REMARK VINA RESULT:      -9.1      1.264      2.041
REMARK SMILES COCC[NH2+][C@]1(C(=O)OCCOC(=O)c2ccc(-c3c4nc(c(-c5c(F)cc(S(=O)(=O)[O-])cc5F)c5ccc([nH]5)c(-c5c(F)cc(S(=O)(=O)[O-])cc5F)c5nc(c(-c6c(F)cc(S(=O)(=O)[O-])cc6F)c6ccc3[nH]6)C=C5)C=C4)cc2)CCCS[C@H]1C
REMARK SMILES IDX 10 1 9 2 7 3 8 4 6 5 81 6 85 7 82 8 84 9 86 10 83 11 5 12
REMARK SMILES IDX 4 15 3 16 2 17 1 18 11 19 12 20 13 21 14 22 15 23 16 24
REMARK SMILES IDX 80 25 17 26 79 27 18 28 19 29 20 30 73 31 21 32 78 33 72 34
REMARK SMILES IDX 74 35 22 36 77 37 71 38 70 39 23 41 57 42 36 43 56 44 37 45
REMARK SMILES IDX 40 46 55 47 75 48 38 49 39 50 54 52 76 53 41 54 24 55 25 56
REMARK SMILES IDX 34 57 26 58 27 59 33 60 35 61 28 62 29 63 30 64 31 65 32 66
REMARK SMILES IDX 58 67 59 68 68 69 60 70 61 71 67 72 69 73 62 74 63 75 64 76
REMARK SMILES IDX 65 77 66 78 42 79 43 80 52 81 44 82 45 83 51 84 53 85 46 86
REMARK SMILES IDX 47 87 48 88 49 89 50 90
REMARK H PARENT 5 13 5 14 74 40 40 51
REMARK Flexibility Score: inf
ROOT
ATOM      1  C   UNL A   1      31.886  27.792  27.427  1.00  0.00     0.274 C 
ENDROOT
BRANCH   1   2
ATOM      2  O   UNL A   1      32.223  26.803  26.433  1.00  0.00    -0.457 OA
BRANCH   2   3
ATOM      3  C   UNL A   1      31.194  26.014  25.969  1.00  0.00     0.369 C 
ATOM      4  O   UNL A   1      30.221  25.702  26.636  1.00  0.00    -0.245 OA
BRANCH   3   5
ATOM      5  C   UNL A   1      31.468  25.643  24.462  1.00  0.00     0.206 C 
ATOM      6  C   UNL A   1      30.090  25.407  23.786  1.00  0.00     0.083 C 
ATOM      7  C   UNL A   1      32.198  26.778  23.664  1.00  0.00     0.116 C 
ATOM      8  C   UNL A   1      29.172  26.638  23.809  1.00  0.00     0.018 C 
ATOM      9  S   UNL A   1      31.322  28.392  23.673  1.00  0.00    -0.152 SA
ATOM     10  C   UNL A   1      33.649  27.052  24.048  1.00  0.00     0.027 C 
ATOM     11  C   UNL A   1      29.718  27.846  23.059  1.00  0.00     0.070 C 
BRANCH   5  12
ATOM     12  N   UNL A   1      32.320  24.415  24.512  1.00  0.00    -0.329 N 
ATOM     13  H   UNL A   1      32.708  24.284  23.578  1.00  0.00     0.347 HD
ATOM     14  H   UNL A   1      32.982  24.611  25.262  1.00  0.00     0.347 HD
BRANCH  12  15
ATOM     15  C   UNL A   1      31.719  23.143  24.905  1.00  0.00     0.290 C 
BRANCH  15  16
ATOM     16  C   UNL A   1      32.180  22.038  23.932  1.00  0.00     0.221 C 
BRANCH  16  17
ATOM     17  O   UNL A   1      33.014  21.095  24.616  1.00  0.00    -0.379 OA
ATOM     18  C   UNL A   1      32.780  19.761  24.170  1.00  0.00     0.195 C 
ENDBRANCH  16  17
ENDBRANCH  15  16
ENDBRANCH  12  15
ENDBRANCH   5  12
ENDBRANCH   3   5
ENDBRANCH   2   3
ENDBRANCH   1   2
BRANCH   1  19
ATOM     19  C   UNL A   1      32.595  29.114  27.143  1.00  0.00     0.275 C 
BRANCH  19  20
ATOM     20  O   UNL A   1      33.931  29.044  27.664  1.00  0.00    -0.458 OA
BRANCH  20  21
ATOM     21  C   UNL A   1      34.459  30.206  28.113  1.00  0.00     0.338 C 
ATOM     22  O   UNL A   1      33.876  31.249  28.345  1.00  0.00    -0.246 OA
BRANCH  21  23
ATOM     23  C   UNL A   1      35.883  29.983  28.404  1.00  0.00     0.060 A 
ATOM     24  C   UNL A   1      36.791  30.257  27.389  1.00  0.00     0.016 A 
ATOM     25  C   UNL A   1      36.324  29.405  29.594  1.00  0.00     0.016 A 
ATOM     26  C   UNL A   1      38.127  29.925  27.533  1.00  0.00     0.010 A 
ATOM     27  C   UNL A   1      37.692  29.137  29.768  1.00  0.00     0.010 A 
ATOM     28  C   UNL A   1      38.603  29.396  28.731  1.00  0.00    -0.014 A 
BRANCH  28  29
ATOM     29  C   UNL A   1      40.054  29.106  28.802  1.00  0.00     0.031 A 
ATOM     30  C   UNL A   1      40.991  30.111  29.400  1.00  0.00     0.074 A 
ATOM     31  C   UNL A   1      40.496  27.862  28.522  1.00  0.00     0.049 A 
ATOM     32  N   UNL A   1      42.290  30.052  29.527  1.00  0.00    -0.248 NA
ATOM     33  C   UNL A   1      40.383  31.326  29.963  1.00  0.00     0.031 C 
ATOM     34  C   UNL A   1      39.648  26.738  28.116  1.00  0.00     0.029 A 
ATOM     35  N   UNL A   1      41.754  27.320  28.587  1.00  0.00    -0.354 N 
ATOM     36  C   UNL A   1      42.664  31.234  30.152  1.00  0.00     0.074 A 
ATOM     37  C   UNL A   1      41.449  31.981  30.401  1.00  0.00     0.031 C 
ATOM     38  C   UNL A   1      40.404  25.636  28.001  1.00  0.00     0.029 A 
ATOM     39  C   UNL A   1      41.801  25.992  28.231  1.00  0.00     0.049 A 
ATOM     40  H   UNL A   1      42.549  27.833  28.861  1.00  0.00     0.167 HD
ATOM     41  C   UNL A   1      43.910  31.658  30.466  1.00  0.00     0.037 A 
ATOM     42  C   UNL A   1      42.853  25.169  28.061  1.00  0.00     0.037 A 
ATOM     43  C   UNL A   1      45.110  30.901  30.214  1.00  0.00     0.049 A 
ATOM     44  C   UNL A   1      44.238  25.713  28.282  1.00  0.00     0.074 A 
ATOM     45  C   UNL A   1      46.427  31.280  30.407  1.00  0.00     0.029 A 
ATOM     46  N   UNL A   1      45.137  29.606  29.716  1.00  0.00    -0.354 N 
ATOM     47  N   UNL A   1      44.598  26.888  28.742  1.00  0.00    -0.248 NA
ATOM     48  C   UNL A   1      45.361  24.833  27.930  1.00  0.00     0.031 C 
ATOM     49  C   UNL A   1      47.251  30.231  29.985  1.00  0.00     0.029 A 
ATOM     50  C   UNL A   1      46.448  29.179  29.574  1.00  0.00     0.049 A 
ATOM     51  H   UNL A   1      44.342  29.069  29.498  1.00  0.00     0.167 HD
ATOM     52  C   UNL A   1      45.989  26.889  28.735  1.00  0.00     0.074 A 
ATOM     53  C   UNL A   1      46.403  25.586  28.253  1.00  0.00     0.031 C 
ATOM     54  C   UNL A   1      46.844  27.882  29.084  1.00  0.00     0.037 A 
BRANCH  41  55
ATOM     55  C   UNL A   1      44.039  33.046  31.023  1.00  0.00     0.058 A 
ATOM     56  C   UNL A   1      44.080  33.304  32.401  1.00  0.00     0.135 A 
ATOM     57  C   UNL A   1      44.119  34.140  30.146  1.00  0.00     0.135 A 
ATOM     58  F   UNL A   1      43.980  32.296  33.281  1.00  0.00    -0.206 F 
ATOM     59  C   UNL A   1      44.175  34.604  32.891  1.00  0.00     0.059 A 
ATOM     60  C   UNL A   1      44.233  35.445  30.612  1.00  0.00     0.059 A 
ATOM     61  F   UNL A   1      44.075  33.947  28.818  1.00  0.00    -0.206 F 
ATOM     62  C   UNL A   1      44.245  35.667  31.989  1.00  0.00     0.060 A 
BRANCH  62  63
ATOM     63  S   UNL A   1      44.345  37.351  32.633  1.00  0.00     0.124 S 
ATOM     64  O   UNL A   1      45.625  37.318  33.333  1.00  0.00    -0.237 OA
ATOM     65  O   UNL A   1      44.309  38.155  31.416  1.00  0.00    -0.237 OA
ATOM     66  O   UNL A   1      43.166  37.460  33.487  1.00  0.00    -0.744 OA
ENDBRANCH  62  63
ENDBRANCH  41  55
BRANCH  42  67
ATOM     67  C   UNL A   1      42.646  23.781  27.562  1.00  0.00     0.058 A 
ATOM     68  C   UNL A   1      42.452  22.705  28.439  1.00  0.00     0.135 A 
ATOM     69  C   UNL A   1      42.662  23.504  26.185  1.00  0.00     0.135 A 
ATOM     70  F   UNL A   1      42.449  22.912  29.765  1.00  0.00    -0.206 F 
ATOM     71  C   UNL A   1      42.293  21.403  27.971  1.00  0.00     0.059 A 
ATOM     72  C   UNL A   1      42.473  22.218  25.692  1.00  0.00     0.059 A 
ATOM     73  F   UNL A   1      42.846  24.497  25.300  1.00  0.00    -0.206 F 
ATOM     74  C   UNL A   1      42.305  21.171  26.594  1.00  0.00     0.060 A 
BRANCH  74  75
ATOM     75  S   UNL A   1      42.075  19.486  25.987  1.00  0.00     0.124 S 
ATOM     76  O   UNL A   1      42.948  19.473  24.820  1.00  0.00    -0.237 OA
ATOM     77  O   UNL A   1      42.516  18.683  27.122  1.00  0.00    -0.237 OA
ATOM     78  O   UNL A   1      40.643  19.425  25.705  1.00  0.00    -0.744 OA
ENDBRANCH  74  75
ENDBRANCH  42  67
BRANCH  54  79
ATOM     79  C   UNL A   1      48.314  27.588  28.969  1.00  0.00     0.058 A 
ATOM     80  C   UNL A   1      49.052  27.969  27.838  1.00  0.00     0.135 A 
ATOM     81  C   UNL A   1      48.995  26.938  30.010  1.00  0.00     0.135 A 
ATOM     82  F   UNL A   1      48.447  28.587  26.812  1.00  0.00    -0.206 F 
ATOM     83  C   UNL A   1      50.410  27.687  27.728  1.00  0.00     0.059 A 
ATOM     84  C   UNL A   1      50.358  26.669  29.933  1.00  0.00     0.059 A 
ATOM     85  F   UNL A   1      48.338  26.562  31.118  1.00  0.00    -0.206 F 
ATOM     86  C   UNL A   1      51.054  27.033  28.780  1.00  0.00     0.060 A 
BRANCH  86  87
ATOM     87  S   UNL A   1      52.819  26.682  28.635  1.00  0.00     0.124 S 
ATOM     88  O   UNL A   1      53.346  27.987  28.252  1.00  0.00    -0.237 OA
ATOM     89  O   UNL A   1      53.161  26.230  29.980  1.00  0.00    -0.237 OA
ATOM     90  O   UNL A   1      52.875  25.652  27.602  1.00  0.00    -0.744 OA
ENDBRANCH  86  87
ENDBRANCH  54  79
ENDBRANCH  28  29
ENDBRANCH  21  23
ENDBRANCH  20  21
ENDBRANCH  19  20
ENDBRANCH   1  19
TORSDOF 18
ENDMDL
MODEL 3
REMARK VINA RESULT:      -9.1      3.929      6.460
REMARK SMILES COCC[NH2+][C@]1(C(=O)OCCOC(=O)c2ccc(-c3c4nc(c(-c5c(F)cc(S(=O)(=O)[O-])cc5F)c5ccc([nH]5)c(-c5c(F)cc(S(=O)(=O)[O-])cc5F)c5nc(c(-c6c(F)cc(S(=O)(=O)[O-])cc6F)c6ccc3[nH]6)C=C5)C=C4)cc2)CCCS[C@H]1C
REMARK SMILES IDX 10 1 9 2 7 3 8 4 6 5 81 6 85 7 82 8 84 9 86 10 83 11 5 12
REMARK SMILES IDX 4 15 3 16 2 17 1 18 11 19 12 20 13 21 14 22 15 23 16 24
REMARK SMILES IDX 80 25 17 26 79 27 18 28 19 29 20 30 73 31 21 32 78 33 72 34
REMARK SMILES IDX 74 35 22 36 77 37 71 38 70 39 23 41 57 42 36 43 56 44 37 45
REMARK SMILES IDX 40 46 55 47 75 48 38 49 39 50 54 52 76 53 41 54 24 55 25 56
REMARK SMILES IDX 34 57 26 58 27 59 33 60 35 61 28 62 29 63 30 64 31 65 32 66
REMARK SMILES IDX 58 67 59 68 68 69 60 70 61 71 67 72 69 73 62 74 63 75 64 76
REMARK SMILES IDX 65 77 66 78 42 79 43 80 52 81 44 82 45 83 51 84 53 85 46 86
REMARK SMILES IDX 47 87 48 88 49 89 50 90
REMARK H PARENT 5 13 5 14 74 40 40 51
REMARK Flexibility Score: inf
ROOT
ATOM      1  C   UNL A   1      36.691  33.723  29.263  1.00  0.00     0.274 C 
ENDROOT
BRANCH   1   2
ATOM      2  O   UNL A   1      36.438  33.919  30.669  1.00  0.00    -0.457 OA
BRANCH   2   3
ATOM      3  C   UNL A   1      37.498  33.716  31.525  1.00  0.00     0.369 C 
ATOM      4  O   UNL A   1      38.658  33.618  31.159  1.00  0.00    -0.245 OA
BRANCH   3   5
ATOM      5  C   UNL A   1      36.965  33.682  33.007  1.00  0.00     0.206 C 
ATOM      6  C   UNL A   1      36.065  32.424  33.146  1.00  0.00     0.083 C 
ATOM      7  C   UNL A   1      38.107  33.566  34.077  1.00  0.00     0.116 C 
ATOM      8  C   UNL A   1      36.802  31.103  32.880  1.00  0.00     0.018 C 
ATOM      9  S   UNL A   1      39.200  32.106  33.860  1.00  0.00    -0.152 SA
ATOM     10  C   UNL A   1      39.011  34.785  34.238  1.00  0.00     0.027 C 
ATOM     11  C   UNL A   1      37.945  30.813  33.844  1.00  0.00     0.070 C 
BRANCH   5  12
ATOM     12  N   UNL A   1      36.219  34.965  33.183  1.00  0.00    -0.329 N 
ATOM     13  H   UNL A   1      36.756  35.534  33.839  1.00  0.00     0.347 HD
ATOM     14  H   UNL A   1      36.127  35.322  32.232  1.00  0.00     0.347 HD
BRANCH  12  15
ATOM     15  C   UNL A   1      34.844  34.932  33.675  1.00  0.00     0.290 C 
BRANCH  15  16
ATOM     16  C   UNL A   1      33.940  35.734  32.718  1.00  0.00     0.221 C 
BRANCH  16  17
ATOM     17  O   UNL A   1      33.433  34.879  31.685  1.00  0.00    -0.379 OA
ATOM     18  C   UNL A   1      32.957  35.625  30.567  1.00  0.00     0.195 C 
ENDBRANCH  16  17
ENDBRANCH  15  16
ENDBRANCH  12  15
ENDBRANCH   5  12
ENDBRANCH   3   5
ENDBRANCH   2   3
ENDBRANCH   1   2
BRANCH   1  19
ATOM     19  C   UNL A   1      35.781  32.638  28.692  1.00  0.00     0.275 C 
BRANCH  19  20
ATOM     20  O   UNL A   1      35.913  31.454  29.494  1.00  0.00    -0.458 OA
BRANCH  20  21
ATOM     21  C   UNL A   1      36.100  30.295  28.822  1.00  0.00     0.338 C 
ATOM     22  O   UNL A   1      35.261  29.614  28.262  1.00  0.00    -0.246 OA
BRANCH  21  23
ATOM     23  C   UNL A   1      37.545  30.025  28.762  1.00  0.00     0.060 A 
ATOM     24  C   UNL A   1      38.098  29.790  27.509  1.00  0.00     0.016 A 
ATOM     25  C   UNL A   1      38.329  29.882  29.907  1.00  0.00     0.016 A 
ATOM     26  C   UNL A   1      39.413  29.376  27.389  1.00  0.00     0.010 A 
ATOM     27  C   UNL A   1      39.685  29.535  29.777  1.00  0.00     0.010 A 
ATOM     28  C   UNL A   1      40.233  29.277  28.510  1.00  0.00    -0.014 A 
BRANCH  28  29
ATOM     29  C   UNL A   1      41.636  28.861  28.276  1.00  0.00     0.031 A 
ATOM     30  C   UNL A   1      42.756  29.822  28.532  1.00  0.00     0.074 A 
ATOM     31  C   UNL A   1      41.910  27.562  28.037  1.00  0.00     0.049 A 
ATOM     32  N   UNL A   1      44.041  29.655  28.362  1.00  0.00    -0.248 NA
ATOM     33  C   UNL A   1      42.385  31.134  29.086  1.00  0.00     0.031 C 
ATOM     34  C   UNL A   1      40.913  26.490  27.960  1.00  0.00     0.029 A 
ATOM     35  N   UNL A   1      43.107  26.913  27.868  1.00  0.00    -0.354 N 
ATOM     36  C   UNL A   1      44.633  30.847  28.754  1.00  0.00     0.074 A 
ATOM     37  C   UNL A   1      43.568  31.723  29.194  1.00  0.00     0.031 C 
ATOM     38  C   UNL A   1      41.542  25.316  27.792  1.00  0.00     0.029 A 
ATOM     39  C   UNL A   1      42.975  25.561  27.656  1.00  0.00     0.049 A 
ATOM     40  H   UNL A   1      43.977  27.371  27.896  1.00  0.00     0.167 HD
ATOM     41  C   UNL A   1      45.945  31.179  28.727  1.00  0.00     0.037 A 
ATOM     42  C   UNL A   1      43.896  24.631  27.336  1.00  0.00     0.037 A 
ATOM     43  C   UNL A   1      46.995  30.295  28.288  1.00  0.00     0.049 A 
ATOM     44  C   UNL A   1      45.328  25.062  27.173  1.00  0.00     0.074 A 
ATOM     45  C   UNL A   1      48.343  30.565  28.131  1.00  0.00     0.029 A 
ATOM     46  N   UNL A   1      46.812  28.964  27.938  1.00  0.00    -0.354 N 
ATOM     47  N   UNL A   1      45.869  26.234  27.410  1.00  0.00    -0.248 NA
ATOM     48  C   UNL A   1      46.271  24.053  26.669  1.00  0.00     0.031 C 
ATOM     49  C   UNL A   1      48.968  29.411  27.645  1.00  0.00     0.029 A 
ATOM     50  C   UNL A   1      48.018  28.407  27.545  1.00  0.00     0.049 A 
ATOM     51  H   UNL A   1      45.952  28.487  27.967  1.00  0.00     0.167 HD
ATOM     52  C   UNL A   1      47.214  26.104  27.083  1.00  0.00     0.074 A 
ATOM     53  C   UNL A   1      47.410  24.732  26.661  1.00  0.00     0.031 C 
ATOM     54  C   UNL A   1      48.195  27.040  27.118  1.00  0.00     0.037 A 
BRANCH  41  55
ATOM     55  C   UNL A   1      46.299  32.592  29.087  1.00  0.00     0.058 A 
ATOM     56  C   UNL A   1      46.218  33.648  28.167  1.00  0.00     0.135 A 
ATOM     57  C   UNL A   1      46.735  32.888  30.390  1.00  0.00     0.135 A 
ATOM     58  F   UNL A   1      45.834  33.414  26.902  1.00  0.00    -0.206 F 
ATOM     59  C   UNL A   1      46.577  34.946  28.520  1.00  0.00     0.059 A 
ATOM     60  C   UNL A   1      47.080  34.180  30.770  1.00  0.00     0.059 A 
ATOM     61  F   UNL A   1      46.838  31.912  31.305  1.00  0.00    -0.206 F 
ATOM     62  C   UNL A   1      47.012  35.200  29.822  1.00  0.00     0.060 A 
BRANCH  62  63
ATOM     63  S   UNL A   1      47.497  36.882  30.265  1.00  0.00     0.124 S 
ATOM     64  O   UNL A   1      48.630  36.633  31.150  1.00  0.00    -0.237 OA
ATOM     65  O   UNL A   1      47.823  37.466  28.968  1.00  0.00    -0.237 OA
ATOM     66  O   UNL A   1      46.304  37.422  30.909  1.00  0.00    -0.744 OA
ENDBRANCH  62  63
ENDBRANCH  41  55
BRANCH  42  67
ATOM     67  C   UNL A   1      43.480  23.230  27.050  1.00  0.00     0.058 A 
ATOM     68  C   UNL A   1      43.196  22.322  28.079  1.00  0.00     0.135 A 
ATOM     69  C   UNL A   1      43.381  22.767  25.727  1.00  0.00     0.135 A 
ATOM     70  F   UNL A   1      43.295  22.706  29.361  1.00  0.00    -0.206 F 
ATOM     71  C   UNL A   1      42.841  21.002  27.809  1.00  0.00     0.059 A 
ATOM     72  C   UNL A   1      42.997  21.465  25.431  1.00  0.00     0.059 A 
ATOM     73  F   UNL A   1      43.644  23.595  24.703  1.00  0.00    -0.206 F 
ATOM     74  C   UNL A   1      42.744  20.584  26.480  1.00  0.00     0.060 A 
BRANCH  74  75
ATOM     75  S   UNL A   1      42.259  18.880  26.129  1.00  0.00     0.124 S 
ATOM     76  O   UNL A   1      43.237  18.500  25.117  1.00  0.00    -0.237 OA
ATOM     77  O   UNL A   1      42.409  18.240  27.432  1.00  0.00    -0.237 OA
ATOM     78  O   UNL A   1      40.883  19.014  25.660  1.00  0.00    -0.744 OA
ENDBRANCH  74  75
ENDBRANCH  42  67
BRANCH  54  79
ATOM     79  C   UNL A   1      49.571  26.603  26.701  1.00  0.00     0.058 A 
ATOM     80  C   UNL A   1      50.475  26.045  27.619  1.00  0.00     0.135 A 
ATOM     81  C   UNL A   1      49.983  26.723  25.364  1.00  0.00     0.135 A 
ATOM     82  F   UNL A   1      50.132  25.914  28.910  1.00  0.00    -0.206 F 
ATOM     83  C   UNL A   1      51.751  25.650  27.234  1.00  0.00     0.059 A 
ATOM     84  C   UNL A   1      51.246  26.311  24.951  1.00  0.00     0.059 A 
ATOM     85  F   UNL A   1      49.154  27.240  24.445  1.00  0.00    -0.206 F 
ATOM     86  C   UNL A   1      52.130  25.791  25.897  1.00  0.00     0.060 A 
BRANCH  86  87
ATOM     87  S   UNL A   1      53.785  25.265  25.402  1.00  0.00     0.124 S 
ATOM     88  O   UNL A   1      54.433  25.082  26.696  1.00  0.00    -0.237 OA
ATOM     89  O   UNL A   1      53.514  24.043  24.650  1.00  0.00    -0.237 OA
ATOM     90  O   UNL A   1      54.272  26.387  24.606  1.00  0.00    -0.744 OA
ENDBRANCH  86  87
ENDBRANCH  54  79
ENDBRANCH  28  29
ENDBRANCH  21  23
ENDBRANCH  20  21
ENDBRANCH  19  20
ENDBRANCH   1  19
TORSDOF 18
ENDMDL
