MODEL 1
REMARK VINA RESULT:     -10.7      0.000      0.000
REMARK SMILES CCC[C@@H](C(=O)N1CC[C@@](C)(C(=O)OCCOC(=O)c2ccc(-c3c4nc(c(-c5c(F)cc(S(=O)(=O)[O-])cc5F)c5ccc([nH]5)c(-c5c(F)cc(S(=O)(=O)[O-])cc5F)c5nc(c(-c6c(F)cc(S(=O)(=O)[O-])cc6F)c6ccc3[nH]6)C=C5)C=C4)cc2)C1)c1ccccc1
REMARK SMILES IDX 15 1 14 2 12 3 13 4 10 5 7 6 8 7 86 8 9 9 11 10 5 11 6 12
REMARK SMILES IDX 4 13 3 14 2 15 1 16 87 17 88 18 92 19 89 20 91 21 90 22
REMARK SMILES IDX 16 23 17 24 18 25 19 26 20 27 21 28 85 29 22 30 84 31 23 32
REMARK SMILES IDX 24 33 25 34 78 35 26 36 83 37 77 38 79 39 27 40 82 41 76 42
REMARK SMILES IDX 75 43 28 45 62 46 41 47 61 48 42 49 45 50 60 51 80 52 43 53
REMARK SMILES IDX 44 54 59 56 81 57 46 58 29 59 30 60 39 61 31 62 32 63 38 64
REMARK SMILES IDX 40 65 33 66 34 67 35 68 36 69 37 70 63 71 64 72 73 73 65 74
REMARK SMILES IDX 66 75 72 76 74 77 67 78 68 79 69 80 70 81 71 82 47 83 48 84
REMARK SMILES IDX 57 85 49 86 50 87 56 88 58 89 51 90 52 91 53 92 54 93 55 94
REMARK H PARENT 79 44 45 55
REMARK Flexibility Score: inf
ROOT
ATOM      1  C   UNL A   1      33.127  29.988  27.320  1.00  0.00     0.274 C 
ENDROOT
BRANCH   1   2
ATOM      2  O   UNL A   1      32.262  29.274  26.411  1.00  0.00    -0.462 OA
BRANCH   2   3
ATOM      3  C   UNL A   1      31.973  27.986  26.743  1.00  0.00     0.313 C 
ATOM      4  O   UNL A   1      31.634  27.632  27.867  1.00  0.00    -0.252 OA
BRANCH   3   5
ATOM      5  C   UNL A   1      32.276  27.007  25.609  1.00  0.00     0.084 C 
ATOM      6  N   UNL A   1      33.369  24.949  26.215  1.00  0.00    -0.341 N 
ATOM      7  C   UNL A   1      31.940  24.691  26.257  1.00  0.00     0.120 C 
ATOM      8  C   UNL A   1      33.636  26.324  25.855  1.00  0.00     0.138 C 
ATOM      9  C   UNL A   1      31.298  25.828  25.479  1.00  0.00     0.042 C 
ATOM     10  C   UNL A   1      32.312  27.829  24.313  1.00  0.00     0.026 C 
BRANCH   6  11
ATOM     11  C   UNL A   1      34.288  23.918  26.100  1.00  0.00     0.230 C 
ATOM     12  O   UNL A   1      34.375  23.096  27.016  1.00  0.00    -0.274 OA
BRANCH  11  13
ATOM     13  C   UNL A   1      35.300  23.943  24.903  1.00  0.00     0.108 C 
BRANCH  13  14
ATOM     14  C   UNL A   1      34.935  23.231  23.572  1.00  0.00     0.018 C 
BRANCH  14  15
ATOM     15  C   UNL A   1      33.644  23.536  22.800  1.00  0.00    -0.002 C 
ATOM     16  C   UNL A   1      33.394  24.985  22.429  1.00  0.00     0.004 C 
ENDBRANCH  14  15
ENDBRANCH  13  14
BRANCH  13  17
ATOM     17  C   UNL A   1      36.647  23.337  25.377  1.00  0.00    -0.036 A 
ATOM     18  C   UNL A   1      37.546  24.078  26.159  1.00  0.00     0.004 A 
ATOM     19  C   UNL A   1      37.000  22.020  25.023  1.00  0.00     0.004 A 
ATOM     20  C   UNL A   1      38.776  23.526  26.539  1.00  0.00     0.000 A 
ATOM     21  C   UNL A   1      38.232  21.478  25.390  1.00  0.00     0.000 A 
ATOM     22  C   UNL A   1      39.123  22.234  26.145  1.00  0.00     0.000 A 
ENDBRANCH  13  17
ENDBRANCH  11  13
ENDBRANCH   6  11
ENDBRANCH   3   5
ENDBRANCH   2   3
ENDBRANCH   1   2
BRANCH   1  23
ATOM     23  C   UNL A   1      34.610  29.743  27.034  1.00  0.00     0.275 C 
BRANCH  23  24
ATOM     24  O   UNL A   1      35.306  29.261  28.198  1.00  0.00    -0.458 OA
BRANCH  24  25
ATOM     25  C   UNL A   1      35.998  30.204  28.879  1.00  0.00     0.338 C 
ATOM     26  O   UNL A   1      35.536  31.095  29.571  1.00  0.00    -0.246 OA
BRANCH  25  27
ATOM     27  C   UNL A   1      37.436  29.888  28.829  1.00  0.00     0.060 A 
ATOM     28  C   UNL A   1      38.017  29.847  27.565  1.00  0.00     0.016 A 
ATOM     29  C   UNL A   1      38.193  29.585  29.963  1.00  0.00     0.016 A 
ATOM     30  C   UNL A   1      39.354  29.506  27.425  1.00  0.00     0.010 A 
ATOM     31  C   UNL A   1      39.548  29.240  29.816  1.00  0.00     0.010 A 
ATOM     32  C   UNL A   1      40.132  29.202  28.541  1.00  0.00    -0.014 A 
BRANCH  32  33
ATOM     33  C   UNL A   1      41.531  28.784  28.293  1.00  0.00     0.031 A 
ATOM     34  C   UNL A   1      42.640  29.770  28.515  1.00  0.00     0.074 A 
ATOM     35  C   UNL A   1      41.818  27.491  28.051  1.00  0.00     0.049 A 
ATOM     36  N   UNL A   1      43.925  29.618  28.337  1.00  0.00    -0.248 NA
ATOM     37  C   UNL A   1      42.253  31.089  29.038  1.00  0.00     0.031 C 
ATOM     38  C   UNL A   1      40.837  26.407  27.994  1.00  0.00     0.029 A 
ATOM     39  N   UNL A   1      43.021  26.865  27.844  1.00  0.00    -0.354 N 
ATOM     40  C   UNL A   1      44.501  30.829  28.695  1.00  0.00     0.074 A 
ATOM     41  C   UNL A   1      43.428  31.697  29.130  1.00  0.00     0.031 C 
ATOM     42  C   UNL A   1      41.480  25.247  27.777  1.00  0.00     0.029 A 
ATOM     43  C   UNL A   1      42.909  25.513  27.617  1.00  0.00     0.049 A 
ATOM     44  H   UNL A   1      43.884  27.338  27.857  1.00  0.00     0.167 HD
ATOM     45  C   UNL A   1      45.804  31.188  28.638  1.00  0.00     0.037 A 
ATOM     46  C   UNL A   1      43.847  24.605  27.280  1.00  0.00     0.037 A 
ATOM     47  C   UNL A   1      46.862  30.322  28.191  1.00  0.00     0.049 A 
ATOM     48  C   UNL A   1      45.274  25.062  27.101  1.00  0.00     0.074 A 
ATOM     49  C   UNL A   1      48.200  30.622  28.003  1.00  0.00     0.029 A 
ATOM     50  N   UNL A   1      46.702  28.984  27.863  1.00  0.00    -0.354 N 
ATOM     51  N   UNL A   1      45.797  26.242  27.332  1.00  0.00    -0.248 NA
ATOM     52  C   UNL A   1      46.232  24.072  26.585  1.00  0.00     0.031 C 
ATOM     53  C   UNL A   1      48.839  29.476  27.520  1.00  0.00     0.029 A 
ATOM     54  C   UNL A   1      47.910  28.451  27.451  1.00  0.00     0.049 A 
ATOM     55  H   UNL A   1      45.853  28.488  27.915  1.00  0.00     0.167 HD
ATOM     56  C   UNL A   1      47.143  26.135  26.999  1.00  0.00     0.074 A 
ATOM     57  C   UNL A   1      47.360  24.770  26.569  1.00  0.00     0.031 C 
ATOM     58  C   UNL A   1      48.110  27.085  27.035  1.00  0.00     0.037 A 
BRANCH  45  59
ATOM     59  C   UNL A   1      46.136  32.611  28.976  1.00  0.00     0.058 A 
ATOM     60  C   UNL A   1      46.525  33.003  30.265  1.00  0.00     0.135 A 
ATOM     61  C   UNL A   1      46.065  33.597  27.978  1.00  0.00     0.135 A 
ATOM     62  F   UNL A   1      46.582  32.101  31.257  1.00  0.00    -0.206 F 
ATOM     63  C   UNL A   1      46.817  34.332  30.557  1.00  0.00     0.059 A 
ATOM     64  C   UNL A   1      46.369  34.926  28.244  1.00  0.00     0.059 A 
ATOM     65  F   UNL A   1      45.685  33.271  26.732  1.00  0.00    -0.206 F 
ATOM     66  C   UNL A   1      46.732  35.286  29.540  1.00  0.00     0.060 A 
BRANCH  66  67
ATOM     67  S   UNL A   1      47.104  37.009  29.930  1.00  0.00     0.124 S 
ATOM     68  O   UNL A   1      47.279  36.948  31.378  1.00  0.00    -0.237 OA
ATOM     69  O   UNL A   1      48.315  37.253  29.154  1.00  0.00    -0.237 OA
ATOM     70  O   UNL A   1      45.916  37.725  29.472  1.00  0.00    -0.744 OA
ENDBRANCH  66  67
ENDBRANCH  45  59
BRANCH  46  71
ATOM     71  C   UNL A   1      43.468  23.192  27.006  1.00  0.00     0.058 A 
ATOM     72  C   UNL A   1      43.409  22.691  25.697  1.00  0.00     0.135 A 
ATOM     73  C   UNL A   1      43.117  22.323  28.052  1.00  0.00     0.135 A 
ATOM     74  F   UNL A   1      43.717  23.484  24.661  1.00  0.00    -0.206 F 
ATOM     75  C   UNL A   1      42.998  21.387  25.432  1.00  0.00     0.059 A 
ATOM     76  C   UNL A   1      42.731  21.007  27.816  1.00  0.00     0.059 A 
ATOM     77  F   UNL A   1      43.155  22.748  29.325  1.00  0.00    -0.206 F 
ATOM     78  C   UNL A   1      42.658  20.553  26.500  1.00  0.00     0.060 A 
BRANCH  78  79
ATOM     79  S   UNL A   1      42.146  18.855  26.158  1.00  0.00     0.124 S 
ATOM     80  O   UNL A   1      42.385  18.214  27.447  1.00  0.00    -0.237 OA
ATOM     81  O   UNL A   1      40.747  19.023  25.778  1.00  0.00    -0.237 OA
ATOM     82  O   UNL A   1      43.038  18.450  25.075  1.00  0.00    -0.744 OA
ENDBRANCH  78  79
ENDBRANCH  46  71
BRANCH  58  83
ATOM     83  C   UNL A   1      49.497  26.685  26.613  1.00  0.00     0.058 A 
ATOM     84  C   UNL A   1      50.380  26.055  27.503  1.00  0.00     0.135 A 
ATOM     85  C   UNL A   1      49.913  26.859  25.283  1.00  0.00     0.135 A 
ATOM     86  F   UNL A   1      50.030  25.872  28.786  1.00  0.00    -0.206 F 
ATOM     87  C   UNL A   1      51.635  25.618  27.091  1.00  0.00     0.059 A 
ATOM     88  C   UNL A   1      51.155  26.409  24.845  1.00  0.00     0.059 A 
ATOM     89  F   UNL A   1      49.101  27.446  24.391  1.00  0.00    -0.206 F 
ATOM     90  C   UNL A   1      52.012  25.795  25.758  1.00  0.00     0.060 A 
BRANCH  90  91
ATOM     91  S   UNL A   1      53.617  25.167  25.220  1.00  0.00     0.124 S 
ATOM     92  O   UNL A   1      53.403  23.724  25.278  1.00  0.00    -0.237 OA
ATOM     93  O   UNL A   1      53.745  25.735  23.882  1.00  0.00    -0.237 OA
ATOM     94  O   UNL A   1      54.542  25.706  26.213  1.00  0.00    -0.744 OA
ENDBRANCH  90  91
ENDBRANCH  58  83
ENDBRANCH  32  33
ENDBRANCH  25  27
ENDBRANCH  24  25
ENDBRANCH  23  24
ENDBRANCH   1  23
TORSDOF 19
ENDMDL
MODEL 2
REMARK VINA RESULT:     -10.5      2.365      3.468
REMARK SMILES CCC[C@@H](C(=O)N1CC[C@@](C)(C(=O)OCCOC(=O)c2ccc(-c3c4nc(c(-c5c(F)cc(S(=O)(=O)[O-])cc5F)c5ccc([nH]5)c(-c5c(F)cc(S(=O)(=O)[O-])cc5F)c5nc(c(-c6c(F)cc(S(=O)(=O)[O-])cc6F)c6ccc3[nH]6)C=C5)C=C4)cc2)C1)c1ccccc1
REMARK SMILES IDX 15 1 14 2 12 3 13 4 10 5 7 6 8 7 86 8 9 9 11 10 5 11 6 12
REMARK SMILES IDX 4 13 3 14 2 15 1 16 87 17 88 18 92 19 89 20 91 21 90 22
REMARK SMILES IDX 16 23 17 24 18 25 19 26 20 27 21 28 85 29 22 30 84 31 23 32
REMARK SMILES IDX 24 33 25 34 78 35 26 36 83 37 77 38 79 39 27 40 82 41 76 42
REMARK SMILES IDX 75 43 28 45 62 46 41 47 61 48 42 49 45 50 60 51 80 52 43 53
REMARK SMILES IDX 44 54 59 56 81 57 46 58 29 59 30 60 39 61 31 62 32 63 38 64
REMARK SMILES IDX 40 65 33 66 34 67 35 68 36 69 37 70 63 71 64 72 73 73 65 74
REMARK SMILES IDX 66 75 72 76 74 77 67 78 68 79 69 80 70 81 71 82 47 83 48 84
REMARK SMILES IDX 57 85 49 86 50 87 56 88 58 89 51 90 52 91 53 92 54 93 55 94
REMARK H PARENT 79 44 45 55
REMARK Flexibility Score: inf
ROOT
ATOM      1  C   UNL A   1      32.199  29.335  25.681  1.00  0.00     0.274 C 
ENDROOT
BRANCH   1   2
ATOM      2  O   UNL A   1      31.859  28.900  24.347  1.00  0.00    -0.462 OA
BRANCH   2   3
ATOM      3  C   UNL A   1      31.682  27.561  24.179  1.00  0.00     0.313 C 
ATOM      4  O   UNL A   1      30.925  26.883  24.864  1.00  0.00    -0.252 OA
BRANCH   3   5
ATOM      5  C   UNL A   1      32.650  26.967  23.155  1.00  0.00     0.084 C 
ATOM      6  N   UNL A   1      33.422  24.724  23.568  1.00  0.00    -0.341 N 
ATOM      7  C   UNL A   1      32.237  24.611  22.735  1.00  0.00     0.120 C 
ATOM      8  C   UNL A   1      33.710  26.108  23.873  1.00  0.00     0.138 C 
ATOM      9  C   UNL A   1      32.022  25.995  22.144  1.00  0.00     0.042 C 
ATOM     10  C   UNL A   1      33.312  28.149  22.434  1.00  0.00     0.026 C 
BRANCH   6  11
ATOM     11  C   UNL A   1      34.348  23.696  23.654  1.00  0.00     0.230 C 
ATOM     12  O   UNL A   1      34.980  23.381  22.642  1.00  0.00    -0.274 OA
BRANCH  11  13
ATOM     13  C   UNL A   1      34.421  22.857  24.977  1.00  0.00     0.108 C 
BRANCH  13  14
ATOM     14  C   UNL A   1      35.740  22.822  25.793  1.00  0.00     0.018 C 
BRANCH  14  15
ATOM     15  C   UNL A   1      36.926  23.748  25.486  1.00  0.00    -0.002 C 
ATOM     16  C   UNL A   1      38.268  23.358  26.074  1.00  0.00     0.004 C 
ENDBRANCH  14  15
ENDBRANCH  13  14
BRANCH  13  17
ATOM     17  C   UNL A   1      34.057  21.385  24.654  1.00  0.00    -0.036 A 
ATOM     18  C   UNL A   1      32.814  21.044  24.099  1.00  0.00     0.004 A 
ATOM     19  C   UNL A   1      34.975  20.349  24.919  1.00  0.00     0.004 A 
ATOM     20  C   UNL A   1      32.490  19.703  23.856  1.00  0.00     0.000 A 
ATOM     21  C   UNL A   1      34.644  19.013  24.690  1.00  0.00     0.000 A 
ATOM     22  C   UNL A   1      33.399  18.690  24.162  1.00  0.00     0.000 A 
ENDBRANCH  13  17
ENDBRANCH  11  13
ENDBRANCH   6  11
ENDBRANCH   3   5
ENDBRANCH   2   3
ENDBRANCH   1   2
BRANCH   1  23
ATOM     23  C   UNL A   1      33.707  29.300  25.944  1.00  0.00     0.275 C 
BRANCH  23  24
ATOM     24  O   UNL A   1      34.001  29.137  27.343  1.00  0.00    -0.458 OA
BRANCH  24  25
ATOM     25  C   UNL A   1      34.539  30.223  27.943  1.00  0.00     0.338 C 
ATOM     26  O   UNL A   1      33.951  31.232  28.298  1.00  0.00    -0.246 OA
BRANCH  25  27
ATOM     27  C   UNL A   1      35.941  29.944  28.298  1.00  0.00     0.060 A 
ATOM     28  C   UNL A   1      36.884  30.130  27.292  1.00  0.00     0.016 A 
ATOM     29  C   UNL A   1      36.332  29.462  29.550  1.00  0.00     0.016 A 
ATOM     30  C   UNL A   1      38.219  29.840  27.527  1.00  0.00     0.010 A 
ATOM     31  C   UNL A   1      37.687  29.168  29.783  1.00  0.00     0.010 A 
ATOM     32  C   UNL A   1      38.636  29.360  28.768  1.00  0.00    -0.014 A 
BRANCH  32  33
ATOM     33  C   UNL A   1      40.069  29.013  28.909  1.00  0.00     0.031 A 
ATOM     34  C   UNL A   1      40.997  29.991  29.566  1.00  0.00     0.074 A 
ATOM     35  C   UNL A   1      40.495  27.769  28.620  1.00  0.00     0.049 A 
ATOM     36  N   UNL A   1      42.284  29.896  29.770  1.00  0.00    -0.248 NA
ATOM     37  C   UNL A   1      40.390  31.223  30.094  1.00  0.00     0.031 C 
ATOM     38  C   UNL A   1      39.645  26.676  28.147  1.00  0.00     0.029 A 
ATOM     39  N   UNL A   1      41.742  27.205  28.718  1.00  0.00    -0.354 N 
ATOM     40  C   UNL A   1      42.650  31.066  30.420  1.00  0.00     0.074 A 
ATOM     41  C   UNL A   1      41.444  31.844  30.606  1.00  0.00     0.031 C 
ATOM     42  C   UNL A   1      40.396  25.570  28.005  1.00  0.00     0.029 A 
ATOM     43  C   UNL A   1      41.787  25.891  28.316  1.00  0.00     0.049 A 
ATOM     44  H   UNL A   1      42.530  27.695  29.045  1.00  0.00     0.167 HD
ATOM     45  C   UNL A   1      43.886  31.463  30.802  1.00  0.00     0.037 A 
ATOM     46  C   UNL A   1      42.838  25.058  28.178  1.00  0.00     0.037 A 
ATOM     47  C   UNL A   1      45.081  30.688  30.601  1.00  0.00     0.049 A 
ATOM     48  C   UNL A   1      44.222  25.570  28.492  1.00  0.00     0.074 A 
ATOM     49  C   UNL A   1      46.393  31.044  30.862  1.00  0.00     0.029 A 
ATOM     50  N   UNL A   1      45.110  29.399  30.090  1.00  0.00    -0.354 N 
ATOM     51  N   UNL A   1      44.578  26.724  29.003  1.00  0.00    -0.248 NA
ATOM     52  C   UNL A   1      45.351  24.679  28.182  1.00  0.00     0.031 C 
ATOM     53  C   UNL A   1      47.218  29.986  30.468  1.00  0.00     0.029 A 
ATOM     54  C   UNL A   1      46.417  28.953  30.006  1.00  0.00     0.049 A 
ATOM     55  H   UNL A   1      44.317  28.879  29.826  1.00  0.00     0.167 HD
ATOM     56  C   UNL A   1      45.966  26.695  29.083  1.00  0.00     0.074 A 
ATOM     57  C   UNL A   1      46.386  25.401  28.588  1.00  0.00     0.031 C 
ATOM     58  C   UNL A   1      46.817  27.657  29.518  1.00  0.00     0.037 A 
BRANCH  45  59
ATOM     59  C   UNL A   1      44.012  32.840  31.383  1.00  0.00     0.058 A 
ATOM     60  C   UNL A   1      44.185  33.977  30.580  1.00  0.00     0.135 A 
ATOM     61  C   UNL A   1      43.953  33.015  32.775  1.00  0.00     0.135 A 
ATOM     62  F   UNL A   1      44.274  33.856  29.247  1.00  0.00    -0.206 F 
ATOM     63  C   UNL A   1      44.312  35.244  31.143  1.00  0.00     0.059 A 
ATOM     64  C   UNL A   1      44.059  34.273  33.356  1.00  0.00     0.059 A 
ATOM     65  F   UNL A   1      43.800  31.954  33.583  1.00  0.00    -0.206 F 
ATOM     66  C   UNL A   1      44.251  35.380  32.532  1.00  0.00     0.060 A 
BRANCH  66  67
ATOM     67  S   UNL A   1      44.425  37.025  33.254  1.00  0.00     0.124 S 
ATOM     68  O   UNL A   1      43.133  37.193  33.912  1.00  0.00    -0.237 OA
ATOM     69  O   UNL A   1      45.572  36.860  34.141  1.00  0.00    -0.237 OA
ATOM     70  O   UNL A   1      44.654  37.883  32.094  1.00  0.00    -0.744 OA
ENDBRANCH  66  67
ENDBRANCH  45  59
BRANCH  46  71
ATOM     71  C   UNL A   1      42.647  23.681  27.644  1.00  0.00     0.058 A 
ATOM     72  C   UNL A   1      42.464  22.584  28.500  1.00  0.00     0.135 A 
ATOM     73  C   UNL A   1      42.684  23.430  26.263  1.00  0.00     0.135 A 
ATOM     74  F   UNL A   1      42.439  22.767  29.828  1.00  0.00    -0.206 F 
ATOM     75  C   UNL A   1      42.345  21.287  28.008  1.00  0.00     0.059 A 
ATOM     76  C   UNL A   1      42.538  22.147  25.746  1.00  0.00     0.059 A 
ATOM     77  F   UNL A   1      42.856  24.442  25.398  1.00  0.00    -0.206 F 
ATOM     78  C   UNL A   1      42.385  21.078  26.628  1.00  0.00     0.060 A 
BRANCH  78  79
ATOM     79  S   UNL A   1      42.208  19.399  25.989  1.00  0.00     0.124 S 
ATOM     80  O   UNL A   1      43.038  19.454  24.790  1.00  0.00    -0.237 OA
ATOM     81  O   UNL A   1      42.727  18.591  27.088  1.00  0.00    -0.237 OA
ATOM     82  O   UNL A   1      40.771  19.280  25.758  1.00  0.00    -0.744 OA
ENDBRANCH  78  79
ENDBRANCH  46  71
BRANCH  58  83
ATOM     83  C   UNL A   1      48.289  27.350  29.493  1.00  0.00     0.058 A 
ATOM     84  C   UNL A   1      49.086  27.674  28.384  1.00  0.00     0.135 A 
ATOM     85  C   UNL A   1      48.921  26.805  30.621  1.00  0.00     0.135 A 
ATOM     86  F   UNL A   1      48.527  28.192  27.279  1.00  0.00    -0.206 F 
ATOM     87  C   UNL A   1      50.460  27.458  28.390  1.00  0.00     0.059 A 
ATOM     88  C   UNL A   1      50.297  26.602  30.658  1.00  0.00     0.059 A 
ATOM     89  F   UNL A   1      48.205  26.488  31.711  1.00  0.00    -0.206 F 
ATOM     90  C   UNL A   1      51.058  26.926  29.535  1.00  0.00     0.060 A 
BRANCH  90  91
ATOM     91  S   UNL A   1      52.851  26.709  29.556  1.00  0.00     0.124 S 
ATOM     92  O   UNL A   1      53.028  25.832  30.709  1.00  0.00    -0.237 OA
ATOM     93  O   UNL A   1      53.109  26.104  28.253  1.00  0.00    -0.237 OA
ATOM     94  O   UNL A   1      53.355  28.070  29.718  1.00  0.00    -0.744 OA
ENDBRANCH  90  91
ENDBRANCH  58  83
ENDBRANCH  32  33
ENDBRANCH  25  27
ENDBRANCH  24  25
ENDBRANCH  23  24
ENDBRANCH   1  23
TORSDOF 19
ENDMDL
MODEL 3
REMARK VINA RESULT:     -10.4      2.163      2.922
REMARK SMILES CCC[C@@H](C(=O)N1CC[C@@](C)(C(=O)OCCOC(=O)c2ccc(-c3c4nc(c(-c5c(F)cc(S(=O)(=O)[O-])cc5F)c5ccc([nH]5)c(-c5c(F)cc(S(=O)(=O)[O-])cc5F)c5nc(c(-c6c(F)cc(S(=O)(=O)[O-])cc6F)c6ccc3[nH]6)C=C5)C=C4)cc2)C1)c1ccccc1
REMARK SMILES IDX 15 1 14 2 12 3 13 4 10 5 7 6 8 7 86 8 9 9 11 10 5 11 6 12
REMARK SMILES IDX 4 13 3 14 2 15 1 16 87 17 88 18 92 19 89 20 91 21 90 22
REMARK SMILES IDX 16 23 17 24 18 25 19 26 20 27 21 28 85 29 22 30 84 31 23 32
REMARK SMILES IDX 24 33 25 34 78 35 26 36 83 37 77 38 79 39 27 40 82 41 76 42
REMARK SMILES IDX 75 43 28 45 62 46 41 47 61 48 42 49 45 50 60 51 80 52 43 53
REMARK SMILES IDX 44 54 59 56 81 57 46 58 29 59 30 60 39 61 31 62 32 63 38 64
REMARK SMILES IDX 40 65 33 66 34 67 35 68 36 69 37 70 63 71 64 72 73 73 65 74
REMARK SMILES IDX 66 75 72 76 74 77 67 78 68 79 69 80 70 81 71 82 47 83 48 84
REMARK SMILES IDX 57 85 49 86 50 87 56 88 58 89 51 90 52 91 53 92 54 93 55 94
REMARK H PARENT 79 44 45 55
REMARK Flexibility Score: inf
ROOT
ATOM      1  C   UNL A   1      32.155  28.934  25.759  1.00  0.00     0.274 C 
ENDROOT
BRANCH   1   2
ATOM      2  O   UNL A   1      32.413  27.570  25.364  1.00  0.00    -0.462 OA
BRANCH   2   3
ATOM      3  C   UNL A   1      31.653  27.087  24.343  1.00  0.00     0.313 C 
ATOM      4  O   UNL A   1      30.582  27.577  24.000  1.00  0.00    -0.252 OA
BRANCH   3   5
ATOM      5  C   UNL A   1      32.196  25.773  23.780  1.00  0.00     0.084 C 
ATOM      6  N   UNL A   1      32.784  24.071  25.378  1.00  0.00    -0.341 N 
ATOM      7  C   UNL A   1      31.401  23.832  25.004  1.00  0.00     0.120 C 
ATOM      8  C   UNL A   1      33.311  25.232  24.696  1.00  0.00     0.138 C 
ATOM      9  C   UNL A   1      31.186  24.616  23.720  1.00  0.00     0.042 C 
ATOM     10  C   UNL A   1      32.750  26.086  22.383  1.00  0.00     0.026 C 
BRANCH   6  11
ATOM     11  C   UNL A   1      33.565  23.073  25.940  1.00  0.00     0.230 C 
ATOM     12  O   UNL A   1      33.660  23.016  27.169  1.00  0.00    -0.274 OA
BRANCH  11  13
ATOM     13  C   UNL A   1      34.437  22.177  24.994  1.00  0.00     0.108 C 
BRANCH  13  14
ATOM     14  C   UNL A   1      34.215  20.641  24.970  1.00  0.00     0.018 C 
BRANCH  14  15
ATOM     15  C   UNL A   1      32.825  20.010  24.808  1.00  0.00    -0.002 C 
ATOM     16  C   UNL A   1      32.643  19.040  23.656  1.00  0.00     0.004 C 
ENDBRANCH  14  15
ENDBRANCH  13  14
BRANCH  13  17
ATOM     17  C   UNL A   1      35.933  22.405  25.330  1.00  0.00    -0.036 A 
ATOM     18  C   UNL A   1      36.865  21.358  25.266  1.00  0.00     0.004 A 
ATOM     19  C   UNL A   1      36.390  23.681  25.718  1.00  0.00     0.004 A 
ATOM     20  C   UNL A   1      38.203  21.578  25.617  1.00  0.00     0.000 A 
ATOM     21  C   UNL A   1      37.720  23.893  26.081  1.00  0.00     0.000 A 
ATOM     22  C   UNL A   1      38.626  22.840  26.035  1.00  0.00     0.000 A 
ENDBRANCH  13  17
ENDBRANCH  11  13
ENDBRANCH   6  11
ENDBRANCH   3   5
ENDBRANCH   2   3
ENDBRANCH   1   2
BRANCH   1  23
ATOM     23  C   UNL A   1      32.514  29.200  27.223  1.00  0.00     0.275 C 
BRANCH  23  24
ATOM     24  O   UNL A   1      33.932  29.109  27.450  1.00  0.00    -0.458 OA
BRANCH  24  25
ATOM     25  C   UNL A   1      34.502  30.228  27.953  1.00  0.00     0.338 C 
ATOM     26  O   UNL A   1      33.937  31.268  28.250  1.00  0.00    -0.246 OA
BRANCH  25  27
ATOM     27  C   UNL A   1      35.910  29.955  28.289  1.00  0.00     0.060 A 
ATOM     28  C   UNL A   1      36.830  30.094  27.254  1.00  0.00     0.016 A 
ATOM     29  C   UNL A   1      36.327  29.521  29.550  1.00  0.00     0.016 A 
ATOM     30  C   UNL A   1      38.169  29.806  27.471  1.00  0.00     0.010 A 
ATOM     31  C   UNL A   1      37.685  29.229  29.764  1.00  0.00     0.010 A 
ATOM     32  C   UNL A   1      38.612  29.374  28.721  1.00  0.00    -0.014 A 
BRANCH  32  33
ATOM     33  C   UNL A   1      40.045  29.025  28.844  1.00  0.00     0.031 A 
ATOM     34  C   UNL A   1      40.986  30.007  29.476  1.00  0.00     0.074 A 
ATOM     35  C   UNL A   1      40.464  27.777  28.563  1.00  0.00     0.049 A 
ATOM     36  N   UNL A   1      42.276  29.911  29.660  1.00  0.00    -0.248 NA
ATOM     37  C   UNL A   1      40.391  31.247  29.998  1.00  0.00     0.031 C 
ATOM     38  C   UNL A   1      39.604  26.681  28.116  1.00  0.00     0.029 A 
ATOM     39  N   UNL A   1      41.710  27.210  28.648  1.00  0.00    -0.354 N 
ATOM     40  C   UNL A   1      42.655  31.088  30.291  1.00  0.00     0.074 A 
ATOM     41  C   UNL A   1      41.454  31.871  30.486  1.00  0.00     0.031 C 
ATOM     42  C   UNL A   1      40.349  25.570  27.975  1.00  0.00     0.029 A 
ATOM     43  C   UNL A   1      41.746  25.891  28.261  1.00  0.00     0.049 A 
ATOM     44  H   UNL A   1      42.505  27.702  28.957  1.00  0.00     0.167 HD
ATOM     45  C   UNL A   1      43.898  31.486  30.649  1.00  0.00     0.037 A 
ATOM     46  C   UNL A   1      42.793  25.053  28.116  1.00  0.00     0.037 A 
ATOM     47  C   UNL A   1      45.088  30.705  30.438  1.00  0.00     0.049 A 
ATOM     48  C   UNL A   1      44.182  25.566  28.404  1.00  0.00     0.074 A 
ATOM     49  C   UNL A   1      46.404  31.060  30.675  1.00  0.00     0.029 A 
ATOM     50  N   UNL A   1      45.105  29.410  29.942  1.00  0.00    -0.354 N 
ATOM     51  N   UNL A   1      44.549  26.724  28.896  1.00  0.00    -0.248 NA
ATOM     52  C   UNL A   1      45.304  24.667  28.086  1.00  0.00     0.031 C 
ATOM     53  C   UNL A   1      47.220  29.995  30.281  1.00  0.00     0.029 A 
ATOM     54  C   UNL A   1      46.410  28.960  29.843  1.00  0.00     0.049 A 
ATOM     55  H   UNL A   1      44.307  28.889  29.697  1.00  0.00     0.167 HD
ATOM     56  C   UNL A   1      45.938  26.692  28.954  1.00  0.00     0.074 A 
ATOM     57  C   UNL A   1      46.348  25.391  28.467  1.00  0.00     0.031 C 
ATOM     58  C   UNL A   1      46.799  27.657  29.364  1.00  0.00     0.037 A 
BRANCH  45  59
ATOM     59  C   UNL A   1      44.037  32.869  31.212  1.00  0.00     0.058 A 
ATOM     60  C   UNL A   1      44.080  33.113  32.592  1.00  0.00     0.135 A 
ATOM     61  C   UNL A   1      44.135  33.967  30.341  1.00  0.00     0.135 A 
ATOM     62  F   UNL A   1      43.964  32.099  33.462  1.00  0.00    -0.206 F 
ATOM     63  C   UNL A   1      44.198  34.408  33.091  1.00  0.00     0.059 A 
ATOM     64  C   UNL A   1      44.272  35.265  30.818  1.00  0.00     0.059 A 
ATOM     65  F   UNL A   1      44.087  33.782  29.012  1.00  0.00    -0.206 F 
ATOM     66  C   UNL A   1      44.289  35.476  32.196  1.00  0.00     0.060 A 
BRANCH  66  67
ATOM     67  S   UNL A   1      44.433  37.152  32.852  1.00  0.00     0.124 S 
ATOM     68  O   UNL A   1      43.045  37.450  33.193  1.00  0.00    -0.237 OA
ATOM     69  O   UNL A   1      45.339  36.971  33.981  1.00  0.00    -0.237 OA
ATOM     70  O   UNL A   1      44.979  37.911  31.730  1.00  0.00    -0.744 OA
ENDBRANCH  66  67
ENDBRANCH  45  59
BRANCH  46  71
ATOM     71  C   UNL A   1      42.590  23.671  27.602  1.00  0.00     0.058 A 
ATOM     72  C   UNL A   1      42.491  22.575  28.472  1.00  0.00     0.135 A 
ATOM     73  C   UNL A   1      42.529  23.415  26.222  1.00  0.00     0.135 A 
ATOM     74  F   UNL A   1      42.561  22.762  29.798  1.00  0.00    -0.206 F 
ATOM     75  C   UNL A   1      42.361  21.273  27.994  1.00  0.00     0.059 A 
ATOM     76  C   UNL A   1      42.371  22.128  25.721  1.00  0.00     0.059 A 
ATOM     77  F   UNL A   1      42.617  24.427  25.344  1.00  0.00    -0.206 F 
ATOM     78  C   UNL A   1      42.304  21.060  26.615  1.00  0.00     0.060 A 
BRANCH  78  79
ATOM     79  S   UNL A   1      42.113  19.374  25.994  1.00  0.00     0.124 S 
ATOM     80  O   UNL A   1      42.577  18.590  27.134  1.00  0.00    -0.237 OA
ATOM     81  O   UNL A   1      40.683  19.307  25.711  1.00  0.00    -0.237 OA
ATOM     82  O   UNL A   1      42.979  19.353  24.818  1.00  0.00    -0.744 OA
ENDBRANCH  78  79
ENDBRANCH  46  71
BRANCH  58  83
ATOM     83  C   UNL A   1      48.269  27.345  29.320  1.00  0.00     0.058 A 
ATOM     84  C   UNL A   1      49.048  27.649  28.193  1.00  0.00     0.135 A 
ATOM     85  C   UNL A   1      48.918  26.816  30.447  1.00  0.00     0.135 A 
ATOM     86  F   UNL A   1      48.473  28.152  27.090  1.00  0.00    -0.206 F 
ATOM     87  C   UNL A   1      50.422  27.430  28.181  1.00  0.00     0.059 A 
ATOM     88  C   UNL A   1      50.294  26.610  30.464  1.00  0.00     0.059 A 
ATOM     89  F   UNL A   1      48.219  26.518  31.553  1.00  0.00    -0.206 F 
ATOM     90  C   UNL A   1      51.038  26.914  29.324  1.00  0.00     0.060 A 
BRANCH  90  91
ATOM     91  S   UNL A   1      52.829  26.693  29.319  1.00  0.00     0.124 S 
ATOM     92  O   UNL A   1      53.040  25.971  30.570  1.00  0.00    -0.237 OA
ATOM     93  O   UNL A   1      53.048  25.922  28.099  1.00  0.00    -0.237 OA
ATOM     94  O   UNL A   1      53.340  28.060  29.288  1.00  0.00    -0.744 OA
ENDBRANCH  90  91
ENDBRANCH  58  83
ENDBRANCH  32  33
ENDBRANCH  25  27
ENDBRANCH  24  25
ENDBRANCH  23  24
ENDBRANCH   1  23
TORSDOF 19
ENDMDL
