MODEL 1
REMARK VINA RESULT:     -11.7      0.000      0.000
REMARK SMILES Nc1cc(C(=O)OCCOC(=O)c2ccc(-c3c4nc(c(-c5c(F)cc(S(=O)(=O)[O-])cc5F)c5ccc([nH]5)c(-c5c(F)cc(S(=O)(=O)[O-])cc5F)c5nc(c(-c6c(F)cc(S(=O)(=O)[O-])cc6F)c6ccc3[nH]6)C=C5)C=C4)cc2)ccc1N1CC2(CCOCC2)C1
REMARK SMILES IDX 9 1 8 2 7 3 5 4 6 5 4 6 2 7 3 8 81 9 80 10 79 11 1 12 82 15
REMARK SMILES IDX 83 16 90 17 84 18 85 19 89 20 86 21 88 22 87 23 10 24 11 25
REMARK SMILES IDX 12 26 13 27 14 28 78 29 15 30 77 31 16 32 17 33 18 34 71 35
REMARK SMILES IDX 19 36 76 37 70 38 72 39 20 40 75 41 69 42 68 43 21 45 55 46
REMARK SMILES IDX 34 47 54 48 35 49 38 50 53 51 73 52 36 53 37 54 52 56 74 57
REMARK SMILES IDX 39 58 22 59 23 60 32 61 24 62 25 63 31 64 33 65 26 66 27 67
REMARK SMILES IDX 28 68 29 69 30 70 56 71 57 72 66 73 58 74 59 75 65 76 67 77
REMARK SMILES IDX 60 78 61 79 62 80 63 81 64 82 40 83 41 84 50 85 42 86 43 87
REMARK SMILES IDX 49 88 51 89 44 90 45 91 46 92 47 93 48 94
REMARK H PARENT 1 13 1 14 72 44 38 55
REMARK Flexibility Score: inf
ROOT
ATOM      1  C   UNL A   1      34.314  31.589  28.384  1.00  0.00     0.275 C 
ENDROOT
BRANCH   1   2
ATOM      2  C   UNL A   1      33.394  31.254  27.211  1.00  0.00     0.275 C 
BRANCH   2   3
ATOM      3  O   UNL A   1      32.764  29.972  27.413  1.00  0.00    -0.458 OA
BRANCH   3   4
ATOM      4  C   UNL A   1      32.101  29.482  26.335  1.00  0.00     0.338 C 
ATOM      5  O   UNL A   1      31.388  30.112  25.572  1.00  0.00    -0.246 OA
BRANCH   4   6
ATOM      6  C   UNL A   1      32.451  28.061  26.114  1.00  0.00     0.062 A 
ATOM      7  C   UNL A   1      31.751  25.726  26.345  1.00  0.00     0.056 A 
ATOM      8  C   UNL A   1      31.541  27.094  26.554  1.00  0.00     0.043 A 
ATOM      9  C   UNL A   1      32.993  25.312  25.821  1.00  0.00     0.060 A 
ATOM     10  C   UNL A   1      33.921  26.297  25.413  1.00  0.00     0.029 A 
ATOM     11  C   UNL A   1      33.644  27.662  25.525  1.00  0.00     0.018 A 
BRANCH   7  12
ATOM     12  N   UNL A   1      30.787  24.859  26.850  1.00  0.00    -0.397 N 
ATOM     13  H   UNL A   1      31.059  24.012  27.272  1.00  0.00     0.156 HD
ATOM     14  H   UNL A   1      29.833  25.093  26.786  1.00  0.00     0.156 HD
ENDBRANCH   7  12
BRANCH   9  15
ATOM     15  N   UNL A   1      33.417  23.967  25.725  1.00  0.00    -0.369 N 
ATOM     16  C   UNL A   1      34.601  23.307  26.168  1.00  0.00     0.125 C 
ATOM     17  C   UNL A   1      33.277  23.168  24.539  1.00  0.00     0.125 C 
ATOM     18  C   UNL A   1      34.690  22.608  24.790  1.00  0.00     0.010 C 
ATOM     19  C   UNL A   1      34.783  21.080  24.851  1.00  0.00     0.039 C 
ATOM     20  C   UNL A   1      35.735  23.142  23.799  1.00  0.00     0.039 C 
ATOM     21  C   UNL A   1      36.214  20.690  25.207  1.00  0.00     0.161 C 
ATOM     22  C   UNL A   1      37.114  22.644  24.212  1.00  0.00     0.161 C 
ATOM     23  O   UNL A   1      37.127  21.213  24.238  1.00  0.00    -0.381 OA
ENDBRANCH   9  15
ENDBRANCH   4   6
ENDBRANCH   3   4
ENDBRANCH   2   3
ENDBRANCH   1   2
BRANCH   1  24
ATOM     24  O   UNL A   1      35.460  30.720  28.361  1.00  0.00    -0.458 OA
BRANCH  24  25
ATOM     25  C   UNL A   1      36.163  30.638  29.516  1.00  0.00     0.338 C 
ATOM     26  O   UNL A   1      35.803  31.012  30.619  1.00  0.00    -0.246 OA
BRANCH  25  27
ATOM     27  C   UNL A   1      37.485  30.026  29.259  1.00  0.00     0.060 A 
ATOM     28  C   UNL A   1      38.300  29.624  30.316  1.00  0.00     0.016 A 
ATOM     29  C   UNL A   1      37.958  29.931  27.951  1.00  0.00     0.016 A 
ATOM     30  C   UNL A   1      39.617  29.222  30.080  1.00  0.00     0.010 A 
ATOM     31  C   UNL A   1      39.243  29.428  27.709  1.00  0.00     0.010 A 
ATOM     32  C   UNL A   1      40.108  29.106  28.770  1.00  0.00    -0.014 A 
BRANCH  32  33
ATOM     33  C   UNL A   1      41.522  28.696  28.503  1.00  0.00     0.031 A 
ATOM     34  C   UNL A   1      42.636  29.715  28.594  1.00  0.00     0.074 A 
ATOM     35  C   UNL A   1      41.830  27.423  28.177  1.00  0.00     0.049 A 
ATOM     36  N   UNL A   1      43.883  29.618  28.203  1.00  0.00    -0.248 NA
ATOM     37  C   UNL A   1      42.300  31.020  29.186  1.00  0.00     0.031 C 
ATOM     38  C   UNL A   1      40.880  26.314  28.076  1.00  0.00     0.029 A 
ATOM     39  N   UNL A   1      43.040  26.843  27.871  1.00  0.00    -0.354 N 
ATOM     40  C   UNL A   1      44.454  30.867  28.429  1.00  0.00     0.074 A 
ATOM     41  C   UNL A   1      43.421  31.703  29.003  1.00  0.00     0.031 C 
ATOM     42  C   UNL A   1      41.543  25.186  27.778  1.00  0.00     0.029 A 
ATOM     43  C   UNL A   1      42.953  25.502  27.577  1.00  0.00     0.049 A 
ATOM     44  H   UNL A   1      43.889  27.343  27.862  1.00  0.00     0.167 HD
ATOM     45  C   UNL A   1      45.719  31.281  28.179  1.00  0.00     0.037 A 
ATOM     46  C   UNL A   1      43.887  24.626  27.152  1.00  0.00     0.037 A 
ATOM     47  C   UNL A   1      46.772  30.429  27.686  1.00  0.00     0.049 A 
ATOM     48  C   UNL A   1      45.289  25.104  26.898  1.00  0.00     0.074 A 
ATOM     49  C   UNL A   1      48.094  30.755  27.430  1.00  0.00     0.029 A 
ATOM     50  N   UNL A   1      46.634  29.080  27.403  1.00  0.00    -0.354 N 
ATOM     51  N   UNL A   1      45.791  26.304  27.053  1.00  0.00    -0.248 NA
ATOM     52  C   UNL A   1      46.246  24.111  26.386  1.00  0.00     0.031 C 
ATOM     53  C   UNL A   1      48.750  29.607  26.971  1.00  0.00     0.029 A 
ATOM     54  C   UNL A   1      47.843  28.560  26.973  1.00  0.00     0.049 A 
ATOM     55  H   UNL A   1      45.798  28.567  27.493  1.00  0.00     0.167 HD
ATOM     56  C   UNL A   1      47.122  26.212  26.659  1.00  0.00     0.074 A 
ATOM     57  C   UNL A   1      47.354  24.833  26.282  1.00  0.00     0.031 C 
ATOM     58  C   UNL A   1      48.063  27.186  26.607  1.00  0.00     0.037 A 
BRANCH  45  59
ATOM     59  C   UNL A   1      46.043  32.731  28.408  1.00  0.00     0.058 A 
ATOM     60  C   UNL A   1      46.555  33.196  29.628  1.00  0.00     0.135 A 
ATOM     61  C   UNL A   1      45.886  33.660  27.365  1.00  0.00     0.135 A 
ATOM     62  F   UNL A   1      46.709  32.354  30.662  1.00  0.00    -0.206 F 
ATOM     63  C   UNL A   1      46.884  34.536  29.813  1.00  0.00     0.059 A 
ATOM     64  C   UNL A   1      46.229  34.999  27.521  1.00  0.00     0.059 A 
ATOM     65  F   UNL A   1      45.400  33.266  26.177  1.00  0.00    -0.206 F 
ATOM     66  C   UNL A   1      46.717  35.430  28.754  1.00  0.00     0.060 A 
BRANCH  66  67
ATOM     67  S   UNL A   1      47.163  37.163  29.000  1.00  0.00     0.124 S 
ATOM     68  O   UNL A   1      47.798  37.115  30.313  1.00  0.00    -0.237 OA
ATOM     69  O   UNL A   1      48.055  37.422  27.874  1.00  0.00    -0.237 OA
ATOM     70  O   UNL A   1      45.878  37.854  28.947  1.00  0.00    -0.744 OA
ENDBRANCH  66  67
ENDBRANCH  45  59
BRANCH  46  71
ATOM     71  C   UNL A   1      43.513  23.209  26.897  1.00  0.00     0.058 A 
ATOM     72  C   UNL A   1      43.224  22.339  27.957  1.00  0.00     0.135 A 
ATOM     73  C   UNL A   1      43.431  22.702  25.591  1.00  0.00     0.135 A 
ATOM     74  F   UNL A   1      43.303  22.774  29.224  1.00  0.00    -0.206 F 
ATOM     75  C   UNL A   1      42.870  21.011  27.734  1.00  0.00     0.059 A 
ATOM     76  C   UNL A   1      43.056  21.386  25.341  1.00  0.00     0.059 A 
ATOM     77  F   UNL A   1      43.690  23.498  24.543  1.00  0.00    -0.206 F 
ATOM     78  C   UNL A   1      42.787  20.545  26.421  1.00  0.00     0.060 A 
BRANCH  78  79
ATOM     79  S   UNL A   1      42.269  18.840  26.128  1.00  0.00     0.124 S 
ATOM     80  O   UNL A   1      42.528  18.229  27.427  1.00  0.00    -0.237 OA
ATOM     81  O   UNL A   1      40.865  18.998  25.765  1.00  0.00    -0.237 OA
ATOM     82  O   UNL A   1      43.143  18.411  25.039  1.00  0.00    -0.744 OA
ENDBRANCH  78  79
ENDBRANCH  46  71
BRANCH  58  83
ATOM     83  C   UNL A   1      49.436  26.789  26.147  1.00  0.00     0.058 A 
ATOM     84  C   UNL A   1      50.351  26.176  27.017  1.00  0.00     0.135 A 
ATOM     85  C   UNL A   1      49.826  26.989  24.814  1.00  0.00     0.135 A 
ATOM     86  F   UNL A   1      50.025  25.970  28.303  1.00  0.00    -0.206 F 
ATOM     87  C   UNL A   1      51.616  25.791  26.586  1.00  0.00     0.059 A 
ATOM     88  C   UNL A   1      51.080  26.596  24.356  1.00  0.00     0.059 A 
ATOM     89  F   UNL A   1      48.983  27.564  23.942  1.00  0.00    -0.206 F 
ATOM     90  C   UNL A   1      51.973  26.008  25.252  1.00  0.00     0.060 A 
BRANCH  90  91
ATOM     91  S   UNL A   1      53.608  25.483  24.693  1.00  0.00     0.124 S 
ATOM     92  O   UNL A   1      54.473  26.131  25.673  1.00  0.00    -0.237 OA
ATOM     93  O   UNL A   1      53.522  24.029  24.787  1.00  0.00    -0.237 OA
ATOM     94  O   UNL A   1      53.686  26.014  23.336  1.00  0.00    -0.744 OA
ENDBRANCH  90  91
ENDBRANCH  58  83
ENDBRANCH  32  33
ENDBRANCH  25  27
ENDBRANCH  24  25
ENDBRANCH   1  24
TORSDOF 16
ENDMDL
MODEL 2
REMARK VINA RESULT:     -11.5      1.863      2.574
REMARK SMILES Nc1cc(C(=O)OCCOC(=O)c2ccc(-c3c4nc(c(-c5c(F)cc(S(=O)(=O)[O-])cc5F)c5ccc([nH]5)c(-c5c(F)cc(S(=O)(=O)[O-])cc5F)c5nc(c(-c6c(F)cc(S(=O)(=O)[O-])cc6F)c6ccc3[nH]6)C=C5)C=C4)cc2)ccc1N1CC2(CCOCC2)C1
REMARK SMILES IDX 9 1 8 2 7 3 5 4 6 5 4 6 2 7 3 8 81 9 80 10 79 11 1 12 82 15
REMARK SMILES IDX 83 16 90 17 84 18 85 19 89 20 86 21 88 22 87 23 10 24 11 25
REMARK SMILES IDX 12 26 13 27 14 28 78 29 15 30 77 31 16 32 17 33 18 34 71 35
REMARK SMILES IDX 19 36 76 37 70 38 72 39 20 40 75 41 69 42 68 43 21 45 55 46
REMARK SMILES IDX 34 47 54 48 35 49 38 50 53 51 73 52 36 53 37 54 52 56 74 57
REMARK SMILES IDX 39 58 22 59 23 60 32 61 24 62 25 63 31 64 33 65 26 66 27 67
REMARK SMILES IDX 28 68 29 69 30 70 56 71 57 72 66 73 58 74 59 75 65 76 67 77
REMARK SMILES IDX 60 78 61 79 62 80 63 81 64 82 40 83 41 84 50 85 42 86 43 87
REMARK SMILES IDX 49 88 51 89 44 90 45 91 46 92 47 93 48 94
REMARK H PARENT 1 13 1 14 72 44 38 55
REMARK Flexibility Score: inf
ROOT
ATOM      1  C   UNL A   1      32.847  30.481  26.961  1.00  0.00     0.275 C 
ENDROOT
BRANCH   1   2
ATOM      2  C   UNL A   1      32.652  29.914  25.556  1.00  0.00     0.275 C 
BRANCH   2   3
ATOM      3  O   UNL A   1      31.260  29.613  25.323  1.00  0.00    -0.458 OA
BRANCH   3   4
ATOM      4  C   UNL A   1      31.007  28.914  24.187  1.00  0.00     0.338 C 
ATOM      5  O   UNL A   1      30.533  29.355  23.153  1.00  0.00    -0.246 OA
BRANCH   4   6
ATOM      6  C   UNL A   1      31.501  27.525  24.312  1.00  0.00     0.062 A 
ATOM      7  C   UNL A   1      31.507  25.472  25.647  1.00  0.00     0.056 A 
ATOM      8  C   UNL A   1      31.138  26.809  25.457  1.00  0.00     0.043 A 
ATOM      9  C   UNL A   1      32.406  24.889  24.730  1.00  0.00     0.060 A 
ATOM     10  C   UNL A   1      32.796  25.635  23.594  1.00  0.00     0.029 A 
ATOM     11  C   UNL A   1      32.325  26.930  23.364  1.00  0.00     0.018 A 
BRANCH   7  12
ATOM     12  N   UNL A   1      31.107  24.874  26.838  1.00  0.00    -0.397 N 
ATOM     13  H   UNL A   1      30.180  24.558  26.943  1.00  0.00     0.156 HD
ATOM     14  H   UNL A   1      31.750  24.767  27.576  1.00  0.00     0.156 HD
ENDBRANCH   7  12
BRANCH   9  15
ATOM     15  N   UNL A   1      33.007  23.620  24.889  1.00  0.00    -0.369 N 
ATOM     16  C   UNL A   1      34.171  23.199  25.597  1.00  0.00     0.125 C 
ATOM     17  C   UNL A   1      33.175  22.676  23.819  1.00  0.00     0.125 C 
ATOM     18  C   UNL A   1      34.582  22.364  24.360  1.00  0.00     0.010 C 
ATOM     19  C   UNL A   1      34.856  20.884  24.646  1.00  0.00     0.039 C 
ATOM     20  C   UNL A   1      35.706  22.927  23.477  1.00  0.00     0.039 C 
ATOM     21  C   UNL A   1      36.242  20.754  25.269  1.00  0.00     0.161 C 
ATOM     22  C   UNL A   1      37.046  22.690  24.162  1.00  0.00     0.161 C 
ATOM     23  O   UNL A   1      37.234  21.289  24.389  1.00  0.00    -0.381 OA
ENDBRANCH   9  15
ENDBRANCH   4   6
ENDBRANCH   3   4
ENDBRANCH   2   3
ENDBRANCH   1   2
BRANCH   1  24
ATOM     24  O   UNL A   1      33.956  29.822  27.598  1.00  0.00    -0.458 OA
BRANCH  24  25
ATOM     25  C   UNL A   1      34.712  30.594  28.415  1.00  0.00     0.338 C 
ATOM     26  O   UNL A   1      34.357  31.599  29.006  1.00  0.00    -0.246 OA
BRANCH  25  27
ATOM     27  C   UNL A   1      36.085  30.049  28.494  1.00  0.00     0.060 A 
ATOM     28  C   UNL A   1      36.584  29.548  29.695  1.00  0.00     0.016 A 
ATOM     29  C   UNL A   1      36.919  30.120  27.379  1.00  0.00     0.016 A 
ATOM     30  C   UNL A   1      37.934  29.210  29.814  1.00  0.00     0.010 A 
ATOM     31  C   UNL A   1      38.247  29.681  27.473  1.00  0.00     0.010 A 
ATOM     32  C   UNL A   1      38.787  29.260  28.701  1.00  0.00    -0.014 A 
BRANCH  32  33
ATOM     33  C   UNL A   1      40.239  28.921  28.819  1.00  0.00     0.031 A 
ATOM     34  C   UNL A   1      41.224  29.961  29.304  1.00  0.00     0.074 A 
ATOM     35  C   UNL A   1      40.697  27.693  28.496  1.00  0.00     0.049 A 
ATOM     36  N   UNL A   1      42.533  29.938  29.279  1.00  0.00    -0.248 NA
ATOM     37  C   UNL A   1      40.662  31.195  29.875  1.00  0.00     0.031 C 
ATOM     38  C   UNL A   1      39.877  26.568  28.041  1.00  0.00     0.029 A 
ATOM     39  N   UNL A   1      41.975  27.180  28.504  1.00  0.00    -0.354 N 
ATOM     40  C   UNL A   1      42.947  31.178  29.756  1.00  0.00     0.074 A 
ATOM     41  C   UNL A   1      41.750  31.927  30.075  1.00  0.00     0.031 C 
ATOM     42  C   UNL A   1      40.660  25.493  27.857  1.00  0.00     0.029 A 
ATOM     43  C   UNL A   1      42.049  25.869  28.094  1.00  0.00     0.049 A 
ATOM     44  H   UNL A   1      42.762  27.705  28.777  1.00  0.00     0.167 HD
ATOM     45  C   UNL A   1      44.207  31.653  29.912  1.00  0.00     0.037 A 
ATOM     46  C   UNL A   1      43.112  25.066  27.886  1.00  0.00     0.037 A 
ATOM     47  C   UNL A   1      45.401  30.883  29.676  1.00  0.00     0.049 A 
ATOM     48  C   UNL A   1      44.501  25.607  28.082  1.00  0.00     0.074 A 
ATOM     49  C   UNL A   1      46.722  31.272  29.835  1.00  0.00     0.029 A 
ATOM     50  N   UNL A   1      45.424  29.561  29.260  1.00  0.00    -0.354 N 
ATOM     51  N   UNL A   1      44.871  26.804  28.467  1.00  0.00    -0.248 NA
ATOM     52  C   UNL A   1      45.617  24.696  27.789  1.00  0.00     0.031 C 
ATOM     53  C   UNL A   1      47.543  30.191  29.494  1.00  0.00     0.029 A 
ATOM     54  C   UNL A   1      46.732  29.120  29.155  1.00  0.00     0.049 A 
ATOM     55  H   UNL A   1      44.627  29.016  29.067  1.00  0.00     0.167 HD
ATOM     56  C   UNL A   1      46.261  26.789  28.465  1.00  0.00     0.074 A 
ATOM     57  C   UNL A   1      46.666  25.458  28.063  1.00  0.00     0.031 C 
ATOM     58  C   UNL A   1      47.123  27.792  28.760  1.00  0.00     0.037 A 
BRANCH  45  59
ATOM     59  C   UNL A   1      44.371  33.085  30.337  1.00  0.00     0.058 A 
ATOM     60  C   UNL A   1      44.413  34.137  29.410  1.00  0.00     0.135 A 
ATOM     61  C   UNL A   1      44.433  33.412  31.703  1.00  0.00     0.135 A 
ATOM     62  F   UNL A   1      44.375  33.880  28.093  1.00  0.00    -0.206 F 
ATOM     63  C   UNL A   1      44.528  35.462  29.821  1.00  0.00     0.059 A 
ATOM     64  C   UNL A   1      44.525  34.730  32.137  1.00  0.00     0.059 A 
ATOM     65  F   UNL A   1      44.395  32.442  32.630  1.00  0.00    -0.206 F 
ATOM     66  C   UNL A   1      44.584  35.749  31.186  1.00  0.00     0.060 A 
BRANCH  66  67
ATOM     67  S   UNL A   1      44.717  37.472  31.708  1.00  0.00     0.124 S 
ATOM     68  O   UNL A   1      44.344  37.378  33.117  1.00  0.00    -0.237 OA
ATOM     69  O   UNL A   1      46.121  37.774  31.445  1.00  0.00    -0.237 OA
ATOM     70  O   UNL A   1      43.760  38.162  30.849  1.00  0.00    -0.744 OA
ENDBRANCH  66  67
ENDBRANCH  45  59
BRANCH  46  71
ATOM     71  C   UNL A   1      42.905  23.667  27.425  1.00  0.00     0.058 A 
ATOM     72  C   UNL A   1      42.605  22.644  28.336  1.00  0.00     0.135 A 
ATOM     73  C   UNL A   1      42.995  23.327  26.066  1.00  0.00     0.135 A 
ATOM     74  F   UNL A   1      42.523  22.917  29.648  1.00  0.00    -0.206 F 
ATOM     75  C   UNL A   1      42.407  21.332  27.919  1.00  0.00     0.059 A 
ATOM     76  C   UNL A   1      42.776  22.028  25.622  1.00  0.00     0.059 A 
ATOM     77  F   UNL A   1      43.270  24.272  25.154  1.00  0.00    -0.206 F 
ATOM     78  C   UNL A   1      42.492  21.034  26.558  1.00  0.00     0.060 A 
BRANCH  78  79
ATOM     79  S   UNL A   1      42.175  19.343  26.010  1.00  0.00     0.124 S 
ATOM     80  O   UNL A   1      42.595  18.574  27.175  1.00  0.00    -0.237 OA
ATOM     81  O   UNL A   1      40.740  19.365  25.742  1.00  0.00    -0.237 OA
ATOM     82  O   UNL A   1      43.021  19.214  24.826  1.00  0.00    -0.744 OA
ENDBRANCH  78  79
ENDBRANCH  46  71
BRANCH  58  83
ATOM     83  C   UNL A   1      48.590  27.482  28.683  1.00  0.00     0.058 A 
ATOM     84  C   UNL A   1      49.320  27.684  27.502  1.00  0.00     0.135 A 
ATOM     85  C   UNL A   1      49.279  27.014  29.813  1.00  0.00     0.135 A 
ATOM     86  F   UNL A   1      48.703  28.124  26.394  1.00  0.00    -0.206 F 
ATOM     87  C   UNL A   1      50.683  27.414  27.437  1.00  0.00     0.059 A 
ATOM     88  C   UNL A   1      50.646  26.754  29.776  1.00  0.00     0.059 A 
ATOM     89  F   UNL A   1      48.625  26.812  30.968  1.00  0.00    -0.206 F 
ATOM     90  C   UNL A   1      51.337  26.946  28.580  1.00  0.00     0.060 A 
BRANCH  90  91
ATOM     91  S   UNL A   1      53.112  26.622  28.495  1.00  0.00     0.124 S 
ATOM     92  O   UNL A   1      53.169  25.578  27.477  1.00  0.00    -0.237 OA
ATOM     93  O   UNL A   1      53.652  27.919  28.102  1.00  0.00    -0.237 OA
ATOM     94  O   UNL A   1      53.442  26.197  29.851  1.00  0.00    -0.744 OA
ENDBRANCH  90  91
ENDBRANCH  58  83
ENDBRANCH  32  33
ENDBRANCH  25  27
ENDBRANCH  24  25
ENDBRANCH   1  24
TORSDOF 16
ENDMDL
MODEL 3
REMARK VINA RESULT:     -11.5      6.715     12.248
REMARK SMILES Nc1cc(C(=O)OCCOC(=O)c2ccc(-c3c4nc(c(-c5c(F)cc(S(=O)(=O)[O-])cc5F)c5ccc([nH]5)c(-c5c(F)cc(S(=O)(=O)[O-])cc5F)c5nc(c(-c6c(F)cc(S(=O)(=O)[O-])cc6F)c6ccc3[nH]6)C=C5)C=C4)cc2)ccc1N1CC2(CCOCC2)C1
REMARK SMILES IDX 9 1 8 2 7 3 5 4 6 5 4 6 2 7 3 8 81 9 80 10 79 11 1 12 82 15
REMARK SMILES IDX 83 16 90 17 84 18 85 19 89 20 86 21 88 22 87 23 10 24 11 25
REMARK SMILES IDX 12 26 13 27 14 28 78 29 15 30 77 31 16 32 17 33 18 34 71 35
REMARK SMILES IDX 19 36 76 37 70 38 72 39 20 40 75 41 69 42 68 43 21 45 55 46
REMARK SMILES IDX 34 47 54 48 35 49 38 50 53 51 73 52 36 53 37 54 52 56 74 57
REMARK SMILES IDX 39 58 22 59 23 60 32 61 24 62 25 63 31 64 33 65 26 66 27 67
REMARK SMILES IDX 28 68 29 69 30 70 56 71 57 72 66 73 58 74 59 75 65 76 67 77
REMARK SMILES IDX 60 78 61 79 62 80 63 81 64 82 40 83 41 84 50 85 42 86 43 87
REMARK SMILES IDX 49 88 51 89 44 90 45 91 46 92 47 93 48 94
REMARK H PARENT 1 13 1 14 72 44 38 55
REMARK Flexibility Score: inf
ROOT
ATOM      1  C   UNL A   1      38.950  22.185  26.155  1.00  0.00     0.275 C 
ENDROOT
BRANCH   1   2
ATOM      2  C   UNL A   1      37.839  21.946  25.133  1.00  0.00     0.275 C 
BRANCH   2   3
ATOM      3  O   UNL A   1      36.577  22.430  25.638  1.00  0.00    -0.458 OA
BRANCH   3   4
ATOM      4  C   UNL A   1      35.492  21.709  25.256  1.00  0.00     0.338 C 
ATOM      5  O   UNL A   1      35.354  20.501  25.345  1.00  0.00    -0.246 OA
BRANCH   4   6
ATOM      6  C   UNL A   1      34.404  22.609  24.811  1.00  0.00     0.062 A 
ATOM      7  C   UNL A   1      33.069  23.421  22.925  1.00  0.00     0.056 A 
ATOM      8  C   UNL A   1      34.114  22.646  23.443  1.00  0.00     0.043 A 
ATOM      9  C   UNL A   1      32.401  24.310  23.793  1.00  0.00     0.060 A 
ATOM     10  C   UNL A   1      32.728  24.291  25.168  1.00  0.00     0.029 A 
ATOM     11  C   UNL A   1      33.696  23.426  25.684  1.00  0.00     0.018 A 
BRANCH   7  12
ATOM     12  N   UNL A   1      32.894  23.395  21.545  1.00  0.00    -0.397 N 
ATOM     13  H   UNL A   1      33.257  24.122  20.989  1.00  0.00     0.156 HD
ATOM     14  H   UNL A   1      32.407  22.651  21.124  1.00  0.00     0.156 HD
ENDBRANCH   7  12
BRANCH   9  15
ATOM     15  N   UNL A   1      31.458  25.279  23.381  1.00  0.00    -0.369 N 
ATOM     16  C   UNL A   1      31.612  26.583  22.826  1.00  0.00     0.125 C 
ATOM     17  C   UNL A   1      30.276  25.610  24.128  1.00  0.00     0.125 C 
ATOM     18  C   UNL A   1      30.532  27.095  23.809  1.00  0.00     0.010 C 
ATOM     19  C   UNL A   1      29.361  27.830  23.150  1.00  0.00     0.039 C 
ATOM     20  C   UNL A   1      31.016  27.898  25.026  1.00  0.00     0.039 C 
ATOM     21  C   UNL A   1      29.805  29.249  22.806  1.00  0.00     0.161 C 
ATOM     22  C   UNL A   1      31.373  29.311  24.582  1.00  0.00     0.161 C 
ATOM     23  O   UNL A   1      30.232  29.935  23.986  1.00  0.00    -0.381 OA
ENDBRANCH   9  15
ENDBRANCH   4   6
ENDBRANCH   3   4
ENDBRANCH   2   3
ENDBRANCH   1   2
BRANCH   1  24
ATOM     24  O   UNL A   1      39.052  23.592  26.435  1.00  0.00    -0.458 OA
BRANCH  24  25
ATOM     25  C   UNL A   1      40.292  24.044  26.744  1.00  0.00     0.338 C 
ATOM     26  O   UNL A   1      41.355  23.561  26.394  1.00  0.00    -0.246 OA
BRANCH  25  27
ATOM     27  C   UNL A   1      40.191  25.241  27.608  1.00  0.00     0.060 A 
ATOM     28  C   UNL A   1      41.086  26.300  27.464  1.00  0.00     0.016 A 
ATOM     29  C   UNL A   1      39.248  25.272  28.635  1.00  0.00     0.016 A 
ATOM     30  C   UNL A   1      41.109  27.338  28.398  1.00  0.00     0.010 A 
ATOM     31  C   UNL A   1      39.204  26.367  29.508  1.00  0.00     0.010 A 
ATOM     32  C   UNL A   1      40.160  27.396  29.431  1.00  0.00    -0.014 A 
BRANCH  32  33
ATOM     33  C   UNL A   1      40.185  28.491  30.450  1.00  0.00     0.031 A 
ATOM     34  C   UNL A   1      41.197  28.459  31.572  1.00  0.00     0.074 A 
ATOM     35  C   UNL A   1      39.312  29.520  30.390  1.00  0.00     0.049 A 
ATOM     36  N   UNL A   1      41.252  29.187  32.660  1.00  0.00    -0.248 NA
ATOM     37  C   UNL A   1      42.279  27.467  31.466  1.00  0.00     0.031 C 
ATOM     38  C   UNL A   1      38.294  29.716  29.356  1.00  0.00     0.029 A 
ATOM     39  N   UNL A   1      39.143  30.602  31.222  1.00  0.00    -0.354 N 
ATOM     40  C   UNL A   1      42.321  28.690  33.400  1.00  0.00     0.074 A 
ATOM     41  C   UNL A   1      42.896  27.607  32.632  1.00  0.00     0.031 C 
ATOM     42  C   UNL A   1      37.640  30.865  29.589  1.00  0.00     0.029 A 
ATOM     43  C   UNL A   1      38.128  31.446  30.835  1.00  0.00     0.049 A 
ATOM     44  H   UNL A   1      39.698  30.758  32.021  1.00  0.00     0.167 HD
ATOM     45  C   UNL A   1      42.781  29.096  34.608  1.00  0.00     0.037 A 
ATOM     46  C   UNL A   1      37.611  32.541  31.430  1.00  0.00     0.037 A 
ATOM     47  C   UNL A   1      42.265  30.227  35.337  1.00  0.00     0.049 A 
ATOM     48  C   UNL A   1      38.148  32.984  32.762  1.00  0.00     0.074 A 
ATOM     49  C   UNL A   1      42.688  30.730  36.557  1.00  0.00     0.029 A 
ATOM     50  N   UNL A   1      41.237  31.047  34.904  1.00  0.00    -0.354 N 
ATOM     51  N   UNL A   1      39.114  32.459  33.476  1.00  0.00    -0.248 NA
ATOM     52  C   UNL A   1      37.507  34.153  33.382  1.00  0.00     0.031 C 
ATOM     53  C   UNL A   1      41.900  31.843  36.871  1.00  0.00     0.029 A 
ATOM     54  C   UNL A   1      41.009  32.051  35.831  1.00  0.00     0.049 A 
ATOM     55  H   UNL A   1      40.739  30.933  34.062  1.00  0.00     0.167 HD
ATOM     56  C   UNL A   1      39.197  33.234  34.628  1.00  0.00     0.074 A 
ATOM     57  C   UNL A   1      38.201  34.278  34.504  1.00  0.00     0.031 C 
ATOM     58  C   UNL A   1      40.019  33.087  35.695  1.00  0.00     0.037 A 
BRANCH  45  59
ATOM     59  C   UNL A   1      43.887  28.300  35.243  1.00  0.00     0.058 A 
ATOM     60  C   UNL A   1      43.630  27.198  36.072  1.00  0.00     0.135 A 
ATOM     61  C   UNL A   1      45.228  28.617  34.970  1.00  0.00     0.135 A 
ATOM     62  F   UNL A   1      42.367  26.861  36.378  1.00  0.00    -0.206 F 
ATOM     63  C   UNL A   1      44.666  26.448  36.623  1.00  0.00     0.059 A 
ATOM     64  C   UNL A   1      46.279  27.868  35.492  1.00  0.00     0.059 A 
ATOM     65  F   UNL A   1      45.528  29.662  34.182  1.00  0.00    -0.206 F 
ATOM     66  C   UNL A   1      45.986  26.791  36.327  1.00  0.00     0.060 A 
BRANCH  66  67
ATOM     67  S   UNL A   1      47.321  25.801  37.034  1.00  0.00     0.124 S 
ATOM     68  O   UNL A   1      46.664  24.509  37.207  1.00  0.00    -0.237 OA
ATOM     69  O   UNL A   1      48.342  25.858  35.992  1.00  0.00    -0.237 OA
ATOM     70  O   UNL A   1      47.651  26.508  38.268  1.00  0.00    -0.744 OA
ENDBRANCH  66  67
ENDBRANCH  45  59
BRANCH  46  71
ATOM     71  C   UNL A   1      36.488  33.274  30.787  1.00  0.00     0.058 A 
ATOM     72  C   UNL A   1      35.185  33.184  31.295  1.00  0.00     0.135 A 
ATOM     73  C   UNL A   1      36.697  34.083  29.659  1.00  0.00     0.135 A 
ATOM     74  F   UNL A   1      34.933  32.412  32.364  1.00  0.00    -0.206 F 
ATOM     75  C   UNL A   1      34.124  33.866  30.706  1.00  0.00     0.059 A 
ATOM     76  C   UNL A   1      35.658  34.793  29.067  1.00  0.00     0.059 A 
ATOM     77  F   UNL A   1      37.928  34.208  29.140  1.00  0.00    -0.206 F 
ATOM     78  C   UNL A   1      34.373  34.671  29.593  1.00  0.00     0.060 A 
BRANCH  78  79
ATOM     79  S   UNL A   1      33.009  35.603  28.865  1.00  0.00     0.124 S 
ATOM     80  O   UNL A   1      33.723  36.639  28.127  1.00  0.00    -0.237 OA
ATOM     81  O   UNL A   1      32.336  34.593  28.055  1.00  0.00    -0.237 OA
ATOM     82  O   UNL A   1      32.258  36.058  30.032  1.00  0.00    -0.744 OA
ENDBRANCH  78  79
ENDBRANCH  46  71
BRANCH  58  83
ATOM     83  C   UNL A   1      39.893  34.093  36.803  1.00  0.00     0.058 A 
ATOM     84  C   UNL A   1      39.027  33.883  37.887  1.00  0.00     0.135 A 
ATOM     85  C   UNL A   1      40.674  35.258  36.799  1.00  0.00     0.135 A 
ATOM     86  F   UNL A   1      38.254  32.786  37.931  1.00  0.00    -0.206 F 
ATOM     87  C   UNL A   1      38.924  34.806  38.922  1.00  0.00     0.059 A 
ATOM     88  C   UNL A   1      40.602  36.187  37.833  1.00  0.00     0.059 A 
ATOM     89  F   UNL A   1      41.524  35.499  35.788  1.00  0.00    -0.206 F 
ATOM     90  C   UNL A   1      39.715  35.957  38.884  1.00  0.00     0.060 A 
BRANCH  90  91
ATOM     91  S   UNL A   1      39.595  37.139  40.245  1.00  0.00     0.124 S 
ATOM     92  O   UNL A   1      38.560  36.528  41.072  1.00  0.00    -0.237 OA
ATOM     93  O   UNL A   1      40.944  37.118  40.802  1.00  0.00    -0.237 OA
ATOM     94  O   UNL A   1      39.217  38.382  39.580  1.00  0.00    -0.744 OA
ENDBRANCH  90  91
ENDBRANCH  58  83
ENDBRANCH  32  33
ENDBRANCH  25  27
ENDBRANCH  24  25
ENDBRANCH   1  24
TORSDOF 16
ENDMDL
