MODEL 1
REMARK VINA RESULT:     -10.3      0.000      0.000
REMARK SMILES CN(CCO)C(=O)N[C@H]1C=C[C@@H](C(=O)OCCOC(=O)c2ccc(-c3c4nc(c(-c5c(F)cc(S(=O)(=O)[O-])cc5F)c5ccc([nH]5)c(-c5c(F)cc(S(=O)(=O)[O-])cc5F)c5nc(c(-c6c(F)cc(S(=O)(=O)[O-])cc6F)c6ccc3[nH]6)C=C5)C=C4)cc2)C1
REMARK SMILES IDX 16 1 15 2 13 3 14 4 12 5 9 6 10 7 87 8 11 9 8 10 6 11 7 12
REMARK SMILES IDX 2 14 1 15 3 16 4 17 5 18 17 20 18 21 19 22 20 23 21 24 22 25
REMARK SMILES IDX 86 26 23 27 85 28 24 29 25 30 26 31 79 32 27 33 84 34 78 35
REMARK SMILES IDX 80 36 28 37 83 38 77 39 76 40 29 42 63 43 42 44 62 45 43 46
REMARK SMILES IDX 46 47 61 48 81 49 44 50 45 51 60 53 82 54 47 55 30 56 31 57
REMARK SMILES IDX 40 58 32 59 33 60 39 61 41 62 34 63 35 64 36 65 37 66 38 67
REMARK SMILES IDX 64 68 65 69 74 70 66 71 67 72 73 73 75 74 68 75 69 76 70 77
REMARK SMILES IDX 71 78 72 79 48 80 49 81 58 82 50 83 51 84 57 85 59 86 52 87
REMARK SMILES IDX 53 88 54 89 55 90 56 91
REMARK H PARENT 8 13 5 19 80 41 46 52
REMARK Flexibility Score: inf
ROOT
ATOM      1  C   UNL A   1      40.358  21.426  26.609  1.00  0.00     0.274 C 
ENDROOT
BRANCH   1   2
ATOM      2  O   UNL A   1      41.660  21.635  26.038  1.00  0.00    -0.462 OA
BRANCH   2   3
ATOM      3  C   UNL A   1      42.643  22.066  26.871  1.00  0.00     0.312 C 
ATOM      4  O   UNL A   1      42.612  21.972  28.093  1.00  0.00    -0.252 OA
BRANCH   3   5
ATOM      5  C   UNL A   1      43.820  22.681  26.121  1.00  0.00     0.124 C 
ATOM      6  C   UNL A   1      45.558  21.896  24.529  1.00  0.00     0.107 C 
ATOM      7  C   UNL A   1      44.475  22.711  23.873  1.00  0.00    -0.006 C 
ATOM      8  C   UNL A   1      45.031  21.763  25.954  1.00  0.00     0.048 C 
ATOM      9  C   UNL A   1      43.517  23.101  24.722  1.00  0.00    -0.014 C 
BRANCH   6  10
ATOM     10  N   UNL A   1      45.662  20.656  23.783  1.00  0.00    -0.332 N 
ATOM     11  C   UNL A   1      45.360  19.359  23.921  1.00  0.00     0.317 C 
ATOM     12  O   UNL A   1      45.655  18.672  22.934  1.00  0.00    -0.249 OA
ATOM     13  H   UNL A   1      46.084  20.817  22.908  1.00  0.00     0.165 HD
BRANCH  11  14
ATOM     14  N   UNL A   1      44.784  18.797  25.022  1.00  0.00    -0.326 N 
ATOM     15  C   UNL A   1      45.683  18.102  25.937  1.00  0.00     0.148 C 
BRANCH  14  16
ATOM     16  C   UNL A   1      43.379  18.794  25.452  1.00  0.00     0.149 C 
BRANCH  16  17
ATOM     17  C   UNL A   1      43.099  18.064  26.767  1.00  0.00     0.177 C 
BRANCH  17  18
ATOM     18  O   UNL A   1      42.444  18.886  27.723  1.00  0.00    -0.395 OA
ATOM     19  H   UNL A   1      42.845  18.750  28.596  1.00  0.00     0.210 HD
ENDBRANCH  17  18
ENDBRANCH  16  17
ENDBRANCH  14  16
ENDBRANCH  11  14
ENDBRANCH   6  10
ENDBRANCH   3   5
ENDBRANCH   2   3
ENDBRANCH   1   2
BRANCH   1  20
ATOM     20  C   UNL A   1      39.416  22.539  26.145  1.00  0.00     0.275 C 
BRANCH  20  21
ATOM     21  O   UNL A   1      39.453  23.656  27.056  1.00  0.00    -0.458 OA
BRANCH  21  22
ATOM     22  C   UNL A   1      40.205  24.709  26.668  1.00  0.00     0.338 C 
ATOM     23  O   UNL A   1      40.694  24.914  25.565  1.00  0.00    -0.246 OA
BRANCH  22  24
ATOM     24  C   UNL A   1      40.307  25.681  27.765  1.00  0.00     0.060 A 
ATOM     25  C   UNL A   1      39.320  25.674  28.753  1.00  0.00     0.016 A 
ATOM     26  C   UNL A   1      41.304  26.657  27.769  1.00  0.00     0.016 A 
ATOM     27  C   UNL A   1      39.307  26.658  29.737  1.00  0.00     0.010 A 
ATOM     28  C   UNL A   1      41.306  27.632  28.774  1.00  0.00     0.010 A 
ATOM     29  C   UNL A   1      40.298  27.647  29.756  1.00  0.00    -0.014 A 
BRANCH  29  30
ATOM     30  C   UNL A   1      40.271  28.694  30.805  1.00  0.00     0.031 A 
ATOM     31  C   UNL A   1      41.216  28.624  31.971  1.00  0.00     0.074 A 
ATOM     32  C   UNL A   1      39.402  29.718  30.696  1.00  0.00     0.049 A 
ATOM     33  N   UNL A   1      41.299  29.411  33.012  1.00  0.00    -0.248 NA
ATOM     34  C   UNL A   1      42.193  27.524  31.965  1.00  0.00     0.031 C 
ATOM     35  C   UNL A   1      38.458  29.908  29.594  1.00  0.00     0.029 A 
ATOM     36  N   UNL A   1      39.171  30.787  31.523  1.00  0.00    -0.354 N 
ATOM     37  C   UNL A   1      42.325  28.898  33.796  1.00  0.00     0.074 A 
ATOM     38  C   UNL A   1      42.825  27.720  33.116  1.00  0.00     0.031 C 
ATOM     39  C   UNL A   1      37.750  31.027  29.813  1.00  0.00     0.029 A 
ATOM     40  C   UNL A   1      38.159  31.607  31.088  1.00  0.00     0.049 A 
ATOM     41  H   UNL A   1      39.683  30.950  32.349  1.00  0.00     0.167 HD
ATOM     42  C   UNL A   1      42.808  29.367  34.970  1.00  0.00     0.037 A 
ATOM     43  C   UNL A   1      37.605  32.691  31.665  1.00  0.00     0.037 A 
ATOM     44  C   UNL A   1      42.314  30.545  35.638  1.00  0.00     0.049 A 
ATOM     45  C   UNL A   1      38.127  33.167  32.991  1.00  0.00     0.074 A 
ATOM     46  C   UNL A   1      42.749  31.110  36.824  1.00  0.00     0.029 A 
ATOM     47  N   UNL A   1      41.273  31.338  35.178  1.00  0.00    -0.354 N 
ATOM     48  N   UNL A   1      39.100  32.671  33.719  1.00  0.00    -0.248 NA
ATOM     49  C   UNL A   1      37.476  34.345  33.579  1.00  0.00     0.031 C 
ATOM     50  C   UNL A   1      41.948  32.224  37.099  1.00  0.00     0.029 A 
ATOM     51  C   UNL A   1      41.039  32.376  36.065  1.00  0.00     0.049 A 
ATOM     52  H   UNL A   1      40.774  31.186  34.343  1.00  0.00     0.167 HD
ATOM     53  C   UNL A   1      39.189  33.486  34.841  1.00  0.00     0.074 A 
ATOM     54  C   UNL A   1      38.178  34.514  34.691  1.00  0.00     0.031 C 
ATOM     55  C   UNL A   1      40.029  33.391  35.901  1.00  0.00     0.037 A 
BRANCH  42  56
ATOM     56  C   UNL A   1      43.915  28.591  35.627  1.00  0.00     0.058 A 
ATOM     57  C   UNL A   1      43.650  27.575  36.559  1.00  0.00     0.135 A 
ATOM     58  C   UNL A   1      45.256  28.847  35.297  1.00  0.00     0.135 A 
ATOM     59  F   UNL A   1      42.387  27.302  36.921  1.00  0.00    -0.206 F 
ATOM     60  C   UNL A   1      44.679  26.856  37.160  1.00  0.00     0.059 A 
ATOM     61  C   UNL A   1      46.299  28.126  35.871  1.00  0.00     0.059 A 
ATOM     62  F   UNL A   1      45.562  29.809  34.413  1.00  0.00    -0.206 F 
ATOM     63  C   UNL A   1      46.001  27.143  36.813  1.00  0.00     0.060 A 
BRANCH  63  64
ATOM     64  S   UNL A   1      47.326  26.209  37.607  1.00  0.00     0.124 S 
ATOM     65  O   UNL A   1      48.323  26.160  36.542  1.00  0.00    -0.237 OA
ATOM     66  O   UNL A   1      47.663  27.050  38.751  1.00  0.00    -0.237 OA
ATOM     67  O   UNL A   1      46.695  24.935  37.934  1.00  0.00    -0.744 OA
ENDBRANCH  63  64
ENDBRANCH  42  56
BRANCH  43  68
ATOM     68  C   UNL A   1      36.477  33.387  30.994  1.00  0.00     0.058 A 
ATOM     69  C   UNL A   1      35.164  33.256  31.465  1.00  0.00     0.135 A 
ATOM     70  C   UNL A   1      36.697  34.215  29.881  1.00  0.00     0.135 A 
ATOM     71  F   UNL A   1      34.905  32.468  32.520  1.00  0.00    -0.206 F 
ATOM     72  C   UNL A   1      34.102  33.913  30.852  1.00  0.00     0.059 A 
ATOM     73  C   UNL A   1      35.656  34.899  29.266  1.00  0.00     0.059 A 
ATOM     74  F   UNL A   1      37.939  34.381  29.402  1.00  0.00    -0.206 F 
ATOM     75  C   UNL A   1      34.359  34.736  29.752  1.00  0.00     0.060 A 
BRANCH  75  76
ATOM     76  S   UNL A   1      32.987  35.633  28.997  1.00  0.00     0.124 S 
ATOM     77  O   UNL A   1      32.208  36.016  30.170  1.00  0.00    -0.237 OA
ATOM     78  O   UNL A   1      33.671  36.719  28.302  1.00  0.00    -0.237 OA
ATOM     79  O   UNL A   1      32.373  34.634  28.128  1.00  0.00    -0.744 OA
ENDBRANCH  75  76
ENDBRANCH  43  68
BRANCH  55  80
ATOM     80  C   UNL A   1      39.906  34.439  36.970  1.00  0.00     0.058 A 
ATOM     81  C   UNL A   1      40.619  35.645  36.901  1.00  0.00     0.135 A 
ATOM     82  C   UNL A   1      39.036  34.249  38.056  1.00  0.00     0.135 A 
ATOM     83  F   UNL A   1      41.469  35.870  35.888  1.00  0.00    -0.206 F 
ATOM     84  C   UNL A   1      40.489  36.621  37.884  1.00  0.00     0.059 A 
ATOM     85  C   UNL A   1      38.875  35.221  39.038  1.00  0.00     0.059 A 
ATOM     86  F   UNL A   1      38.326  33.116  38.164  1.00  0.00    -0.206 F 
ATOM     87  C   UNL A   1      39.616  36.400  38.949  1.00  0.00     0.060 A 
BRANCH  87  88
ATOM     88  S   UNL A   1      39.431  37.685  40.204  1.00  0.00     0.124 S 
ATOM     89  O   UNL A   1      39.134  36.893  41.393  1.00  0.00    -0.237 OA
ATOM     90  O   UNL A   1      40.738  38.334  40.186  1.00  0.00    -0.237 OA
ATOM     91  O   UNL A   1      38.328  38.497  39.698  1.00  0.00    -0.744 OA
ENDBRANCH  87  88
ENDBRANCH  55  80
ENDBRANCH  29  30
ENDBRANCH  22  24
ENDBRANCH  21  22
ENDBRANCH  20  21
ENDBRANCH   1  20
TORSDOF 19
ENDMDL
MODEL 2
REMARK VINA RESULT:     -10.3      2.908      4.511
REMARK SMILES CN(CCO)C(=O)N[C@H]1C=C[C@@H](C(=O)OCCOC(=O)c2ccc(-c3c4nc(c(-c5c(F)cc(S(=O)(=O)[O-])cc5F)c5ccc([nH]5)c(-c5c(F)cc(S(=O)(=O)[O-])cc5F)c5nc(c(-c6c(F)cc(S(=O)(=O)[O-])cc6F)c6ccc3[nH]6)C=C5)C=C4)cc2)C1
REMARK SMILES IDX 16 1 15 2 13 3 14 4 12 5 9 6 10 7 87 8 11 9 8 10 6 11 7 12
REMARK SMILES IDX 2 14 1 15 3 16 4 17 5 18 17 20 18 21 19 22 20 23 21 24 22 25
REMARK SMILES IDX 86 26 23 27 85 28 24 29 25 30 26 31 79 32 27 33 84 34 78 35
REMARK SMILES IDX 80 36 28 37 83 38 77 39 76 40 29 42 63 43 42 44 62 45 43 46
REMARK SMILES IDX 46 47 61 48 81 49 44 50 45 51 60 53 82 54 47 55 30 56 31 57
REMARK SMILES IDX 40 58 32 59 33 60 39 61 41 62 34 63 35 64 36 65 37 66 38 67
REMARK SMILES IDX 64 68 65 69 74 70 66 71 67 72 73 73 75 74 68 75 69 76 70 77
REMARK SMILES IDX 71 78 72 79 48 80 49 81 58 82 50 83 51 84 57 85 59 86 52 87
REMARK SMILES IDX 53 88 54 89 55 90 56 91
REMARK H PARENT 8 13 5 19 80 41 46 52
REMARK Flexibility Score: inf
ROOT
ATOM      1  C   UNL A   1      39.651  21.271  26.119  1.00  0.00     0.274 C 
ENDROOT
BRANCH   1   2
ATOM      2  O   UNL A   1      38.413  22.000  26.126  1.00  0.00    -0.462 OA
BRANCH   2   3
ATOM      3  C   UNL A   1      37.543  21.761  25.110  1.00  0.00     0.312 C 
ATOM      4  O   UNL A   1      37.274  20.649  24.670  1.00  0.00    -0.252 OA
BRANCH   3   5
ATOM      5  C   UNL A   1      36.911  23.038  24.566  1.00  0.00     0.124 C 
ATOM      6  C   UNL A   1      34.613  23.861  24.103  1.00  0.00     0.107 C 
ATOM      7  C   UNL A   1      35.226  24.471  25.336  1.00  0.00    -0.006 C 
ATOM      8  C   UNL A   1      35.663  22.827  23.710  1.00  0.00     0.048 C 
ATOM      9  C   UNL A   1      36.448  23.998  25.609  1.00  0.00    -0.014 C 
BRANCH   6  10
ATOM     10  N   UNL A   1      33.323  23.326  24.495  1.00  0.00    -0.332 N 
ATOM     11  C   UNL A   1      32.817  22.277  25.156  1.00  0.00     0.317 C 
ATOM     12  O   UNL A   1      31.581  22.289  25.234  1.00  0.00    -0.249 OA
ATOM     13  H   UNL A   1      32.598  23.912  24.178  1.00  0.00     0.165 HD
BRANCH  11  14
ATOM     14  N   UNL A   1      33.547  21.267  25.707  1.00  0.00    -0.326 N 
ATOM     15  C   UNL A   1      34.088  21.513  27.040  1.00  0.00     0.148 C 
BRANCH  14  16
ATOM     16  C   UNL A   1      33.869  19.937  25.172  1.00  0.00     0.149 C 
BRANCH  16  17
ATOM     17  C   UNL A   1      32.759  18.892  25.304  1.00  0.00     0.177 C 
BRANCH  17  18
ATOM     18  O   UNL A   1      32.721  18.289  26.590  1.00  0.00    -0.395 OA
ATOM     19  H   UNL A   1      32.586  18.975  27.264  1.00  0.00     0.210 HD
ENDBRANCH  17  18
ENDBRANCH  16  17
ENDBRANCH  14  16
ENDBRANCH  11  14
ENDBRANCH   6  10
ENDBRANCH   3   5
ENDBRANCH   2   3
ENDBRANCH   1   2
BRANCH   1  20
ATOM     20  C   UNL A   1      40.788  22.198  26.552  1.00  0.00     0.275 C 
BRANCH  20  21
ATOM     21  O   UNL A   1      40.339  23.566  26.618  1.00  0.00    -0.458 OA
BRANCH  21  22
ATOM     22  C   UNL A   1      41.302  24.509  26.521  1.00  0.00     0.338 C 
ATOM     23  O   UNL A   1      42.208  24.572  25.701  1.00  0.00    -0.246 OA
BRANCH  22  24
ATOM     24  C   UNL A   1      41.075  25.560  27.522  1.00  0.00     0.060 A 
ATOM     25  C   UNL A   1      42.033  26.566  27.658  1.00  0.00     0.016 A 
ATOM     26  C   UNL A   1      39.983  25.501  28.389  1.00  0.00     0.016 A 
ATOM     27  C   UNL A   1      41.921  27.507  28.678  1.00  0.00     0.010 A 
ATOM     28  C   UNL A   1      39.857  26.463  29.399  1.00  0.00     0.010 A 
ATOM     29  C   UNL A   1      40.833  27.462  29.558  1.00  0.00    -0.014 A 
BRANCH  29  30
ATOM     30  C   UNL A   1      40.728  28.465  30.645  1.00  0.00     0.031 A 
ATOM     31  C   UNL A   1      41.642  28.393  31.836  1.00  0.00     0.074 A 
ATOM     32  C   UNL A   1      39.816  29.452  30.549  1.00  0.00     0.049 A 
ATOM     33  N   UNL A   1      41.659  29.141  32.907  1.00  0.00    -0.248 NA
ATOM     34  C   UNL A   1      42.669  27.340  31.817  1.00  0.00     0.031 C 
ATOM     35  C   UNL A   1      38.895  29.643  29.427  1.00  0.00     0.029 A 
ATOM     36  N   UNL A   1      39.512  30.476  31.408  1.00  0.00    -0.354 N 
ATOM     37  C   UNL A   1      42.686  28.645  33.701  1.00  0.00     0.074 A 
ATOM     38  C   UNL A   1      43.259  27.519  32.992  1.00  0.00     0.031 C 
ATOM     39  C   UNL A   1      38.130  30.718  29.667  1.00  0.00     0.029 A 
ATOM     40  C   UNL A   1      38.476  31.267  30.975  1.00  0.00     0.049 A 
ATOM     41  H   UNL A   1      39.992  30.631  32.255  1.00  0.00     0.167 HD
ATOM     42  C   UNL A   1      43.114  29.090  34.907  1.00  0.00     0.037 A 
ATOM     43  C   UNL A   1      37.856  32.300  31.576  1.00  0.00     0.037 A 
ATOM     44  C   UNL A   1      42.546  30.217  35.603  1.00  0.00     0.049 A 
ATOM     45  C   UNL A   1      38.318  32.748  32.934  1.00  0.00     0.074 A 
ATOM     46  C   UNL A   1      42.921  30.754  36.823  1.00  0.00     0.029 A 
ATOM     47  N   UNL A   1      41.483  30.980  35.143  1.00  0.00    -0.354 N 
ATOM     48  N   UNL A   1      39.292  32.268  33.671  1.00  0.00    -0.248 NA
ATOM     49  C   UNL A   1      37.596  33.871  33.546  1.00  0.00     0.031 C 
ATOM     50  C   UNL A   1      42.062  31.819  37.115  1.00  0.00     0.029 A 
ATOM     51  C   UNL A   1      41.176  31.970  36.061  1.00  0.00     0.049 A 
ATOM     52  H   UNL A   1      41.015  30.838  34.288  1.00  0.00     0.167 HD
ATOM     53  C   UNL A   1      39.311  33.042  34.826  1.00  0.00     0.074 A 
ATOM     54  C   UNL A   1      38.258  34.028  34.685  1.00  0.00     0.031 C 
ATOM     55  C   UNL A   1      40.125  32.944  35.905  1.00  0.00     0.037 A 
BRANCH  42  56
ATOM     56  C   UNL A   1      44.236  28.340  35.566  1.00  0.00     0.058 A 
ATOM     57  C   UNL A   1      43.993  27.274  36.447  1.00  0.00     0.135 A 
ATOM     58  C   UNL A   1      45.572  28.672  35.290  1.00  0.00     0.135 A 
ATOM     59  F   UNL A   1      42.734  26.927  36.758  1.00  0.00    -0.206 F 
ATOM     60  C   UNL A   1      45.037  26.580  37.051  1.00  0.00     0.059 A 
ATOM     61  C   UNL A   1      46.631  27.978  35.867  1.00  0.00     0.059 A 
ATOM     62  F   UNL A   1      45.858  29.684  34.456  1.00  0.00    -0.206 F 
ATOM     63  C   UNL A   1      46.354  26.943  36.758  1.00  0.00     0.060 A 
BRANCH  63  64
ATOM     64  S   UNL A   1      47.698  26.040  37.556  1.00  0.00     0.124 S 
ATOM     65  O   UNL A   1      48.596  27.128  37.929  1.00  0.00    -0.237 OA
ATOM     66  O   UNL A   1      47.019  25.372  38.661  1.00  0.00    -0.237 OA
ATOM     67  O   UNL A   1      48.187  25.158  36.501  1.00  0.00    -0.744 OA
ENDBRANCH  63  64
ENDBRANCH  42  56
BRANCH  43  68
ATOM     68  C   UNL A   1      36.716  32.970  30.899  1.00  0.00     0.058 A 
ATOM     69  C   UNL A   1      35.398  32.767  31.329  1.00  0.00     0.135 A 
ATOM     70  C   UNL A   1      36.927  33.844  29.820  1.00  0.00     0.135 A 
ATOM     71  F   UNL A   1      35.148  31.934  32.351  1.00  0.00    -0.206 F 
ATOM     72  C   UNL A   1      34.325  33.400  30.710  1.00  0.00     0.059 A 
ATOM     73  C   UNL A   1      35.874  34.505  29.199  1.00  0.00     0.059 A 
ATOM     74  F   UNL A   1      38.173  34.080  29.379  1.00  0.00    -0.206 F 
ATOM     75  C   UNL A   1      34.574  34.269  29.646  1.00  0.00     0.060 A 
BRANCH  75  76
ATOM     76  S   UNL A   1      33.183  35.133  28.884  1.00  0.00     0.124 S 
ATOM     77  O   UNL A   1      33.844  36.297  28.306  1.00  0.00    -0.237 OA
ATOM     78  O   UNL A   1      32.685  34.143  27.935  1.00  0.00    -0.237 OA
ATOM     79  O   UNL A   1      32.300  35.403  30.015  1.00  0.00    -0.744 OA
ENDBRANCH  75  76
ENDBRANCH  43  68
BRANCH  55  80
ATOM     80  C   UNL A   1      39.924  33.942  37.009  1.00  0.00     0.058 A 
ATOM     81  C   UNL A   1      39.211  33.617  38.173  1.00  0.00     0.135 A 
ATOM     82  C   UNL A   1      40.483  35.227  36.918  1.00  0.00     0.135 A 
ATOM     83  F   UNL A   1      38.650  32.405  38.304  1.00  0.00    -0.206 F 
ATOM     84  C   UNL A   1      39.042  34.538  39.202  1.00  0.00     0.059 A 
ATOM     85  C   UNL A   1      40.345  36.157  37.944  1.00  0.00     0.059 A 
ATOM     86  F   UNL A   1      41.180  35.585  35.829  1.00  0.00    -0.206 F 
ATOM     87  C   UNL A   1      39.611  35.806  39.077  1.00  0.00     0.060 A 
BRANCH  87  88
ATOM     88  S   UNL A   1      39.412  36.985  40.430  1.00  0.00     0.124 S 
ATOM     89  O   UNL A   1      40.766  37.041  40.972  1.00  0.00    -0.237 OA
ATOM     90  O   UNL A   1      38.957  38.187  39.737  1.00  0.00    -0.237 OA
ATOM     91  O   UNL A   1      38.417  36.351  41.289  1.00  0.00    -0.744 OA
ENDBRANCH  87  88
ENDBRANCH  55  80
ENDBRANCH  29  30
ENDBRANCH  22  24
ENDBRANCH  21  22
ENDBRANCH  20  21
ENDBRANCH   1  20
TORSDOF 19
ENDMDL
MODEL 3
REMARK VINA RESULT:     -10.0      4.563     13.041
REMARK SMILES CN(CCO)C(=O)N[C@H]1C=C[C@@H](C(=O)OCCOC(=O)c2ccc(-c3c4nc(c(-c5c(F)cc(S(=O)(=O)[O-])cc5F)c5ccc([nH]5)c(-c5c(F)cc(S(=O)(=O)[O-])cc5F)c5nc(c(-c6c(F)cc(S(=O)(=O)[O-])cc6F)c6ccc3[nH]6)C=C5)C=C4)cc2)C1
REMARK SMILES IDX 16 1 15 2 13 3 14 4 12 5 9 6 10 7 87 8 11 9 8 10 6 11 7 12
REMARK SMILES IDX 2 14 1 15 3 16 4 17 5 18 17 20 18 21 19 22 20 23 21 24 22 25
REMARK SMILES IDX 86 26 23 27 85 28 24 29 25 30 26 31 79 32 27 33 84 34 78 35
REMARK SMILES IDX 80 36 28 37 83 38 77 39 76 40 29 42 63 43 42 44 62 45 43 46
REMARK SMILES IDX 46 47 61 48 81 49 44 50 45 51 60 53 82 54 47 55 30 56 31 57
REMARK SMILES IDX 40 58 32 59 33 60 39 61 41 62 34 63 35 64 36 65 37 66 38 67
REMARK SMILES IDX 64 68 65 69 74 70 66 71 67 72 73 73 75 74 68 75 69 76 70 77
REMARK SMILES IDX 71 78 72 79 48 80 49 81 58 82 50 83 51 84 57 85 59 86 52 87
REMARK SMILES IDX 53 88 54 89 55 90 56 91
REMARK H PARENT 8 13 5 19 80 41 46 52
REMARK Flexibility Score: inf
ROOT
ATOM      1  C   UNL A   1      33.832  34.002  28.214  1.00  0.00     0.274 C 
ENDROOT
BRANCH   1   2
ATOM      2  O   UNL A   1      34.164  34.963  29.230  1.00  0.00    -0.462 OA
BRANCH   2   3
ATOM      3  C   UNL A   1      33.177  35.799  29.643  1.00  0.00     0.312 C 
ATOM      4  O   UNL A   1      32.536  36.539  28.904  1.00  0.00    -0.252 OA
BRANCH   3   5
ATOM      5  C   UNL A   1      32.929  35.720  31.146  1.00  0.00     0.124 C 
ATOM      6  C   UNL A   1      34.291  35.310  33.182  1.00  0.00     0.107 C 
ATOM      7  C   UNL A   1      33.903  36.754  33.008  1.00  0.00    -0.006 C 
ATOM      8  C   UNL A   1      33.779  34.688  31.887  1.00  0.00     0.048 C 
ATOM      9  C   UNL A   1      33.203  36.983  31.890  1.00  0.00    -0.014 C 
BRANCH   6  10
ATOM     10  N   UNL A   1      35.731  35.280  33.364  1.00  0.00    -0.332 N 
ATOM     11  C   UNL A   1      36.778  34.508  33.049  1.00  0.00     0.317 C 
ATOM     12  O   UNL A   1      37.862  34.956  33.446  1.00  0.00    -0.249 OA
ATOM     13  H   UNL A   1      36.028  36.067  33.875  1.00  0.00     0.165 HD
BRANCH  11  14
ATOM     14  N   UNL A   1      36.712  33.332  32.361  1.00  0.00    -0.326 N 
ATOM     15  C   UNL A   1      36.317  32.156  33.129  1.00  0.00     0.148 C 
BRANCH  14  16
ATOM     16  C   UNL A   1      36.963  33.057  30.940  1.00  0.00     0.149 C 
BRANCH  16  17
ATOM     17  C   UNL A   1      37.790  34.115  30.205  1.00  0.00     0.177 C 
BRANCH  17  18
ATOM     18  O   UNL A   1      37.236  34.465  28.944  1.00  0.00    -0.395 OA
ATOM     19  H   UNL A   1      37.916  34.898  28.402  1.00  0.00     0.210 HD
ENDBRANCH  17  18
ENDBRANCH  16  17
ENDBRANCH  14  16
ENDBRANCH  11  14
ENDBRANCH   6  10
ENDBRANCH   3   5
ENDBRANCH   2   3
ENDBRANCH   1   2
BRANCH   1  20
ATOM     20  C   UNL A   1      34.247  32.606  28.682  1.00  0.00     0.275 C 
BRANCH  20  21
ATOM     21  O   UNL A   1      34.617  31.778  27.560  1.00  0.00    -0.458 OA
BRANCH  21  22
ATOM     22  C   UNL A   1      34.608  30.445  27.783  1.00  0.00     0.338 C 
ATOM     23  O   UNL A   1      33.656  29.680  27.715  1.00  0.00    -0.246 OA
BRANCH  22  24
ATOM     24  C   UNL A   1      35.975  29.976  28.053  1.00  0.00     0.060 A 
ATOM     25  C   UNL A   1      36.278  29.515  29.335  1.00  0.00     0.016 A 
ATOM     26  C   UNL A   1      36.974  30.083  27.084  1.00  0.00     0.016 A 
ATOM     27  C   UNL A   1      37.588  29.183  29.668  1.00  0.00     0.010 A 
ATOM     28  C   UNL A   1      38.287  29.724  27.413  1.00  0.00     0.010 A 
ATOM     29  C   UNL A   1      38.604  29.286  28.711  1.00  0.00    -0.014 A 
BRANCH  29  30
ATOM     30  C   UNL A   1      39.997  28.935  29.078  1.00  0.00     0.031 A 
ATOM     31  C   UNL A   1      40.863  29.926  29.804  1.00  0.00     0.074 A 
ATOM     32  C   UNL A   1      40.476  27.714  28.771  1.00  0.00     0.049 A 
ATOM     33  N   UNL A   1      42.118  29.822  30.154  1.00  0.00    -0.248 NA
ATOM     34  C   UNL A   1      40.234  31.201  30.183  1.00  0.00     0.031 C 
ATOM     35  C   UNL A   1      39.720  26.658  28.096  1.00  0.00     0.029 A 
ATOM     36  N   UNL A   1      41.710  27.157  28.983  1.00  0.00    -0.354 N 
ATOM     37  C   UNL A   1      42.438  31.020  30.782  1.00  0.00     0.074 A 
ATOM     38  C   UNL A   1      41.247  31.843  30.749  1.00  0.00     0.031 C 
ATOM     39  C   UNL A   1      40.507  25.581  27.950  1.00  0.00     0.029 A 
ATOM     40  C   UNL A   1      41.832  25.885  28.481  1.00  0.00     0.049 A 
ATOM     41  H   UNL A   1      42.440  27.625  29.452  1.00  0.00     0.167 HD
ATOM     42  C   UNL A   1      43.615  31.396  31.337  1.00  0.00     0.037 A 
ATOM     43  C   UNL A   1      42.899  25.064  28.430  1.00  0.00     0.037 A 
ATOM     44  C   UNL A   1      44.795  30.568  31.375  1.00  0.00     0.049 A 
ATOM     45  C   UNL A   1      44.208  25.521  29.012  1.00  0.00     0.074 A 
ATOM     46  C   UNL A   1      46.031  30.855  31.929  1.00  0.00     0.029 A 
ATOM     47  N   UNL A   1      44.886  29.293  30.836  1.00  0.00    -0.354 N 
ATOM     48  N   UNL A   1      44.493  26.657  29.603  1.00  0.00    -0.248 NA
ATOM     49  C   UNL A   1      45.339  24.590  28.916  1.00  0.00     0.031 C 
ATOM     50  C   UNL A   1      46.879  29.767  31.694  1.00  0.00     0.029 A 
ATOM     51  C   UNL A   1      46.161  28.788  31.027  1.00  0.00     0.049 A 
ATOM     52  H   UNL A   1      44.152  28.818  30.384  1.00  0.00     0.167 HD
ATOM     53  C   UNL A   1      45.833  26.570  29.965  1.00  0.00     0.074 A 
ATOM     54  C   UNL A   1      46.298  25.266  29.536  1.00  0.00     0.031 C 
ATOM     55  C   UNL A   1      46.608  27.487  30.594  1.00  0.00     0.037 A 
BRANCH  42  56
ATOM     56  C   UNL A   1      43.696  32.775  31.927  1.00  0.00     0.058 A 
ATOM     57  C   UNL A   1      44.132  33.876  31.172  1.00  0.00     0.135 A 
ATOM     58  C   UNL A   1      43.304  33.004  33.256  1.00  0.00     0.135 A 
ATOM     59  F   UNL A   1      44.533  33.708  29.902  1.00  0.00    -0.206 F 
ATOM     60  C   UNL A   1      44.199  35.152  31.723  1.00  0.00     0.059 A 
ATOM     61  C   UNL A   1      43.345  34.275  33.820  1.00  0.00     0.059 A 
ATOM     62  F   UNL A   1      42.882  31.985  34.020  1.00  0.00    -0.206 F 
ATOM     63  C   UNL A   1      43.808  35.341  33.050  1.00  0.00     0.060 A 
BRANCH  63  64
ATOM     64  S   UNL A   1      43.910  36.999  33.755  1.00  0.00     0.124 S 
ATOM     65  O   UNL A   1      43.109  36.849  34.966  1.00  0.00    -0.237 OA
ATOM     66  O   UNL A   1      45.345  37.167  33.962  1.00  0.00    -0.237 OA
ATOM     67  O   UNL A   1      43.328  37.845  32.718  1.00  0.00    -0.744 OA
ENDBRANCH  63  64
ENDBRANCH  42  56
BRANCH  43  68
ATOM     68  C   UNL A   1      42.774  23.732  27.786  1.00  0.00     0.058 A 
ATOM     69  C   UNL A   1      42.946  23.578  26.404  1.00  0.00     0.135 A 
ATOM     70  C   UNL A   1      42.500  22.583  28.546  1.00  0.00     0.135 A 
ATOM     71  F   UNL A   1      43.200  24.648  25.636  1.00  0.00    -0.206 F 
ATOM     72  C   UNL A   1      42.844  22.332  25.793  1.00  0.00     0.059 A 
ATOM     73  C   UNL A   1      42.415  21.325  27.961  1.00  0.00     0.059 A 
ATOM     74  F   UNL A   1      42.340  22.679  29.875  1.00  0.00    -0.206 F 
ATOM     75  C   UNL A   1      42.579  21.210  26.581  1.00  0.00     0.060 A 
BRANCH  75  76
ATOM     76  S   UNL A   1      42.506  19.588  25.791  1.00  0.00     0.124 S 
ATOM     77  O   UNL A   1      42.940  18.716  26.876  1.00  0.00    -0.237 OA
ATOM     78  O   UNL A   1      41.100  19.490  25.415  1.00  0.00    -0.237 OA
ATOM     79  O   UNL A   1      43.436  19.720  24.674  1.00  0.00    -0.744 OA
ENDBRANCH  75  76
ENDBRANCH  43  68
BRANCH  55  80
ATOM     80  C   UNL A   1      48.032  27.104  30.876  1.00  0.00     0.058 A 
ATOM     81  C   UNL A   1      48.376  26.322  31.988  1.00  0.00     0.135 A 
ATOM     82  C   UNL A   1      49.060  27.493  30.001  1.00  0.00     0.135 A 
ATOM     83  F   UNL A   1      47.432  25.932  32.857  1.00  0.00    -0.206 F 
ATOM     84  C   UNL A   1      49.695  25.953  32.236  1.00  0.00     0.059 A 
ATOM     85  C   UNL A   1      50.382  27.118  30.218  1.00  0.00     0.059 A 
ATOM     86  F   UNL A   1      48.783  28.235  28.918  1.00  0.00    -0.206 F 
ATOM     87  C   UNL A   1      50.691  26.357  31.346  1.00  0.00     0.060 A 
BRANCH  87  88
ATOM     88  S   UNL A   1      52.395  25.849  31.659  1.00  0.00     0.124 S 
ATOM     89  O   UNL A   1      52.215  24.466  32.087  1.00  0.00    -0.237 OA
ATOM     90  O   UNL A   1      53.024  26.033  30.355  1.00  0.00    -0.237 OA
ATOM     91  O   UNL A   1      52.840  26.775  32.696  1.00  0.00    -0.744 OA
ENDBRANCH  87  88
ENDBRANCH  55  80
ENDBRANCH  29  30
ENDBRANCH  22  24
ENDBRANCH  21  22
ENDBRANCH  20  21
ENDBRANCH   1  20
TORSDOF 19
ENDMDL
